#------------------------------------------------------------------------------
#$Date: 2019-11-03 15:02:20 +0200 (Sun, 03 Nov 2019) $
#$Revision: 221705 $
#$URL: file:///home/coder/svn-repositories/cod/cif/4/12/86/4128624.cif $
#------------------------------------------------------------------------------
#
# This file is available in the Crystallography Open Database (COD),
# http://www.crystallography.net/
#
# All data on this site have been placed in the public domain by the
# contributors.
#
data_4128624
loop_
_publ_author_name
'Sandmeier, Tobias'
'Goetzke, F. Wieland'
'Krautwald, Simon'
'Carreira, Erick M.'
_publ_section_title
;
 Iridium-Catalyzed Enantioselective Allylic Substitution with Aqueous
 Solutions of Nucleophiles.
;
_journal_issue                   31
_journal_name_full               'Journal of the American Chemical Society'
_journal_page_first              12212
_journal_page_last               12218
_journal_paper_doi               10.1021/jacs.9b05830
_journal_volume                  141
_journal_year                    2019
_chemical_absolute_configuration ad
_chemical_formula_moiety         'C15 H14 N4'
_chemical_formula_sum            'C15 H14 N4'
_chemical_formula_weight         250.30
_space_group_crystal_system      monoclinic
_space_group_IT_number           4
_space_group_name_Hall           'P 2yb'
_space_group_name_H-M_alt        'P 1 21 1'
_atom_sites_solution_hydrogens   mixed
_atom_sites_solution_primary     dual
_audit_creation_date             2018-11-13
_audit_creation_method
;
Olex2 1.2
(compiled 2018.05.29 svn.r3508 for OlexSys, GUI svn.r5506)
;
_cell_angle_alpha                90
_cell_angle_beta                 91.2759(7)
_cell_angle_gamma                90
_cell_formula_units_Z            2
_cell_length_a                   5.55961(5)
_cell_length_b                   8.22570(5)
_cell_length_c                   13.54910(8)
_cell_measurement_reflns_used    19588
_cell_measurement_temperature    100.0(1)
_cell_measurement_theta_max      79.2420
_cell_measurement_theta_min      3.2460
_cell_volume                     619.470(8)
_computing_cell_refinement       'CrysAlisPro 1.171.39.31d (Rigaku OD, 2017)'
_computing_data_collection       'CrysAlisPro 1.171.39.31d (Rigaku OD, 2017)'
_computing_data_reduction        'CrysAlisPro 1.171.39.31d (Rigaku OD, 2017)'
_computing_molecular_graphics    'Olex2 (Dolomanov et al., 2009)'
_computing_publication_material  'Olex2 (Dolomanov et al., 2009)'
_computing_structure_refinement  'XL (Sheldrick, 2008)'
_computing_structure_solution    'ShelXT (Sheldrick, 2015)'
_diffrn_ambient_environment      N~2~
_diffrn_ambient_temperature      100.0(1)
_diffrn_detector                 'CCD plate'
_diffrn_detector_type            'Pilatus 300K'
_diffrn_measured_fraction_theta_full 1.000
_diffrn_measured_fraction_theta_max 0.991
_diffrn_measurement_details
;
List of Runs (angles in degrees, time in seconds):

  # Type    Start    End  Width  t~exp~   \w     \q     \k     \f   Frames
--------------------------------------------------------------------------
  1  \w     29.00 121.00   0.50    0.10    --   54.00  81.00-144.19  184
  2  \w     32.00 125.00   0.50    0.10    --   58.00  83.00 -25.33  186
  3  \w     91.00 178.00   0.50    0.10    --  110.00 125.00 150.00  174
  4  \w     65.00 157.00   0.50    0.10    --   90.00  81.00  36.11  184
  5  \w     38.00 128.00   0.50    0.10    --   62.00  79.00-112.09  180
  6  \w     86.00 177.00   0.50    0.10    --  110.00  77.00-180.00  182
  7  \w     86.00 177.00   0.50    0.10    --  110.00  77.00-120.00  182
  8  \w     86.00 177.00   0.50    0.10    --  110.00  77.00 -30.00  182
  9  \w    -95.00  -9.00   0.50    0.10    --  -70.00 125.00 120.00  172
 10  \w     24.00 117.00   0.50    0.10    --   50.00  83.00  27.88  186
 11  \w     45.00 137.00   0.50    0.10    --   70.00  80.00  74.36  184
 12  \w     47.00 136.00   0.50    0.10    --   70.00  75.00 -47.22  178
 13  \w     72.00 160.00   0.50    0.10    --   86.00  49.00 -73.61  176
 14  \w     57.00 145.00   0.50    0.10    --   74.00  61.00 -87.38  176
 15  \w     80.00 168.00   0.50    0.10    --   94.00  49.00   1.89  176
 16  \w     98.00 178.00   0.50    0.10    --  110.00  38.00 -60.00  160
 17  \w     86.00 177.00   0.50    0.10    --  110.00  77.00 -90.00  182
 18  \w     86.00 177.00   0.50    0.10    --  110.00  77.00 -60.00  182
 19  \w     86.00 177.00   0.50    0.10    --  110.00  77.00 120.00  182
 20  \w     86.00 177.00   0.50    0.10    --  110.00  77.00  90.00  182
 21  \w     94.00 178.00   0.50    0.10    --  110.00  57.00  90.00  168
 22  \w     86.00 177.00   0.50    0.10    --  110.00  77.00 150.00  182
 23  \w     98.00 178.00   0.50    0.10    --  110.00  38.00  30.00  160
 24  \w     98.00 178.00   0.50    0.10    --  110.00  38.00 -90.00  160
 25  \w     98.00 178.00   0.50    0.10    --  110.00  38.00-120.00  160
 26  \w     86.00 177.00   0.50    0.10    --  110.00  77.00-150.00  182
 27  \w     94.00 178.00   0.50    0.10    --  110.00  57.00 150.00  168
 28  \w     86.00 177.00   0.50    0.10    --  110.00  77.00  60.00  182
 29  \w     26.00 116.00   0.50    0.10    --   49.37  77.00 -60.00  180
 30  \w     37.00 125.00   0.50    0.10    --   49.37  19.00-120.00  176
 31  \w     37.00 125.00   0.50    0.10    --   49.37  38.00 -30.00  176
 32  \w     26.00 116.00   0.50    0.10    --   49.37  77.00 120.00  180
 33  \w     37.00 125.00   0.50    0.10    --   49.37  38.00 -90.00  176
 34  \w     34.00 121.00   0.50    0.10    --   49.37  57.00 120.00  174
 35  \w     26.00 116.00   0.50    0.10    --   49.37  77.00-180.00  180
 36  \w     40.00 110.00   0.50    0.10    --  110.00 -99.00-120.00  140
 37  \w     40.00 110.00   0.50    0.10    --  110.00 -99.00 -60.00  140
 38  \w     39.00 122.00   0.50    0.10    --  110.00-125.00   0.00  166
 39  \w     40.00 110.00   0.50    0.10    --  110.00 -99.00 120.00  140
 40  \w     40.00 110.00   0.50    0.10    --  110.00 -99.00  90.00  140
 41  \w     57.00 122.00   0.50    0.10    --   49.37-178.00  60.00  130
 42  \w     44.00 134.00   0.50    0.10    --  110.00 -77.00 150.00  180
 43  \w     38.00  84.00   0.50    0.10    --  110.00 -57.00-150.00   92
 44  \w    -16.00  73.00   0.50    0.10    --   49.37 -77.00  60.00  178
 45  \w   -116.00 -26.00   0.50    0.10    --  -49.37 -77.00  30.00  180
 46  \w   -121.00 -34.00   0.50    0.10    --  -49.37 -57.00 120.00  174
 47  \w   -125.00 -36.00   0.50    0.10    --  -49.37 -38.00 150.00  178
 48  \w   -142.00 -54.00   0.50    0.10    --  -70.00 -57.00 120.00  176
 49  \w   -137.00 -46.00   0.50    0.10    --  -70.00 -77.00  90.00  182
 50  \w   -136.00 -47.00   0.50    0.10    --  -70.00 -74.00-177.93  178
 51  \w   -137.00 -46.00   0.50    0.10    --  -70.00 -77.00  30.00  182
 52  \w   -137.00 -46.00   0.50    0.10    --  -70.00 -77.00 -60.00  182
 53  \w   -137.00 -46.00   0.50    0.10    --  -70.00 -77.00  60.00  182
 54  \w   -136.00 -45.00   0.50    0.10    --  -70.00 -79.00-178.47  182
 55  \w   -137.00 -46.00   0.50    0.10    --  -70.00 -77.00 -30.00  182
 56  \w   -140.00 -51.00   0.50    0.10    --  -70.00 -64.00-162.44  178
 57  \w   -137.00 -46.00   0.50    0.10    --  -70.00 -77.00   0.00  182
 58  \w   -128.00 -37.00   0.50    0.10    --  -62.00 -80.00-123.49  182
;
_diffrn_measurement_device       'four-circle diffractometer'
_diffrn_measurement_device_type  'XtaLAB Synergy, Dualflex, Pilatus 300K'
_diffrn_measurement_method       '\w scans'
_diffrn_orient_matrix_type
'CrysAlisPro convention (1999,Acta A55,543-557)'
_diffrn_orient_matrix_UB_11      0.0075776000
_diffrn_orient_matrix_UB_12      0.0010361000
_diffrn_orient_matrix_UB_13      -0.1135383000
_diffrn_orient_matrix_UB_21      0.1003005000
_diffrn_orient_matrix_UB_22      0.1745877000
_diffrn_orient_matrix_UB_23      0.0026094000
_diffrn_orient_matrix_UB_31      0.2583780000
_diffrn_orient_matrix_UB_32      -0.0678213000
_diffrn_orient_matrix_UB_33      0.0050761000
_diffrn_radiation_monochromator  mirror
_diffrn_radiation_probe          x-ray
_diffrn_radiation_type           CuK\a
_diffrn_radiation_wavelength     1.54184
_diffrn_reflns_av_R_equivalents  0.0383
_diffrn_reflns_av_unetI/netI     0.0183
_diffrn_reflns_Laue_measured_fraction_full 1.000
_diffrn_reflns_Laue_measured_fraction_max 0.991
_diffrn_reflns_limit_h_max       7
_diffrn_reflns_limit_h_min       -6
_diffrn_reflns_limit_k_max       10
_diffrn_reflns_limit_k_min       -10
_diffrn_reflns_limit_l_max       17
_diffrn_reflns_limit_l_min       -17
_diffrn_reflns_number            23694
_diffrn_reflns_point_group_measured_fraction_full 1.000
_diffrn_reflns_point_group_measured_fraction_max 0.980
_diffrn_reflns_theta_full        67.684
_diffrn_reflns_theta_max         79.764
_diffrn_reflns_theta_min         3.263
_diffrn_source                   'micro-focus sealed X-ray tube'
_diffrn_source_type              'PhotonJet (Cu) X-ray Source'
_exptl_absorpt_coefficient_mu    0.662
_exptl_absorpt_correction_T_max  1.000
_exptl_absorpt_correction_T_min  0.743
_exptl_absorpt_correction_type   gaussian
_exptl_absorpt_process_details
;
CrysAlisPro 1.171.39.31d (Rigaku Oxford Diffraction, 2017)
Numerical absorption correction based on gaussian integration over
			a multifaceted crystal model
Empirical absorption correction using spherical harmonics,
 implemented in SCALE3 ABSPACK scaling algorithm.
;
_exptl_crystal_colour            'clear colourless'
_exptl_crystal_colour_lustre     clear
_exptl_crystal_colour_primary    colourless
_exptl_crystal_density_diffrn    1.342
_exptl_crystal_description       block
_exptl_crystal_F_000             264
_exptl_crystal_size_max          0.171
_exptl_crystal_size_mid          0.132
_exptl_crystal_size_min          0.046
_refine_diff_density_max         0.123
_refine_diff_density_min         -0.192
_refine_diff_density_rms         0.037
_refine_ls_abs_structure_details
;
 Flack x determined using 1161 quotients [(I+)-(I-)]/[(I+)+(I-)]
 (Parsons, Flack and Wagner, Acta Cryst. B69 (2013) 249-259).
;
_refine_ls_abs_structure_Flack   -0.13(13)
_refine_ls_extinction_method     none
_refine_ls_goodness_of_fit_ref   1.052
_refine_ls_hydrogen_treatment    mixed
_refine_ls_matrix_type           full
_refine_ls_number_parameters     175
_refine_ls_number_reflns         2640
_refine_ls_number_restraints     2
_refine_ls_restrained_S_all      1.052
_refine_ls_R_factor_all          0.0298
_refine_ls_R_factor_gt           0.0293
_refine_ls_shift/su_max          0.000
_refine_ls_shift/su_mean         0.000
_refine_ls_structure_factor_coef Fsqd
_refine_ls_weighting_details
'w=1/[\s^2^(Fo^2^)+(0.0379P)^2^+0.1080P] where P=(Fo^2^+2Fc^2^)/3'
_refine_ls_weighting_scheme      calc
_refine_ls_wR_factor_gt          0.0711
_refine_ls_wR_factor_ref         0.0717
_reflns_Friedel_coverage         0.845
_reflns_Friedel_fraction_full    0.999
_reflns_Friedel_fraction_max     0.966
_reflns_number_gt                2586
_reflns_number_total             2640
_reflns_threshold_expression     'I > 2\s(I)'
_cod_data_source_file            ja9b05830_si_006.cif
_cod_data_source_block           ca121118_1_1
_cod_original_cell_volume        619.470(7)
_cod_database_code               4128624
_shelx_shelxl_version_number     2014/7
_chemical_oxdiff_formula         C15H14N4
_shelx_space_group_comment
;
The symmetry employed for this shelxl refinement is uniquely defined
by the following loop, which should always be used as a source of
symmetry information in preference to the above space-group names.
They are only intended as comments.
;
_reflns_odcompleteness_completeness 100.00
_reflns_odcompleteness_iscentric 1
_reflns_odcompleteness_theta     66.97
_olex2_refinement_description
;
1. Fixed Uiso
 At 1.2 times of:
  All C(H) groups, All C(H,H) groups, All N(H) groups
2. Restrained distances
 N2-H2
 0.93 with sigma of 0.02
3.a Ternary CH refined with riding coordinates:
 C10(H10)
3.b Aromatic/amide H refined with riding coordinates:
 C2(H2A), C4(H4), C6(H6), C7(H7), C8(H8), C9(H9), C11(H11), C12(H12), C13(H13),
  C15(H15)
3.c X=CH2 refined with riding coordinates:
 C14(H14A,H14B)
;
_shelx_res_file
;
    ca121118_1_1.res created by SHELXL-2014/7

TITL ca121118_1_1_a.res in P2(1)
REM Old TITL ca121118_1_1 in P2(1)
REM SHELXT solution in P2(1)
REM R1 0.078, Rweak 0.023, Alpha 0.001, Orientation as input
REM Flack x = 0.009 ( 0.132 ) from Parsons' quotients
REM Formula found by SHELXT: C7 N5
CELL 1.54184 5.559615 8.225701 13.549101 90 91.2759 90
ZERR 2 0.000045 0.000049 0.000084 0 0.0007 0
LATT -1
SYMM -X,0.5+Y,-Z
SFAC C H N
UNIT 30 28 8
DFIX 0.93 N2 H2

L.S. 10
PLAN  20
TEMP -173.1(2)
BOND $H
list 4
fmap 2
acta
REM <olex2.extras>
REM <HklSrc "%.\\ca121118_1_1.hkl">
REM </olex2.extras>

WGHT    0.037900    0.108000
FVAR       1.49283
N1    3    0.327046    0.580584    0.896280    11.00000    0.02123    0.01544 =
         0.01766    0.00009    0.00021   -0.00158
N2    3    0.177951    0.441422    0.899528    11.00000    0.02491    0.01521 =
         0.01827    0.00000    0.00143   -0.00375
H2    2    0.195199    0.399772    0.963404    11.00000   -1.20000
N3    3    0.623553    0.753539    0.915767    11.00000    0.02472    0.02015 =
         0.02630   -0.00023   -0.00281   -0.00125
N4    3    0.422513    0.837453    0.878897    11.00000    0.02650    0.01890 =
         0.02446    0.00112   -0.00045   -0.00050
C1    1    0.347469    0.363376    0.550546    11.00000    0.02134    0.01496 =
         0.02067   -0.00112    0.00028   -0.00175
C2    1    0.249612    0.730937    0.868864    11.00000    0.02496    0.01818 =
         0.02368    0.00107   -0.00054    0.00142
AFIX  43
H2A   2    0.091239    0.755247    0.845568    11.00000   -1.20000
AFIX   0
C3    1    0.139346    0.451546    0.519843    11.00000    0.02070    0.01725 =
         0.02110    0.00024   -0.00006   -0.00217
C4    1    0.384147    0.329133    0.652592    11.00000    0.01869    0.01517 =
         0.02235   -0.00039   -0.00161    0.00083
AFIX  43
H4    2    0.524351    0.271806    0.673792    11.00000   -1.20000
AFIX   0
C5    1    0.220565    0.377447    0.720983    11.00000    0.02121    0.01448 =
         0.01929   -0.00038   -0.00082   -0.00212
C6    1    0.014936    0.467598    0.689974    11.00000    0.02018    0.02026 =
         0.02148   -0.00085    0.00229    0.00137
AFIX  43
H6    2   -0.097510    0.502222    0.737387    11.00000   -1.20000
AFIX   0
C7    1    0.101220    0.483369    0.417492    11.00000    0.02704    0.02147 =
         0.02264    0.00257   -0.00268   -0.00170
AFIX  43
H7    2   -0.037022    0.542382    0.395821    11.00000   -1.20000
AFIX   0
C8    1   -0.023245    0.505263    0.592422    11.00000    0.02078    0.01948 =
         0.02405   -0.00027   -0.00201    0.00228
AFIX  43
H8    2   -0.159846    0.567952    0.573078    11.00000   -1.20000
AFIX   0
C9    1    0.511597    0.310642    0.478804    11.00000    0.02338    0.02190 =
         0.02484   -0.00134    0.00271    0.00003
AFIX  43
H9    2    0.652192    0.252665    0.498816    11.00000   -1.20000
AFIX   0
C10   1    0.248574    0.317581    0.826897    11.00000    0.02050    0.01768 =
         0.01911   -0.00043   -0.00086    0.00213
AFIX  13
H10   2    0.419840    0.285569    0.840009    11.00000   -1.20000
AFIX   0
C11   1    0.088748    0.170094    0.838221    11.00000    0.03087    0.01470 =
         0.01977    0.00069   -0.00294   -0.00004
AFIX  43
H11   2    0.137410    0.073443    0.805883    11.00000   -1.20000
AFIX   0
C12   1    0.469050    0.342648    0.380754    11.00000    0.02782    0.02650 =
         0.02321   -0.00316    0.00581   -0.00263
AFIX  43
H12   2    0.579783    0.305947    0.333225    11.00000   -1.20000
AFIX   0
C13   1    0.559800    0.601148    0.925321    11.00000    0.02419    0.01920 =
         0.02793    0.00042   -0.00359   -0.00026
AFIX  43
H13   2    0.662369    0.516885    0.949253    11.00000   -1.20000
AFIX   0
C14   1   -0.111152    0.162390    0.888460    11.00000    0.03286    0.01819 =
         0.02162    0.00080   -0.00028   -0.00621
AFIX  93
H14A  2   -0.167487    0.255774    0.922120    11.00000   -1.20000
H14B  2   -0.198941    0.063453    0.891021    11.00000   -1.20000
AFIX   0
C15   1    0.263035    0.429289    0.349895    11.00000    0.03212    0.02589 =
         0.02004    0.00278    0.00029   -0.00490
AFIX  43
H15   2    0.235517    0.450616    0.281665    11.00000   -1.20000
AFIX   0
HKLF 4

REM  ca121118_1_1_a.res in P2(1)
REM R1 =  0.0293 for    2586 Fo > 4sig(Fo)  and  0.0298 for all    2640 data
REM    175 parameters refined using      2 restraints

END

WGHT      0.0379      0.1081

REM Highest difference peak  0.123,  deepest hole -0.192,  1-sigma level  0.037
Q1    1   0.0294  0.4970  0.9047  11.00000  0.05    0.12
Q2    1   0.2415  0.3593  0.7749  11.00000  0.05    0.12
Q3    1   0.2223  0.3951  0.5373  11.00000  0.05    0.12
Q4    1   0.3345  0.3868  0.6968  11.00000  0.05    0.12
Q5    1  -0.3342  0.5851  0.7469  11.00000  0.05    0.11
Q6    1   0.8835  0.5300  0.8705  11.00000  0.05    0.11
Q7    1   0.7040  0.2925  0.4851  11.00000  0.05    0.11
Q8    1   0.0316  0.4494  0.5440  11.00000  0.05    0.11
Q9    1   0.1170  0.4514  0.4678  11.00000  0.05    0.10
Q10   1   0.7584  0.7557  0.8984  11.00000  0.05    0.10
Q11   1   0.3446  0.3439  0.5947  11.00000  0.05    0.10
Q12   1  -0.0024  0.7045  0.8727  11.00000  0.05    0.10
Q13   1   0.3985  0.3266  0.5128  11.00000  0.05    0.10
Q14   1   0.0032 -0.0704  0.9229  11.00000  0.05    0.10
Q15   1  -0.2503  0.5173  0.4553  11.00000  0.05    0.10
Q16   1   0.2167  0.2840  0.2117  11.00000  0.05    0.10
Q17   1  -0.2603  0.4548  0.8193  11.00000  0.05    0.09
Q18   1  -0.0494  0.6276  0.9317  11.00000  0.05    0.09
Q19   1  -0.1387  0.3586  0.8212  11.00000  0.05    0.09
Q20   1  -0.1646  0.4635  0.7340  11.00000  0.05    0.09
;
_shelx_res_checksum              53687
_shelx_hkl_file
;
   0 -10   0  101.76    6.26
   0 -10  -1    8.52    1.95
   0 -10  -1    6.42    1.68
   0 -10  -2    1.47    1.12
   0 -10  -2    2.38    1.11
   0 -10  -3    8.79    1.81
   0 -10  -3    7.99    1.54
   0 -10  -4   74.59    4.80
   0  -9   0   -0.47    1.30
   0  -9   0   -0.43    1.31
   0  -9   0   -0.48    1.34
   0  -9  -1   74.54    7.25
   0  -9  -1   70.34    6.69
   0  -9   1   84.62    7.48
   0  -9   1   96.06    8.26
   0  -9  -1   76.99    7.34
   0  -9   1   81.90    7.44
   0  -9   2   71.99    7.21
   0  -9  -2   73.72    7.17
   0  -9   2   62.74    6.46
   0  -9  -3   36.92    4.95
   0  -9   3   26.28    4.31
   0  -9   3   30.13    4.42
   0  -9  -4   35.94    4.75
   0  -9   4   35.07    4.76
   0  -9   4   34.47    5.09
   0  -9   4   42.12    5.23
   0  -9   5   60.21    5.83
   0  -9  -5   57.06    5.71
   0  -9  -5   72.92    5.49
   0  -9   5   64.03    6.54
   0  -9   5   59.04    5.95
   0  -9   6  124.55    7.99
   0  -9  -6  112.44    7.41
   0  -9  -6  106.75    5.79
   0  -9   6  112.47    8.19
   0  -9   6  111.15    7.59
   0  -9  -6  125.94    7.82
   0  -9  -7   91.13    6.12
   0  -9   7   88.27    5.98
   0  -9   7   95.42    6.69
   0  -9  -7   93.50    6.01
   0  -9  -8  162.89    7.51
   0  -9  -8  167.42    7.89
   0  -8   0  559.96   24.82
   0  -8   0  480.26   24.13
   0  -8   0  518.49   22.64
   0  -8   0  504.47   23.74
   0  -8   0  527.63   24.53
   0  -8   0  514.35   25.54
   0  -8  -1   25.63    4.74
   0  -8   1   22.85    3.64
   0  -8   1   30.80    5.74
   0  -8  -1   21.16    4.45
   0  -8   1   23.35    4.50
   0  -8  -1   20.51    4.36
   0  -8   1   21.58    4.61
   0  -8  -1   23.80    4.75
   0  -8   1   21.35    4.67
   0  -8   2   24.43    4.95
   0  -8   2   24.26    5.18
   0  -8  -2   19.10    4.09
   0  -8   2   24.77    3.94
   0  -8   2   23.23    4.64
   0  -8   2   26.47    5.06
   0  -8  -2   29.95    4.74
   0  -8  -2   24.40    4.80
   0  -8  -2   23.93    4.60
   0  -8  -2   14.36    3.81
   0  -8   2   27.74    4.73
   0  -8   3   83.58    8.04
   0  -8   3   82.67    7.55
   0  -8  -3   78.37    8.16
   0  -8   3   74.59    8.82
   0  -8   3   78.21    7.99
   0  -8  -3   80.17    7.47
   0  -8  -3   94.60    9.01
   0  -8  -3   77.64    8.15
   0  -8   3   85.32    8.77
   0  -8  -3   81.61    8.11
   0  -8   4   91.82    9.66
   0  -8  -4  113.46    9.87
   0  -8  -4   96.91    8.98
   0  -8  -4  100.05    9.29
   0  -8  -4  109.24    9.26
   0  -8   4  107.29    9.07
   0  -8   4   97.99    8.36
   0  -8   4  114.76   10.12
   0  -8  -5  110.10    9.30
   0  -8  -5  111.56    9.17
   0  -8  -5  117.04    9.72
   0  -8  -5  112.32    9.11
   0  -8  -5  117.72    9.73
   0  -8   5  111.29   10.46
   0  -8   5  107.62    9.61
   0  -8   5  102.61    8.24
   0  -8   5  104.43    7.64
   0  -8  -6  366.92   17.03
   0  -8   6  385.80   19.93
   0  -8   6  383.81   18.60
   0  -8   6  337.09   15.31
   0  -8  -6  375.77   17.78
   0  -8  -6  364.39   17.85
   0  -8   6  329.87   14.75
   0  -8  -6  371.22   18.25
   0  -8   7  134.90   10.66
   0  -8  -7  128.96    7.51
   0  -8   7  119.14    8.13
   0  -8   7  133.07   10.51
   0  -8  -7  146.31   10.28
   0  -8  -7  146.15    9.95
   0  -8   8   65.50    6.87
   0  -8  -8   70.98    6.49
   0  -8  -8   65.12    6.03
   0  -8  -8   80.91    7.07
   0  -8   8   62.99    6.65
   0  -8  -8   71.05    5.91
   0  -8   8   67.41    5.55
   0  -8   9   43.41    4.89
   0  -8  -9   37.43    4.46
   0  -8   9   35.41    3.55
   0  -8   9   41.83    4.99
   0  -8  -9   44.05    4.51
   0  -8  -9   43.42    3.65
   0  -8  -9   46.01    4.77
   0  -8 -10   11.80    2.14
   0  -8  10   11.59    2.24
   0  -8 -10    9.09    1.88
   0  -8 -10    9.18    2.02
   0  -8 -11   18.28    2.06
   0  -8 -11   20.96    2.16
   0  -8 -11   17.61    1.94
   0  -7   0    1.45    2.03
   0  -7   0    2.00    2.01
   0  -7   0    0.61    1.39
   0  -7   0   -0.66    1.84
   0  -7   0    0.99    1.69
   0  -7   0   -0.64    1.64
   0  -7   0    0.62    1.72
   0  -7   0    0.40    1.01
   0  -7   0    0.41    1.06
   0  -7  -1  270.18   14.62
   0  -7   1  272.83   17.89
   0  -7  -1  289.89   16.04
   0  -7   1  268.69   16.20
   0  -7  -1  271.15   16.82
   0  -7   1  288.32   15.46
   0  -7   1  253.13   16.20
   0  -7  -1  284.15   17.78
   0  -7   1  256.49   14.16
   0  -7  -1  277.00   16.26
   0  -7  -1  270.45   15.29
   0  -7   1  261.61   14.06
   0  -7  -1  272.49   16.51
   0  -7   1  266.76   17.10
   0  -7  -1  274.93   16.68
   0  -7   1  281.16   16.71
   0  -7  -1  264.16   12.84
   0  -7  -1  286.11   17.35
   0  -7   2 1171.06   42.86
   0  -7  -2 1164.90   43.90
   0  -7   2 1217.97   45.56
   0  -7   2 1235.27   43.82
   0  -7   2 1221.24   42.56
   0  -7  -2 1177.11   43.18
   0  -7   2 1220.49   39.85
   0  -7  -2 1261.24   43.74
   0  -7   2 1212.98   40.34
   0  -7  -2 1240.02   43.67
   0  -7  -2 1179.31   41.97
   0  -7  -2 1279.80   41.28
   0  -7  -2 1342.23   43.35
   0  -7  -3  325.39   17.85
   0  -7   3  343.90   18.97
   0  -7   3  312.80   17.87
   0  -7  -3  326.91   18.58
   0  -7  -3  327.83   18.41
   0  -7   3  328.17   17.65
   0  -7  -3  312.38   17.41
   0  -7  -3  310.66   18.07
   0  -7   3  295.73   15.72
   0  -7   3  343.95   20.16
   0  -7  -4  116.12   10.47
   0  -7   4  111.32    9.29
   0  -7   4  122.01    9.76
   0  -7   4  113.77    9.96
   0  -7  -4  106.71    9.50
   0  -7  -4  141.63   11.37
   0  -7   4  119.76   11.68
   0  -7   4  119.29   10.60
   0  -7  -4  122.28    9.80
   0  -7  -4  111.03   10.02
   0  -7  -4  114.02   10.12
   0  -7   4  127.73   10.04
   0  -7   5  228.77   16.15
   0  -7  -5  233.55   14.89
   0  -7  -5  208.46   13.98
   0  -7  -5  228.25   14.81
   0  -7  -5  224.89   14.76
   0  -7   5  233.73   15.30
   0  -7  -5  212.01   13.99
   0  -7   5  199.43   13.30
   0  -7   5  223.42   13.91
   0  -7   6   63.88    6.77
   0  -7  -6   71.84    7.81
   0  -7   6   81.69    8.07
   0  -7   6   82.09    8.67
   0  -7  -6   71.09    7.99
   0  -7   6   82.52    9.62
   0  -7  -6   67.45    7.38
   0  -7   6   62.19    8.27
   0  -7  -6   68.12    7.98
   0  -7  -6   72.80    7.87
   0  -7  -7  242.93   15.34
   0  -7   7  244.04   16.93
   0  -7   7  262.38   15.34
   0  -7  -7  272.03   15.63
   0  -7  -7  239.93   13.99
   0  -7   7  252.28   13.01
   0  -7  -7  241.79   12.72
   0  -7   7  245.51   16.67
   0  -7  -8  129.82    9.69
   0  -7  -8  137.61   10.55
   0  -7  -8  133.38   10.82
   0  -7   8  130.39   11.76
   0  -7   8  133.39   11.58
   0  -7   8  121.01    8.61
   0  -7   9   42.59    6.47
   0  -7  -9   49.05    6.10
   0  -7  -9   48.23    5.91
   0  -7  -9   47.17    5.11
   0  -7   9   49.97    6.52
   0  -7 -10   44.40    5.31
   0  -7 -10   41.94    5.17
   0  -7  10   37.54    5.22
   0  -7  10   34.81    5.43
   0  -7 -11  138.66    8.89
   0  -7 -11  150.24    8.73
   0  -7 -11  153.48    8.96
   0  -7 -12    1.02    0.93
   0  -7 -12    0.67    0.91
   0  -7 -12    1.04    0.82
   0  -6   0  386.97   19.04
   0  -6   0  386.61   20.34
   0  -6   0  377.65   19.32
   0  -6   0  379.48   19.77
   0  -6   0  377.44   16.29
   0  -6   0  415.84   18.15
   0  -6   0  388.79   16.83
   0  -6   0  362.62   18.50
   0  -6   0  371.69   14.22
   0  -6   0  368.78   18.92
   0  -6   0  371.30   17.40
   0  -6   0  359.19   13.85
   0  -6  -1  562.61   25.10
   0  -6  -1  560.06   24.45
   0  -6  -1  562.31   23.45
   0  -6  -1  606.02   23.22
   0  -6   1  546.57   24.64
   0  -6  -1  600.14   21.24
   0  -6  -1  635.13   24.31
   0  -6   1  587.78   22.45
   0  -6  -1  536.73   19.93
   0  -6  -1  663.57   25.45
   0  -6  -1  575.37   24.67
   0  -6  -1  583.12   26.30
   0  -6   1  560.45   22.61
   0  -6   1  552.13   26.23
   0  -6  -1  610.70   25.99
   0  -6   1  599.80   25.17
   0  -6  -1  558.22   20.54
   0  -6   1  574.65   24.51
   0  -6  -2   95.73    8.72
   0  -6  -2   89.25    8.43
   0  -6   2   80.73    8.13
   0  -6  -2   70.03    8.13
   0  -6   2   73.08    6.63
   0  -6  -2   89.48    6.74
   0  -6  -2   91.81    7.08
   0  -6   2  105.07    9.19
   0  -6  -2   73.12    7.68
   0  -6  -2   73.74    8.11
   0  -6  -2   85.95    7.96
   0  -6  -2   86.62    8.05
   0  -6  -2   82.14    8.40
   0  -6  -2   80.39    5.89
   0  -6   2   82.21    8.21
   0  -6   2   89.66    7.28
   0  -6  -2   93.78    7.96
   0  -6   2   79.73    8.77
   0  -6   3   40.52    5.26
   0  -6   3   38.14    4.56
   0  -6  -3   29.00    4.93
   0  -6  -3   35.41    4.42
   0  -6  -3   33.49    5.20
   0  -6  -3   33.03    3.80
   0  -6  -3   41.06    5.65
   0  -6  -3   39.35    5.58
   0  -6   3   41.89    5.87
   0  -6   3   34.54    5.08
   0  -6  -3   33.90    4.95
   0  -6  -3   29.05    4.87
   0  -6  -3   38.52    4.82
   0  -6   3   35.05    5.41
   0  -6  -3   29.67    5.24
   0  -6   3   33.42    3.75
   0  -6   3   36.67    6.20
   0  -6   3   19.56    4.56
   0  -6  -3   42.02    5.75
   0  -6  -4   33.17    4.77
   0  -6  -4   32.68    5.20
   0  -6   4   28.70    3.84
   0  -6   4   31.86    5.76
   0  -6  -4   39.20    5.74
   0  -6  -4   38.41    4.88
   0  -6   4   39.27    5.62
   0  -6  -4   34.72    4.30
   0  -6   4   27.97    4.69
   0  -6  -4   32.96    5.18
   0  -6  -4   31.82    4.80
   0  -6  -4   29.99    5.21
   0  -6  -4   31.45    4.05
   0  -6  -4   32.56    4.96
   0  -6   4   37.27    5.12
   0  -6   4   29.19    3.76
   0  -6   4   32.61    4.84
   0  -6   4   23.18    4.93
   0  -6   4   35.89    5.59
   0  -6   5  553.72   25.01
   0  -6  -5  589.73   23.29
   0  -6  -5  622.33   26.41
   0  -6   5  688.77   26.32
   0  -6  -5  614.18   26.37
   0  -6  -5  623.58   26.17
   0  -6  -5  643.33   26.42
   0  -6  -5  621.61   23.41
   0  -6  -5  620.73   25.67
   0  -6   5  610.58   25.56
   0  -6   5  605.69   26.31
   0  -6  -5  593.16   26.34
   0  -6   5  602.73   28.57
   0  -6   5  611.26   28.80
   0  -6   5  554.27   22.45
   0  -6  -5  616.76   26.01
   0  -6   5  599.56   24.03
   0  -6  -5  581.15   24.25
   0  -6  -6  179.71   13.01
   0  -6  -6  228.43   14.11
   0  -6  -6  206.42   12.54
   0  -6  -6  202.22   13.56
   0  -6   6  213.42   14.25
   0  -6  -6  196.02   13.15
   0  -6  -6  229.02   14.37
   0  -6  -6  220.00   13.41
   0  -6   6  228.33   14.06
   0  -6   6  195.77   11.69
   0  -6  -6  204.95   12.34
   0  -6   6  208.28   15.53
   0  -6   6  200.17   13.64
   0  -6   6  206.08   13.09
   0  -6   6  222.44   15.85
   0  -6  -6  198.01   13.92
   0  -6   6  214.48   12.37
   0  -6   7  466.17   20.95
   0  -6  -7  490.00   22.64
   0  -6   7  493.99   25.63
   0  -6  -7  510.18   24.13
   0  -6  -7  486.82   22.15
   0  -6  -7  485.10   21.51
   0  -6  -7  481.07   23.35
   0  -6  -7  516.57   23.03
   0  -6  -7  554.25   25.64
   0  -6  -7  521.12   23.82
   0  -6  -7  512.38   23.57
   0  -6  -7  498.94   22.54
   0  -6   7  560.14   27.18
   0  -6   7  497.42   21.52
   0  -6   7  470.71   22.89
   0  -6   7  491.95   22.72
   0  -6   8   26.06    5.33
   0  -6  -8   29.00    5.31
   0  -6  -8   20.64    3.97
   0  -6   8   24.05    5.58
   0  -6  -8   15.97    3.44
   0  -6  -8   20.52    4.73
   0  -6  -8   19.59    3.88
   0  -6  -8   22.72    4.45
   0  -6   8   20.86    4.09
   0  -6  -8   19.01    4.18
   0  -6   8   22.91    4.46
   0  -6  -8   24.77    4.35
   0  -6   8   18.67    3.85
   0  -6   8   19.18    4.30
   0  -6   9   57.24    6.75
   0  -6  -9   47.13    6.54
   0  -6   9   40.64    5.50
   0  -6   9   53.78    7.89
   0  -6  -9   52.20    6.65
   0  -6  -9   54.05    5.99
   0  -6  -9   42.99    6.40
   0  -6   9   41.34    6.12
   0  -6   9   66.91    8.32
   0  -6  -9   61.11    7.85
   0  -6 -10   75.46    6.33
   0  -6  10   83.75    8.13
   0  -6 -10   95.68    8.24
   0  -6 -10   77.35    8.01
   0  -6  10   85.39    9.01
   0  -6  10  102.69   10.47
   0  -6 -10   90.61    8.48
   0  -6  10   94.58    8.33
   0  -6 -11   63.79    6.75
   0  -6 -11   67.00    6.59
   0  -6  11   57.87    6.15
   0  -6 -11   69.07    6.74
   0  -6  11   68.08    8.02
   0  -6 -12  127.61    8.62
   0  -6 -12  137.34    8.71
   0  -6  12  143.62   10.53
   0  -6  13   11.38    2.66
   0  -6 -13    6.81    1.62
   0  -6 -13    8.49    1.67
   0  -6 -13    7.57    1.89
   0  -6  14   41.39    3.34
   0  -6 -14   46.11    3.17
   0  -5   0   -0.42    1.16
   0  -5   0    0.58    1.05
   0  -5   0    0.35    1.21
   0  -5   0    1.17    1.00
   0  -5   0    0.22    0.78
   0  -5   0   -0.85    1.08
   0  -5   0    0.11    0.34
   0  -5   1  327.05   12.01
   0  -5   1  327.29   11.81
   0  -5  -1  318.19   11.74
   0  -5  -1  323.49   15.88
   0  -5   1  353.66   16.34
   0  -5  -1  328.09   13.63
   0  -5  -1  311.60   15.53
   0  -5  -1  332.49   13.25
   0  -5   1  326.05   15.88
   0  -5  -1  334.01   15.72
   0  -5  -1  346.67   15.38
   0  -5   1  332.75   11.82
   0  -5  -1  349.23   13.68
   0  -5  -2  396.42   14.50
   0  -5   2  406.28   18.00
   0  -5   2  402.39   19.12
   0  -5   2  381.42   14.19
   0  -5  -2  404.95   17.80
   0  -5   2  340.16   12.01
   0  -5  -2  418.89   17.50
   0  -5  -2  377.80   17.05
   0  -5  -2  404.88   16.14
   0  -5  -2  379.17   15.36
   0  -5  -2  416.04   17.98
   0  -5   2  400.86   17.99
   0  -5  -2  397.72   14.41
   0  -5   2  371.90   16.11
   0  -5   2  406.95   16.16
   0  -5   3  468.24   17.01
   0  -5  -3  450.13   19.11
   0  -5   3  462.65   19.78
   0  -5   3  477.62   20.75
   0  -5  -3  425.05   17.80
   0  -5   3  402.52   15.95
   0  -5  -3  432.50   18.98
   0  -5  -3  412.17   16.25
   0  -5  -3  416.73   17.18
   0  -5   3  432.85   18.04
   0  -5   3  420.51   20.59
   0  -5   3  436.75   19.47
   0  -5  -3  407.46   14.59
   0  -5  -3  451.70   19.19
   0  -5   4   34.29    3.68
   0  -5  -4   35.21    5.07
   0  -5  -4   25.76    4.30
   0  -5  -4   38.35    5.01
   0  -5  -4   40.64    5.19
   0  -5  -4   36.58    4.30
   0  -5  -4   35.82    4.81
   0  -5   4   42.39    5.74
   0  -5  -4   34.86    4.75
   0  -5   4   37.32    5.67
   0  -5  -4   35.55    4.87
   0  -5  -4   32.04    4.27
   0  -5   4   35.26    4.10
   0  -5  -4   44.58    5.66
   0  -5   4   31.90    4.44
   0  -5  -4   37.61    5.37
   0  -5   4   41.23    6.07
   0  -5   4   34.30    4.91
   0  -5  -5  357.34   17.35
   0  -5   5  461.54   22.12
   0  -5  -5  377.75   19.20
   0  -5  -5  401.82   17.57
   0  -5  -5  385.64   19.05
   0  -5   5  473.23   21.82
   0  -5   5  404.09   19.37
   0  -5   5  373.26   20.54
   0  -5   5  405.58   17.30
   0  -5   5  434.98   19.15
   0  -5  -5  423.45   20.04
   0  -5   5  408.10   19.30
   0  -5  -5  381.71   17.17
   0  -5   5  417.78   18.55
   0  -5  -5  424.56   19.05
   0  -5  -5  409.12   19.00
   0  -5  -5  391.58   17.38
   0  -5  -5  419.68   20.24
   0  -5   6  305.93   16.81
   0  -5  -6  302.15   16.41
   0  -5   6  286.86   16.05
   0  -5   6  324.50   18.68
   0  -5  -6  288.77   16.97
   0  -5  -6  296.36   16.14
   0  -5  -6  293.14   15.60
   0  -5  -6  296.19   17.34
   0  -5   6  298.81   17.31
   0  -5  -6  319.79   16.40
   0  -5   6  269.56   17.38
   0  -5  -6  336.80   16.54
   0  -5  -6  312.79   15.99
   0  -5  -6  291.41   15.02
   0  -5   6  309.90   15.85
   0  -5  -6  286.42   16.37
   0  -5   6  267.00   15.14
   0  -5  -6  302.52   16.04
   0  -5  -7  110.41    9.40
   0  -5  -7  124.18    9.57
   0  -5   7  118.45   10.67
   0  -5   7  125.49   11.61
   0  -5  -7  107.29    9.28
   0  -5   7  115.45   11.14
   0  -5  -7  110.06    9.07
   0  -5  -7  118.85    9.46
   0  -5  -7  117.35    9.75
   0  -5  -7  110.34   10.43
   0  -5  -7  103.82    9.66
   0  -5  -7  128.62   10.92
   0  -5   7  111.70    9.29
   0  -5  -7  111.04    8.08
   0  -5   7  114.23    9.13
   0  -5   7  110.65   10.08
   0  -5  -8   57.24    6.91
   0  -5  -8   51.03    6.01
   0  -5  -8   57.12    7.65
   0  -5  -8   56.58    7.50
   0  -5  -8   65.97    7.44
   0  -5   8   62.38    8.22
   0  -5  -8   56.14    5.96
   0  -5   8   52.41    6.42
   0  -5   8   63.16    6.91
   0  -5  -8   59.71    6.76
   0  -5  -8   47.91    6.27
   0  -5  -8   49.56    6.79
   0  -5   8   57.88    8.28
   0  -5   8   57.37    7.40
   0  -5  -8   46.40    5.84
   0  -5   8   54.86    6.47
   0  -5  -8   58.70    6.50
   0  -5  -9    8.62    3.39
   0  -5  -9   12.32    3.71
   0  -5   9   15.25    4.01
   0  -5   9   10.23    3.35
   0  -5  -9   13.01    3.68
   0  -5  -9   10.07    3.52
   0  -5   9   11.30    2.98
   0  -5  -9   10.03    2.99
   0  -5  -9   10.03    2.81
   0  -5   9   11.11    3.88
   0  -5  -9   14.89    3.79
   0  -5   9   14.99    3.54
   0  -5  -9   13.01    3.04
   0  -5   9    8.87    3.69
   0  -5  -9    8.77    2.92
   0  -5  -9    9.47    2.74
   0  -5   9   14.53    3.67
   0  -5 -10   56.79    7.67
   0  -5  10   50.90    7.03
   0  -5 -10   53.50    6.71
   0  -5  10   57.61    8.22
   0  -5 -10   55.11    7.40
   0  -5  10   57.69    6.80
   0  -5  10   57.88    8.01
   0  -5 -10   50.41    6.73
   0  -5 -10   60.91    7.05
   0  -5 -10   56.59    7.74
   0  -5  11  382.51   20.29
   0  -5 -11  401.70   21.80
   0  -5  11  408.85   19.88
   0  -5 -11  422.36   22.09
   0  -5  11  451.29   23.54
   0  -5 -11  440.53   20.62
   0  -5 -11  375.09   19.35
   0  -5 -12  194.80   13.89
   0  -5 -12  218.92   12.43
   0  -5  12  218.55   13.25
   0  -5  12  216.12   14.97
   0  -5 -12  217.98   14.53
   0  -5 -12  231.71   13.41
   0  -5  12  202.14   13.12
   0  -5  13   16.03    3.25
   0  -5 -13   12.94    2.53
   0  -5  13   12.23    3.34
   0  -5 -13   11.54    2.56
   0  -5 -13   12.84    2.55
   0  -5 -13   20.90    3.60
   0  -5  14    3.68    1.48
   0  -5 -14    1.99    0.83
   0  -5 -14    7.67    1.94
   0  -5  14    4.93    1.94
   0  -5 -15   47.04    3.49
   0  -4   0  103.30    7.00
   0  -4   0   93.29    5.24
   0  -4   0   95.32    6.83
   0  -4   0   93.36    5.43
   0  -4   0   95.88    6.37
   0  -4   0   95.51    6.78
   0  -4   0   98.12    4.45
   0  -4   0   92.52    4.39
   0  -4   1   60.08    4.67
   0  -4   1   57.81    5.30
   0  -4   1   63.91    5.46
   0  -4   1   60.44    5.85
   0  -4  -1   59.55    5.23
   0  -4   1   63.18    4.93
   0  -4   1   59.68    3.87
   0  -4   1   52.07    2.29
   0  -4  -1   64.23    5.18
   0  -4  -1   74.30    4.25
   0  -4  -1   59.27    4.23
   0  -4   1   56.71    3.76
   0  -4  -1   69.51    5.58
   0  -4  -1   66.02    5.51
   0  -4   1   69.98    5.97
   0  -4   1   57.77    3.70
   0  -4   2  118.47    5.42
   0  -4   2  120.60    8.05
   0  -4  -2  115.01    7.63
   0  -4  -2  124.20    7.94
   0  -4  -2  128.01    6.26
   0  -4   2  133.36    8.40
   0  -4   2  117.46    8.54
   0  -4  -2  125.38    7.76
   0  -4  -2  123.73    6.50
   0  -4   2  121.34    5.38
   0  -4  -2  124.32    7.87
   0  -4   2  139.26    8.73
   0  -4   2  112.79    6.24
   0  -4   2  121.88    7.24
   0  -4  -3   16.96    3.14
   0  -4   3   12.98    2.12
   0  -4   3   13.03    2.66
   0  -4   3   14.50    2.51
   0  -4   3   22.92    3.55
   0  -4  -3   14.85    2.71
   0  -4   3   21.93    3.58
   0  -4  -3   15.10    2.87
   0  -4   3   12.34    2.20
   0  -4   3   19.32    1.66
   0  -4   3   15.91    3.35
   0  -4  -3   20.34    3.12
   0  -4  -3   17.44    2.01
   0  -4  -3   10.61    2.46
   0  -4  -3   13.10    2.59
   0  -4   3   14.59    1.50
   0  -4  -3   17.63    2.71
   0  -4   4   27.12    2.83
   0  -4  -4   33.77    3.92
   0  -4   4   27.25    3.65
   0  -4   4   25.84    4.27
   0  -4  -4   27.13    3.96
   0  -4  -4   30.22    4.01
   0  -4   4   25.82    3.92
   0  -4  -4   28.97    3.69
   0  -4   4   23.85    1.77
   0  -4  -4   30.28    3.92
   0  -4  -4   24.43    4.10
   0  -4   4   28.60    2.55
   0  -4  -4   25.50    3.86
   0  -4  -4   26.95    3.41
   0  -4  -4   22.33    3.41
   0  -4   4   27.78    2.51
   0  -4   4   32.69    4.53
   0  -4   5  121.59    7.99
   0  -4   5  123.48    8.79
   0  -4  -5  122.85    9.62
   0  -4  -5  119.60    9.11
   0  -4   5  127.64    6.74
   0  -4  -5  140.77    9.73
   0  -4  -5  131.05    8.07
   0  -4  -5  121.11    8.10
   0  -4   5  130.50    6.83
   0  -4  -5  128.57    8.68
   0  -4  -5  142.80    8.99
   0  -4   5  146.02    9.98
   0  -4   5  120.92    6.06
   0  -4   5  131.20   10.34
   0  -4   5  145.04    9.03
   0  -4  -6   31.84    4.52
   0  -4   6   26.43    3.25
   0  -4   6   28.18    3.96
   0  -4   6   17.58    2.70
   0  -4  -6   33.19    4.87
   0  -4   6   29.02    4.31
   0  -4  -6   24.63    3.76
   0  -4  -6   27.40    4.13
   0  -4  -6   23.27    4.37
   0  -4   6   24.20    4.64
   0  -4   6   35.48    5.06
   0  -4  -6   24.38    4.22
   0  -4  -6   28.28    4.37
   0  -4  -6   28.39    4.11
   0  -4  -6   26.88    4.01
   0  -4  -6   29.78    4.17
   0  -4  -7   69.34    6.97
   0  -4  -7   92.52    8.62
   0  -4  -7   92.03    8.63
   0  -4  -7   98.35    7.98
   0  -4  -7   89.91    7.90
   0  -4  -7   78.36    8.18
   0  -4   7   87.64    6.55
   0  -4  -7   89.75    7.17
   0  -4   7   88.41    6.54
   0  -4  -7   88.13    7.49
   0  -4   7   84.35    8.40
   0  -4   7   83.90    7.44
   0  -4  -7   87.48    7.41
   0  -4  -7   85.62    8.66
   0  -4  -7   99.26    7.80
   0  -4   7   80.89    8.68
   0  -4   7   70.65    7.04
   0  -4  -7   90.18    7.75
   0  -4   7   74.19    8.56
   0  -4   7   90.41    8.58
   0  -4  -7   85.28    7.72
   0  -4  -7   87.55    8.17
   0  -4   7   78.38    7.32
   0  -4  -8   31.55    5.02
   0  -4   8   39.24    5.91
   0  -4  -8   33.55    5.54
   0  -4  -8   34.41    5.16
   0  -4  -8   35.26    5.89
   0  -4   8   43.77    5.95
   0  -4   8   29.32    4.63
   0  -4   8   27.08    4.36
   0  -4   8   42.26    6.68
   0  -4   8   37.98    4.68
   0  -4  -8   36.44    5.74
   0  -4  -8   31.12    5.16
   0  -4  -8   35.38    5.24
   0  -4  -8   28.67    4.40
   0  -4  -8   31.24    4.96
   0  -4   8   37.22    6.17
   0  -4  -8   39.51    5.00
   0  -4  -8   35.84    4.82
   0  -4   8   37.16    4.48
   0  -4   8   37.41    5.18
   0  -4  -8   34.80    4.37
   0  -4  -8   40.56    5.24
   0  -4  -8   34.35    5.63
   0  -4   8   35.01    4.96
   0  -4  -8   40.85    5.10
   0  -4  -9   15.13    3.96
   0  -4  -9   21.99    4.34
   0  -4  -9   10.96    2.72
   0  -4  -9   18.72    3.46
   0  -4   9   24.68    5.16
   0  -4   9   17.12    3.98
   0  -4   9   16.36    3.27
   0  -4   9   15.95    4.52
   0  -4  -9   11.50    2.72
   0  -4   9   21.36    3.82
   0  -4   9   14.79    3.41
   0  -4  -9   20.33    4.72
   0  -4   9   20.60    4.07
   0  -4  -9   12.65    3.16
   0  -4  -9   16.07    3.19
   0  -4  -9   20.52    4.48
   0  -4   9   13.01    2.99
   0  -4  -9   19.43    4.47
   0  -4  -9   16.48    3.73
   0  -4  -9   20.74    4.33
   0  -4 -10  114.35   11.33
   0  -4 -10   85.28    7.36
   0  -4 -10  113.22   10.89
   0  -4  10  103.18    9.47
   0  -4  10  101.16    8.53
   0  -4 -10  106.25    9.98
   0  -4  10  101.70    8.45
   0  -4 -10  114.66   10.91
   0  -4  10  104.01    9.31
   0  -4  10   96.72   10.25
   0  -4 -10  100.92    8.89
   0  -4  10  113.41   11.57
   0  -4 -10  117.59   11.06
   0  -4 -10  120.53   10.16
   0  -4 -10  107.39    8.54
   0  -4  11  432.24   23.42
   0  -4 -11  395.45   19.96
   0  -4 -11  352.03   18.99
   0  -4 -11  357.38   21.25
   0  -4  11  414.27   20.37
   0  -4 -11  359.91   19.74
   0  -4 -11  399.74   21.76
   0  -4 -11  399.33   21.78
   0  -4 -11  368.72   18.65
   0  -4  11  375.24   17.96
   0  -4 -12  148.73   10.88
   0  -4  12  157.07   11.79
   0  -4  12  157.88   13.16
   0  -4 -12  161.28   12.93
   0  -4 -12  153.83   10.49
   0  -4 -12  156.50   11.77
   0  -4  12  160.43   10.61
   0  -4 -12  162.63   12.89
   0  -4  13    3.54    2.00
   0  -4 -13    4.82    2.05
   0  -4  13    9.06    3.38
   0  -4 -13    6.01    2.74
   0  -4 -13    3.66    2.31
   0  -4 -13    2.74    1.52
   0  -4 -13    4.94    2.58
   0  -4  14    8.15    2.79
   0  -4 -14    6.72    2.21
   0  -4  15   18.31    2.78
   0  -4 -15   18.46    2.82
   0  -4  15   17.51    3.16
   0  -3   0    0.74    0.79
   0  -3   0    0.09    0.48
   0  -3   0    0.65    1.00
   0  -3   0   -0.23    0.89
   0  -3   0   -0.22    0.93
   0  -3   0   -0.31    0.73
   0  -3  -1  304.92   11.06
   0  -3   1  273.66   11.19
   0  -3  -1  277.08   11.01
   0  -3   1  277.10   10.36
   0  -3   1  274.01    7.70
   0  -3  -1  280.97   11.22
   0  -3   1  251.25    7.03
   0  -3  -1  284.21   11.14
   0  -3   1  249.05    8.82
   0  -3  -1  273.85    9.60
   0  -3   1  288.53   10.46
   0  -3  -1  280.88   11.11
   0  -3  -1  269.70    9.88
   0  -3   1  286.54    9.42
   0  -3   1  310.58   11.85
   0  -3  -1  288.63   10.23
   0  -3   1  272.04   11.24
   0  -3   2  699.54   19.64
   0  -3  -2  704.33   22.40
   0  -3   2  721.35   19.67
   0  -3  -2  695.90   22.81
   0  -3   2  705.14   22.82
   0  -3  -2  725.94   22.88
   0  -3  -2  725.64   21.65
   0  -3   2  692.41   19.01
   0  -3  -2  752.72   22.60
   0  -3  -2  706.88   22.58
   0  -3   2  751.79   22.15
   0  -3  -2  727.05   21.25
   0  -3  -2  710.94   20.20
   0  -3  -3  646.38   20.76
   0  -3  -3  689.78   22.82
   0  -3   3  634.98   18.52
   0  -3  -3  675.20   21.35
   0  -3  -3  644.84   21.23
   0  -3   3  638.06   17.99
   0  -3  -3  630.72   21.70
   0  -3   3  637.91   19.34
   0  -3   3  651.89   18.59
   0  -3  -3  655.16   21.85
   0  -3  -3  671.78   21.28
   0  -3   3  610.54   20.03
   0  -3   3  679.74   21.04
   0  -3  -3  646.19   20.39
   0  -3   3  649.99   21.65
   0  -3   4   23.25    2.41
   0  -3  -4   32.38    3.47
   0  -3  -4   27.07    3.26
   0  -3   4   24.57    2.27
   0  -3  -4   30.47    3.28
   0  -3  -4   20.99    1.12
   0  -3   4   26.99    2.43
   0  -3  -4   26.47    3.61
   0  -3  -4   25.62    3.16
   0  -3   4   27.71    3.08
   0  -3  -4   17.48    2.94
   0  -3  -4   27.77    3.19
   0  -3   4   26.83    3.71
   0  -3   4   26.75    3.21
   0  -3  -4   24.53    3.36
   0  -3  -4   29.68    3.70
   0  -3   4   24.13    2.46
   0  -3   5  381.51   15.44
   0  -3   5  347.09   12.76
   0  -3   5  340.28   15.07
   0  -3   5  334.37   13.72
   0  -3  -5  319.15   13.72
   0  -3   5  337.76   15.87
   0  -3   5  342.98   12.75
   0  -3  -5  343.35   15.04
   0  -3  -5  319.13    9.81
   0  -3   5  335.93   14.10
   0  -3  -5  342.51   15.15
   0  -3   5  336.99   12.27
   0  -3  -5  355.23   14.25
   0  -3  -5  291.46   13.11
   0  -3  -5  349.75   15.65
   0  -3  -5  345.55   15.04
   0  -3  -5  362.21   14.63
   0  -3   6 1002.89   36.27
   0  -3   6 1079.86   34.04
   0  -3  -6 1015.63   28.81
   0  -3  -6 1178.79   34.78
   0  -3   6 1054.09   32.40
   0  -3   6 1128.33   35.91
   0  -3   6 1084.95   33.90
   0  -3   6 1092.97   32.05
   0  -3  -6 1145.27   33.99
   0  -3  -6 1100.44   35.67
   0  -3  -6 1101.10   33.72
   0  -3   6 1098.17   32.62
   0  -3  -6 1146.30   36.44
   0  -3  -6 1145.78   34.97
   0  -3   6 1030.98   33.64
   0  -3  -6 1131.98   35.91
   0  -3   6 1307.96   36.60
   0  -3  -6 1044.16   35.32
   0  -3  -7  297.56   14.57
   0  -3   7  303.93   13.59
   0  -3   7  304.76   15.84
   0  -3  -7  324.31   14.31
   0  -3  -7  306.00   16.35
   0  -3   7  326.15   17.09
   0  -3  -7  288.50   13.58
   0  -3  -7  296.82   10.68
   0  -3   7  319.69   13.43
   0  -3  -7  300.17   15.64
   0  -3  -7  298.81   15.56
   0  -3   7  301.53   14.12
   0  -3   7  316.60   14.49
   0  -3  -7  321.64   15.31
   0  -3   7  315.27   14.74
   0  -3  -7  300.24   15.82
   0  -3   8   32.85    4.48
   0  -3  -8   39.22    4.97
   0  -3   8   39.67    6.13
   0  -3  -8   42.28    5.32
   0  -3  -8   40.48    5.60
   0  -3  -8   36.44    4.45
   0  -3  -8   41.86    5.39
   0  -3   8   33.28    4.23
   0  -3   8   37.68    4.88
   0  -3  -8   43.13    5.84
   0  -3  -8   39.21    4.73
   0  -3   8   31.45    4.21
   0  -3   8   42.15    5.87
   0  -3  -8   44.83    4.88
   0  -3   8   33.82    4.45
   0  -3  -8   37.19    4.99
   0  -3   8   38.91    5.14
   0  -3  -8   31.90    5.14
   0  -3  -8   37.38    5.38
   0  -3  -9   29.36    4.38
   0  -3   9   25.81    3.82
   0  -3  -9   25.65    3.92
   0  -3   9   26.60    4.43
   0  -3  -9   27.30    4.93
   0  -3   9   29.41    4.39
   0  -3  -9   32.15    4.98
   0  -3  -9   27.62    4.40
   0  -3  -9   23.89    3.77
   0  -3  -9   35.33    5.50
   0  -3  -9   33.98    5.18
   0  -3  -9   22.97    4.29
   0  -3   9   29.85    4.67
   0  -3   9   35.64    5.13
   0  -3   9   29.73    5.29
   0  -3  -9   26.49    4.85
   0  -3   9   26.13    5.01
   0  -3  -9   19.61    4.26
   0  -3   9   25.96    3.92
   0  -3  -9   21.22    3.86
   0  -3   9   27.30    5.37
   0  -3 -10   13.90    3.81
   0  -3 -10   11.79    3.59
   0  -3  10    7.42    3.40
   0  -3 -10   12.33    3.14
   0  -3 -10   13.42    3.56
   0  -3  10   12.95    3.30
   0  -3  10   10.83    2.78
   0  -3 -10   12.65    3.73
   0  -3 -10   10.71    2.61
   0  -3  10   12.63    3.76
   0  -3 -10   12.57    3.55
   0  -3 -10    8.06    2.82
   0  -3 -10   13.51    2.84
   0  -3  10   10.88    3.65
   0  -3  10   11.28    3.05
   0  -3 -10    9.43    3.09
   0  -3 -10   12.36    3.10
   0  -3  10   12.61    3.09
   0  -3  10    8.31    2.77
   0  -3 -10    7.02    2.76
   0  -3 -11  793.21   33.41
   0  -3 -11  806.97   30.11
   0  -3  11  819.85   32.14
   0  -3 -11  788.83   30.98
   0  -3 -11  848.39   34.51
   0  -3 -11  792.24   31.49
   0  -3  11  859.64   34.71
   0  -3 -11  787.06   34.14
   0  -3  11  752.35   29.95
   0  -3  11  822.87   35.08
   0  -3  11  850.42   31.86
   0  -3 -11  817.02   33.85
   0  -3  11  842.65   35.08
   0  -3 -11  871.86   32.79
   0  -3  11  824.46   30.15
   0  -3 -11  744.09   32.06
   0  -3 -12  244.75   15.01
   0  -3  12  196.59   15.57
   0  -3  12  265.72   15.49
   0  -3 -12  263.61   15.64
   0  -3 -12  250.10   14.46
   0  -3  12  233.59   13.63
   0  -3  12  237.89   14.92
   0  -3 -12  234.72   15.70
   0  -3  12  249.22   16.59
   0  -3 -12  234.36   16.16
   0  -3 -12  246.04   16.44
   0  -3 -12  239.74   13.30
   0  -3  12  215.18   13.05
   0  -3  12  241.11   14.54
   0  -3 -12  248.08   16.44
   0  -3 -13  134.16   10.52
   0  -3 -13  154.58   11.14
   0  -3 -13  129.73    8.43
   0  -3  13  128.10   10.45
   0  -3  13  125.03    9.22
   0  -3  13  154.12   12.26
   0  -3 -13  131.51   11.54
   0  -3 -13  135.58   11.67
   0  -3 -13  141.20   11.76
   0  -3  13  145.69   10.63
   0  -3  13  141.29   12.25
   0  -3  14    0.55    1.53
   0  -3 -14    1.70    1.58
   0  -3  14   -0.43    1.31
   0  -3  14    1.79    2.04
   0  -3 -14    4.98    2.37
   0  -3 -14    1.10    1.54
   0  -3 -14    0.46    1.28
   0  -3 -15   41.92    4.63
   0  -3  15   41.10    5.38
   0  -3 -15   45.92    4.77
   0  -3  15   39.46    4.97
   0  -3  16   49.68    4.28
   0  -3 -16   52.12    4.15
   0  -2   0 4815.86  119.51
   0  -2   0 4843.68  118.59
   0  -2   0 4765.67  117.94
   0  -2   0 5126.48  118.82
   0  -2   0 4895.85  120.09
   0  -2   0 5006.58  120.22
   0  -2   1 6741.37  162.97
   0  -2   1 7144.73  165.27
   0  -2  -1 6470.62  163.99
   0  -2   1 6999.13  165.28
   0  -2   1 6720.40  164.28
   0  -2  -1 7082.87  164.96
   0  -2  -1 6434.43  163.57
   0  -2  -1 6986.24  165.12
   0  -2  -1 6782.45  164.95
   0  -2   1 6761.66  163.06
   0  -2  -1 6690.43  164.89
   0  -2  -1 6985.50  165.84
   0  -2  -2   99.93    5.38
   0  -2   2  108.36    5.38
   0  -2  -2  103.77    4.89
   0  -2  -2  105.32    5.48
   0  -2  -2   96.40    4.93
   0  -2   2  100.09    4.99
   0  -2   2  101.01    4.09
   0  -2  -2  108.27    5.19
   0  -2  -2   99.45    5.30
   0  -2  -2  106.72    5.67
   0  -2   2  101.10    4.78
   0  -2   2   99.40    5.42
   0  -2  -2  106.55    5.26
   0  -2  -2  100.07    3.18
   0  -2  -3 1576.01   44.78
   0  -2   3 1654.81   44.16
   0  -2   3 1653.56   42.95
   0  -2   3 1641.56   44.73
   0  -2  -3 1638.49   45.00
   0  -2  -3 1722.43   44.47
   0  -2  -3 1683.92   44.31
   0  -2   3 1840.48   45.36
   0  -2  -3 1736.15   44.23
   0  -2  -3 1655.25   44.89
   0  -2   3 1715.59   44.09
   0  -2  -3 1747.96   44.56
   0  -2  -3 1611.11   45.33
   0  -2  -3 1736.57   44.29
   0  -2  -3 1616.99   41.43
   0  -2   3 1727.12   45.03
   0  -2  -4  258.24   10.21
   0  -2  -4  246.85   10.73
   0  -2   4  268.86   10.99
   0  -2   4  256.35   10.26
   0  -2   4  243.43    9.41
   0  -2  -4  247.73   10.78
   0  -2   4  254.53   10.55
   0  -2  -4  247.34   10.21
   0  -2  -4  259.27   11.14
   0  -2  -4  257.39   10.06
   0  -2  -4  259.12    8.33
   0  -2   4  246.94   10.03
   0  -2  -4  257.27   10.82
   0  -2  -4  250.76   10.42
   0  -2  -5   99.20    6.60
   0  -2   5   96.62    5.94
   0  -2   5  108.32    6.36
   0  -2  -5  111.32    6.92
   0  -2   5  100.06    6.66
   0  -2   5  100.48    5.76
   0  -2  -5   90.37    5.62
   0  -2  -5   87.27    4.61
   0  -2  -5   98.20    5.82
   0  -2  -5   88.36    6.05
   0  -2   5   92.42    4.62
   0  -2  -5   91.91    5.97
   0  -2   5  101.27    6.47
   0  -2  -5  102.98    6.73
   0  -2   5  102.98    6.31
   0  -2   5   96.60    5.71
   0  -2  -5  105.26    6.85
   0  -2  -6 1268.37   36.52
   0  -2   6 1203.02   35.44
   0  -2  -6 1223.82   36.54
   0  -2  -6 1276.92   37.75
   0  -2   6 1288.48   36.55
   0  -2   6 1182.03   33.17
   0  -2   6 1164.40   37.97
   0  -2  -6 1147.32   34.77
   0  -2   6 1160.34   36.63
   0  -2  -6 1243.56   37.56
   0  -2   6 1205.41   35.53
   0  -2  -6 1193.91   37.24
   0  -2   6 1288.55   37.77
   0  -2  -6 1258.28   37.37
   0  -2  -6 1229.94   35.44
   0  -2   6 1212.94   36.13
   0  -2  -6 1237.31   33.52
   0  -2   6 1176.52   35.29
   0  -2  -7   27.57    3.00
   0  -2   7   31.27    3.88
   0  -2  -7   23.20    3.06
   0  -2  -7   22.49    3.14
   0  -2   7   25.18    4.07
   0  -2  -7   29.85    4.00
   0  -2   7   24.41    4.17
   0  -2   7   22.35    3.31
   0  -2   7   24.49    3.26
   0  -2   7   25.40    2.87
   0  -2  -7   25.77    4.06
   0  -2  -7   28.29    3.36
   0  -2  -7   25.01    3.96
   0  -2  -7   27.84    4.10
   0  -2  -7   26.58    3.86
   0  -2  -7   32.23    4.04
   0  -2   7   30.94    3.77
   0  -2   7   26.92    3.40
   0  -2  -8  116.36    7.78
   0  -2   8  123.39    9.60
   0  -2  -8  124.42    9.28
   0  -2  -8  118.91    7.14
   0  -2  -8  115.28    7.64
   0  -2   8  127.72    8.78
   0  -2   8  123.71   10.00
   0  -2   8  138.44    8.67
   0  -2   8  107.96    6.74
   0  -2   8  127.26    8.61
   0  -2   8  111.55    8.06
   0  -2  -8  121.63    8.80
   0  -2  -8  122.08    9.29
   0  -2  -8  120.79    9.19
   0  -2   8  111.40    7.32
   0  -2  -8  118.43    8.69
   0  -2  -8  122.05    9.45
   0  -2   9   26.57    3.46
   0  -2  -9   27.22    4.74
   0  -2  -9   28.22    3.55
   0  -2   9   30.38    4.45
   0  -2  -9   23.21    3.81
   0  -2  -9   24.37    4.05
   0  -2   9   36.40    4.91
   0  -2  -9   25.21    3.69
   0  -2   9   23.22    3.66
   0  -2  -9   24.56    4.10
   0  -2  -9   21.98    3.38
   0  -2   9   25.76    4.70
   0  -2   9   22.88    4.56
   0  -2  -9   29.36    4.44
   0  -2   9   30.06    4.47
   0  -2  -9   18.50    3.95
   0  -2  -9   19.53    4.05
   0  -2  -9   23.54    3.97
   0  -2   9   25.38    4.86
   0  -2  -9   26.84    4.74
   0  -2  -9   25.75    4.29
   0  -2 -10  310.43   16.41
   0  -2 -10  333.82   14.74
   0  -2  10  333.90   15.52
   0  -2 -10  319.18   18.23
   0  -2  10  341.85   17.32
   0  -2 -10  287.13   14.32
   0  -2 -10  297.28   16.56
   0  -2 -10  356.99   17.91
   0  -2  10  314.33   14.16
   0  -2  10  331.83   16.93
   0  -2  10  308.40   18.16
   0  -2  10  317.54   16.83
   0  -2  10  339.53   19.24
   0  -2 -10  312.03   14.64
   0  -2 -10  311.76   17.79
   0  -2  10  308.54   16.53
   0  -2 -10  339.17   18.41
   0  -2 -10  303.64   16.04
   0  -2 -10  299.75   17.38
   0  -2 -10  331.37   15.80
   0  -2 -10  325.27   18.19
   0  -2 -10  309.69   16.62
   0  -2  10  352.58   19.70
   0  -2 -11  129.20   11.37
   0  -2  11  138.37   10.88
   0  -2  11  126.29   10.22
   0  -2  11  134.87   11.85
   0  -2 -11  120.74   10.01
   0  -2 -11  126.80   11.41
   0  -2  11  115.96    8.07
   0  -2  11  131.64   12.07
   0  -2  11  121.49   10.07
   0  -2 -11  119.80    8.88
   0  -2  11  145.00   12.12
   0  -2 -11  126.47   10.52
   0  -2  11  116.48    9.70
   0  -2  11  110.00    9.67
   0  -2 -11  121.15    9.72
   0  -2 -11  110.40   10.41
   0  -2 -11  125.41   11.12
   0  -2 -11  119.35   10.16
   0  -2  12  106.70    9.87
   0  -2 -12   90.72    8.14
   0  -2 -12  112.94    9.86
   0  -2  12  119.03   10.09
   0  -2 -12  104.86    9.54
   0  -2 -12  104.81   10.47
   0  -2 -12   98.67   10.05
   0  -2 -12  118.15   10.99
   0  -2 -12  100.12   10.16
   0  -2  12  119.42   11.65
   0  -2  12  121.52   11.39
   0  -2  12  105.62    9.51
   0  -2  12  102.49    9.35
   0  -2  12   91.32    8.69
   0  -2 -12  120.67   10.48
   0  -2  12  131.29   11.92
   0  -2  13   48.04    5.97
   0  -2 -13   53.68    7.31
   0  -2  13   60.11    7.11
   0  -2 -13   61.57    8.09
   0  -2 -13   73.28    7.61
   0  -2  13   59.90    7.04
   0  -2  13   59.88    7.90
   0  -2  13   67.87    8.52
   0  -2  13   54.42    7.23
   0  -2  13   62.87    7.09
   0  -2 -13   52.27    7.08
   0  -2  13   52.60    7.59
   0  -2 -13   52.91    6.81
   0  -2 -13   62.48    7.22
   0  -2  14    3.26    1.92
   0  -2 -14    5.21    2.64
   0  -2 -14    4.97    2.34
   0  -2 -14    4.20    2.24
   0  -2  14    1.92    2.20
   0  -2 -14    0.60    1.37
   0  -2  14    4.32    2.54
   0  -2 -14    5.60    2.35
   0  -2  14    5.20    2.30
   0  -2  15    8.53    2.76
   0  -2 -15   10.31    2.69
   0  -2  15   12.30    3.23
   0  -2 -15   13.54    2.99
   0  -2 -16   36.96    3.31
   0  -2 -16   41.61    4.12
   0  -2  16   31.01    4.07
   0  -2 -16   43.08    4.39
   0  -1   0   -0.20    0.41
   0  -1   0    0.03    0.25
   0  -1   0    0.26    0.33
   0  -1   1 1065.45   26.48
   0  -1  -1 1057.97   27.28
   0  -1  -1 1078.68   27.38
   0  -1   1 1067.65   26.55
   0  -1  -1 1079.60   27.18
   0  -1   1 1053.84   27.49
   0  -1  -1 1126.87   27.88
   0  -1  -2  572.50   15.60
   0  -1   2  554.79   15.36
   0  -1   2  553.31   16.12
   0  -1   2  582.67   16.08
   0  -1  -2  541.09   16.20
   0  -1  -2  572.87   14.75
   0  -1   3 2260.00   58.75
   0  -1   3 2388.03   59.06
   0  -1  -3 2380.57   59.78
   0  -1  -3 2387.73   58.74
   0  -1   3 2397.52   59.25
   0  -1  -3 2316.07   59.64
   0  -1   3 2389.22   59.50
   0  -1  -3 2394.04   58.08
   0  -1  -3 2356.61   59.61
   0  -1   3 2315.07   58.83
   0  -1  -3 2309.31   58.75
   0  -1   3 2250.31   58.72
   0  -1  -3 2363.49   59.63
   0  -1   4 1267.04   35.71
   0  -1  -4 1331.19   34.96
   0  -1  -4 1358.64   36.26
   0  -1  -4 1340.85   36.64
   0  -1   4 1244.79   35.62
   0  -1  -4 1402.20   37.00
   0  -1   4 1463.22   36.88
   0  -1   4 1356.89   35.76
   0  -1  -4 1337.59   35.61
   0  -1  -4 1375.85   36.69
   0  -1  -4 1435.34   36.44
   0  -1  -4 1250.30   36.65
   0  -1   4 1286.49   35.88
   0  -1  -4 1308.94   35.41
   0  -1   4 1359.93   35.76
   0  -1   4 1335.72   36.75
   0  -1  -5 1105.95   31.05
   0  -1   5 1021.40   29.18
   0  -1  -5 1055.31   30.13
   0  -1   5 1073.73   29.27
   0  -1  -5  957.30   29.21
   0  -1  -5 1104.74   30.18
   0  -1  -5 1015.93   28.74
   0  -1  -5 1064.56   31.04
   0  -1   5 1060.38   30.68
   0  -1  -5 1068.00   30.64
   0  -1  -5 1052.55   30.60
   0  -1  -5 1007.19   28.55
   0  -1  -5 1083.70   29.22
   0  -1   5 1044.12   29.80
   0  -1   5 1004.33   29.64
   0  -1   5  978.29   29.53
   0  -1   5 1017.41   31.13
   0  -1  -6  652.52   21.18
   0  -1   6  679.63   21.46
   0  -1  -6  614.32   20.07
   0  -1   6  652.29   21.15
   0  -1  -6  639.76   21.99
   0  -1  -6  674.23   22.10
   0  -1   6  680.20   22.61
   0  -1  -6  676.43   22.47
   0  -1  -6  650.59   21.96
   0  -1  -6  700.26   21.70
   0  -1   6  666.99   22.30
   0  -1  -6  612.07   17.67
   0  -1   6  599.40   18.00
   0  -1   6  656.07   21.30
   0  -1  -7 1124.75   32.62
   0  -1   7 1002.80   30.63
   0  -1  -7  983.08   27.37
   0  -1  -7 1048.06   32.92
   0  -1   7 1012.70   28.11
   0  -1  -7 1083.40   33.59
   0  -1   7 1120.51   32.57
   0  -1   7 1098.16   33.85
   0  -1   7  983.21   30.40
   0  -1  -7 1047.20   30.92
   0  -1   7 1131.07   31.19
   0  -1  -7 1071.72   33.53
   0  -1   7 1052.62   34.36
   0  -1  -7 1032.29   33.10
   0  -1   7  932.68   31.57
   0  -1  -7 1040.08   32.25
   0  -1   7 1082.77   33.57
   0  -1   7 1073.75   32.32
   0  -1   8  351.62   15.67
   0  -1  -8  358.82   16.40
   0  -1   8  372.07   17.59
   0  -1   8  382.19   14.88
   0  -1   8  396.93   17.22
   0  -1  -8  312.60   10.70
   0  -1   8  335.37   15.58
   0  -1   8  379.18   14.44
   0  -1   8  346.51   16.68
   0  -1  -8  354.06   14.43
   0  -1  -8  359.22   15.25
   0  -1  -8  350.98   16.46
   0  -1  -8  368.30   16.90
   0  -1  -8  355.65   16.24
   0  -1   8  363.66   15.63
   0  -1  -8  399.40   16.31
   0  -1  -9  234.94   13.42
   0  -1  -9  286.70   13.48
   0  -1  -9  256.49   12.34
   0  -1   9  239.99   14.73
   0  -1  -9  256.85   14.82
   0  -1  -9  271.79   13.99
   0  -1  -9  283.01   13.76
   0  -1  -9  251.72   14.68
   0  -1  -9  267.01   15.10
   0  -1   9  286.20   14.53
   0  -1  -9  246.33   13.93
   0  -1  -9  256.46   14.46
   0  -1   9  263.49   14.20
   0  -1  -9  261.31   14.43
   0  -1   9  239.72   14.99
   0  -1   9  274.48   13.06
   0  -1   9  288.53   15.67
   0  -1   9  283.28   12.45
   0  -1   9  277.51   15.01
   0  -1   9  283.63   14.04
   0  -1  10   78.40    7.75
   0  -1  10   94.06    9.26
   0  -1  10   84.45    8.06
   0  -1 -10   80.64    7.92
   0  -1 -10   94.48    8.89
   0  -1 -10   91.24    8.54
   0  -1  10   89.95    8.72
   0  -1 -10   94.20    7.69
   0  -1  10   85.63    8.04
   0  -1 -10   78.59    6.64
   0  -1  10   79.42    6.93
   0  -1 -10   80.69    7.84
   0  -1 -10   89.54    8.55
   0  -1  10   89.11    8.92
   0  -1 -10   78.15    7.33
   0  -1  10   75.52    8.34
   0  -1 -10   89.85    8.03
   0  -1 -10   71.35    8.03
   0  -1 -10   74.32    8.16
   0  -1  10   84.90    7.67
   0  -1 -10   92.79    7.63
   0  -1  10   79.72    6.22
   0  -1 -10   75.98    6.43
   0  -1 -11  161.90   12.86
   0  -1 -11  184.98   12.51
   0  -1  11  148.48   10.87
   0  -1 -11  151.32   10.47
   0  -1  11  157.32   11.66
   0  -1 -11  150.68    9.57
   0  -1  11  163.68   10.67
   0  -1 -11  162.71   12.55
   0  -1  11  174.06   13.40
   0  -1 -11  156.12   10.40
   0  -1 -11  142.40   11.55
   0  -1 -11  135.14    9.04
   0  -1  11  153.45   12.76
   0  -1  11  153.32   12.45
   0  -1  11  174.86   13.35
   0  -1 -11  139.11   11.77
   0  -1  11  161.21   11.90
   0  -1  11  152.71   11.54
   0  -1 -11  165.64   12.10
   0  -1 -11  178.66   12.64
   0  -1 -11  155.46   10.38
   0  -1  12  146.62   11.37
   0  -1  12  142.05   11.41
   0  -1 -12  132.07   11.15
   0  -1 -12  132.10   11.48
   0  -1 -12  140.74   10.21
   0  -1 -12  144.37   10.03
   0  -1  12  129.19   11.75
   0  -1 -12  131.41   10.99
   0  -1 -12  135.74   11.89
   0  -1  12  124.14   10.61
   0  -1 -12  141.62   11.70
   0  -1  12  144.59   10.06
   0  -1 -12  144.80   12.38
   0  -1  12  141.06   12.50
   0  -1  12  153.28   11.98
   0  -1  12  134.37   12.15
   0  -1 -12  140.19   10.73
   0  -1 -13   91.28    9.30
   0  -1 -13   89.49    9.14
   0  -1  13   88.77    7.64
   0  -1 -13  102.47    8.90
   0  -1 -13   91.45    9.71
   0  -1  13  103.07    9.41
   0  -1  13   88.91    9.80
   0  -1  13  106.60   10.00
   0  -1  13   91.29    8.49
   0  -1  13   78.36    8.06
   0  -1  13   97.98    9.35
   0  -1  13   88.74    9.30
   0  -1  13   89.05    9.91
   0  -1 -13   93.09    9.02
   0  -1 -13   97.90    9.71
   0  -1 -13  104.59   10.46
   0  -1  13  118.72   11.19
   0  -1  14   47.77    5.87
   0  -1 -14   53.54    7.26
   0  -1 -14   50.55    6.45
   0  -1  14   60.10    7.72
   0  -1  14   59.04    7.60
   0  -1  14   62.28    7.23
   0  -1 -14   59.25    7.35
   0  -1 -14   60.90    6.40
   0  -1  14   63.20    8.03
   0  -1 -14   64.49    7.18
   0  -1 -15    5.95    2.47
   0  -1  15    9.11    2.93
   0  -1  15    1.05    1.81
   0  -1  15    6.18    2.43
   0  -1 -15    4.93    2.23
   0  -1 -15    6.23    1.95
   0  -1 -15    4.13    2.16
   0  -1  16   50.20    5.42
   0  -1 -16   46.17    4.83
   0  -1 -16   53.11    5.05
   0  -1  17  202.50    8.88
   0  -1 -17  196.61    8.21
   0  -1 -17  200.81    8.31
   0   0   1    8.79    0.70
   0   0  -1    8.66    0.74
   0   0   1    7.99    0.58
   0   0  -2 1358.54   33.81
   0   0  -2 1342.01   33.85
   0   0  -2 1306.51   33.80
   0   0  -2 1360.87   34.19
   0   0   2 1358.92   34.02
   0   0   2 1307.89   33.90
   0   0  -2 1397.28   33.80
   0   0   2 1340.24   33.37
   0   0  -3 1957.16   48.02
   0   0   3 1891.47   46.64
   0   0  -3 1850.00   47.35
   0   0  -3 1888.87   47.42
   0   0   3 1964.96   47.70
   0   0  -3 1865.84   47.27
   0   0   3 1942.95   47.68
   0   0   3 1853.98   47.55
   0   0  -3 1854.82   47.18
   0   0  -4 9773.90  233.44
   0   0   4 9304.26  234.27
   0   0   4 9586.77  233.65
   0   0   4 9743.62  232.60
   0   0  -4 9636.43  234.57
   0   0   4 9861.45  233.63
   0   0  -4 9315.36  233.87
   0   0  -4 9941.11  233.62
   0   0  -4 9860.46  233.73
   0   0  -4 9546.21  233.69
   0   0  -4 9764.55  234.49
   0   0   4 9999.00  234.15
   0   0  -4 9436.93  232.41
   0   0  -4 9628.42  234.03
   0   0   4 9738.89  233.89
   0   0   4 9640.10  233.91
   0   0   5 4897.73  125.66
   0   0  -5 5042.73  126.13
   0   0  -5 5224.17  127.41
   0   0   5 5174.31  126.70
   0   0   5 5234.18  127.24
   0   0   5 5092.07  126.05
   0   0   5 4781.09  124.68
   0   0   5 5348.18  128.02
   0   0  -5 5156.80  126.03
   0   0  -5 4949.48  126.35
   0   0  -5 5368.98  126.10
   0   0  -5 5348.09  127.45
   0   0   5 4946.50  126.74
   0   0   5 5140.22  126.56
   0   0   5 5027.94  127.17
   0   0  -5 5208.19  126.85
   0   0  -5 5044.79  126.71
   0   0  -6  227.93   11.07
   0   0   6  245.03   10.32
   0   0   6  227.44    9.22
   0   0   6  229.44   10.90
   0   0   6  234.09   10.23
   0   0   6  262.08   11.05
   0   0  -6  230.63   10.95
   0   0  -6  266.22   11.43
   0   0   6  245.27   10.70
   0   0   6  235.05   10.55
   0   0  -6  233.46   10.48
   0   0   6  239.28   11.03
   0   0  -6  221.57   10.11
   0   0  -6  227.05    8.83
   0   0  -6  262.84   10.44
   0   0  -6  217.69   10.47
   0   0   6  226.41    9.07
   0   0   6  267.83   11.92
   0   0  -6  246.10   10.41
   0   0  -7    4.36    1.59
   0   0  -7    3.60    1.64
   0   0   7    1.08    1.42
   0   0  -7    2.25    1.16
   0   0   7    3.45    1.43
   0   0   7    0.99    1.02
   0   0   7    1.58    1.08
   0   0  -7    0.35    0.77
   0   0   7    2.76    1.41
   0   0  -7    3.34    1.66
   0   0  -7    0.57    1.07
   0   0   7    4.75    1.86
   0   0   7    1.21    1.10
   0   0  -7    0.34    1.23
   0   0  -7    2.74    1.43
   0   0   7    1.90    0.99
   0   0   7    2.42    1.46
   0   0   7    2.27    1.50
   0   0   7    2.37    1.44
   0   0  -7    2.12    1.13
   0   0   8   92.83    7.32
   0   0  -8   99.36    5.71
   0   0   8  105.14    6.11
   0   0  -8  103.91    7.45
   0   0   8  104.74    7.94
   0   0   8  105.31    8.09
   0   0  -8  110.26    8.28
   0   0  -8  108.63    7.59
   0   0   8  109.35    8.02
   0   0  -8   99.85    7.66
   0   0   8  112.29    7.61
   0   0   8   91.52    5.92
   0   0  -8  104.13    7.66
   0   0  -8  114.26    8.43
   0   0  -8  131.16    9.18
   0   0   8  120.34    8.12
   0   0   8  106.67    8.23
   0   0   8  107.32    8.64
   0   0   8  101.54    8.21
   0   0  -9   61.93    5.57
   0   0  -9   76.58    7.09
   0   0   9   59.54    4.80
   0   0  -9   60.38    7.04
   0   0  -9   66.92    6.32
   0   0   9   68.98    7.07
   0   0   9   69.46    7.08
   0   0   9   58.99    6.23
   0   0   9   70.05    7.57
   0   0  -9   66.23    6.86
   0   0  -9   63.57    6.74
   0   0   9   55.82    6.57
   0   0  -9   65.90    4.63
   0   0  -9   77.78    7.07
   0   0   9   62.04    6.00
   0   0   9   59.57    4.62
   0   0  -9   64.68    6.53
   0   0   9   55.94    5.98
   0   0  -9   57.84    6.12
   0   0   9   71.24    7.40
   0   0 -10  253.89   14.64
   0   0  10  266.98   14.92
   0   0 -10  283.23   14.27
   0   0 -10  254.16   15.09
   0   0  10  234.64   13.46
   0   0 -10  267.18   14.87
   0   0  10  265.43   15.58
   0   0  10  254.91   14.65
   0   0  10  254.49   15.59
   0   0 -10  244.04   13.85
   0   0  10  253.29   11.26
   0   0  10  244.14   13.30
   0   0 -10  246.91   15.68
   0   0 -10  268.48   15.58
   0   0 -10  223.07   12.11
   0   0  10  236.28   14.93
   0   0 -10  256.67   14.19
   0   0 -10  237.13   14.70
   0   0  10  262.37   15.03
   0   0 -10  227.80   14.09
   0   0  10  265.83   15.76
   0   0  11  199.35   13.23
   0   0 -11  170.02   11.51
   0   0  11  167.84   13.30
   0   0 -11  182.79   13.27
   0   0 -11  195.29   13.23
   0   0 -11  191.35   13.08
   0   0 -11  175.56   11.91
   0   0  11  195.04   13.66
   0   0 -11  173.11   12.35
   0   0 -11  169.68   10.30
   0   0  11  188.96   13.78
   0   0 -11  172.20   12.36
   0   0 -11  171.80   13.00
   0   0  11  178.09   11.56
   0   0 -11  191.41   14.09
   0   0  11  201.79   13.42
   0   0  11  195.09   13.15
   0   0 -11  165.37   11.25
   0   0  11  177.88   13.52
   0   0 -12   50.16    6.83
   0   0 -12   51.22    7.21
   0   0  12   54.02    7.66
   0   0 -12   61.34    7.43
   0   0  12   49.74    7.20
   0   0  12   59.63    7.35
   0   0 -12   48.51    7.33
   0   0 -12   52.76    7.32
   0   0  12   62.75    8.10
   0   0 -12   52.21    6.54
   0   0 -12   55.48    6.52
   0   0  12   46.86    6.17
   0   0  12   52.92    6.89
   0   0  12   55.09    7.67
   0   0 -12   56.37    6.35
   0   0  12   51.04    6.86
   0   0  12   54.97    6.39
   0   0 -12   54.76    7.02
   0   0 -12   57.33    6.75
   0   0  13   54.42    6.93
   0   0  13   52.95    7.55
   0   0 -13   52.57    7.31
   0   0 -13   59.84    6.90
   0   0 -13   48.39    7.18
   0   0 -13   58.73    7.30
   0   0 -13   52.31    6.89
   0   0  13   49.36    6.78
   0   0 -13   49.58    7.40
   0   0  13   58.27    7.75
   0   0  13   62.70    6.90
   0   0 -13   59.97    7.33
   0   0  13   66.61    8.46
   0   0 -13   56.87    6.28
   0   0  13   66.16    7.85
   0   0  13   60.35    7.36
   0   0 -13   60.71    6.71
   0   0  13   67.43    8.50
   0   0  14   39.03    6.16
   0   0  14   42.87    6.11
   0   0 -14   32.76    5.27
   0   0  14   35.88    4.97
   0   0 -14   33.54    5.67
   0   0  14   32.98    5.07
   0   0 -14   36.36    5.46
   0   0 -14   36.52    5.46
   0   0  14   39.09    5.74
   0   0 -14   34.76    4.52
   0   0  14   30.47    5.63
   0   0 -14   33.79    5.32
   0   0  14   39.08    6.32
   0   0 -15   29.09    4.41
   0   0  15   27.94    4.43
   0   0  15   21.83    4.06
   0   0  15   28.35    4.73
   0   0 -15   18.07    4.08
   0   0  15   17.85    3.23
   0   0 -15   24.24    4.04
   0   0 -16  116.14    7.72
   0   0 -16  118.36    7.90
   0   0  16   97.63    8.00
   0   0 -17  112.07    5.74
   0   0 -17  122.82    6.26
   0   1   0   -0.05    0.34
   0   1   0    0.05    0.23
   0   1   1 1000.69   25.03
   0   1  -1 1036.98   26.08
   0   1   1 1061.55   25.57
   0   1   1 1090.71   26.66
   0   1   1 1034.68   25.53
   0   1  -2  559.54   15.81
   0   1   2  546.08   15.20
   0   1   2  562.20   15.90
   0   1   2  564.29   15.35
   0   1  -2  572.82   16.13
   0   1   2  591.68   15.92
   0   1  -2  569.75   15.89
   0   1   3 2293.65   58.81
   0   1  -3 2291.28   58.87
   0   1   3 2298.42   58.74
   0   1  -3 2348.52   57.34
   0   1   3 2257.58   58.30
   0   1   3 2271.96   58.78
   0   1   4 1344.99   34.23
   0   1  -4 1268.43   35.18
   0   1  -4 1344.54   37.03
   0   1  -4 1282.33   35.90
   0   1   4 1380.10   36.84
   0   1   4 1347.69   35.63
   0   1   4 1222.34   36.13
   0   1   4 1335.24   36.00
   0   1   4 1305.67   35.56
   0   1  -4 1356.47   36.35
   0   1   4 1360.61   36.21
   0   1   4 1386.05   36.34
   0   1   4 1260.42   35.36
   0   1  -4 1396.86   36.22
   0   1   5 1061.47   29.79
   0   1   5 1001.83   30.41
   0   1   5 1053.90   29.59
   0   1  -5 1040.13   29.11
   0   1  -5 1095.27   30.78
   0   1  -5 1027.45   29.98
   0   1   5 1008.64   31.05
   0   1   5 1076.25   30.20
   0   1  -5 1035.22   29.97
   0   1  -5 1045.16   30.41
   0   1   5 1006.99   29.58
   0   1   5  953.01   28.27
   0   1  -5 1087.18   30.23
   0   1   5 1070.61   30.54
   0   1  -5 1003.58   31.14
   0   1  -5 1081.76   29.85
   0   1   5 1068.90   30.31
   0   1   5  994.04   27.80
   0   1   6  588.18   20.38
   0   1  -6  647.68   21.67
   0   1  -6  676.71   21.88
   0   1  -6  644.68   22.36
   0   1   6  649.72   19.14
   0   1   6  674.95   21.62
   0   1  -6  684.48   21.97
   0   1  -6  677.87   21.57
   0   1   6  677.49   21.22
   0   1   6  653.48   21.89
   0   1  -6  632.98   20.41
   0   1  -6  661.28   23.12
   0   1   6  641.08   20.22
   0   1   6  702.75   22.45
   0   1   6  687.14   23.14
   0   1   6  712.24   22.71
   0   1  -6  618.15   19.92
   0   1  -6  661.48   22.20
   0   1   6  645.70   21.51
   0   1   6  628.21   21.28
   0   1  -7 1089.33   33.23
   0   1  -7 1055.55   32.89
   0   1   7  988.79   32.38
   0   1  -7 1109.95   34.18
   0   1   7 1066.54   33.72
   0   1   7 1140.99   35.09
   0   1   7 1046.99   32.06
   0   1   7 1041.37   32.81
   0   1   7 1118.05   33.19
   0   1   7 1075.71   33.99
   0   1   7 1077.30   33.50
   0   1  -7 1063.20   33.10
   0   1   7 1031.50   31.17
   0   1  -7 1105.43   32.88
   0   1   7 1013.75   29.33
   0   1  -7 1139.84   35.28
   0   1  -7 1042.50   33.87
   0   1  -8  343.69   15.55
   0   1   8  375.74   16.76
   0   1   8  357.40   16.64
   0   1  -8  351.08   16.41
   0   1   8  314.28   12.11
   0   1   8  366.12   17.43
   0   1   8  370.88   14.59
   0   1   8  360.44   15.79
   0   1   8  356.44   16.42
   0   1  -8  377.27   16.16
   0   1   8  352.22   15.64
   0   1  -8  318.44   14.91
   0   1  -8  357.66   16.63
   0   1   8  357.51   12.51
   0   1  -8  356.51   15.75
   0   1  -8  358.76   17.32
   0   1   8  358.74   15.85
   0   1  -8  354.64   14.09
   0   1   8  347.01   14.51
   0   1   9  279.94   14.85
   0   1   9  292.33   13.12
   0   1   9  281.64   15.19
   0   1  -9  275.96   14.32
   0   1  -9  269.31   14.74
   0   1  -9  287.17   14.59
   0   1   9  252.57   14.77
   0   1  -9  262.01   14.10
   0   1  -9  251.05   13.87
   0   1  -9  265.52   12.07
   0   1   9  254.55   12.52
   0   1  -9  271.73   15.89
   0   1   9  227.95   13.80
   0   1   9  293.95   16.29
   0   1   9  265.16   14.05
   0   1   9  266.55   14.01
   0   1   9  282.91   15.23
   0   1  -9  266.06   14.92
   0   1   9  248.88   14.31
   0   1   9  268.86   14.23
   0   1  10   97.76    9.69
   0   1  10   70.44    7.43
   0   1 -10   84.77    8.43
   0   1 -10   78.61    6.09
   0   1 -10   79.74    7.79
   0   1  10   96.29    8.39
   0   1  10   78.59    8.10
   0   1  10   77.86    8.19
   0   1  10   92.47    8.42
   0   1  10   79.72    8.22
   0   1 -10   86.85    8.60
   0   1 -10   73.32    6.52
   0   1  10   86.51    8.51
   0   1  10   81.29    6.84
   0   1 -10   74.70    7.47
   0   1 -10   82.85    8.89
   0   1  10   78.97    6.53
   0   1 -10   84.37    7.84
   0   1  10   88.45    8.72
   0   1  10   90.55    8.38
   0   1 -10   88.73    8.13
   0   1 -11  157.30   13.18
   0   1 -11  146.85    9.86
   0   1 -11  141.93   11.78
   0   1 -11  158.60   11.63
   0   1 -11  164.04   11.54
   0   1 -11  148.95   11.48
   0   1  11  142.44   12.77
   0   1  11  175.47   12.14
   0   1 -11  169.74   12.62
   0   1  11  161.63   11.99
   0   1  11  153.63   11.61
   0   1  11  177.32   13.26
   0   1 -11  165.78   12.02
   0   1  11  172.96   13.05
   0   1  11  166.42   12.65
   0   1  11  163.50   12.67
   0   1  11  174.94   10.06
   0   1 -11  147.44    9.91
   0   1 -12  146.36   11.52
   0   1  12  129.90   11.65
   0   1 -12  144.52   12.83
   0   1 -12  140.55    9.48
   0   1  12  134.06   11.31
   0   1 -12  156.29   11.84
   0   1 -12  165.35   11.75
   0   1  12  145.73   12.33
   0   1 -12  155.11   11.38
   0   1 -12  130.88   11.66
   0   1  12  144.86   12.30
   0   1  12  140.88   11.59
   0   1 -12  129.43   10.84
   0   1  12  145.26   11.26
   0   1  12  142.47   12.29
   0   1  12  137.79   11.28
   0   1 -12  165.54   12.14
   0   1 -13   99.10    9.07
   0   1  13   95.62    9.26
   0   1  13   94.17    9.76
   0   1  13   85.55    8.50
   0   1 -13   86.02    8.76
   0   1  13   95.27    9.93
   0   1 -13   85.61    9.37
   0   1 -13   93.76    9.05
   0   1  13   98.00   10.15
   0   1 -13  101.92    9.20
   0   1 -13  102.37   10.87
   0   1 -13   89.16    8.77
   0   1 -13   94.27    9.18
   0   1  13   94.29    9.64
   0   1 -13   97.91    8.84
   0   1  13   91.78    9.07
   0   1 -13   94.19    9.82
   0   1 -14   68.06    6.93
   0   1 -14   52.05    7.00
   0   1  14   57.27    6.99
   0   1 -14   59.87    6.87
   0   1  14   59.22    7.42
   0   1 -14   56.46    6.80
   0   1  14   55.45    6.64
   0   1 -14   56.72    6.62
   0   1  14   57.13    7.30
   0   1 -14   56.19    6.41
   0   1  14   58.74    6.98
   0   1  14   62.32    7.74
   0   1  14   60.81    6.93
   0   1  15    7.32    2.80
   0   1  15    5.84    2.23
   0   1  15    7.92    2.55
   0   1 -15    6.55    2.39
   0   1  15    4.71    2.01
   0   1 -15    6.86    2.56
   0   1 -16   47.40    4.71
   0   1  16   44.66    5.12
   0   1  16   33.08    3.26
   0   1  17  206.77    8.82
   0   1 -17  189.41    7.61
   0   2   0 4769.75  119.57
   0   2   0 4904.15  119.10
   0   2   0 5033.65  120.30
   0   2  -1 6691.10  164.35
   0   2   1 6948.07  165.19
   0   2   1 6875.72  163.56
   0   2   1 6804.99  164.84
   0   2  -1 6996.50  165.60
   0   2   1 6765.78  165.23
   0   2   1 6841.78  164.67
   0   2  -1 6626.77  163.49
   0   2  -1 6911.37  164.61
   0   2   1 6494.43  164.55
   0   2   2  102.05    5.23
   0   2  -2  104.81    5.33
   0   2   2   95.38    5.13
   0   2   2  108.76    4.97
   0   2   2  103.99    5.24
   0   2   2  100.00    4.77
   0   2  -2  101.99    4.79
   0   2  -2   99.83    5.51
   0   2   3 1612.60   42.95
   0   2   3 1559.63   43.94
   0   2   3 1679.52   43.57
   0   2   3 1604.29   42.25
   0   2   3 1623.30   43.37
   0   2  -3 1687.14   44.58
   0   2  -3 1684.42   43.52
   0   2  -3 1670.99   43.15
   0   2   3 1628.04   43.10
   0   2  -3 1590.55   43.45
   0   2   3 1589.24   43.65
   0   2   3 1631.74   43.70
   0   2   3 1649.35   44.22
   0   2   4  264.59   10.26
   0   2   4  263.29   10.80
   0   2   4  251.36    9.49
   0   2   4  220.93   10.46
   0   2  -4  260.85   10.44
   0   2   4  237.42    9.36
   0   2   4  259.59   10.37
   0   2  -4  260.55   10.57
   0   2   4  235.31   10.41
   0   2  -4  248.77   11.11
   0   2  -4  252.62   10.23
   0   2   4  261.92   10.54
   0   2   4  272.18   10.36
   0   2  -5   91.47    6.05
   0   2   5   93.83    6.61
   0   2  -5   98.09    6.92
   0   2   5   88.49    6.11
   0   2  -5   88.93    6.17
   0   2   5  102.11    6.58
   0   2   5   94.79    6.44
   0   2   5   99.71    5.17
   0   2  -5  101.94    6.21
   0   2   5   96.09    6.07
   0   2   5   88.47    6.04
   0   2   5   89.76    6.03
   0   2  -5  103.60    6.47
   0   2   5   99.32    5.77
   0   2   6 1222.15   37.12
   0   2  -6 1211.35   36.70
   0   2   6 1172.94   36.31
   0   2   6 1170.85   36.03
   0   2   6 1249.34   37.36
   0   2   6 1202.61   37.95
   0   2  -6 1262.08   38.59
   0   2   6 1241.39   35.84
   0   2  -6 1246.74   36.98
   0   2  -6 1265.35   36.24
   0   2   6 1328.89   37.93
   0   2  -6 1212.65   37.05
   0   2   6 1235.87   36.70
   0   2   7   27.73    3.62
   0   2  -7   30.45    3.71
   0   2   7   27.42    3.74
   0   2   7   28.02    4.19
   0   2   7   24.60    3.81
   0   2  -7   31.25    4.04
   0   2  -7   28.00    3.67
   0   2  -7   21.24    3.47
   0   2   7   27.10    3.14
   0   2   7   28.67    3.81
   0   2  -7   23.71    4.13
   0   2   7   25.69    3.67
   0   2  -7   28.16    4.14
   0   2   7   24.90    3.73
   0   2   7   28.17    4.08
   0   2  -7   24.74    3.76
   0   2   7   28.21    2.73
   0   2  -8  111.12    9.45
   0   2   8  135.09    8.66
   0   2   8  105.49    7.95
   0   2   8  119.80    8.23
   0   2   8  130.09    9.13
   0   2  -8  118.02    8.86
   0   2   8  106.76    6.74
   0   2   8  118.45    8.32
   0   2   8  105.91    8.44
   0   2   8  120.48    6.00
   0   2  -8  132.31    9.21
   0   2   8  106.55    8.64
   0   2  -8  113.04    8.52
   0   2   8  120.74    9.19
   0   2   8  107.03    9.12
   0   2  -8  120.77    9.17
   0   2  -9   12.74    3.41
   0   2   9   26.49    4.20
   0   2  -9   28.14    4.63
   0   2  -9   25.85    4.13
   0   2   9   19.73    3.88
   0   2   9   27.29    4.86
   0   2  -9   17.10    2.75
   0   2   9   23.10    4.32
   0   2  -9   22.48    3.81
   0   2  -9   24.03    4.14
   0   2   9   23.01    4.15
   0   2   9   22.48    4.09
   0   2   9   27.74    4.27
   0   2  -9   24.35    4.24
   0   2   9   24.24    4.29
   0   2  -9   35.01    5.59
   0   2  -9   22.94    4.00
   0   2   9   21.76    2.88
   0   2   9   23.44    4.36
   0   2  -9   26.66    3.89
   0   2   9   22.38    4.30
   0   2  10  342.04   17.59
   0   2 -10  311.68   16.55
   0   2  10  295.57   17.16
   0   2  10  344.71   18.24
   0   2  10  307.54   16.48
   0   2 -10  315.40   17.02
   0   2  10  333.43   18.69
   0   2 -10  353.41   19.96
   0   2  10  316.55   17.92
   0   2  10  308.87   17.02
   0   2  10  307.04   17.34
   0   2 -10  317.74   18.05
   0   2 -10  339.79   15.54
   0   2  10  337.17   16.13
   0   2  10  341.44   18.01
   0   2  10  337.72   19.47
   0   2 -10  336.34   17.06
   0   2 -10  323.61   17.78
   0   2 -10  303.03   16.97
   0   2 -10  352.20   17.98
   0   2 -10  323.14   16.25
   0   2 -11  143.51   11.17
   0   2  11  115.48   10.48
   0   2 -11  126.96    8.78
   0   2  11  131.14   11.53
   0   2 -11  128.32   11.99
   0   2  11  134.22   11.38
   0   2 -11  111.43    9.55
   0   2  11  130.58   11.05
   0   2 -11  108.10   10.32
   0   2 -11  104.14   10.18
   0   2 -11  130.36   10.04
   0   2  11  114.71   10.14
   0   2  11  133.56   12.40
   0   2 -11  118.54    9.88
   0   2  11  139.31   11.71
   0   2 -11  124.07   10.36
   0   2 -11  129.14   10.79
   0   2  11  131.31    9.49
   0   2  11  137.89   11.03
   0   2  11  109.27   10.39
   0   2 -12  101.01    8.96
   0   2  12   99.78   10.04
   0   2 -12  107.63   11.25
   0   2  12  107.72   10.57
   0   2  12  103.59    9.77
   0   2  12   94.34    7.90
   0   2 -12  107.90   10.76
   0   2 -12  105.53    9.95
   0   2 -12  102.14    9.26
   0   2 -12  102.68    9.42
   0   2 -12  110.14    9.57
   0   2  12  106.19   10.23
   0   2  12   89.59   10.44
   0   2 -12  105.37   10.21
   0   2  12   96.19    9.58
   0   2 -13   51.99    6.46
   0   2 -13   61.00    6.86
   0   2 -13   65.95    7.36
   0   2 -13   53.24    6.79
   0   2 -13   49.42    6.08
   0   2  13   56.13    7.14
   0   2 -13   63.57    8.49
   0   2  13   54.74    7.57
   0   2  13   49.60    7.11
   0   2 -13   56.85    7.42
   0   2  14    4.77    2.26
   0   2  14    7.01    3.20
   0   2 -14    6.31    2.18
   0   2 -14    1.18    1.51
   0   2  14    4.99    2.36
   0   2 -14    5.51    2.23
   0   2  14    7.08    2.52
   0   2 -14    3.96    2.19
   0   2  14    4.40    2.17
   0   2 -15   17.86    3.33
   0   2 -15   15.07    3.00
   0   2  15    6.22    2.40
   0   2  15   10.50    2.93
   0   2 -15   12.27    2.52
   0   2  15   13.15    3.18
   0   2  16   29.85    3.14
   0   2  16   36.30    4.29
   0   2 -16   40.65    3.88
   0   2 -16   42.48    3.97
   0   2 -16   39.43    3.65
   0   2 -16   28.06    2.73
   0   3   0    0.16    0.74
   0   3   0   -0.19    0.82
   0   3   0    0.88    1.18
   0   3   0    0.20    0.87
   0   3  -1  274.77    9.63
   0   3   1  297.20   11.57
   0   3  -1  283.69   10.82
   0   3   1  284.04   11.24
   0   3   1  273.29    8.13
   0   3   1  295.83   10.82
   0   3   1  290.74   11.70
   0   3  -1  287.22   11.66
   0   3  -1  259.23    9.23
   0   3   1  297.63   11.16
   0   3  -1  299.17   12.00
   0   3   1  292.34   11.17
   0   3  -1  268.86   10.57
   0   3  -1  298.01   11.38
   0   3   2  725.41   21.98
   0   3  -2  769.12   23.77
   0   3   2  706.64   22.55
   0   3  -2  784.89   22.83
   0   3  -2  734.30   22.57
   0   3   2  636.78   22.28
   0   3  -2  721.65   23.26
   0   3   2  687.08   23.27
   0   3   2  702.77   22.24
   0   3   2  710.52   22.74
   0   3   2  710.25   20.31
   0   3   2  699.97   20.92
   0   3  -2  745.02   22.40
   0   3   2  718.99   22.37
   0   3   3  642.58   21.34
   0   3   3  669.60   20.50
   0   3  -3  618.29   19.66
   0   3   3  602.96   18.08
   0   3   3  644.59   22.25
   0   3   3  655.64   21.29
   0   3   3  671.62   21.31
   0   3   3  640.02   21.66
   0   3  -3  637.09   20.14
   0   3   3  658.52   21.11
   0   3  -3  668.05   22.25
   0   3  -3  683.17   22.75
   0   3  -3  661.22   21.48
   0   3  -3  669.58   21.32
   0   3   3  658.20   21.45
   0   3  -3  662.32   21.20
   0   3   3  677.61   21.73
   0   3  -4   28.84    3.78
   0   3  -4   35.71    4.25
   0   3   4   29.25    3.50
   0   3   4   27.89    3.13
   0   3   4   28.11    3.33
   0   3   4   29.33    2.70
   0   3  -4   25.07    3.34
   0   3   4   25.30    3.24
   0   3   4   24.01    3.04
   0   3   4   23.44    3.09
   0   3   4   26.91    3.47
   0   3  -4   25.99    3.11
   0   3   4   27.42    3.42
   0   3  -4   24.12    3.22
   0   3  -4   24.52    2.57
   0   3   4   26.20    3.61
   0   3  -4   27.26    3.30
   0   3   4   33.41    3.80
   0   3   5  339.35   14.03
   0   3  -5  344.77   14.11
   0   3  -5  371.09   14.73
   0   3   5  292.45   14.02
   0   3   5  330.75   12.70
   0   3   5  315.58   13.85
   0   3  -5  344.44   11.97
   0   3   5  322.54   14.78
   0   3  -5  327.40   13.87
   0   3   5  339.87   14.42
   0   3  -5  339.51   15.97
   0   3   5  332.39   12.60
   0   3   5  338.21   13.92
   0   3   5  333.70   15.26
   0   3  -5  317.48   14.21
   0   3   5  338.86   12.68
   0   3  -5  340.91   15.60
   0   3   5  356.85   14.89
   0   3   5  313.75   13.44
   0   3  -6 1106.20   34.49
   0   3  -6 1126.88   36.77
   0   3   6 1064.41   34.15
   0   3  -6 1073.65   36.32
   0   3  -6 1085.12   34.67
   0   3   6 1074.84   35.59
   0   3  -6 1119.33   34.39
   0   3  -6 1138.60   34.99
   0   3   6 1098.68   35.23
   0   3   6 1079.40   31.62
   0   3   6 1132.81   34.65
   0   3   6 1091.09   32.52
   0   3   6 1067.33   32.33
   0   3  -6 1070.91   29.92
   0   3   6  994.45   33.20
   0   3   6 1071.81   34.76
   0   3   6 1013.61   34.64
   0   3   7  296.50   15.07
   0   3  -7  334.26   17.07
   0   3   7  307.44   13.80
   0   3   7  333.93   15.47
   0   3   7  321.67   14.76
   0   3  -7  318.25   14.12
   0   3   7  332.47   16.01
   0   3  -7  324.39   14.97
   0   3  -7  316.11   15.17
   0   3  -7  306.98   15.29
   0   3   7  315.59   15.08
   0   3   7  275.78   14.15
   0   3  -7  272.30   13.68
   0   3   7  292.65   13.56
   0   3   7  331.25   16.08
   0   3  -7  293.81   15.28
   0   3  -7  329.29   14.11
   0   3   7  320.24   16.48
   0   3  -7  309.33   16.73
   0   3   7  301.04   13.64
   0   3  -8   34.42    5.15
   0   3   8   31.83    5.25
   0   3   8   32.41    4.74
   0   3   8   35.40    4.58
   0   3   8   33.21    4.85
   0   3  -8   42.16    6.03
   0   3  -8   42.08    5.38
   0   3   8   32.09    4.28
   0   3   8   31.30    4.04
   0   3   8   40.26    5.35
   0   3   8   34.63    5.20
   0   3  -8   28.94    4.28
   0   3   8   35.18    4.64
   0   3   8   33.54    5.09
   0   3  -8   40.12    5.32
   0   3  -8   32.57    5.43
   0   3  -8   31.40    4.22
   0   3   8   32.14    4.54
   0   3  -8   30.91    3.99
   0   3  -8   39.10    5.38
   0   3  -8   37.67    4.67
   0   3   8   37.97    5.41
   0   3   9   31.45    5.19
   0   3  -9   29.46    4.46
   0   3   9   21.38    4.48
   0   3   9   26.58    4.22
   0   3  -9   24.29    4.02
   0   3  -9   23.27    4.32
   0   3  -9   24.94    4.00
   0   3   9   26.52    4.18
   0   3  -9   27.45    5.21
   0   3  -9   32.83    5.11
   0   3   9   25.85    4.58
   0   3  -9   32.85    5.61
   0   3  -9   28.10    3.75
   0   3   9   31.26    5.21
   0   3  -9   33.69    5.23
   0   3   9   22.32    4.16
   0   3   9   24.96    4.12
   0   3  -9   29.34    5.09
   0   3   9   27.96    5.03
   0   3   9   35.99    5.30
   0   3   9   23.32    4.34
   0   3   9   33.97    4.13
   0   3  -9   27.95    4.62
   0   3  -9   22.49    3.89
   0   3 -10   12.76    3.89
   0   3 -10   13.00    3.12
   0   3 -10   11.44    2.97
   0   3 -10   11.09    2.92
   0   3 -10   13.89    3.59
   0   3  10   19.12    4.08
   0   3  10   12.27    3.58
   0   3  10    6.90    2.53
   0   3  10   13.08    3.74
   0   3 -10   21.28    4.54
   0   3  10   10.76    3.11
   0   3 -10   14.51    3.79
   0   3 -10   11.37    3.20
   0   3 -10   10.09    3.26
   0   3  10   21.89    3.87
   0   3  10   11.55    3.60
   0   3  10   18.09    4.31
   0   3 -10   12.09    3.77
   0   3  10    6.47    2.87
   0   3  10   15.88    3.75
   0   3 -10   13.63    3.50
   0   3 -10   12.17    3.20
   0   3  11  726.96   31.38
   0   3 -11  826.94   32.97
   0   3  11  813.59   35.08
   0   3  11  760.25   28.44
   0   3  11  791.89   33.41
   0   3 -11  742.10   28.86
   0   3  11  831.67   33.12
   0   3  11  819.46   32.72
   0   3  11  798.76   31.83
   0   3 -11  868.90   32.66
   0   3 -11  764.07   29.53
   0   3  11  830.87   33.83
   0   3  11  808.79   30.72
   0   3  11  859.31   32.78
   0   3 -11  785.38   32.95
   0   3  11  670.40   29.81
   0   3  11  729.14   31.16
   0   3 -11  774.77   30.02
   0   3 -11  780.19   32.53
   0   3 -11  812.90   30.34
   0   3 -11  853.81   35.66
   0   3 -11  851.88   29.98
   0   3  11  871.67   31.29
   0   3 -11  754.83   31.50
   0   3  12  231.24   14.85
   0   3 -12  224.98   15.45
   0   3  12  230.88   15.16
   0   3 -12  225.33   13.49
   0   3  12  274.09   14.68
   0   3  12  274.50   16.48
   0   3 -12  234.81   15.51
   0   3  12  261.56   16.07
   0   3  12  244.09   17.35
   0   3 -12  269.29   16.34
   0   3 -12  259.10   15.78
   0   3 -12  205.09   13.34
   0   3 -12  258.59   17.29
   0   3  12  246.86   14.59
   0   3 -12  223.47   13.16
   0   3  12  229.85   15.91
   0   3 -12  222.62   13.71
   0   3 -12  241.41   17.58
   0   3  12  220.67   15.06
   0   3  13  145.45   11.41
   0   3  13  152.89   11.82
   0   3  13  160.89   11.92
   0   3  13  148.04   11.40
   0   3 -13  132.19    9.42
   0   3  13  139.46    9.47
   0   3 -13  117.00   10.64
   0   3  13  142.88   10.94
   0   3 -13  111.24    9.05
   0   3 -13  142.08   10.07
   0   3 -13  142.27   10.95
   0   3  13  150.24   10.63
   0   3  13  135.22   11.76
   0   3  14    0.51    1.15
   0   3 -14   -0.64    1.36
   0   3  14    0.49    1.47
   0   3 -14    0.53    1.04
   0   3  14    0.51    1.92
   0   3 -14   -0.94    1.93
   0   3 -14    1.11    1.46
   0   3  14   -0.57    1.61
   0   3  14    0.99    1.79
   0   3 -15   50.90    5.15
   0   3  15   31.22    4.41
   0   3 -15   46.67    5.03
   0   3 -15   39.23    3.78
   0   3  15   43.20    5.05
   0   3 -16   56.49    4.38
   0   3 -16   58.67    4.42
   0   4   0   99.05    6.62
   0   4   0   85.05    5.62
   0   4   0   86.03    5.50
   0   4   0   96.74    7.00
   0   4   0   89.53    4.39
   0   4   0   94.65    6.83
   0   4   0   93.49    6.50
   0   4   0  101.02    6.70
   0   4   1   62.36    4.48
   0   4   1   68.91    5.45
   0   4   1   60.20    5.44
   0   4  -1   66.79    5.71
   0   4   1   52.25    2.52
   0   4   1   69.11    5.37
   0   4   1   58.30    5.26
   0   4   1   57.88    3.69
   0   4  -1   70.90    4.53
   0   4  -1   57.79    5.15
   0   4  -1   71.47    5.36
   0   4  -1   62.26    4.93
   0   4  -1   57.80    5.60
   0   4   1   66.24    5.43
   0   4   2  125.00    7.57
   0   4   2  120.22    7.80
   0   4   2  136.97    7.78
   0   4   2  109.83    7.45
   0   4  -2  105.76    7.23
   0   4   2  122.11    6.28
   0   4   2  116.65    7.71
   0   4  -2  119.27    6.23
   0   4  -2  120.96    8.09
   0   4  -2  117.08    5.76
   0   4  -2  122.94    7.73
   0   4   2  123.44    8.17
   0   4  -2  116.71    7.32
   0   4  -2  130.28    8.66
   0   4   2  127.68    8.47
   0   4   2  123.22    6.38
   0   4   2  125.03    8.12
   0   4   3   14.27    2.68
   0   4  -3   14.73    2.36
   0   4   3   14.70    2.73
   0   4   3   12.28    2.17
   0   4   3   18.47    2.98
   0   4  -3   15.43    2.82
   0   4  -3   15.06    3.17
   0   4   3   14.84    1.95
   0   4  -3   17.42    3.20
   0   4  -3   12.29    2.13
   0   4   3   15.63    2.97
   0   4   3   16.19    2.85
   0   4  -3   12.48    2.45
   0   4   3   13.13    2.72
   0   4  -3   16.85    2.83
   0   4   3   18.83    2.82
   0   4   3   16.59    2.90
   0   4   3   14.43    2.94
   0   4   4   30.25    3.97
   0   4   4   30.87    3.69
   0   4   4   26.55    4.13
   0   4   4   25.32    3.74
   0   4   4   34.02    4.19
   0   4  -4   24.18    4.08
   0   4  -4   28.49    4.32
   0   4   4   29.51    3.93
   0   4   4   31.44    4.11
   0   4   4   29.52    4.09
   0   4  -4   31.26    3.38
   0   4   4   28.17    4.05
   0   4  -4   26.61    3.81
   0   4  -4   37.23    4.31
   0   4  -4   28.60    3.93
   0   4  -4   20.11    2.97
   0   4   4   29.32    3.56
   0   4   5  144.37    9.40
   0   4   5  130.40    9.09
   0   4   5  128.80    8.20
   0   4   5  143.08    9.13
   0   4   5  121.22    8.36
   0   4  -5  144.38   10.28
   0   4  -5  128.20    8.63
   0   4  -5  134.79    9.14
   0   4   5  139.98   10.06
   0   4  -5  123.83    7.14
   0   4   5  143.13    9.67
   0   4  -5  139.01   10.36
   0   4   5  121.53    6.43
   0   4   5  125.90    7.85
   0   4   5  131.73    9.39
   0   4  -5  152.52    9.61
   0   4   6   25.34    4.44
   0   4   6   29.47    4.44
   0   4   6   22.81    4.18
   0   4   6   27.88    3.60
   0   4  -6   26.61    4.23
   0   4   6   28.14    4.41
   0   4   6   22.42    3.57
   0   4  -6   37.89    5.61
   0   4  -6   32.45    3.30
   0   4   6   22.26    3.95
   0   4   6   22.09    2.87
   0   4   6   23.25    3.79
   0   4  -6   28.47    4.84
   0   4  -6   23.17    3.88
   0   4   6   27.50    4.31
   0   4  -6   25.99    4.22
   0   4   6   28.59    4.09
   0   4   7   81.06    7.73
   0   4  -7   80.36    7.43
   0   4   7   77.18    6.10
   0   4  -7   99.22    8.34
   0   4  -7   87.77    8.90
   0   4   7   74.41    8.02
   0   4  -7   85.56    8.95
   0   4   7   86.58    7.91
   0   4  -7   70.26    6.94
   0   4   7   91.97    9.08
   0   4  -7   81.53    8.00
   0   4   7   88.59    7.51
   0   4  -7   87.11    7.22
   0   4  -7   80.44    7.61
   0   4   7   94.53    8.69
   0   4   7   79.24    7.99
   0   4   7   99.30    8.57
   0   4   7   93.77    8.01
   0   4   7   89.88    7.90
   0   4   7   90.87    6.57
   0   4   8   28.63    4.48
   0   4   8   35.03    5.84
   0   4  -8   35.08    5.34
   0   4  -8   37.55    5.48
   0   4  -8   40.71    5.45
   0   4  -8   37.34    6.22
   0   4   8   44.81    5.83
   0   4   8   33.01    4.51
   0   4   8   37.55    5.79
   0   4   8   42.61    6.13
   0   4  -8   32.77    5.05
   0   4   8   32.41    4.79
   0   4  -8   34.61    4.48
   0   4  -8   33.45    5.94
   0   4  -8   40.07    5.11
   0   4  -8   40.23    5.53
   0   4   8   35.85    4.42
   0   4   8   39.91    5.99
   0   4  -8   33.13    4.51
   0   4   8   42.91    5.90
   0   4   8   38.75    5.25
   0   4   8   33.95    5.27
   0   4   8   35.97    5.35
   0   4  -9   13.02    3.53
   0   4  -9   14.38    3.53
   0   4   9   19.55    3.85
   0   4   9   14.70    2.97
   0   4   9   12.81    3.74
   0   4  -9   16.28    4.02
   0   4   9   14.31    3.77
   0   4   9   12.57    2.93
   0   4  -9   14.40    4.34
   0   4  -9   15.31    3.82
   0   4   9   13.64    3.72
   0   4  -9   13.97    4.12
   0   4   9   18.13    4.26
   0   4  -9   16.46    3.29
   0   4   9   14.16    3.90
   0   4   9   17.97    3.91
   0   4  -9   16.29    3.63
   0   4   9   14.70    3.55
   0   4  -9   13.48    3.29
   0   4   9   15.22    3.61
   0   4  -9   19.39    4.16
   0   4   9   16.68    4.12
   0   4   9   14.55    3.45
   0   4  -9   15.18    3.17
   0   4 -10  103.78    9.54
   0   4  10  115.85    8.70
   0   4  10  114.38   10.60
   0   4 -10   94.30    9.40
   0   4 -10  107.14    8.32
   0   4 -10   95.07   10.02
   0   4  10  106.27   10.17
   0   4 -10  116.52   11.57
   0   4  10  109.21   10.57
   0   4  10   90.10    9.05
   0   4 -10  105.79    8.24
   0   4 -10   95.09    9.53
   0   4  10  102.73    9.70
   0   4 -10  104.26    9.19
   0   4 -10   93.71    8.36
   0   4  10  102.91   10.69
   0   4 -10  109.97   10.13
   0   4  10   96.14    8.72
   0   4  10  108.40    8.00
   0   4  10  111.99    9.86
   0   4  10   95.24    9.04
   0   4  10  107.91    8.97
   0   4  10  125.31   10.64
   0   4 -10  100.14   10.64
   0   4  10  106.23   10.27
   0   4  11  375.94   20.02
   0   4  11  360.35   18.91
   0   4  11  375.71   17.63
   0   4  11  381.98   20.52
   0   4 -11  361.92   22.06
   0   4  11  416.07   22.77
   0   4  11  398.07   21.40
   0   4 -11  387.91   17.28
   0   4  11  352.93   18.84
   0   4 -11  340.73   16.34
   0   4 -11  392.26   20.63
   0   4 -11  323.75   19.15
   0   4  11  371.19   21.06
   0   4  11  392.13   17.73
   0   4 -11  400.49   20.78
   0   4 -11  410.41   20.28
   0   4 -11  346.00   17.34
   0   4  11  366.82   20.59
   0   4  11  367.96   19.61
   0   4 -11  394.95   18.98
   0   4  12  131.93   10.50
   0   4  12  138.69   11.97
   0   4 -12  153.78    9.61
   0   4  12  147.59   10.73
   0   4  12  158.88   11.77
   0   4 -12  137.42   11.43
   0   4  12  158.83   11.95
   0   4  12  152.60   12.04
   0   4 -12  132.06    9.48
   0   4 -12  142.45   11.46
   0   4  12  143.98   11.18
   0   4 -12  160.81   11.77
   0   4  13    3.22    2.12
   0   4  13    7.51    2.60
   0   4  13    5.83    2.07
   0   4 -13    4.97    2.27
   0   4  13    1.50    1.90
   0   4  13    7.44    2.49
   0   4  13    4.20    2.37
   0   4 -13    5.47    1.68
   0   4  14    9.31    2.69
   0   4  14    7.26    2.35
   0   4 -14    7.58    2.46
   0   4 -15   23.10    3.15
   0   4  15   16.10    2.42
   0   4 -15   27.54    3.36
   0   5   0   -0.39    1.09
   0   5   0   -0.40    1.01
   0   5   0   -0.38    1.14
   0   5   0    0.45    1.04
   0   5   0    0.12    0.47
   0   5   0    0.86    1.03
   0   5   0   -0.43    1.47
   0   5  -1  315.57   14.33
   0   5  -1  309.67   11.85
   0   5   1  338.12   15.59
   0   5  -1  345.35   15.30
   0   5   1  303.83   13.40
   0   5  -1  346.31   15.83
   0   5   1  332.23   16.15
   0   5  -1  352.47   16.86
   0   5   1  337.77   15.63
   0   5  -1  343.02   13.41
   0   5   1  346.18   15.57
   0   5   1  319.79   16.69
   0   5   1  359.34   16.38
   0   5   1  333.73   14.38
   0   5  -1  343.06   16.22
   0   5  -1  336.73   15.22
   0   5   2  394.12   17.71
   0   5  -2  419.97   19.15
   0   5   2  398.74   17.34
   0   5  -2  417.81   17.82
   0   5   2  389.40   16.90
   0   5   2  396.93   18.72
   0   5   2  395.43   17.52
   0   5   2  376.43   17.48
   0   5  -2  392.40   18.18
   0   5  -2  386.35   16.87
   0   5   2  368.69   14.57
   0   5   2  385.50   13.98
   0   5  -2  358.47   16.54
   0   5  -2  364.87   16.58
   0   5  -2  376.98   13.69
   0   5  -2  382.62   14.40
   0   5   2  375.91   18.00
   0   5   3  445.93   19.39
   0   5  -3  448.10   17.69
   0   5   3  446.58   16.38
   0   5   3  431.26   18.95
   0   5  -3  440.00   18.68
   0   5  -3  437.19   18.98
   0   5   3  414.49   19.39
   0   5  -3  409.70   18.27
   0   5  -3  412.76   15.90
   0   5   3  456.81   18.50
   0   5   3  430.01   19.14
   0   5  -3  458.56   20.82
   0   5   3  379.42   14.80
   0   5   3  426.49   18.52
   0   5   3  423.40   19.94
   0   5   3  460.85   19.63
   0   5   3  449.72   18.59
   0   5  -3  440.55   20.04
   0   5   4   43.53    5.34
   0   5   4   38.36    5.07
   0   5   4   35.17    4.24
   0   5  -4   42.49    5.92
   0   5   4   33.98    4.73
   0   5  -4   35.41    4.91
   0   5  -4   36.57    5.46
   0   5   4   38.72    5.25
   0   5  -4   40.10    5.08
   0   5  -4   32.52    3.99
   0   5   4   40.82    5.16
   0   5   4   36.50    4.20
   0   5   4   37.12    5.01
   0   5   4   35.82    5.05
   0   5  -4   36.94    4.15
   0   5   4   30.96    4.74
   0   5  -4   34.23    4.90
   0   5   4   29.43    4.93
   0   5   5  410.13   17.79
   0   5   5  458.18   19.99
   0   5   5  428.35   20.92
   0   5  -5  452.10   21.62
   0   5   5  419.14   20.06
   0   5   5  437.87   19.37
   0   5   5  394.81   18.89
   0   5  -5  417.89   19.47
   0   5  -5  418.64   19.31
   0   5   5  419.30   19.72
   0   5   5  397.15   17.57
   0   5   5  401.57   19.30
   0   5  -5  439.63   21.65
   0   5  -5  421.62   16.82
   0   5  -5  441.55   19.79
   0   5   5  417.86   19.93
   0   5   5  399.81   17.49
   0   5  -5  415.17   17.73
   0   5   6  275.29   16.77
   0   5   6  302.22   14.60
   0   5   6  290.48   15.93
   0   5  -6  289.99   17.43
   0   5   6  292.76   16.68
   0   5   6  287.26   16.75
   0   5  -6  293.97   17.80
   0   5  -6  295.71   12.81
   0   5   6  287.47   15.99
   0   5   6  274.16   16.09
   0   5   6  283.42   15.96
   0   5  -6  283.63   14.65
   0   5  -6  296.28   16.18
   0   5   6  270.75   14.43
   0   5  -6  264.17   15.35
   0   5  -6  259.73   14.24
   0   5   6  268.32   13.76
   0   5   6  280.17   14.36
   0   5   6  304.50   16.05
   0   5   6  247.69   14.66
   0   5  -7  128.26   11.63
   0   5   7  111.22   10.26
   0   5   7  115.33    9.93
   0   5  -7  109.22    9.12
   0   5   7  119.71   10.19
   0   5  -7  121.13   10.05
   0   5   7  127.48   10.55
   0   5  -7  111.65   10.83
   0   5  -7  115.48    9.93
   0   5   7   97.41    9.99
   0   5  -7  121.86   10.10
   0   5   7  109.85    9.63
   0   5   7  105.24    8.00
   0   5  -7  113.30    9.25
   0   5   7  110.82    9.15
   0   5  -7  111.41    9.05
   0   5   7  124.43    9.19
   0   5   7  130.99   11.07
   0   5   8   56.58    6.51
   0   5   8   51.08    6.52
   0   5  -8   46.76    7.27
   0   5  -8   64.02    7.27
   0   5   8   53.81    7.09
   0   5  -8   61.16    5.94
   0   5   8   50.80    7.10
   0   5  -8   52.87    5.92
   0   5  -8   46.90    7.29
   0   5   8   64.07    7.83
   0   5   8   56.71    7.03
   0   5   8   62.43    7.72
   0   5   8   47.50    6.69
   0   5   8   53.81    6.17
   0   5  -8   60.12    7.24
   0   5  -8   49.14    6.22
   0   5   8   46.67    6.37
   0   5  -8   54.06    6.19
   0   5   8   54.54    7.58
   0   5   8   62.04    7.06
   0   5  -8   54.00    6.78
   0   5  -8   50.47    6.86
   0   5  -9    9.08    3.09
   0   5   9    8.00    3.20
   0   5   9   10.87    3.64
   0   5   9    8.64    3.15
   0   5  -9    8.33    2.97
   0   5  -9   12.60    3.63
   0   5   9    9.05    3.08
   0   5   9    9.12    3.68
   0   5   9   13.52    3.39
   0   5  -9   14.48    4.11
   0   5  -9   12.20    3.49
   0   5   9    6.49    2.48
   0   5   9    6.21    2.26
   0   5  -9   10.29    2.66
   0   5   9   14.79    3.99
   0   5  -9   10.23    3.71
   0   5   9   13.02    3.72
   0   5  -9   10.37    3.40
   0   5  10   40.73    6.45
   0   5 -10   43.74    5.31
   0   5 -10   50.36    7.65
   0   5  10   48.35    6.06
   0   5  10   57.72    5.95
   0   5  10   56.36    6.61
   0   5 -10   58.20    8.39
   0   5  10   50.64    7.19
   0   5 -10   59.72    7.39
   0   5  10   41.09    6.14
   0   5 -10   59.05    7.17
   0   5  10   58.31    7.49
   0   5  10   47.39    6.20
   0   5  10   53.19    7.41
   0   5  10   49.05    7.62
   0   5  10   59.57    7.27
   0   5 -10   60.33    7.80
   0   5 -10   42.79    6.60
   0   5  11  339.12   17.55
   0   5 -11  399.78   19.54
   0   5  11  409.20   20.13
   0   5 -11  385.20   20.58
   0   5  11  384.46   19.11
   0   5  11  434.85   21.85
   0   5  11  393.38   17.91
   0   5 -11  422.30   20.09
   0   5  11  445.72   21.50
   0   5  11  427.45   20.37
   0   5  11  425.48   21.18
   0   5  11  362.39   17.49
   0   5 -12  241.02   13.50
   0   5 -12  227.86   13.30
   0   5  12  240.93   14.07
   0   5  12  221.70   13.98
   0   5 -12  232.74   13.91
   0   5  12  201.08   12.74
   0   5  12  220.44   14.61
   0   5  13   15.66    3.44
   0   5 -13   15.66    3.15
   0   5 -14    5.62    1.70
   0   5  14    3.86    1.72
   0   5  14    2.67    1.40
   0   5 -14    6.11    1.98
   0   5 -14    5.39    1.65
   0   5 -15   41.08    3.08
   0   5 -15   48.24    3.34
   0   5  15   40.91    3.23
   0   6   0  412.44   21.11
   0   6   0  425.90   18.46
   0   6   0  381.33   20.00
   0   6   0  407.66   19.48
   0   6   0  406.36   17.68
   0   6   0  416.15   19.09
   0   6   0  407.65   19.89
   0   6   0  404.71   16.83
   0   6   0  429.64   19.22
   0   6   0  343.71   18.24
   0   6   1  568.49   24.96
   0   6   1  566.71   23.87
   0   6   1  579.38   21.89
   0   6  -1  618.06   25.82
   0   6   1  557.48   24.11
   0   6   1  585.17   25.70
   0   6  -1  632.33   25.25
   0   6   1  617.22   23.27
   0   6  -1  625.00   25.42
   0   6   1  578.51   26.19
   0   6  -1  609.78   21.03
   0   6   1  596.50   22.60
   0   6  -1  577.52   23.16
   0   6  -1  548.87   23.07
   0   6  -1  601.37   24.04
   0   6   1  546.59   23.82
   0   6  -1  581.67   22.64
   0   6  -1  573.67   23.71
   0   6   1  587.68   25.51
   0   6  -1  597.49   26.17
   0   6   2   80.76    8.75
   0   6   2   80.58    8.32
   0   6  -2   88.45    8.57
   0   6   2   79.54    6.26
   0   6   2   90.68    7.96
   0   6  -2   91.60    8.46
   0   6  -2   78.73    7.29
   0   6  -2   88.97    9.04
   0   6   2   75.97    7.86
   0   6   2   94.04    8.54
   0   6   2   82.87    8.20
   0   6   2   80.98    7.31
   0   6  -2   81.67    7.54
   0   6   2   94.24    8.29
   0   6   2   82.90    7.55
   0   6   2   84.94    8.42
   0   6  -2   91.86    8.66
   0   6   3   39.71    5.77
   0   6   3   36.01    5.43
   0   6   3   28.60    4.54
   0   6   3   35.37    4.84
   0   6   3   29.74    5.04
   0   6  -3   37.97    5.71
   0   6   3   35.17    5.81
   0   6   3   37.37    5.52
   0   6  -3   37.36    4.14
   0   6  -3   33.24    4.65
   0   6   3   35.25    4.36
   0   6   3   37.31    5.09
   0   6  -3   33.12    4.81
   0   6   3   32.23    5.34
   0   6  -3   38.32    5.99
   0   6  -3   41.99    5.83
   0   6  -3   34.04    4.86
   0   6  -3   29.97    4.74
   0   6  -3   41.09    5.43
   0   6   4   33.69    4.58
   0   6   4   32.38    4.27
   0   6  -4   34.40    5.15
   0   6   4   31.03    4.90
   0   6  -4   23.86    3.67
   0   6   4   41.15    5.90
   0   6   4   40.48    5.33
   0   6   4   32.09    5.32
   0   6  -4   33.57    4.85
   0   6  -4   38.94    5.57
   0   6  -4   28.75    4.27
   0   6  -4   33.57    5.39
   0   6  -4   26.68    4.78
   0   6   4   24.42    4.73
   0   6  -4   35.54    6.05
   0   6   4   38.03    5.54
   0   6   4   27.90    4.37
   0   6   4   39.30    5.81
   0   6   4   40.97    6.27
   0   6  -4   30.13    5.36
   0   6  -5  603.48   24.60
   0   6   5  616.79   27.30
   0   6   5  602.09   23.26
   0   6   5  621.53   26.17
   0   6   5  620.41   26.86
   0   6   5  613.75   23.22
   0   6   5  620.70   23.65
   0   6   5  622.33   26.60
   0   6   5  642.40   27.63
   0   6   5  623.15   28.26
   0   6  -5  634.96   26.74
   0   6  -5  609.10   23.07
   0   6   5  563.93   23.59
   0   6  -5  646.03   27.02
   0   6   5  598.82   25.78
   0   6   5  614.71   26.39
   0   6  -5  594.44   25.67
   0   6   5  609.88   26.50
   0   6   5  635.13   25.13
   0   6  -5  626.42   26.41
   0   6  -5  626.68   29.21
   0   6  -5  615.26   27.14
   0   6   6  192.76   13.47
   0   6   6  210.44   14.90
   0   6  -6  225.77   14.54
   0   6   6  216.58   14.24
   0   6   6  210.44   12.67
   0   6  -6  218.87   16.03
   0   6   6  228.17   15.13
   0   6   6  224.04   14.30
   0   6   6  228.19   14.53
   0   6  -6  193.40   11.97
   0   6   6  196.59   13.66
   0   6  -6  232.12   14.73
   0   6   6  213.30   12.50
   0   6   6  233.23   15.27
   0   6   6  218.46   14.45
   0   6  -6  206.65   12.12
   0   6  -6  193.16   13.57
   0   6   6  209.73   15.44
   0   6   7  516.96   22.19
   0   6   7  460.33   24.10
   0   6  -7  527.76   24.20
   0   6   7  518.69   25.13
   0   6   7  503.42   25.62
   0   6   7  532.71   24.54
   0   6  -7  468.86   20.99
   0   6   7  478.71   22.66
   0   6  -7  504.67   24.00
   0   6  -7  533.71   23.28
   0   6   7  499.25   23.29
   0   6  -7  562.73   27.30
   0   6   7  521.62   24.20
   0   6   7  497.94   23.19
   0   6  -7  493.02   21.70
   0   6   7  502.93   20.93
   0   6   7  504.70   24.31
   0   6  -7  460.13   23.47
   0   6  -8   27.57    5.01
   0   6   8   18.36    3.87
   0   6   8   23.27    4.72
   0   6  -8   19.94    4.15
   0   6  -8   18.97    3.75
   0   6   8   15.94    3.76
   0   6  -8   17.64    4.03
   0   6   8   18.99    4.69
   0   6  -8   19.30    4.43
   0   6  -8   15.51    3.47
   0   6   8   18.43    4.49
   0   6  -8   17.75    3.74
   0   6   8   20.74    4.58
   0   6  -8   20.31    3.50
   0   6   8   17.36    4.50
   0   6   8   17.32    4.10
   0   6   8   25.04    4.93
   0   6   8   14.83    3.71
   0   6  -8   23.42    4.45
   0   6  -8   20.64    5.06
   0   6   8   15.54    3.52
   0   6   9   57.34    7.41
   0   6   9   50.02    6.88
   0   6   9   47.73    5.79
   0   6   9   41.86    6.81
   0   6   9   48.58    6.99
   0   6   9   40.59    5.66
   0   6  -9   45.36    7.22
   0   6   9   42.28    5.87
   0   6  -9   52.04    6.75
   0   6  -9   58.82    7.38
   0   6   9   53.35    6.92
   0   6   9   46.96    6.07
   0   6   9   55.97    6.59
   0   6  -9   56.98    6.89
   0   6   9   56.28    7.16
   0   6  -9   53.24    6.16
   0   6  -9   45.99    6.51
   0   6  10   74.96    7.29
   0   6 -10   87.86    7.90
   0   6  10   96.05    9.08
   0   6  10   87.63    7.30
   0   6  10   87.13    7.75
   0   6  10   98.04    9.31
   0   6 -10   80.36    8.60
   0   6  10   86.79    8.07
   0   6  10   98.63    8.23
   0   6 -10   94.68    8.76
   0   6  10  103.62    9.16
   0   6 -10   84.75    8.21
   0   6  10   76.35    8.05
   0   6  10   85.19    8.82
   0   6  11   63.59    6.53
   0   6 -11   72.40    7.98
   0   6 -11   68.69    6.83
   0   6 -11   72.45    7.17
   0   6  11   61.63    6.66
   0   6  11   74.22    7.60
   0   6  11   64.63    5.91
   0   6  11   65.54    7.17
   0   6 -11   67.76    6.49
   0   6  11   59.91    6.70
   0   6  11   66.56    7.42
   0   6 -12  130.81    8.41
   0   6 -12  146.62    9.33
   0   6 -12  163.29   10.71
   0   6  12  142.42    9.85
   0   6 -12  142.42    8.65
   0   6  13    9.81    2.20
   0   6 -13    7.83    1.78
   0   6 -13    8.10    2.19
   0   6 -13    9.54    2.05
   0   6 -13    7.96    1.74
   0   6  13    6.78    1.87
   0   6  14   46.56    3.56
   0   6 -14   41.86    3.37
   0   7   0   -0.69    1.76
   0   7   0   -0.75    1.70
   0   7   0    0.66    1.50
   0   7   0    6.19    2.40
   0   7   0   -0.69    2.34
   0   7   0   -0.69    1.92
   0   7   0    0.57    1.84
   0   7   0    0.37    1.03
   0   7   0    1.71    1.84
   0   7   0   -0.57    1.44
   0   7   0    0.49    1.24
   0   7   0   -0.45    1.27
   0   7   0    1.84    1.56
   0   7  -1  289.73   17.09
   0   7   1  295.34   17.50
   0   7   1  261.85   14.43
   0   7  -1  308.58   16.06
   0   7   1  312.93   17.16
   0   7  -1  267.50   17.40
   0   7  -1  287.16   17.51
   0   7  -1  291.84   18.63
   0   7   1  287.28   16.49
   0   7  -1  252.26   15.87
   0   7  -1  270.08   14.20
   0   7   1  248.83   13.44
   0   7   1  268.30   14.16
   0   7   1  269.79   17.11
   0   7   1  319.04   18.73
   0   7   1  284.37   18.24
   0   7  -1  282.08   15.92
   0   7  -1  281.36   15.29
   0   7   1  260.22   15.36
   0   7   1  316.15   18.21
   0   7   1  321.64   17.46
   0   7   1  270.51   15.32
   0   7   2 1223.08   42.77
   0   7   2 1265.03   43.44
   0   7  -2 1314.36   44.50
   0   7  -2 1207.91   41.41
   0   7   2 1282.07   45.37
   0   7   2 1259.69   46.32
   0   7   2 1248.36   41.93
   0   7   2 1263.16   39.93
   0   7   2 1278.62   42.07
   0   7  -2 1256.50   41.87
   0   7   2 1227.14   43.49
   0   7  -2 1192.08   40.29
   0   7   2 1177.33   41.01
   0   7  -2 1169.62   41.42
   0   7  -2 1301.64   46.08
   0   7   2 1190.58   40.44
   0   7  -2 1232.17   41.75
   0   7   2 1284.59   44.47
   0   7  -2 1230.45   43.59
   0   7  -2 1224.42   44.53
   0   7  -3  311.54   16.74
   0   7   3  313.91   16.45
   0   7   3  295.59   16.50
   0   7  -3  321.16   19.66
   0   7   3  358.18   19.53
   0   7   3  366.80   19.30
   0   7  -3  343.89   18.96
   0   7   3  332.66   19.27
   0   7   3  324.42   16.91
   0   7   3  335.49   20.08
   0   7   3  334.31   17.69
   0   7   3  343.26   18.99
   0   7  -3  334.01   17.89
   0   7  -3  328.48   19.02
   0   7  -3  320.98   16.73
   0   7   3  382.22   19.52
   0   7   4  131.57   12.07
   0   7  -4  119.45   10.59
   0   7   4  121.07   10.82
   0   7   4  124.61    9.39
   0   7   4  123.78   10.24
   0   7   4  131.60   11.22
   0   7   4  103.50   10.12
   0   7  -4  123.16   10.96
   0   7   4  112.27    9.64
   0   7  -4  139.37   12.44
   0   7   4  111.10   10.35
   0   7   4  119.44    9.12
   0   7  -4  124.83   10.09
   0   7  -4  117.78   10.29
   0   7   4  127.06   10.88
   0   7   4  123.68   10.20
   0   7  -4  134.25    9.61
   0   7   4  107.83   10.77
   0   7  -5  223.67   16.36
   0   7  -5  223.17   12.18
   0   7   5  210.51   13.32
   0   7   5  210.00   14.96
   0   7   5  226.74   15.03
   0   7  -5  218.96   15.39
   0   7   5  228.19   12.57
   0   7   5  211.85   15.79
   0   7  -5  228.37   15.23
   0   7   5  233.20   14.99
   0   7   5  211.78   14.52
   0   7   5  242.30   16.16
   0   7  -5  224.52   14.77
   0   7   5  215.39   14.69
   0   7  -5  227.88   14.90
   0   7   5  204.08   13.90
   0   7  -6   71.61    9.08
   0   7   6   91.89    8.87
   0   7   6   64.09    7.47
   0   7  -6   70.56    7.62
   0   7  -6   70.19    8.39
   0   7  -6   68.01    7.77
   0   7   6   88.03    8.71
   0   7   6   69.75    8.25
   0   7   6   77.72    8.39
   0   7   6   92.07    9.49
   0   7   6   67.78    7.71
   0   7  -6   62.25    7.42
   0   7   6   60.82    6.64
   0   7  -6   70.24    8.07
   0   7   6   53.23    7.64
   0   7  -7  246.35   14.70
   0   7  -7  275.38   15.51
   0   7   7  270.98   15.96
   0   7   7  250.70   15.24
   0   7   7  272.40   16.84
   0   7   7  243.35   15.20
   0   7  -7  250.57   15.41
   0   7   7  251.78   15.22
   0   7   7  262.87   16.26
   0   7   7  243.71   15.17
   0   7   7  259.56   15.19
   0   7  -7  235.87   15.29
   0   7  -7  240.89   15.45
   0   7  -7  265.28   15.57
   0   7  -7  262.00   16.68
   0   7   7  244.00   15.33
   0   7  -8  130.73   10.47
   0   7   8  142.97   11.13
   0   7   8  129.65   10.20
   0   7   8  131.07   10.95
   0   7  -8  143.34   11.22
   0   7   8  144.44   10.51
   0   7  -8  141.79   11.63
   0   7   8  146.38   11.24
   0   7   8  150.15   11.24
   0   7   8  145.54   10.45
   0   7  -8  120.40    9.67
   0   7   9   47.98    5.98
   0   7   9   46.83    6.02
   0   7   9   46.95    5.36
   0   7  -9   37.79    4.11
   0   7  -9   43.85    4.30
   0   7   9   36.18    4.98
   0   7   9   36.87    5.52
   0   7  -9   43.35    6.13
   0   7  -9   41.18    5.58
   0   7   9   40.40    5.50
   0   7  -9   48.59    5.66
   0   7   9   54.55    6.49
   0   7   9   42.09    5.40
   0   7   9   48.79    5.28
   0   7 -10   43.12    5.69
   0   7  10   38.64    5.21
   0   7  10   41.27    4.64
   0   7 -10   37.31    3.60
   0   7  10   41.74    5.27
   0   7  10   38.57    4.93
   0   7 -10   39.28    5.02
   0   7 -10   29.56    3.26
   0   7  11  153.71    9.32
   0   7 -11  161.38    9.09
   0   7  11  121.11    6.38
   0   7 -11  167.69   10.07
   0   7  12    0.80    1.17
   0   7 -12    1.65    1.13
   0   7 -12    1.40    1.13
   0   7  12    1.46    0.89
   0   8   0  510.18   25.35
   0   8   0  542.41   24.12
   0   8   0  542.02   23.86
   0   8   0  578.38   25.45
   0   8   0  565.18   25.88
   0   8   0  560.01   27.05
   0   8   0  528.74   25.24
   0   8   0  494.02   21.16
   0   8   0  500.69   22.56
   0   8   1   25.80    5.04
   0   8   1   22.34    4.70
   0   8  -1   17.01    4.23
   0   8   1   20.00    4.29
   0   8  -1   12.17    3.19
   0   8  -1   18.94    4.76
   0   8   1   22.65    4.75
   0   8  -1   14.94    3.32
   0   8  -1   23.29    4.35
   0   8  -1   17.50    3.87
   0   8   1   17.23    4.38
   0   8  -1   22.09    4.88
   0   8  -1   21.34    4.29
   0   8  -1   24.52    4.78
   0   8   1   24.63    5.02
   0   8  -1   18.34    4.41
   0   8  -1   25.80    5.08
   0   8   1   26.08    4.90
   0   8   1   20.18    3.83
   0   8   2   20.19    3.75
   0   8  -2   25.81    5.26
   0   8  -2   32.61    5.38
   0   8  -2   20.17    3.84
   0   8   2   20.06    4.46
   0   8  -2   18.87    3.43
   0   8   2   24.11    4.79
   0   8   2   16.60    3.62
   0   8  -2   24.01    5.10
   0   8  -2   17.93    3.73
   0   8  -2   17.70    4.32
   0   8   2   24.95    5.13
   0   8  -2   18.17    4.60
   0   8  -2   25.81    4.69
   0   8  -2   23.36    4.86
   0   8  -2   25.17    4.75
   0   8  -2   25.32    4.31
   0   8   2   19.98    4.80
   0   8  -3   80.27    8.90
   0   8   3   87.57    8.97
   0   8   3   79.12    7.95
   0   8  -3   76.22    7.13
   0   8   3   81.27    8.45
   0   8  -3   86.50    8.05
   0   8  -3   78.06    8.68
   0   8   3   70.47    6.44
   0   8   3   74.24    7.18
   0   8  -3   81.34    8.34
   0   8   3   79.06    8.73
   0   8  -3   89.32    8.83
   0   8  -3   69.97    7.47
   0   8   3   86.85    8.68
   0   8  -3   71.59    7.04
   0   8   3   70.92    6.96
   0   8  -3   89.32    8.70
   0   8   4  104.02    8.99
   0   8  -4  104.69    8.65
   0   8  -4  112.12    9.81
   0   8   4  101.42    9.98
   0   8   4   92.95    9.18
   0   8  -4  108.75    8.67
   0   8   4   99.77    7.85
   0   8  -4  101.15    9.43
   0   8  -4  101.85    9.63
   0   8  -4  113.04   10.32
   0   8   4  106.03    8.80
   0   8   4  106.27   10.02
   0   8   4  109.19    9.69
   0   8  -4  102.75    8.88
   0   8   4   95.97    9.22
   0   8   4  104.59    9.40
   0   8  -5  107.29    9.17
   0   8  -5  102.91    8.56
   0   8   5  114.73    8.95
   0   8   5  101.99    9.36
   0   8  -5  106.01    9.53
   0   8   5  132.26   11.06
   0   8   5  108.75    9.86
   0   8  -5  108.32    8.61
   0   8  -5  115.60    9.74
   0   8   5  111.97    7.51
   0   8   5  122.90    9.84
   0   8   5  105.67    8.91
   0   8   5  115.30    9.73
   0   8   5  121.45   10.06
   0   8   6  390.15   19.87
   0   8  -6  412.16   19.18
   0   8   6  393.01   18.95
   0   8   6  404.64   19.30
   0   8   6  374.41   19.25
   0   8  -6  392.20   19.45
   0   8   6  358.50   17.64
   0   8   6  418.87   18.97
   0   8  -6  374.86   17.23
   0   8  -6  374.39   18.70
   0   8   6  375.88   18.27
   0   8   7  166.96   10.84
   0   8   7  144.49   10.13
   0   8   7  136.92   10.30
   0   8   7  154.50   10.40
   0   8  -7  140.04    9.94
   0   8   7  139.58    9.28
   0   8   7  141.96   10.07
   0   8   7  147.99   10.27
   0   8  -7  152.69   10.95
   0   8   7  136.13   10.44
   0   8  -7  138.27    9.68
   0   8  -8   70.69    6.34
   0   8  -8   70.53    6.87
   0   8  -8   67.72    6.34
   0   8   8   67.53    6.71
   0   8   8   60.08    5.07
   0   8   8   61.56    6.15
   0   8   9   44.67    4.83
   0   8   9   44.47    4.91
   0   8   9   45.63    4.41
   0   8  -9   38.85    4.42
   0   8  -9   48.29    5.21
   0   8  10    8.36    2.03
   0   8 -10   12.81    2.39
   0   8 -10    9.22    2.00
   0   8 -11   23.18    2.30
   0   8 -11   20.60    2.26
   0   8  11   22.08    2.29
   0   8 -11   16.86    2.06
   0   9   0   -0.95    1.43
   0   9   0   -0.31    0.99
   0   9   0    0.43    1.47
   0   9   0    1.01    1.63
   0   9   0   -0.55    1.39
   0   9   0   -0.53    0.85
   0   9   0    0.45    1.15
   0   9   1   79.17    7.80
   0   9  -1   83.31    7.48
   0   9  -1   71.48    6.20
   0   9   1   84.64    7.78
   0   9  -1   92.67    8.51
   0   9  -1   85.97    8.12
   0   9  -1   86.79    7.55
   0   9   1   82.62    8.19
   0   9  -1   72.68    7.52
   0   9   2   64.78    6.81
   0   9  -2   62.78    6.56
   0   9   2   64.03    6.96
   0   9  -2   68.65    6.19
   0   9  -2   78.61    7.77
   0   9   2   61.43    6.85
   0   9   2   65.64    6.69
   0   9  -2   64.47    6.88
   0   9   2   64.73    5.99
   0   9  -2   68.01    7.27
   0   9   3   32.67    4.72
   0   9   3   31.14    3.79
   0   9   3   32.54    4.90
   0   9  -3   34.20    5.15
   0   9   3   25.98    4.23
   0   9  -3   26.74    4.24
   0   9  -3   22.55    4.01
   0   9   3   28.89    4.58
   0   9   3   27.48    4.55
   0   9   3   30.61    4.39
   0   9  -3   39.22    5.37
   0   9  -3   34.92    4.33
   0   9   4   35.63    4.48
   0   9  -4   32.61    4.86
   0   9   4   34.97    5.04
   0   9  -4   30.15    3.30
   0   9  -4   43.12    5.61
   0   9   4   37.73    5.06
   0   9   4   41.00    5.14
   0   9   4   41.73    5.21
   0   9  -4   36.68    4.48
   0   9   4   35.01    3.31
   0   9  -4   35.70    4.74
   0   9  -5   64.92    4.98
   0   9  -5   72.40    6.43
   0   9   5   59.60    6.19
   0   9   5   58.70    5.29
   0   9   5   63.85    6.35
   0   9  -5   67.76    6.54
   0   9  -5   80.83    7.25
   0   9   5   76.81    6.65
   0   9  -5   72.34    6.05
   0   9   6  123.78    8.07
   0   9  -6  114.88    6.60
   0   9  -6  117.64    8.46
   0   9   6  131.10    8.63
   0   9  -6  119.45    7.81
   0   9   6  120.27    8.20
   0   9  -6  118.34    7.55
   0   9   7   99.39    6.52
   0   9   7  103.17    6.94
   0   9  -7  108.43    6.63
   0   9  -7  111.39    7.43
   0   9  -7   90.57    5.53
   0   9  -8  143.62    6.47
   0   9   8  164.00    7.81
   0   9  -8  169.80    8.40
   0  10   0   98.83    6.22
   0  10   0   93.04    6.71
   0  10   0   93.61    5.59
   0  10   1   10.80    2.30
   0  10   1    7.39    1.78
   0  10   1    8.26    1.47
   0  10   1    7.41    1.71
   0  10  -1    6.23    1.51
   0  10   2    2.54    1.25
   0  10  -2    1.13    0.93
   0  10   2    1.50    1.14
   0  10  -2    0.25    0.90
   0  10   2    0.35    0.66
   0  10  -3    8.58    1.82
   0  10   3    7.89    1.79
   0  10   3    7.83    1.83
   0  10  -3    9.48    1.85
   0  10   4   75.91    5.10
   0  10   4   81.54    5.09
   0  10  -4   80.72    4.93
   0  10  -4   79.88    5.09
   0  10   5   89.32    4.78
   0  10  -5   84.40    4.74
   1 -10  -4   99.82    5.24
   1 -10  -3   77.89    4.93
   1 -10  -3   82.83    4.78
   1 -10  -2   11.34    1.96
   1 -10  -2   14.35    2.17
   1 -10  -1   10.33    1.87
  -1 -10   1   11.13    2.03
   1 -10   0   96.66    5.90
  -1 -10   0  106.81    6.33
  -1 -10  -1   34.39    3.48
   1 -10   1   32.77    3.15
  -1 -10  -2   91.96    5.76
  -1 -10  -3   13.66    2.01
  -1 -10  -3    8.34    1.31
  -1 -10  -4    7.36    1.28
   1  -9  -8   16.29    1.86
  -1  -9   8   17.03    2.42
   1  -9  -7  159.77    8.14
  -1  -9   7  169.16    9.26
  -1  -9   6   66.18    5.75
  -1  -9   6   75.13    6.53
   1  -9  -6   68.01    4.62
   1  -9  -6   77.56    5.96
  -1  -9   5  103.39    8.32
   1  -9  -5  119.82    8.17
  -1  -9   5  113.27    8.18
  -1  -9   4  148.08    9.88
   1  -9  -4  152.14    9.88
   1  -9  -4  144.61    8.89
  -1  -9   4  140.69   10.18
  -1  -9   3   58.27    6.11
   1  -9  -3   53.09    5.54
  -1  -9   3   54.71    6.38
   1  -9  -3   68.65    6.53
  -1  -9   2   59.78    6.27
   1  -9  -2   63.55    6.40
  -1  -9   2   61.27    6.20
   1  -9  -2   55.15    6.14
  -1  -9   1   10.21    2.83
   1  -9  -1   13.94    3.08
   1  -9  -1    8.18    2.65
  -1  -9   1   15.11    3.18
   1  -9   0   41.41    5.03
  -1  -9   0   49.37    5.72
   1  -9   0   51.37    6.04
  -1  -9  -1   28.81    4.40
  -1  -9  -1   22.42    3.77
   1  -9   1   22.08    4.02
   1  -9   1   20.89    4.01
   1  -9   2   35.10    4.94
  -1  -9  -2   47.01    5.64
   1  -9   2   33.94    5.01
  -1  -9  -2   39.76    5.39
   1  -9   2   39.32    5.08
  -1  -9  -3   32.31    4.26
   1  -9   3   40.03    5.08
   1  -9   3   30.41    4.67
  -1  -9  -3   40.82    4.98
   1  -9   4   41.62    4.71
   1  -9   4   45.16    5.16
   1  -9   4   46.07    5.53
  -1  -9  -4   41.73    4.73
  -1  -9  -4   53.75    5.44
  -1  -9  -5   54.20    5.13
  -1  -9  -5   51.63    5.15
   1  -9   5   52.44    4.65
   1  -9   5   57.71    5.93
  -1  -9  -6  150.54    8.46
  -1  -9  -6  130.12    7.34
  -1  -9  -6  124.06    7.48
   1  -9   6  129.73    8.60
   1  -9   7  114.99    7.29
  -1  -9  -7  115.15    6.82
  -1  -9  -7  112.90    6.45
   1  -9   8   20.68    2.51
  -1  -9  -8   27.04    2.66
  -1  -9  -8   21.96    2.39
   1  -8 -10    5.36    1.39
   1  -8 -10    7.16    1.73
  -1  -8  10    5.20    1.69
   1  -8 -10    7.16    1.67
   1  -8  -9  107.65    7.01
  -1  -8   9   86.01    5.94
   1  -8  -9  107.15    7.18
   1  -8  -9  106.61    7.27
  -1  -8   9  103.02    7.90
   1  -8  -8   10.78    2.55
  -1  -8   8   10.98    3.18
   1  -8  -8   10.98    2.50
  -1  -8   8    7.13    2.19
  -1  -8   8    9.66    2.38
   1  -8  -8    9.57    2.59
   1  -8  -7   23.78    4.03
  -1  -8   7   23.65    3.84
   1  -8  -7   28.92    4.17
   1  -8  -7   31.84    4.46
  -1  -8   7   28.75    4.96
  -1  -8   7   25.80    4.08
  -1  -8   7   34.36    4.80
   1  -8  -7   26.22    3.38
   1  -8  -7   20.14    3.68
   1  -8  -6  196.91   12.36
   1  -8  -6  192.71   10.94
  -1  -8   6  170.93   11.25
  -1  -8   6  173.94   11.46
   1  -8  -6  188.95   11.86
  -1  -8   6  202.88   12.92
   1  -8  -6  185.98   11.48
   1  -8  -6  162.29   10.88
  -1  -8   6  189.22   13.36
   1  -8  -5   45.47    5.94
   1  -8  -5   45.72    5.45
  -1  -8   5   49.21    5.93
  -1  -8   5   27.61    4.45
  -1  -8   5   46.43    6.24
  -1  -8   5   44.92    6.50
  -1  -8   4  136.33   10.23
  -1  -8   4  151.96   11.55
   1  -8  -4  118.06   10.44
   1  -8  -4  147.09   11.20
  -1  -8   4  144.09   12.03
   1  -8  -4  106.67    8.70
  -1  -8   3  229.79   14.69
  -1  -8   3  221.32   13.18
   1  -8  -3  197.43   14.11
  -1  -8   3  204.79   14.87
   1  -8  -3  227.08   14.48
  -1  -8   3  231.97   14.17
  -1  -8   3  230.17   13.70
  -1  -8   2  231.89   13.51
  -1  -8   2  224.91   15.38
  -1  -8   2  210.66   12.59
  -1  -8   2  209.83   14.21
  -1  -8   2  203.41   13.66
   1  -8  -2  213.36   14.03
   1  -8  -2  199.40   14.27
   1  -8  -2  202.58   14.29
   1  -8  -1  305.55   17.71
  -1  -8   1  320.71   16.58
  -1  -8   1  314.55   17.73
  -1  -8   1  305.79   15.48
   1  -8  -1  315.49   18.65
  -1  -8   1  314.81   16.23
  -1  -8   1  320.59   18.46
   1  -8  -1  334.57   18.21
  -1  -8   1  320.29   18.91
   1  -8  -1  317.76   18.40
  -1  -8   1  316.84   17.65
  -1  -8   0  131.39   10.05
  -1  -8   0  128.19   11.02
  -1  -8   0  140.50    9.35
   1  -8   0  151.97   11.88
  -1  -8   0  133.12   10.82
  -1  -8   0  129.81   11.55
   1  -8   0  143.17   11.78
  -1  -8   0  123.54    9.51
  -1  -8   0  139.07   11.60
   1  -8   0  136.62   10.88
   1  -8   0  143.54   12.10
   1  -8   1  186.69   13.51
  -1  -8  -1  194.24   13.36
   1  -8   1  193.07   13.61
  -1  -8  -1  186.15   12.65
   1  -8   1  181.29   10.47
  -1  -8  -1  185.36   13.61
   1  -8   1  189.00   14.18
  -1  -8  -1  168.55   10.93
  -1  -8  -2  186.71   12.12
  -1  -8  -2  173.73   12.14
  -1  -8  -2  182.19   13.35
   1  -8   2  167.19   10.44
  -1  -8  -2  188.88   12.80
  -1  -8  -2  191.59   13.17
   1  -8   2  178.35   12.95
   1  -8   2  157.17   12.60
  -1  -8  -2  166.87   10.49
   1  -8   2  179.13   12.98
  -1  -8  -2  170.15   11.30
   1  -8   2  197.59   14.52
   1  -8   3  189.69   13.23
   1  -8   3  163.21   10.78
  -1  -8  -3  198.45   13.11
  -1  -8  -3  196.14   11.88
  -1  -8  -3  200.12   13.03
   1  -8   3  174.11   13.08
  -1  -8  -3  201.07   13.28
  -1  -8  -3  198.72   13.90
   1  -8   3  186.01   14.13
   1  -8   3  182.31   13.07
   1  -8   4  235.54   13.37
  -1  -8  -4  264.31   15.41
   1  -8   4  276.61   17.26
   1  -8   4  266.44   16.05
  -1  -8  -4  259.95   15.90
  -1  -8  -4  253.01   14.95
   1  -8   4  249.69   15.19
  -1  -8  -4  274.93   15.53
  -1  -8  -4  262.39   14.54
   1  -8   5   89.39    8.26
  -1  -8  -5   65.87    6.94
  -1  -8  -5   84.47    8.15
  -1  -8  -5   83.02    7.78
   1  -8   5   73.71    7.07
  -1  -8  -5   84.24    8.13
   1  -8   5   85.04    7.97
   1  -8   5   95.82    9.66
   1  -8   6   28.52    4.25
  -1  -8  -6   22.62    4.25
   1  -8   6   25.87    4.08
   1  -8   6   29.31    5.39
  -1  -8  -6   34.77    4.99
  -1  -8  -6   33.74    4.91
  -1  -8  -6   29.59    4.49
  -1  -8  -7   17.17    3.04
  -1  -8  -7   16.31    3.26
   1  -8   7   22.00    3.63
   1  -8   7   17.66    2.96
   1  -8   7   19.34    4.25
  -1  -8  -7   20.49    3.79
  -1  -8  -8  329.31   13.29
   1  -8   8  358.96   15.63
  -1  -8  -8  376.00   16.55
  -1  -8  -8  391.90   16.42
   1  -8   8  397.44   18.38
   1  -8   9   72.65    6.52
   1  -8   9   61.82    5.06
  -1  -8  -9   67.86    5.65
  -1  -8  -9   57.18    5.15
  -1  -8 -10   76.32    5.03
   1  -8  10   76.00    4.76
  -1  -8 -10   94.85    5.64
   1  -8  10   88.41    6.19
  -1  -8 -10   89.73    5.49
  -1  -7  12   28.51    3.29
   1  -7 -12   28.19    2.79
   1  -7 -12   26.48    2.86
  -1  -7  11  106.70    8.13
   1  -7 -11  126.44    8.10
   1  -7 -11  124.07    7.70
   1  -7 -11  130.81    8.37
   1  -7 -10   14.34    2.93
  -1  -7  10    8.55    2.88
   1  -7 -10   11.84    2.76
  -1  -7  10    7.98    2.68
   1  -7 -10    8.11    2.49
   1  -7  -9  105.74    8.26
   1  -7  -9  114.26    8.93
  -1  -7   9  114.05   10.06
   1  -7  -9  126.86    9.78
  -1  -7   9  112.10    8.82
   1  -7  -9  132.17    9.75
  -1  -7   9  120.30   10.46
  -1  -7   8    6.77    2.89
  -1  -7   8   10.06    2.52
   1  -7  -8    7.56    1.94
   1  -7  -8    4.96    2.52
  -1  -7   8    7.55    2.44
   1  -7  -8    7.98    2.85
  -1  -7   8   10.58    3.02
   1  -7  -8    8.56    2.76
  -1  -7   8    7.18    3.16
   1  -7  -7   33.80    4.55
  -1  -7   7   39.18    5.55
  -1  -7   7   37.99    5.82
  -1  -7   7   38.50    6.48
  -1  -7   7   29.74    5.60
   1  -7  -7   46.85    6.27
  -1  -7   7   37.37    4.79
   1  -7  -7   48.82    6.46
   1  -7  -7   39.88    5.73
   1  -7  -6    4.30    1.97
   1  -7  -6    6.03    2.67
  -1  -7   6    9.61    2.47
  -1  -7   6    9.97    2.97
   1  -7  -6   10.31    3.27
  -1  -7   6    6.97    2.98
   1  -7  -6   11.12    3.13
   1  -7  -6    5.33    2.62
  -1  -7   6    9.08    3.67
   1  -7  -5   31.83    5.09
  -1  -7   5   22.59    4.31
   1  -7  -5   20.32    3.77
   1  -7  -5   25.53    4.70
  -1  -7   5   20.03    4.05
  -1  -7   5   20.24    4.50
   1  -7  -5   23.72    4.92
  -1  -7   5   23.04    5.21
   1  -7  -5   20.15    4.46
   1  -7  -5   21.74    4.43
  -1  -7   5   24.46    3.73
   1  -7  -4  448.92   23.51
   1  -7  -4  432.68   20.78
  -1  -7   4  469.80   24.70
   1  -7  -4  457.49   23.12
   1  -7  -4  459.31   21.03
   1  -7  -4  505.45   23.55
  -1  -7   4  466.71   21.59
  -1  -7   4  474.08   23.42
  -1  -7   4  431.62   19.83
   1  -7  -3  148.59   10.78
   1  -7  -3  126.02   10.19
  -1  -7   3  128.70   10.14
  -1  -7   3  121.11    9.35
   1  -7  -3  136.50   12.08
   1  -7  -3  131.04   10.94
  -1  -7   3  130.20   11.19
  -1  -7   3  124.63    9.40
   1  -7  -3  146.42   10.99
  -1  -7   3  120.66   10.60
  -1  -7   3  121.95   10.77
  -1  -7   3  126.46   11.93
  -1  -7   3  131.99   11.32
   1  -7  -3  139.59   11.21
   1  -7  -3  127.68   11.23
  -1  -7   3  119.33    9.85
   1  -7  -3  128.04   11.38
   1  -7  -3  133.34   10.03
   1  -7  -2   12.49    3.56
   1  -7  -2    5.74    2.26
   1  -7  -2    8.05    2.94
   1  -7  -2    7.62    2.81
   1  -7  -2    8.93    3.59
   1  -7  -2   10.70    3.55
   1  -7  -2    7.63    2.60
  -1  -7   2    6.02    2.44
  -1  -7   2    8.50    2.80
  -1  -7   2    9.48    3.10
  -1  -7   2   10.16    3.32
  -1  -7   2    6.69    3.06
  -1  -7   2    9.20    3.09
   1  -7  -2    5.80    2.48
  -1  -7   2    9.10    2.94
  -1  -7   2    8.02    2.78
   1  -7  -2    4.80    2.05
   1  -7  -1  100.57   10.37
   1  -7  -1  101.30    9.62
   1  -7  -1  100.36    8.18
   1  -7  -1  105.39    8.56
   1  -7  -1  100.33    7.98
  -1  -7   1   98.78    9.64
   1  -7  -1   97.55    7.99
  -1  -7   1  118.55    9.64
  -1  -7   1  110.28    9.97
  -1  -7   1  102.53    8.64
  -1  -7   1  124.35   11.37
  -1  -7   1  111.11   10.37
   1  -7  -1  116.72   10.33
  -1  -7   1   96.75    7.89
  -1  -7   1  100.02    9.36
   1  -7  -1  112.48   10.61
   1  -7   0  171.82   11.02
  -1  -7   0  177.82   12.72
   1  -7   0  160.17   12.97
  -1  -7   0  190.14   13.37
   1  -7   0  164.17   12.79
  -1  -7   0  167.43   12.94
  -1  -7   0  178.56   13.73
  -1  -7   0  149.31   10.57
   1  -7   0  155.03   12.93
  -1  -7   0  160.87   11.69
   1  -7   0  187.79   12.11
  -1  -7   0  164.49   10.85
   1  -7   0  156.91   12.19
   1  -7   0  166.26   13.52
  -1  -7   0  180.11   12.21
  -1  -7  -1  280.19   15.62
   1  -7   1  261.21   17.19
   1  -7   1  259.92   14.77
   1  -7   1  271.04   14.58
  -1  -7  -1  302.79   15.81
   1  -7   1  273.43   17.24
  -1  -7  -1  283.97   17.33
   1  -7   1  304.35   17.71
   1  -7   1  273.51   18.11
  -1  -7  -1  260.98   17.11
  -1  -7  -1  300.78   16.70
  -1  -7  -1  295.09   17.17
  -1  -7  -1  268.27   13.96
  -1  -7  -1  280.60   16.26
  -1  -7  -2    4.69    2.54
   1  -7   2    5.82    2.76
   1  -7   2    8.25    2.66
  -1  -7  -2    1.63    1.64
   1  -7   2    8.97    2.89
  -1  -7  -2    7.00    2.11
   1  -7   2    5.40    2.78
  -1  -7  -2    9.12    2.65
  -1  -7  -2    4.81    2.35
   1  -7   2    7.80    3.13
  -1  -7  -2    5.32    2.70
  -1  -7  -2    5.88    2.42
  -1  -7  -2    7.45    2.92
   1  -7   2    6.88    2.89
   1  -7   2    5.83    2.11
   1  -7   3   57.77    6.59
   1  -7   3   64.17    7.77
  -1  -7  -3   58.83    7.36
  -1  -7  -3   50.48    5.89
   1  -7   3   73.90    9.12
   1  -7   3   61.08    6.61
  -1  -7  -3   61.82    7.32
   1  -7   3   65.62    8.21
  -1  -7  -3   59.82    6.67
  -1  -7  -3   62.64    7.90
   1  -7   3   61.39    7.12
  -1  -7  -3   60.69    7.31
  -1  -7  -3   73.71    8.46
  -1  -7  -3   58.43    6.86
  -1  -7  -3   49.83    6.04
   1  -7   3   66.35    8.03
  -1  -7  -4   87.17    8.74
  -1  -7  -4   82.56    7.69
  -1  -7  -4   86.48    8.73
   1  -7   4   79.14    8.39
  -1  -7  -4   70.90    7.74
   1  -7   4   76.72    8.45
  -1  -7  -4   78.33    7.33
   1  -7   4   74.60    8.84
  -1  -7  -4   77.03    8.41
  -1  -7  -4   71.68    8.26
  -1  -7  -4   86.98    9.30
   1  -7   5  335.31   18.15
  -1  -7  -5  323.82   16.82
   1  -7   5  324.10   17.90
  -1  -7  -5  310.49   17.28
  -1  -7  -5  276.11   17.34
  -1  -7  -5  342.42   18.30
  -1  -7  -5  333.92   18.47
  -1  -7  -5  317.61   18.61
   1  -7   5  304.68   17.86
  -1  -7  -6  678.46   28.09
  -1  -7  -6  687.12   27.64
  -1  -7  -6  738.63   29.23
  -1  -7  -6  643.35   27.05
  -1  -7  -6  734.14   29.54
  -1  -7  -6  647.85   29.17
   1  -7   6  711.69   28.74
  -1  -7  -7  251.74   14.07
   1  -7   7  263.54   16.01
  -1  -7  -7  259.04   15.23
  -1  -7  -7  260.62   15.52
  -1  -7  -7  271.59   15.79
   1  -7   7  256.59   14.67
  -1  -7  -7  262.23   15.70
   1  -7   8  192.58   13.09
  -1  -7  -8  192.97   10.95
   1  -7   8  183.15   11.17
  -1  -7  -8  191.14   12.18
  -1  -7  -8  184.30   12.28
  -1  -7  -8  205.49   13.05
  -1  -7  -8  197.42   12.65
   1  -7   9   99.95    8.78
  -1  -7  -9  108.33    8.71
   1  -7   9   85.95    6.17
  -1  -7  -9  103.83    8.38
  -1  -7 -10   31.31    4.24
   1  -7  10   34.18    4.68
  -1  -7 -10   28.62    4.18
  -1  -7 -11  226.59   10.54
   1  -7  11  202.68   10.94
  -1  -7 -12   95.39    5.46
   1  -7  12  107.16    6.64
  -1  -7 -12   87.28    4.74
   1  -7  12  112.62    6.19
  -1  -6  13  105.03    7.46
  -1  -6  13  110.25    7.27
   1  -6 -13  111.99    6.49
   1  -6 -13   98.12    5.42
   1  -6 -12  143.51    9.57
   1  -6 -12  149.85    9.03
   1  -6 -12  151.58    9.24
  -1  -6  12  161.47   10.95
  -1  -6  12  152.14   10.38
   1  -6 -11  185.43   11.60
  -1  -6  11  181.43   12.90
   1  -6 -11  171.89   11.71
   1  -6 -11  172.95   10.75
  -1  -6  11  190.56   13.03
   1  -6 -10  315.70   16.21
  -1  -6  10  303.28   18.39
  -1  -6  10  273.73   17.39
   1  -6 -10  297.59   16.80
   1  -6 -10  311.47   16.55
  -1  -6  10  285.21   15.37
  -1  -6   9   86.83    8.32
  -1  -6   9  103.18   10.66
   1  -6  -9   86.50    8.15
   1  -6  -9   85.07    9.09
  -1  -6   9   91.78    9.97
   1  -6  -9   90.16    8.27
   1  -6  -9   95.26    9.00
  -1  -6   8  134.55   10.94
   1  -6  -8  128.38   11.40
  -1  -6   8  119.32   11.29
   1  -6  -8  102.64    8.87
  -1  -6   8  113.98   11.56
  -1  -6   8  102.33   10.88
   1  -6  -8  117.39   10.43
  -1  -6   8  121.91   10.04
   1  -6  -8  112.19   10.45
   1  -6  -8  118.53    8.41
  -1  -6   7  121.92   10.63
   1  -6  -7   97.73    8.34
  -1  -6   7  117.44   11.31
   1  -6  -7  117.91   10.43
  -1  -6   7  122.40   11.91
   1  -6  -7  106.09    8.81
  -1  -6   7  117.36    9.30
  -1  -6   7  120.03   10.03
   1  -6  -7  107.07   10.30
   1  -6  -7  120.59   10.45
  -1  -6   7  110.07   11.07
   1  -6  -7  109.80   10.21
   1  -6  -6  480.65   21.71
   1  -6  -6  577.02   25.91
  -1  -6   6  533.92   27.55
  -1  -6   6  577.12   23.23
   1  -6  -6  597.70   25.88
  -1  -6   6  596.91   27.71
  -1  -6   6  555.54   25.65
   1  -6  -6  553.41   22.31
  -1  -6   6  641.44   28.62
  -1  -6   6  555.32   23.63
  -1  -6   6  545.55   24.42
   1  -6  -6  578.92   25.27
   1  -6  -5   31.30    4.34
  -1  -6   5   45.61    6.80
   1  -6  -5   35.55    5.51
   1  -6  -5   37.42    5.89
  -1  -6   5   33.84    6.07
  -1  -6   5   37.58    5.86
  -1  -6   5   37.00    6.49
   1  -6  -5   32.09    4.63
   1  -6  -5   22.63    4.59
  -1  -6   5   31.60    4.15
  -1  -6   5   34.53    4.63
  -1  -6   5   41.85    5.72
   1  -6  -5   26.33    5.34
   1  -6  -5   36.00    5.51
  -1  -6   5   36.44    5.39
   1  -6  -5   34.12    5.56
   1  -6  -4   39.30    5.53
   1  -6  -4   33.25    5.30
  -1  -6   4   40.91    6.42
   1  -6  -4   37.50    5.16
   1  -6  -4   36.73    5.73
  -1  -6   4   46.32    6.43
   1  -6  -4   39.21    6.12
  -1  -6   4   31.23    5.86
  -1  -6   4   30.55    4.20
  -1  -6   4   28.69    4.79
   1  -6  -4   31.19    4.90
  -1  -6   4   42.48    5.92
  -1  -6   4   35.44    4.62
   1  -6  -4   37.69    5.92
   1  -6  -3   14.00    3.14
   1  -6  -3   15.87    3.74
  -1  -6   3   12.96    3.33
  -1  -6   3   16.18    3.97
  -1  -6   3   11.02    3.56
  -1  -6   3   13.58    3.46
  -1  -6   3    6.28    3.29
   1  -6  -3    9.26    2.86
   1  -6  -3   18.02    3.71
  -1  -6   3   11.18    3.56
   1  -6  -3   15.11    3.90
  -1  -6   3   11.65    2.84
  -1  -6   3   14.13    3.35
   1  -6  -3    9.37    2.80
  -1  -6   3   13.39    2.64
   1  -6  -3   12.22    3.31
   1  -6  -3   11.79    3.55
   1  -6  -3   14.61    3.31
   1  -6  -2  113.48    8.35
  -1  -6   2  108.23    7.13
   1  -6  -2   92.03    8.75
  -1  -6   2  105.72    9.42
   1  -6  -2   91.79    8.06
   1  -6  -2  113.72    8.86
  -1  -6   2  110.08   10.43
  -1  -6   2   98.57    9.07
  -1  -6   2  118.11    9.96
  -1  -6   2  107.08    7.05
  -1  -6   2  128.44   10.64
   1  -6  -2   95.23    8.57
  -1  -6   2   98.07    8.23
   1  -6  -2  103.28   10.06
   1  -6  -2   96.35    9.14
  -1  -6   2  116.66    8.08
  -1  -6   2  105.17    9.02
   1  -6  -2  105.16    8.73
   1  -6  -2   94.49    9.35
   1  -6  -1   43.07    5.47
  -1  -6   1   52.56    5.95
   1  -6  -1   51.67    4.55
  -1  -6   1   48.88    5.57
  -1  -6   1   40.33    4.48
   1  -6  -1   52.63    6.52
   1  -6  -1   47.87    5.39
  -1  -6   1   57.16    6.78
  -1  -6   1   37.66    6.12
   1  -6  -1   46.44    6.00
  -1  -6   1   43.74    5.14
   1  -6  -1   53.36    7.04
   1  -6  -1   51.75    6.83
   1  -6  -1   42.48    5.13
   1  -6  -1   52.69    5.78
   1  -6  -1   49.20    6.87
   1  -6  -1   51.56    5.66
  -1  -6   1   45.97    6.05
  -1  -6   1   42.99    6.06
  -1  -6   1   49.09    6.23
  -1  -6   1   47.16    5.77
   1  -6  -1   47.29    5.35
   1  -6  -1   55.90    6.75
  -1  -6   1   47.51    6.11
  -1  -6   0  120.72   10.00
   1  -6   0  109.26    9.55
   1  -6   0  100.40    7.56
   1  -6   0  104.40    7.87
  -1  -6   0   86.23    8.60
   1  -6   0  102.13    7.89
  -1  -6   0  119.09    9.27
  -1  -6   0  115.10    9.95
   1  -6   0  113.70    9.45
  -1  -6   0  115.62   10.39
  -1  -6   0  109.03    7.83
   1  -6   0  100.70    7.27
   1  -6   0  110.52    9.34
   1  -6   0  100.46    9.75
  -1  -6   0  111.44    9.32
   1  -6   0  110.50   10.40
   1  -6   0  113.17    8.86
   1  -6   0  114.14   10.06
  -1  -6   0  122.48    9.90
  -1  -6   0  115.27    9.34
   1  -6   0  108.76    7.94
  -1  -6   0  123.89    8.94
   1  -6   1  370.28   15.85
   1  -6   1  373.61   17.09
  -1  -6  -1  368.89   16.61
  -1  -6  -1  361.58   16.50
   1  -6   1  368.19   17.99
  -1  -6  -1  379.73   19.61
  -1  -6  -1  388.63   17.97
  -1  -6  -1  380.36   18.98
   1  -6   1  364.59   19.88
   1  -6   1  358.60   20.54
   1  -6   1  377.78   19.99
   1  -6   1  389.04   16.68
  -1  -6  -1  415.45   20.07
  -1  -6  -1  376.00   19.93
  -1  -6  -1  352.36   18.24
   1  -6   1  375.96   19.19
  -1  -6  -1  394.26   18.68
  -1  -6  -1  390.42   18.40
  -1  -6  -2   62.34    7.28
   1  -6   2   73.64    6.82
   1  -6   2   85.08    6.81
  -1  -6  -2   74.47    6.92
  -1  -6  -2   73.88    7.91
  -1  -6  -2   65.58    7.24
  -1  -6  -2   68.41    7.07
  -1  -6  -2   72.90    6.25
  -1  -6  -2   65.39    5.52
  -1  -6  -2   76.46    7.62
   1  -6   2   82.70    8.77
   1  -6   2   81.00    7.66
  -1  -6  -2   86.70    7.78
  -1  -6  -2   75.82    8.11
   1  -6   2   73.32    7.93
   1  -6   2   77.26    7.69
  -1  -6  -2   73.32    7.22
   1  -6   2   84.72    8.70
  -1  -6  -3   50.38    5.80
   1  -6   3   51.48    7.07
   1  -6   3   49.13    5.82
   1  -6   3   54.92    6.89
  -1  -6  -3   49.29    6.12
  -1  -6  -3   48.36    5.68
  -1  -6  -3   50.04    4.99
  -1  -6  -3   61.80    6.95
  -1  -6  -3   53.23    6.87
  -1  -6  -3   47.64    6.27
  -1  -6  -3   52.81    5.19
  -1  -6  -3   44.10    5.59
  -1  -6  -3   50.85    5.19
  -1  -6  -3   47.70    6.46
   1  -6   3   45.80    6.42
  -1  -6  -3   54.38    5.11
   1  -6   3   42.56    5.97
  -1  -6  -3   46.73    6.21
   1  -6   4   60.69    7.94
  -1  -6  -4   59.84    6.15
  -1  -6  -4   65.51    7.58
  -1  -6  -4   62.08    6.67
   1  -6   4   57.46    6.51
   1  -6   4   63.88    7.35
  -1  -6  -4   55.45    5.76
  -1  -6  -4   56.49    7.22
  -1  -6  -4   69.71    7.39
  -1  -6  -4   58.37    6.87
  -1  -6  -4   54.96    6.90
  -1  -6  -4   46.16    5.19
  -1  -6  -4   52.39    6.13
  -1  -6  -4   50.51    5.60
   1  -6   4   67.69    6.52
  -1  -6  -4   50.35    6.58
  -1  -6  -5   84.19    7.35
  -1  -6  -5   81.17    8.18
   1  -6   5   73.19    7.57
  -1  -6  -5   79.87    8.56
   1  -6   5   81.69    6.88
  -1  -6  -5   87.63    7.63
   1  -6   5   84.03    9.66
  -1  -6  -5   82.50    6.95
  -1  -6  -5   92.20    8.83
   1  -6   5   85.24    8.92
  -1  -6  -5   81.35    8.78
  -1  -6  -5   80.99    8.53
  -1  -6  -5   78.41    8.10
  -1  -6  -5   93.36    8.05
  -1  -6  -6   32.31    4.85
  -1  -6  -6   39.80    6.09
   1  -6   6   35.15    5.43
  -1  -6  -6   30.43    4.95
   1  -6   6   38.29    5.56
  -1  -6  -6   41.27    5.42
  -1  -6  -6   40.69    5.62
   1  -6   6   38.26    5.91
  -1  -6  -6   35.84    5.79
   1  -6   6   40.89    5.09
  -1  -6  -6   39.65    5.78
  -1  -6  -6   40.66    5.88
   1  -6   6   40.44    6.64
   1  -6   6   35.29    5.96
  -1  -6  -6   30.23    5.32
  -1  -6  -7  507.10   23.22
  -1  -6  -7  446.36   21.10
  -1  -6  -7  551.87   23.23
  -1  -6  -7  499.07   24.26
  -1  -6  -7  489.84   23.09
  -1  -6  -7  505.26   22.10
  -1  -6  -7  477.05   23.62
   1  -6   7  556.52   27.44
   1  -6   7  492.36   21.43
   1  -6   7  530.23   22.73
  -1  -6  -7  493.70   23.74
   1  -6   7  509.89   24.71
  -1  -6  -7  514.15   23.32
  -1  -6  -7  554.73   24.34
   1  -6   7  541.14   24.13
  -1  -6  -8  225.32   15.11
   1  -6   8  229.41   15.36
   1  -6   8  232.07   13.70
  -1  -6  -8  226.96   14.60
  -1  -6  -8  230.61   14.29
  -1  -6  -8  239.02   13.17
  -1  -6  -8  220.23   14.43
  -1  -6  -8  219.64   14.66
  -1  -6  -8  254.24   15.49
  -1  -6  -8  236.34   14.67
  -1  -6  -8  241.65   14.47
   1  -6   8  217.27   16.06
   1  -6   8  235.67   14.41
  -1  -6  -8  216.00   14.30
  -1  -6  -9   19.03    3.75
  -1  -6  -9   18.01    3.84
  -1  -6  -9   13.15    3.59
   1  -6   9   17.17    3.48
  -1  -6  -9   18.48    4.06
  -1  -6  -9   11.83    3.38
  -1  -6 -10    6.14    2.24
  -1  -6 -10    1.98    1.69
   1  -6  10    4.67    2.63
  -1  -6 -10    6.42    2.22
  -1  -6 -10    2.39    1.64
  -1  -6 -10    4.07    2.20
  -1  -6 -11  255.06   13.41
   1  -6  11  266.35   15.66
  -1  -6 -12  202.28   10.88
   1  -6  12  234.59   12.83
  -1  -6 -12  200.50   10.17
  -1  -6 -12  217.81   10.43
   1  -6  13  137.24    8.08
  -1  -6 -13  147.03    7.63
   1  -5 -15    4.34    1.00
  -1  -5  14    6.53    2.11
   1  -5 -14    6.94    1.77
  -1  -5  14    3.38    1.57
   1  -5 -13   26.30    3.26
   1  -5 -13   29.12    3.81
  -1  -5  13   18.42    3.96
   1  -5 -13   26.44    3.96
  -1  -5  13   30.38    4.69
   1  -5 -12   50.85    5.38
  -1  -5  12   35.30    4.46
  -1  -5  12   52.19    6.97
  -1  -5  12   55.30    7.04
  -1  -5  12   50.43    5.89
   1  -5 -12   42.65    5.64
   1  -5 -12   43.04    5.51
  -1  -5  11   31.01    4.74
   1  -5 -11   32.93    5.09
  -1  -5  11   30.91    6.04
   1  -5 -11   34.59    5.59
  -1  -5  11   26.56    4.59
  -1  -5  11   22.57    5.30
   1  -5 -11   28.26    4.88
   1  -5 -11   32.40    5.59
   1  -5 -10   94.69    8.98
  -1  -5  10  106.53   11.05
   1  -5 -10   97.32    9.24
   1  -5 -10  117.63   10.90
   1  -5 -10   98.17    9.61
  -1  -5  10   77.23    7.93
   1  -5 -10   97.85   10.15
  -1  -5  10  110.61   11.23
  -1  -5  10   95.72    8.82
  -1  -5  10   96.36    9.85
  -1  -5   9   53.06    5.30
   1  -5  -9   53.30    7.51
  -1  -5   9   43.50    5.93
   1  -5  -9   50.43    6.26
  -1  -5   9   49.26    6.27
  -1  -5   9   55.38    8.06
   1  -5  -9   53.20    7.59
   1  -5  -9   58.32    7.91
  -1  -5   9   49.80    6.31
   1  -5  -9   53.85    7.16
  -1  -5   9   51.21    7.61
   1  -5  -9   42.28    5.95
   1  -5  -9   53.39    6.86
   1  -5  -8  225.47   12.37
   1  -5  -8  229.71   15.75
   1  -5  -8  268.49   17.26
  -1  -5   8  206.96   13.49
  -1  -5   8  252.52   17.14
  -1  -5   8  230.06   14.06
  -1  -5   8  248.23   15.12
   1  -5  -8  249.54   15.90
  -1  -5   8  232.30   16.85
   1  -5  -8  257.61   15.22
   1  -5  -8  259.75   17.01
  -1  -5   8  238.08   14.27
   1  -5  -8  249.07   15.47
  -1  -5   8  286.76   17.66
  -1  -5   8  226.25   11.72
  -1  -5   7   22.44    4.96
  -1  -5   7   12.17    3.11
  -1  -5   7   15.43    2.65
   1  -5  -7   10.68    2.92
  -1  -5   7   10.49    3.34
  -1  -5   7   16.58    3.66
  -1  -5   7   13.25    3.13
  -1  -5   7   12.00    3.93
  -1  -5   7    8.89    3.23
   1  -5  -7    6.73    2.72
   1  -5  -7   18.60    4.39
   1  -5  -7   14.84    3.11
   1  -5  -7   17.27    4.07
   1  -5  -7   20.47    4.28
   1  -5  -6  120.82    9.22
  -1  -5   6  111.75    7.23
  -1  -5   6  130.75   10.48
  -1  -5   6  120.47   10.91
  -1  -5   6  117.49    8.95
   1  -5  -6  133.90   10.53
  -1  -5   6  114.93    9.02
   1  -5  -6  120.32   10.27
   1  -5  -6  105.14    7.90
   1  -5  -6  132.53   10.38
  -1  -5   6  112.76    9.36
   1  -5  -6  135.53   11.33
  -1  -5   6  123.48    7.33
  -1  -5   6  142.16   12.17
   1  -5  -6  109.26   10.25
  -1  -5   6  124.79   10.87
   1  -5  -6  127.83   10.60
   1  -5  -5  419.23   20.13
  -1  -5   5  431.19   21.20
  -1  -5   5  417.14   19.07
   1  -5  -5  395.13   17.66
  -1  -5   5  394.06   18.43
   1  -5  -5  424.18   19.72
  -1  -5   5  386.69   19.69
  -1  -5   5  400.18   16.42
   1  -5  -5  429.42   20.14
  -1  -5   5  410.41   21.75
   1  -5  -5  394.00   19.41
   1  -5  -5  426.36   17.78
  -1  -5   5  379.98   15.03
  -1  -5   5  380.01   14.40
   1  -5  -5  392.81   20.51
  -1  -5   5  491.08   22.32
   1  -5  -5  416.98   19.55
   1  -5  -4  123.35    9.33
  -1  -5   4  102.60    6.67
   1  -5  -4  114.34    9.33
  -1  -5   4   99.87    8.92
  -1  -5   4  115.91    8.78
   1  -5  -4   98.02    8.49
  -1  -5   4  106.12    9.50
   1  -5  -4  116.15    9.12
   1  -5  -4   90.63    7.52
  -1  -5   4   99.48    7.41
  -1  -5   4  102.59    8.51
   1  -5  -4   94.49    9.11
  -1  -5   4  114.51   10.29
  -1  -5   4  110.01    8.80
   1  -5  -4  114.93    8.97
  -1  -5   4   94.04    7.15
   1  -5  -4  109.13    8.70
   1  -5  -4   93.77    8.66
   1  -5  -3   32.13    4.89
   1  -5  -3   30.27    4.45
  -1  -5   3   29.86    4.07
  -1  -5   3   31.01    4.81
  -1  -5   3   33.46    4.71
   1  -5  -3   28.00    4.41
   1  -5  -3   27.97    4.04
  -1  -5   3   43.31    4.96
  -1  -5   3   32.33    3.92
  -1  -5   3   31.68    4.56
  -1  -5   3   34.32    5.52
   1  -5  -3   32.67    4.76
  -1  -5   3   30.12    4.77
  -1  -5   3   27.90    3.43
   1  -5  -3   31.24    4.72
   1  -5  -3   31.01    4.91
  -1  -5   2   56.34    6.08
  -1  -5   2   45.13    4.42
  -1  -5   2   49.91    6.04
  -1  -5   2   46.77    5.09
  -1  -5   2   47.89    5.85
   1  -5  -2   46.75    5.59
   1  -5  -2   52.24    5.65
  -1  -5   2   52.49    5.86
   1  -5  -2   47.77    5.69
  -1  -5   2   42.91    4.29
  -1  -5   2   42.46    4.89
   1  -5  -2   45.69    6.02
  -1  -5   1   44.27    5.30
   1  -5  -1   40.11    3.68
   1  -5  -1   36.30    4.53
  -1  -5   1   31.74    2.86
  -1  -5   1   37.02    4.05
  -1  -5   1   35.25    4.49
  -1  -5   1   45.79    5.42
  -1  -5   1   30.06    3.96
  -1  -5   1   44.27    5.35
  -1  -5   1   34.10    3.53
   1  -5  -1   36.97    4.72
  -1  -5   1   33.52    4.71
   1  -5  -1   30.68    4.59
  -1  -5   0   39.24    4.80
  -1  -5   0   34.75    4.06
  -1  -5   0   35.80    3.38
   1  -5   0   42.81    5.29
  -1  -5   0   33.56    4.38
  -1  -5   0   42.44    4.52
  -1  -5   0   34.99    4.94
  -1  -5   0   40.10    5.14
  -1  -5   0   38.68    3.44
   1  -5   0   38.96    3.96
  -1  -5   0   37.07    4.80
   1  -5   0   35.11    4.69
   1  -5   0   32.27    4.08
  -1  -5  -1   70.81    6.43
  -1  -5  -1   61.57    6.49
  -1  -5  -1   65.50    5.01
   1  -5   1   69.03    6.74
  -1  -5  -1   56.85    6.20
   1  -5   1   62.41    5.62
   1  -5   1   56.00    5.19
  -1  -5  -1   59.36    4.05
   1  -5   1   57.25    6.03
  -1  -5  -1   60.19    4.30
   1  -5   1   50.19    4.86
   1  -5   2  265.14   12.26
  -1  -5  -2  280.44   12.01
  -1  -5  -2  283.78   12.85
   1  -5   2  266.75   15.78
  -1  -5  -2  286.27   13.93
  -1  -5  -2  285.80   12.61
   1  -5   2  297.65   15.30
  -1  -5  -2  291.23   14.46
  -1  -5  -2  305.18   15.61
   1  -5   2  301.18   12.91
   1  -5   2  266.36   10.97
  -1  -5  -2  298.70   15.42
  -1  -5  -2  271.45   14.52
  -1  -5  -3  310.76   16.47
  -1  -5  -3  297.96   13.36
  -1  -5  -3  342.18   16.25
  -1  -5  -3  348.18   16.45
  -1  -5  -3  324.64   15.41
   1  -5   3  336.17   16.57
   1  -5   3  321.63   17.69
  -1  -5  -3  310.95   15.74
  -1  -5  -3  314.94   14.76
   1  -5   3  325.36   13.15
  -1  -5  -3  322.54   15.27
   1  -5   3  332.97   15.31
   1  -5   3  323.80   16.91
  -1  -5  -3  301.25   15.87
  -1  -5  -3  335.07   16.90
   1  -5   3  341.57   13.60
  -1  -5  -3  330.94   14.49
   1  -5   4  385.07   15.81
  -1  -5  -4  370.48   15.96
  -1  -5  -4  367.90   17.44
   1  -5   4  390.51   20.07
   1  -5   4  365.71   17.92
  -1  -5  -4  336.99   16.60
  -1  -5  -4  426.45   18.55
  -1  -5  -4  361.57   16.19
  -1  -5  -4  347.41   14.26
   1  -5   4  356.36   16.88
  -1  -5  -4  355.70   17.39
   1  -5   4  388.32   19.32
  -1  -5  -4  370.99   18.32
  -1  -5  -4  356.71   17.91
  -1  -5  -4  354.68   17.14
  -1  -5  -4  386.45   18.65
  -1  -5  -4  350.88   17.30
  -1  -5  -5  442.23   19.90
   1  -5   5  447.76   22.54
  -1  -5  -5  418.72   18.54
  -1  -5  -5  420.19   20.65
  -1  -5  -5  417.43   19.33
   1  -5   5  430.05   18.32
  -1  -5  -5  432.13   17.20
   1  -5   5  410.08   19.24
  -1  -5  -5  402.87   20.09
  -1  -5  -5  477.85   20.77
  -1  -5  -5  387.49   15.23
  -1  -5  -5  443.76   20.69
  -1  -5  -5  430.72   20.16
   1  -5   5  467.72   21.90
   1  -5   5  498.56   22.01
  -1  -5  -5  446.79   19.94
  -1  -5  -5  446.25   20.22
   1  -5   6  136.45    9.66
  -1  -5  -6  141.05   10.28
  -1  -5  -6  135.52   10.36
  -1  -5  -6  131.46   10.64
  -1  -5  -6  143.03   10.59
   1  -5   6  132.23   11.30
   1  -5   6  132.90   10.16
   1  -5   6  134.43   12.00
  -1  -5  -6  123.03    9.58
  -1  -5  -6  131.92   10.57
   1  -5   6  141.10   11.73
  -1  -5  -6  125.75   10.46
  -1  -5  -6  123.03    9.47
   1  -5   6  131.28    9.98
   1  -5   6  142.18   11.13
  -1  -5  -7  551.20   24.17
   1  -5   7  566.31   27.24
   1  -5   7  505.18   21.99
  -1  -5  -7  495.93   23.21
  -1  -5  -7  549.64   24.52
   1  -5   7  565.21   26.24
   1  -5   7  531.42   24.90
  -1  -5  -7  497.04   22.27
  -1  -5  -7  543.34   23.34
  -1  -5  -7  524.39   22.03
  -1  -5  -7  557.98   24.10
   1  -5   7  523.48   24.07
   1  -5   8  359.59   19.63
  -1  -5  -8  342.21   18.67
  -1  -5  -8  341.71   17.59
  -1  -5  -8  349.06   18.82
  -1  -5  -8  359.45   18.52
  -1  -5  -8  321.45   18.85
   1  -5   8  358.82   18.79
   1  -5   8  378.87   21.12
  -1  -5  -8  355.76   18.07
  -1  -5  -8  371.12   18.79
  -1  -5  -8  333.07   16.13
  -1  -5  -8  348.05   18.97
   1  -5   8  334.67   20.48
  -1  -5  -9  175.15   12.33
   1  -5   9  193.35   13.67
  -1  -5  -9  184.32   13.71
  -1  -5  -9  181.70   13.09
  -1  -5  -9  175.80   12.57
   1  -5   9  151.54   13.41
  -1  -5  -9  168.47   12.39
   1  -5   9  178.71   12.25
   1  -5   9  173.23   13.87
   1  -5   9  170.44   12.17
  -1  -5  -9  173.60   12.33
  -1  -5  -9  177.64   11.72
  -1  -5  -9  172.34   12.50
  -1  -5  -9  169.92   11.36
  -1  -5 -10  153.67   11.49
  -1  -5 -10  151.85   10.77
  -1  -5 -10  183.75   12.83
  -1  -5 -10  174.74   12.82
   1  -5  10  169.25   13.51
  -1  -5 -10  187.89   13.87
   1  -5  10  193.25   14.78
  -1  -5 -10  159.29   12.86
   1  -5  10  156.74   10.73
  -1  -5 -10  149.40   11.24
   1  -5  10  173.08   12.28
  -1  -5 -11  146.60   10.24
  -1  -5 -11  143.93   10.17
  -1  -5 -11  165.53   11.15
   1  -5  11  192.21   14.03
   1  -5  11  179.41   13.33
  -1  -5 -11  177.03   13.13
  -1  -5 -11  140.14   10.81
  -1  -5 -11  151.77   12.29
  -1  -5 -11  196.71   11.72
  -1  -5 -12  176.95   11.24
   1  -5  12  176.65   12.62
  -1  -5 -12  158.45   11.92
   1  -5  12  170.99   12.24
  -1  -5 -12  172.42   10.36
  -1  -5 -12  173.31   10.13
  -1  -5 -13   27.06    3.96
   1  -5  13   26.37    4.19
  -1  -5 -13   26.64    2.90
  -1  -5 -13   21.03    2.68
   1  -5  14   23.23    3.29
  -1  -5 -14   36.21    3.76
  -1  -4  15   59.27    5.64
   1  -4 -15   71.60    5.39
  -1  -4  14   83.36    7.94
  -1  -4  14   66.67    5.75
   1  -4 -14   79.36    6.83
  -1  -4  14   68.89    6.89
  -1  -4  13    0.59    1.65
   1  -4 -13    1.48    1.78
  -1  -4  13    1.77    1.60
   1  -4 -13    3.47    1.98
   1  -4 -13    0.56    1.29
   1  -4 -13    0.76    1.30
  -1  -4  13    4.46    2.52
  -1  -4  13    0.48    1.34
   1  -4 -13    1.50    1.13
   1  -4 -12  181.32   13.62
  -1  -4  12  171.71   12.38
   1  -4 -12  182.84   11.34
  -1  -4  12  202.78   12.04
  -1  -4  12  176.63   14.16
  -1  -4  12  185.59   14.21
   1  -4 -12  188.15   14.06
   1  -4 -12  221.48   13.95
   1  -4 -12  202.69   12.64
   1  -4 -12  213.76   13.55
  -1  -4  12  196.33   12.93
   1  -4 -11  129.72   10.82
   1  -4 -11  111.12   10.80
  -1  -4  11  118.03   10.32
  -1  -4  11  132.16   12.43
   1  -4 -11  113.41   10.15
   1  -4 -11  120.85   11.10
  -1  -4  11  102.81    8.60
  -1  -4  11   99.71    8.73
  -1  -4  11  110.30    9.71
   1  -4 -11  115.84    9.40
   1  -4 -11   98.58   10.53
  -1  -4  11  110.62   11.12
  -1  -4  11  116.82   10.29
  -1  -4  10   92.35    8.31
  -1  -4  10  126.04   12.03
   1  -4 -10  100.36    9.65
  -1  -4  10   95.36    8.64
  -1  -4  10   96.71    9.44
  -1  -4  10  118.54   11.73
   1  -4 -10   94.22    9.41
   1  -4 -10  111.48   10.91
  -1  -4  10  120.49   10.03
  -1  -4  10  104.18    8.68
  -1  -4  10  101.90    8.48
   1  -4 -10  106.14   10.67
   1  -4 -10   89.45    8.29
   1  -4 -10  100.39   10.31
   1  -4 -10  100.82    9.39
  -1  -4  10  118.53   10.55
   1  -4  -9   87.22    9.38
   1  -4  -9   68.84    7.26
   1  -4  -9   89.78    9.62
  -1  -4   9   82.60    8.47
   1  -4  -9   74.45    7.32
   1  -4  -9   79.35    8.80
  -1  -4   9   76.39    7.87
  -1  -4   9   81.07    7.99
  -1  -4   9   83.42    9.50
   1  -4  -9   68.87    6.89
  -1  -4   9   74.00    7.03
   1  -4  -9   89.37    9.60
  -1  -4   9   89.35   10.07
   1  -4  -9   81.04    8.68
   1  -4  -9   74.45    6.90
   1  -4  -9   82.66    8.40
   1  -4  -9   93.94    8.92
  -1  -4   9   81.97    7.34
   1  -4  -8    2.67    1.93
  -1  -4   8    4.99    2.13
  -1  -4   8    8.06    2.75
   1  -4  -8    7.54    3.13
  -1  -4   8    7.04    3.11
   1  -4  -8   11.98    3.12
  -1  -4   8   11.67    3.51
   1  -4  -8   10.40    3.32
   1  -4  -8    3.88    1.78
   1  -4  -8    7.23    2.91
  -1  -4   8    6.47    2.85
  -1  -4   8    5.66    2.35
   1  -4  -8    8.33    2.76
   1  -4  -8    9.43    3.09
  -1  -4   8    6.70    2.16
  -1  -4   8   10.87    2.64
   1  -4  -8    6.48    2.37
   1  -4  -8    9.91    3.08
  -1  -4   7   39.61    6.14
   1  -4  -7   28.00    3.46
  -1  -4   7   28.46    4.57
  -1  -4   7   29.13    3.85
  -1  -4   7   39.26    5.44
   1  -4  -7   31.76    4.81
   1  -4  -7   40.63    6.03
   1  -4  -7   38.84    5.62
  -1  -4   7   31.08    4.57
   1  -4  -7   33.03    3.77
   1  -4  -7   33.79    5.56
  -1  -4   7   28.76    4.35
  -1  -4   7   34.44    6.00
   1  -4  -7   34.44    5.01
  -1  -4   7   37.41    5.66
   1  -4  -7   26.68    4.67
  -1  -4   7   31.52    4.05
   1  -4  -7   36.15    5.19
   1  -4  -7   30.40    3.97
  -1  -4   6  304.41   13.47
  -1  -4   6  311.56   15.05
   1  -4  -6  332.19   17.73
  -1  -4   6  376.28   18.01
  -1  -4   6  363.38   18.46
   1  -4  -6  325.46   13.78
   1  -4  -6  309.76   16.28
  -1  -4   6  295.60   12.69
  -1  -4   6  299.18   13.36
   1  -4  -6  321.93   13.78
   1  -4  -6  300.82   15.82
  -1  -4   6  317.00   15.26
  -1  -4   6  321.90   18.17
  -1  -4   6  322.66   16.44
   1  -4  -6  336.96   17.50
   1  -4  -6  328.49   17.26
   1  -4  -6  330.69   15.81
  -1  -4   5 2190.73   64.68
   1  -4  -5 2230.34   59.55
  -1  -4   5 2042.93   58.50
   1  -4  -5 2238.41   64.19
  -1  -4   5 2197.28   60.77
  -1  -4   5 2124.66   61.10
   1  -4  -5 2227.43   59.58
  -1  -4   5 2058.73   57.92
   1  -4  -5 2175.77   63.94
  -1  -4   5 2233.66   63.13
  -1  -4   5 2079.41   58.00
   1  -4  -5 2279.32   63.52
   1  -4  -5 2181.43   62.45
  -1  -4   5 2355.94   64.89
  -1  -4   4  467.29   16.77
   1  -4  -4  481.68   17.57
   1  -4  -4  490.04   20.32
  -1  -4   4  406.47   13.24
   1  -4  -4  481.51   19.11
  -1  -4   4  491.42   18.59
  -1  -4   4  464.20   17.15
   1  -4  -4  488.82   19.59
   1  -4  -4  462.16   17.32
   1  -4  -4  459.90   19.81
  -1  -4   4  462.89   15.77
   1  -4  -4  461.01   18.98
  -1  -4   4  436.13   18.51
  -1  -4   4  444.25   17.46
  -1  -4   4  445.73   19.20
  -1  -4   4  494.00   20.42
  -1  -4   4  440.13   15.60
   1  -4  -3  311.98   14.94
   1  -4  -3  313.41   14.17
  -1  -4   3  296.75   11.02
   1  -4  -3  289.88   12.45
   1  -4  -3  306.66   14.25
  -1  -4   3  284.22    9.97
  -1  -4   3  310.67   12.48
  -1  -4   3  309.76   11.18
  -1  -4   3  300.91   13.42
  -1  -4   3  268.60   12.24
   1  -4  -3  301.35   13.14
   1  -4  -3  293.80   12.90
   1  -4  -3  311.57   14.12
  -1  -4   3  310.34   14.11
  -1  -4   3  331.21   15.09
  -1  -4   3  277.56   14.15
  -1  -4   2   20.89    3.48
   1  -4  -2   18.30    1.93
  -1  -4   2   19.54    2.68
  -1  -4   2   19.17    3.35
  -1  -4   2   16.23    1.95
  -1  -4   2   16.19    1.95
  -1  -4   2   20.24    2.11
  -1  -4   2   15.64    3.04
   1  -4  -2   18.32    2.42
   1  -4  -2   21.11    3.38
  -1  -4   2   16.67    2.75
   1  -4  -2   14.98    2.83
  -1  -4   2   17.80    3.05
  -1  -4   2   18.44    2.91
  -1  -4   2   14.29    2.75
   1  -4  -2   18.58    2.98
  -1  -4   1  289.59   13.59
  -1  -4   1  288.07   10.01
   1  -4  -1  298.47   13.11
  -1  -4   1  300.81   11.70
  -1  -4   1  308.05   13.76
   1  -4  -1  310.04   13.34
  -1  -4   1  302.86   12.78
  -1  -4   1  279.42   13.40
   1  -4  -1  308.71   11.17
  -1  -4   1  291.65   13.11
   1  -4  -1  286.52   12.97
  -1  -4   1  283.51   10.69
   1  -4  -1  293.57   13.78
  -1  -4   1  336.45   14.39
   1  -4   0 5046.46  122.38
  -1  -4   0 4789.83  125.55
  -1  -4   0 5018.43  124.73
  -1  -4   0 4818.74  121.42
   1  -4   0 4952.86  123.81
  -1  -4   0 4823.11  123.28
  -1  -4   0 4997.71  125.00
  -1  -4   0 4716.14  121.41
  -1  -4   0 4575.21  119.26
   1  -4   0 5222.19  126.14
   1  -4   0 5049.07  124.03
  -1  -4   0 4996.64  123.68
   1  -4   0 5123.49  125.15
  -1  -4   0 4703.59  119.54
  -1  -4   0 5640.83  125.96
  -1  -4   0 4995.50  125.99
  -1  -4  -1 1572.99   41.54
   1  -4   1 1591.03   45.62
   1  -4   1 1565.18   41.30
  -1  -4  -1 1579.32   44.20
  -1  -4  -1 1598.35   43.58
   1  -4   1 1544.06   47.25
   1  -4   1 1509.86   40.82
   1  -4   1 1558.04   43.55
  -1  -4  -1 1620.18   46.07
  -1  -4  -1 1596.27   45.00
  -1  -4  -1 1395.94   42.16
  -1  -4  -1 1551.99   45.75
   1  -4   1 1549.13   45.94
  -1  -4  -1 1615.61   43.78
   1  -4   2  581.14   21.54
   1  -4   2  559.78   17.76
  -1  -4  -2  550.51   20.23
   1  -4   2  559.46   22.60
   1  -4   2  577.92   18.42
   1  -4   2  537.60   19.03
  -1  -4  -2  579.05   20.31
  -1  -4  -2  549.56   17.29
   1  -4   2  585.68   18.96
   1  -4   2  578.72   20.09
  -1  -4  -2  558.50   19.82
  -1  -4  -2  580.23   20.25
  -1  -4  -2  595.66   21.81
  -1  -4  -2  580.12   20.78
  -1  -4  -2  563.57   21.31
  -1  -4  -3  180.68    9.47
   1  -4   3  176.18   10.26
  -1  -4  -3  176.65    9.84
   1  -4   3  190.15   11.76
  -1  -4  -3  172.20    9.80
  -1  -4  -3  177.41   10.00
   1  -4   3  180.45    8.96
  -1  -4  -3  171.66    8.72
  -1  -4  -3  184.00    9.91
  -1  -4  -3  170.05    9.06
   1  -4   3  165.51    7.97
   1  -4   3  195.88    8.30
  -1  -4  -3  198.59   11.21
  -1  -4  -3  190.82   10.85
   1  -4   3  194.78   10.12
  -1  -4  -4  608.10   23.50
  -1  -4  -4  553.27   21.95
  -1  -4  -4  521.94   16.24
  -1  -4  -4  476.16   18.38
  -1  -4  -4  552.66   21.00
   1  -4   4  549.92   23.24
  -1  -4  -4  554.44   18.61
  -1  -4  -4  573.83   22.13
   1  -4   4  556.60   20.84
  -1  -4  -4  580.71   21.34
  -1  -4  -4  546.22   20.25
   1  -4   4  527.58   18.29
   1  -4   4  571.98   19.95
  -1  -4  -5  203.82   11.20
   1  -4   5  184.08   10.85
  -1  -4  -5  180.99    7.24
  -1  -4  -5  195.64   11.75
  -1  -4  -5  184.05   12.25
   1  -4   5  186.71   12.56
   1  -4   5  205.29   11.25
   1  -4   5  176.19    8.27
  -1  -4  -5  177.80   10.88
  -1  -4  -5  166.72   10.23
  -1  -4  -5  171.69   11.07
  -1  -4  -5  167.02    8.39
   1  -4   5  176.33    9.10
   1  -4   6   18.82    3.02
   1  -4   6   18.77    3.88
  -1  -4  -6   15.25    2.19
  -1  -4  -6   19.18    3.60
  -1  -4  -6   21.99    3.95
  -1  -4  -6   23.22    3.95
   1  -4   6   16.79    3.93
   1  -4   6   18.98    4.25
   1  -4   6   21.43    3.64
  -1  -4  -6   21.63    4.39
  -1  -4  -6   14.49    3.55
   1  -4   6   16.61    2.54
  -1  -4  -6   17.96    3.48
  -1  -4  -6   17.74    3.57
   1  -4   6   18.03    3.46
   1  -4   6   15.35    3.17
  -1  -4  -6   20.27    3.84
   1  -4   6   17.25    3.64
  -1  -4  -6   21.20    3.83
  -1  -4  -7   62.78    6.68
  -1  -4  -7   70.33    7.44
   1  -4   7   64.57    5.95
  -1  -4  -7   61.38    6.76
  -1  -4  -7   79.60    7.69
   1  -4   7   60.38    7.45
   1  -4   7   67.57    7.93
   1  -4   7   61.98    6.04
   1  -4   7   61.40    6.67
  -1  -4  -7   65.57    7.03
   1  -4   7   61.75    5.50
  -1  -4  -7   63.36    6.65
  -1  -4  -7   75.13    7.69
   1  -4   7   56.81    6.97
  -1  -4  -7   65.37    6.87
   1  -4   7   68.04    7.64
  -1  -4  -7   72.48    6.67
  -1  -4  -7   72.56    8.21
   1  -4   7   69.72    6.95
  -1  -4  -7   72.03    7.33
   1  -4   7   74.42    7.67
   1  -4   8  161.99    9.97
   1  -4   8  158.28   10.15
  -1  -4  -8  154.12   11.11
   1  -4   8  144.57   12.37
   1  -4   8  179.36   12.41
   1  -4   8  177.42   12.73
   1  -4   8  173.21   11.80
  -1  -4  -8  169.01   11.70
  -1  -4  -8  168.66   12.38
   1  -4   8  153.85    9.64
   1  -4   8  158.82   12.05
   1  -4   8  152.80   12.78
  -1  -4  -8  170.12   13.53
  -1  -4  -8  156.28   10.47
  -1  -4  -8  168.54   12.04
  -1  -4  -8  159.42   11.77
  -1  -4  -8  171.21   12.59
   1  -4   9  108.25    9.55
   1  -4   9  106.45    8.34
  -1  -4  -9   99.84    9.54
   1  -4   9  117.85   11.21
  -1  -4  -9  112.64    9.83
   1  -4   9  111.80   11.08
   1  -4   9  103.73    9.76
  -1  -4  -9  120.26    9.98
  -1  -4  -9  108.59    8.41
  -1  -4  -9  110.85   10.27
  -1  -4  -9  108.70    9.94
  -1  -4  -9  102.98   10.19
  -1  -4  -9  102.33    9.33
  -1  -4  -9  114.83   11.33
   1  -4   9  107.24    9.91
  -1  -4  -9   93.64    7.95
  -1  -4  -9  109.18    9.43
   1  -4   9  107.07    8.30
  -1  -4  -9   95.94    8.70
  -1  -4  -9  101.80    9.38
   1  -4   9  113.51    9.80
  -1  -4 -10   79.88    8.27
   1  -4  10   87.15    8.80
   1  -4  10   65.43    8.72
  -1  -4 -10   78.60    8.36
   1  -4  10   81.08    7.34
  -1  -4 -10   99.55    9.37
  -1  -4 -10   75.59    7.95
  -1  -4 -10   77.79    7.38
  -1  -4 -10   84.76    8.90
  -1  -4 -10   82.13    8.34
  -1  -4 -10   83.89    8.13
  -1  -4 -10   83.01    9.23
   1  -4  10   89.61    7.76
   1  -4  10   71.90    7.60
  -1  -4 -10   88.30    9.44
   1  -4  10   69.64    8.12
  -1  -4 -10   76.81    9.51
   1  -4  10   84.86    8.77
   1  -4  10   95.33   10.25
  -1  -4 -10   82.64    8.07
  -1  -4 -10   87.46    8.18
  -1  -4 -11   48.63    5.82
   1  -4  11   47.54    5.65
   1  -4  11   66.45    8.43
  -1  -4 -11   63.19    7.98
  -1  -4 -11   69.98    7.84
   1  -4  11   63.94    7.46
   1  -4  11   64.23    8.26
   1  -4  11   48.66    6.49
   1  -4  11   49.70    5.81
  -1  -4 -11   49.40    7.87
  -1  -4 -11   61.45    6.69
  -1  -4 -11   59.29    6.59
  -1  -4 -11   63.50    8.01
  -1  -4 -11   43.61    5.96
  -1  -4 -11   58.01    6.33
  -1  -4 -11   39.08    5.66
  -1  -4 -11   52.75    6.59
  -1  -4 -12  248.38   14.46
  -1  -4 -12  222.86   15.14
   1  -4  12  231.84   12.62
   1  -4  12  245.98   15.96
   1  -4  12  231.40   15.76
  -1  -4 -12  213.24   13.24
  -1  -4 -12  227.62   12.27
  -1  -4 -12  211.69   12.19
  -1  -4 -12  209.57   14.86
  -1  -4 -13    0.43    1.10
   1  -4  13    1.73    1.61
  -1  -4 -13    0.26    0.85
  -1  -4 -13    1.70    1.58
  -1  -4 -13    5.42    2.19
  -1  -4 -13    1.13    1.58
  -1  -4 -14   21.09    3.39
   1  -4  14   22.02    3.92
  -1  -4 -14   17.54    3.11
   1  -4  15    1.69    1.16
  -1  -4 -15    0.43    0.86
  -1  -4 -15    1.35    1.03
   1  -3 -16   25.37    2.62
   1  -3 -15    9.62    2.41
  -1  -3  15   12.54    3.20
  -1  -3  15   10.21    2.53
  -1  -3  15    8.34    2.16
   1  -3 -15   12.61    2.53
  -1  -3  14   89.72    9.02
   1  -3 -14   91.45    7.98
  -1  -3  14   88.09    7.97
  -1  -3  14   96.70    8.98
   1  -3 -14   88.82    7.67
   1  -3 -13   49.78    6.92
   1  -3 -13   46.94    5.25
   1  -3 -13   53.00    6.44
  -1  -3  13   49.86    7.32
  -1  -3  13   58.40    6.60
  -1  -3  13   59.82    7.72
  -1  -3  13   49.27    6.48
   1  -3 -13   50.77    6.44
   1  -3 -12   75.90    8.26
   1  -3 -12   77.49    6.91
  -1  -3  12   76.25    8.05
  -1  -3  12   74.02    8.28
  -1  -3  12   59.00    8.20
  -1  -3  12   74.73    7.83
   1  -3 -12   73.29    7.59
  -1  -3  12   72.41    8.73
   1  -3 -12   68.01    7.65
   1  -3 -12   86.23    9.12
  -1  -3  12   74.21    9.01
   1  -3 -12   68.45    8.41
   1  -3 -12   67.89    7.95
   1  -3 -12   76.75    9.11
   1  -3 -12   73.96    7.40
   1  -3 -11  319.17   18.29
  -1  -3  11  318.47   15.51
   1  -3 -11  332.34   18.87
   1  -3 -11  327.70   17.44
   1  -3 -11  338.00   19.66
  -1  -3  11  343.83   18.08
  -1  -3  11  317.98   20.01
  -1  -3  11  336.80   18.98
   1  -3 -11  336.01   17.62
  -1  -3  11  328.36   20.41
  -1  -3  11  346.32   18.49
   1  -3 -11  312.24   19.55
   1  -3 -11  328.71   19.50
  -1  -3  11  332.36   17.71
   1  -3 -11  319.93   18.93
   1  -3 -10  125.53   10.73
   1  -3 -10  122.03   11.31
   1  -3 -10  112.82    9.47
  -1  -3  10  125.99   10.13
   1  -3 -10  125.06   10.75
  -1  -3  10  122.43   10.63
   1  -3 -10  124.35    9.94
   1  -3 -10  129.33   11.41
  -1  -3  10  112.54    9.07
   1  -3 -10  138.26   11.50
   1  -3 -10  122.04   10.02
  -1  -3  10  121.56   11.67
  -1  -3  10   97.77    8.15
  -1  -3  10  120.49   11.56
   1  -3 -10  128.62   10.71
  -1  -3  10  114.54    8.38
  -1  -3  10  131.64   10.82
  -1  -3   9   38.10    5.26
  -1  -3   9   46.00    6.28
  -1  -3   9   40.19    5.31
   1  -3  -9   39.33    5.38
   1  -3  -9   38.45    5.16
  -1  -3   9   36.95    4.74
   1  -3  -9   38.15    5.18
   1  -3  -9   46.34    6.07
   1  -3  -9   44.25    6.58
   1  -3  -9   36.91    5.83
  -1  -3   9   41.40    6.62
   1  -3  -9   40.06    5.85
   1  -3  -9   39.30    5.78
   1  -3  -9   39.12    5.07
   1  -3  -9   36.37    5.74
  -1  -3   9   34.01    5.89
   1  -3  -8    7.92    2.59
  -1  -3   8    6.16    1.62
   1  -3  -8    4.17    1.85
   1  -3  -8    5.66    2.67
  -1  -3   8    2.26    1.71
  -1  -3   8    6.57    2.38
   1  -3  -8    8.35    2.51
   1  -3  -8    6.44    2.68
  -1  -3   8    3.72    2.45
  -1  -3   8    3.15    1.78
   1  -3  -8    7.27    2.71
  -1  -3   8    7.09    2.52
  -1  -3   8    5.10    2.82
   1  -3  -8    4.19    1.98
   1  -3  -8    7.32    2.25
   1  -3  -8    6.79    2.42
   1  -3  -7   54.86    4.31
  -1  -3   7   49.16    4.01
   1  -3  -7   58.85    6.56
  -1  -3   7   54.27    4.26
  -1  -3   7   54.01    6.71
  -1  -3   7   42.76    6.10
   1  -3  -7   62.38    6.37
   1  -3  -7   53.95    6.27
  -1  -3   7   57.63    5.66
   1  -3  -7   51.02    6.02
   1  -3  -7   71.13    7.27
  -1  -3   7   60.79    5.93
   1  -3  -7   46.36    5.48
  -1  -3   7   64.55    6.61
  -1  -3   6   73.56    5.08
   1  -3  -6   82.29    7.28
  -1  -3   6   81.52    6.65
  -1  -3   6   82.79    7.73
  -1  -3   6   70.73    4.64
   1  -3  -6   75.39    5.12
  -1  -3   6   72.14    6.03
   1  -3  -6   73.18    6.65
   1  -3  -6   82.29    7.27
   1  -3  -6   68.89    6.88
  -1  -3   6   70.82    6.07
   1  -3  -6   77.22    5.13
  -1  -3   6   68.96    6.37
  -1  -3   6   76.00    6.90
  -1  -3   5  313.75   13.49
  -1  -3   5  327.25   13.66
   1  -3  -5  307.85   14.79
   1  -3  -5  331.04   14.11
   1  -3  -5  313.47   14.33
   1  -3  -5  315.03   14.82
  -1  -3   5  322.56   13.73
  -1  -3   5  296.20   12.13
   1  -3  -5  325.01   14.22
  -1  -3   5  310.97   14.44
   1  -3  -5  311.00   12.04
   1  -3  -5  309.18   11.96
  -1  -3   5  294.34   14.93
  -1  -3   5  316.39   14.61
   1  -3  -5  318.09   15.24
   1  -3  -4  397.08   16.48
  -1  -3   4  402.39   15.22
  -1  -3   4  393.40   16.55
   1  -3  -4  441.94   16.00
   1  -3  -4  424.97   17.23
  -1  -3   4  369.02   14.50
  -1  -3   4  404.49   14.50
   1  -3  -4  430.33   14.69
  -1  -3   4  402.08   15.41
   1  -3  -4  438.52   14.73
  -1  -3   4  407.58   15.72
   1  -3  -4  401.67   16.10
   1  -3  -4  421.85   16.65
   1  -3  -4  414.37   16.95
  -1  -3   4  452.62   17.13
  -1  -3   3   83.83    5.48
  -1  -3   3   93.04    6.56
   1  -3  -3   83.20    6.31
  -1  -3   3   85.53    4.93
   1  -3  -3   76.87    5.23
  -1  -3   3   67.61    5.80
   1  -3  -3   76.27    5.03
   1  -3  -3   97.56    6.51
  -1  -3   3   72.34    5.30
  -1  -3   3   79.56    5.62
  -1  -3   3   76.59    5.23
   1  -3  -3   83.63    5.98
   1  -3  -3   79.35    5.13
   1  -3  -3   89.62    6.50
   1  -3  -3   73.59    5.81
  -1  -3   2  299.39   12.47
  -1  -3   2  296.06   11.79
  -1  -3   2  319.35   12.38
   1  -3  -2  327.13   12.92
   1  -3  -2  314.52   11.91
  -1  -3   2  311.49   12.28
  -1  -3   2  305.90   12.56
   1  -3  -2  327.36   13.00
   1  -3  -2  318.10   13.45
  -1  -3   2  342.62   13.38
  -1  -3   1  322.18   12.80
  -1  -3   1  319.71   11.99
   1  -3  -1  338.83   12.75
   1  -3  -1  316.49   10.54
  -1  -3   1  279.50   11.13
  -1  -3   1  302.40   12.61
   1  -3  -1  327.33   12.54
  -1  -3   1  318.96   12.37
  -1  -3   1  342.36   13.05
  -1  -3   1  319.69   12.24
   1  -3   0 1444.91   40.44
  -1  -3   0 1410.70   40.08
  -1  -3   0 1448.26   39.13
  -1  -3   0 1497.54   40.23
  -1  -3   0 1440.52   40.60
   1  -3   0 1476.31   40.66
   1  -3   0 1491.91   39.14
  -1  -3   0 1477.86   41.27
   1  -3   0 1481.96   40.27
   1  -3   0 1410.18   38.86
  -1  -3   0 1471.07   41.15
  -1  -3   0 1594.82   41.25
  -1  -3  -1 1608.62   43.49
   1  -3   1 1582.61   43.97
   1  -3   1 1603.43   42.93
  -1  -3  -1 1652.83   45.56
  -1  -3  -1 1652.44   44.52
  -1  -3  -1 1539.16   43.20
  -1  -3  -1 1665.82   44.01
   1  -3   1 1739.31   43.99
   1  -3   1 1614.89   42.26
  -1  -3  -1 1668.01   45.35
  -1  -3  -1 1630.13   44.77
   1  -3   1 1587.21   45.02
  -1  -3  -1 1652.00   43.37
   1  -3   2  162.20    7.03
   1  -3   2  176.18    7.56
  -1  -3  -2  160.39    7.84
  -1  -3  -2  173.76    7.76
  -1  -3  -2  159.03    8.22
   1  -3   2  166.72    7.48
  -1  -3  -2  155.24    7.73
  -1  -3  -2  160.85    7.88
  -1  -3  -2  179.28    9.35
  -1  -3  -2  154.93    8.11
   1  -3   2  169.57    7.86
   1  -3   2  164.79    8.11
  -1  -3  -2  177.13    9.03
  -1  -3  -2  173.52    8.93
   1  -3   3    4.51    1.03
   1  -3   3    4.84    1.33
  -1  -3  -3    5.09    1.59
  -1  -3  -3    3.18    1.36
   1  -3   3    5.90    1.11
  -1  -3  -3    4.44    1.55
  -1  -3  -3    7.52    1.57
   1  -3   3    8.06    1.87
  -1  -3  -3    5.21    1.75
  -1  -3  -3    3.22    1.61
  -1  -3  -3    4.56    1.61
   1  -3   4  170.73    8.44
   1  -3   4  178.02    8.99
   1  -3   4  163.98   10.14
  -1  -3  -4  170.35    9.24
  -1  -3  -4  173.45    9.09
  -1  -3  -4  175.41    9.08
   1  -3   4  153.57    8.78
   1  -3   4  171.33    7.70
  -1  -3  -4  178.59    9.45
  -1  -3  -4  174.97    9.73
  -1  -3  -4  179.13   10.27
  -1  -3  -4  174.87    9.05
  -1  -3  -4  170.15    9.48
  -1  -3  -5    0.36    0.92
  -1  -3  -5   -0.19    0.68
   1  -3   5    0.27    0.77
   1  -3   5    0.29    0.93
  -1  -3  -5   -0.69    1.11
  -1  -3  -5    0.34    1.15
   1  -3   5    2.51    1.34
  -1  -3  -5    0.65    1.17
   1  -3   5    0.98    1.11
  -1  -3  -5   -0.69    1.18
  -1  -3  -5    0.35    1.40
  -1  -3  -5    0.95    0.95
  -1  -3  -5    0.41    1.16
   1  -3   5    0.43    1.20
   1  -3   5   -0.24    0.76
   1  -3   6  120.21    7.81
  -1  -3  -6  121.46    7.62
  -1  -3  -6  107.22    7.85
   1  -3   6  105.43    7.08
  -1  -3  -6  123.30    8.54
  -1  -3  -6  131.52    9.06
  -1  -3  -6  118.18    8.26
  -1  -3  -6  122.36    8.70
  -1  -3  -6  122.64    9.32
   1  -3   6  115.16    8.11
   1  -3   6  128.30    7.71
  -1  -3  -6  107.68    6.27
   1  -3   6  113.53    9.24
   1  -3   6  122.37    8.23
  -1  -3  -6  127.15    8.86
   1  -3   6  113.49    8.07
  -1  -3  -6  122.03    8.78
   1  -3   7  254.65   12.69
  -1  -3  -7  269.13   14.10
  -1  -3  -7  256.88   11.11
  -1  -3  -7  270.10   14.04
   1  -3   7  271.11   15.78
   1  -3   7  261.10   15.42
   1  -3   7  272.66   12.17
  -1  -3  -7  252.44   13.85
  -1  -3  -7  271.39   13.87
  -1  -3  -7  252.93   13.68
   1  -3   7  246.33   13.58
   1  -3   7  257.68   13.13
  -1  -3  -7  277.17   15.57
  -1  -3  -7  258.75   14.25
  -1  -3  -7  281.87   14.70
  -1  -3  -7  246.89   12.31
  -1  -3  -8  112.10    9.46
   1  -3   8  118.27    9.38
  -1  -3  -8  119.31    9.83
   1  -3   8  107.58    8.49
  -1  -3  -8  112.98    7.09
  -1  -3  -8  114.82    9.21
   1  -3   8  109.04    8.33
   1  -3   8  103.62    9.95
   1  -3   8  127.61   10.79
  -1  -3  -8  103.82    8.65
   1  -3   8  101.44    9.23
  -1  -3  -8  105.55    8.67
   1  -3   8  116.72    9.44
   1  -3   8  115.82    9.66
  -1  -3  -8  117.06    7.94
  -1  -3  -8  113.94   10.19
  -1  -3  -8  124.26    9.19
  -1  -3  -8  122.07    8.85
   1  -3   9   97.22    8.69
  -1  -3  -9   71.60    7.41
  -1  -3  -9   85.42    8.20
  -1  -3  -9   83.74    7.72
   1  -3   9   79.59    8.32
  -1  -3  -9   86.96    9.40
  -1  -3  -9   90.41    8.54
  -1  -3  -9   86.74    8.29
   1  -3   9   91.70    9.64
   1  -3   9   91.58    8.10
  -1  -3  -9   80.01    7.38
  -1  -3  -9   87.49    6.77
   1  -3   9   95.00    8.68
  -1  -3  -9   90.36    6.49
  -1  -3  -9   90.66    9.17
   1  -3   9   94.35    8.10
  -1  -3  -9   98.41    9.21
   1  -3   9   77.54    9.03
   1  -3   9   75.25    8.33
  -1  -3 -10   68.33    7.60
   1  -3  10   71.99    7.87
  -1  -3 -10   60.55    6.99
  -1  -3 -10   60.32    6.60
  -1  -3 -10   60.98    7.16
  -1  -3 -10   51.84    7.21
  -1  -3 -10   70.20    6.89
   1  -3  10   57.42    7.90
  -1  -3 -10   55.31    6.70
   1  -3  10   66.73    8.54
  -1  -3 -10   66.11    8.11
  -1  -3 -10   54.03    7.01
   1  -3  10   62.03    6.90
  -1  -3 -10   57.44    6.76
  -1  -3 -10   57.25    6.98
   1  -3  10   68.04    8.08
   1  -3  10   68.67    7.25
  -1  -3 -10   60.36    8.19
   1  -3  10   58.13    6.87
   1  -3  10   54.99    6.96
   1  -3  11   44.57    5.96
  -1  -3 -11   45.29    5.37
  -1  -3 -11   38.42    5.43
  -1  -3 -11   38.18    5.68
  -1  -3 -11   48.10    6.48
  -1  -3 -11   32.71    5.40
   1  -3  11   51.18    7.43
  -1  -3 -11   46.72    5.94
  -1  -3 -11   48.32    6.85
   1  -3  11   45.66    6.45
  -1  -3 -11   42.25    6.92
   1  -3  11   42.62    7.01
  -1  -3 -11   38.18    6.21
   1  -3  11   36.78    6.05
  -1  -3 -11   39.24    6.36
  -1  -3 -11   39.58    5.68
  -1  -3 -11   44.73    5.48
   1  -3  11   46.04    5.97
   1  -3  11   33.64    5.05
   1  -3  12   36.53    5.36
  -1  -3 -12   40.51    5.82
  -1  -3 -12   52.36    6.77
  -1  -3 -12   41.96    6.28
   1  -3  12   55.91    7.85
  -1  -3 -12   42.61    6.02
  -1  -3 -12   49.03    7.07
  -1  -3 -12   46.59    6.91
  -1  -3 -12   49.08    5.38
  -1  -3 -12   47.54    6.97
   1  -3  12   44.45    6.01
   1  -3  12   48.15    6.61
  -1  -3 -12   33.88    4.94
  -1  -3 -12   47.44    5.97
  -1  -3 -12   33.29    6.33
  -1  -3 -12   46.64    5.00
  -1  -3 -13   43.72    5.74
  -1  -3 -13   43.96    6.44
   1  -3  13   39.92    5.41
   1  -3  13   40.25    5.62
  -1  -3 -13   36.32    5.05
   1  -3  13   41.67    5.31
   1  -3  13   45.77    6.71
  -1  -3 -13   35.54    5.83
  -1  -3 -13   45.22    6.21
  -1  -3 -13   37.51    5.31
  -1  -3 -14   55.62    5.81
  -1  -3 -14   49.69    5.37
   1  -3  14   51.95    6.61
  -1  -3 -14   53.64    6.59
  -1  -3 -14   56.41    6.72
  -1  -3 -14   58.37    6.15
  -1  -3 -15   67.96    5.73
   1  -3  15   52.23    5.68
  -1  -3 -16    0.74    0.76
   1  -3  16    1.34    0.95
   1  -2 -16    6.42    1.51
   1  -2 -16    7.43    1.76
   1  -2 -16    7.27    1.80
  -1  -2  16    7.58    1.83
  -1  -2  16    6.59    1.98
  -1  -2  15   14.83    3.44
  -1  -2  15   26.32    4.59
   1  -2 -15   22.39    3.65
   1  -2 -15   21.94    3.65
   1  -2 -14  109.66    8.90
  -1  -2  14   80.75    8.80
  -1  -2  14   96.78    8.56
   1  -2 -14  112.68    9.34
   1  -2 -14  106.82    8.80
   1  -2 -14   93.92    8.76
   1  -2 -14   93.01    9.37
  -1  -2  14   90.28    7.85
  -1  -2  14   94.77    9.64
  -1  -2  14   93.00    7.63
   1  -2 -14   92.78    8.43
  -1  -2  13   76.87    7.96
  -1  -2  13   81.63    9.23
   1  -2 -13   77.12    8.29
   1  -2 -13   79.32    6.59
   1  -2 -13   74.82    8.17
  -1  -2  13   78.42    9.05
   1  -2 -13   81.88    9.29
   1  -2 -13   91.10    8.69
  -1  -2  13   95.22   10.21
  -1  -2  13   72.98    7.23
   1  -2 -13   70.28    7.69
  -1  -2  12   17.50    4.03
  -1  -2  12   16.18    3.81
  -1  -2  12   20.26    4.93
  -1  -2  12   19.03    3.27
  -1  -2  12   25.60    5.54
   1  -2 -12   12.51    3.52
   1  -2 -12   13.81    3.99
   1  -2 -12   22.27    4.64
  -1  -2  12   15.05    4.19
   1  -2 -12   15.79    4.00
   1  -2 -12   11.26    3.34
  -1  -2  12   26.25    4.52
   1  -2 -12   25.55    4.79
   1  -2 -12   13.55    3.07
   1  -2 -11  391.51   18.59
  -1  -2  11  468.15   21.50
   1  -2 -11  418.24   21.37
   1  -2 -11  420.67   19.69
   1  -2 -11  438.41   23.29
   1  -2 -11  434.65   21.32
   1  -2 -11  465.12   22.72
  -1  -2  11  465.44   24.06
   1  -2 -11  436.78   21.61
  -1  -2  11  434.56   18.41
  -1  -2  11  466.66   21.11
  -1  -2  11  447.21   23.03
   1  -2 -11  438.76   22.10
   1  -2 -11  413.41   21.03
   1  -2 -11  432.52   21.55
   1  -2 -11  449.39   21.51
  -1  -2  11  458.50   21.56
  -1  -2  11  440.32   20.45
  -1  -2  10  589.38   24.70
   1  -2 -10  628.32   26.51
  -1  -2  10  612.56   25.28
   1  -2 -10  590.88   25.67
   1  -2 -10  639.52   21.97
  -1  -2  10  623.61   25.26
   1  -2 -10  604.99   24.69
  -1  -2  10  569.41   23.14
  -1  -2  10  595.48   27.69
  -1  -2  10  639.13   27.38
   1  -2 -10  566.82   25.02
   1  -2 -10  566.04   27.07
  -1  -2  10  638.73   25.40
   1  -2 -10  596.72   25.76
   1  -2 -10  620.77   25.72
   1  -2 -10  602.79   25.79
   1  -2 -10  637.28   27.02
  -1  -2  10  662.26   27.30
   1  -2 -10  646.93   26.99
  -1  -2  10  599.87   22.41
   1  -2 -10  598.44   23.60
  -1  -2  10  565.80   22.21
   1  -2  -9  148.01    9.56
   1  -2  -9  149.52   10.39
   1  -2  -9  132.79    8.05
  -1  -2   9  150.45   10.32
  -1  -2   9  156.15   11.27
  -1  -2   9  144.66   11.07
   1  -2  -9  139.20   11.24
  -1  -2   9  136.49    9.79
  -1  -2   9  132.66    9.44
  -1  -2   9  129.53    8.46
   1  -2  -9  154.80   11.12
   1  -2  -9  167.36   11.39
  -1  -2   9  140.77    9.88
  -1  -2   9  126.61    8.43
   1  -2  -9  169.04   11.60
  -1  -2   9  147.75   10.13
  -1  -2   9  155.44   11.96
   1  -2  -9  126.92    9.86
  -1  -2   9  136.35    9.90
   1  -2  -9  131.82   10.12
   1  -2  -9  137.27    9.90
  -1  -2   8  518.65   20.57
  -1  -2   8  522.83   21.31
   1  -2  -8  549.71   22.43
   1  -2  -8  570.51   23.47
  -1  -2   8  499.09   18.90
   1  -2  -8  524.92   21.04
  -1  -2   8  564.58   21.29
   1  -2  -8  560.41   22.75
  -1  -2   8  516.94   22.04
   1  -2  -8  527.89   22.17
   1  -2  -8  483.68   18.03
  -1  -2   8  515.51   20.70
  -1  -2   8  535.88   19.75
  -1  -2   8  565.38   24.08
  -1  -2   8  538.25   21.16
  -1  -2   8  553.39   21.23
   1  -2  -8  525.52   21.89
  -1  -2   7  262.54   13.23
  -1  -2   7  244.08   13.82
  -1  -2   7  245.84   12.03
  -1  -2   7  250.10   12.92
  -1  -2   7  245.92   11.41
   1  -2  -7  217.50    8.99
   1  -2  -7  255.90   13.65
   1  -2  -7  251.38   10.28
  -1  -2   7  248.74   11.97
   1  -2  -7  263.98   13.67
  -1  -2   7  247.01   10.96
  -1  -2   7  245.51   12.01
   1  -2  -7  251.54   13.26
  -1  -2   7  267.99   12.59
   1  -2  -6   20.33    3.42
  -1  -2   6   20.50    3.14
  -1  -2   6   22.83    3.45
   1  -2  -6   24.12    2.44
  -1  -2   6   19.87    3.49
   1  -2  -6   16.39    2.00
  -1  -2   6   22.75    2.74
   1  -2  -6   19.84    3.37
   1  -2  -6   17.24    3.24
   1  -2  -6   22.85    2.09
  -1  -2   6   23.85    3.01
  -1  -2   6   18.21    2.83
  -1  -2   6   25.63    3.23
   1  -2  -6   16.74    1.97
  -1  -2   6   24.97    3.29
  -1  -2   5 1728.26   47.64
  -1  -2   5 1720.84   46.98
   1  -2  -5 1642.33   43.34
  -1  -2   5 1714.89   46.23
   1  -2  -5 1860.64   48.72
   1  -2  -5 1696.91   44.41
   1  -2  -5 1822.16   49.21
  -1  -2   5 1809.36   48.84
   1  -2  -5 1634.05   44.40
   1  -2  -5 1756.76   49.34
   1  -2  -5 1793.88   48.29
  -1  -2   5 1739.48   46.92
   1  -2  -5 1764.89   49.00
   1  -2  -5 1698.56   44.22
  -1  -2   5 1772.03   47.70
  -1  -2   5 1755.36   47.07
  -1  -2   4 1489.12   42.50
   1  -2  -4 1655.40   43.40
   1  -2  -4 1592.72   44.28
  -1  -2   4 1571.16   42.37
   1  -2  -4 1519.96   38.58
  -1  -2   4 1595.64   42.28
   1  -2  -4 1573.80   44.11
  -1  -2   4 1547.31   41.90
   1  -2  -4 1564.56   43.06
  -1  -2   4 1585.84   42.15
   1  -2  -4 1513.36   40.21
   1  -2  -4 1607.94   44.02
  -1  -2   4 1627.68   43.82
   1  -2  -3   49.43    4.21
  -1  -2   3   41.64    3.54
   1  -2  -3   41.37    3.93
  -1  -2   3   53.83    3.84
   1  -2  -3   55.15    4.14
   1  -2  -3   49.24    4.15
   1  -2  -3   47.93    4.20
   1  -2  -3   53.08    3.14
  -1  -2   3   52.28    3.58
   1  -2  -3   43.33    1.73
   1  -2  -3   53.52    3.96
  -1  -2   3   54.19    4.25
  -1  -2   2   64.73    3.45
   1  -2  -2   56.67    4.28
  -1  -2   2   56.27    3.83
   1  -2  -2   51.53    1.88
  -1  -2   2   60.66    4.25
   1  -2  -2   66.08    4.41
  -1  -2   2   55.83    3.85
   1  -2  -2   63.13    4.29
  -1  -2   2   58.59    3.62
  -1  -2   2   56.99    3.85
  -1  -2   2   59.35    3.91
   1  -2  -2   60.11    4.45
  -1  -2   1  633.11   19.17
  -1  -2   1  661.36   19.32
   1  -2  -1  619.50   18.52
   1  -2  -1  652.28   19.32
   1  -2  -1  639.52   19.47
  -1  -2   1  624.69   19.03
  -1  -2   1  615.03   19.04
  -1  -2   1  630.03   18.95
   1  -2   0 6361.43  151.71
  -1  -2   0 6202.24  151.51
   1  -2   0 6147.37  150.75
   1  -2   0 6111.12  150.94
  -1  -2   0 6129.73  150.82
  -1  -2   0 6221.71  151.77
   1  -2   0 6038.73  151.15
  -1  -2   0 6301.53  151.61
  -1  -2   0 5891.13  151.28
  -1  -2   0 6531.71  151.26
  -1  -2  -1 5659.26  138.09
  -1  -2  -1 5583.03  137.55
  -1  -2  -1 5452.00  136.78
  -1  -2  -1 5907.48  138.50
   1  -2   1 5498.30  137.30
  -1  -2  -1 5666.55  138.00
   1  -2   1 5755.92  137.37
   1  -2   1 5716.92  137.89
  -1  -2  -1 5607.76  138.31
  -1  -2  -1 5345.05  138.48
   1  -2   2 1432.41   37.67
  -1  -2  -2 1478.58   38.72
  -1  -2  -2 1405.31   38.14
   1  -2   2 1423.22   37.94
  -1  -2  -2 1400.17   36.48
  -1  -2  -2 1421.25   39.05
  -1  -2  -2 1331.80   38.48
   1  -2   2 1459.38   38.34
  -1  -2  -2 1426.60   39.03
   1  -2   2 1387.43   37.93
  -1  -2  -2 1408.30   38.12
   1  -2   3  803.82   23.82
   1  -2   3  802.94   23.54
  -1  -2  -3  791.31   22.95
  -1  -2  -3  786.90   24.65
  -1  -2  -3  762.13   23.44
  -1  -2  -3  764.10   23.89
  -1  -2  -3  789.58   23.81
  -1  -2  -3  812.76   24.28
  -1  -2  -3  818.08   23.64
   1  -2   3  774.66   23.36
   1  -2   3  783.53   22.51
  -1  -2  -3  750.65   23.12
  -1  -2  -3  812.93   24.52
  -1  -2  -4  763.25   24.39
   1  -2   4  722.84   22.88
   1  -2   4  758.56   23.42
  -1  -2  -4  738.85   23.37
  -1  -2  -4  709.19   22.99
   1  -2   4  757.18   23.17
  -1  -2  -4  737.48   23.64
  -1  -2  -4  718.00   22.62
  -1  -2  -4  750.91   23.49
  -1  -2  -4  726.72   23.68
   1  -2   4  754.27   22.47
  -1  -2  -4  732.88   23.41
   1  -2   4  739.05   23.32
   1  -2   5  238.67   10.96
   1  -2   5  251.35   12.36
   1  -2   5  257.92   11.52
  -1  -2  -5  279.36   11.76
  -1  -2  -5  252.32   10.35
   1  -2   5  241.07   11.06
  -1  -2  -5  256.08   11.65
  -1  -2  -5  245.12   11.40
  -1  -2  -5  232.34   11.44
  -1  -2  -5  255.27   12.14
   1  -2   5  231.53    8.80
   1  -2   5  264.48   11.03
  -1  -2  -5  250.18   11.49
  -1  -2  -5  263.58   11.46
   1  -2   6 1465.74   42.07
  -1  -2  -6 1432.10   44.12
   1  -2   6 1460.74   42.71
   1  -2   6 1502.80   44.56
  -1  -2  -6 1515.77   42.69
  -1  -2  -6 1406.19   42.49
   1  -2   6 1409.93   42.35
   1  -2   6 1549.88   41.47
  -1  -2  -6 1429.76   43.06
   1  -2   6 1387.68   41.61
  -1  -2  -6 1452.75   42.48
  -1  -2  -6 1406.89   42.91
  -1  -2  -6 1406.37   42.94
  -1  -2  -6 1464.57   40.35
   1  -2   6 1421.38   38.91
   1  -2   7  180.87   10.73
   1  -2   7  180.03   11.72
   1  -2   7  183.80   10.30
   1  -2   7  190.67   10.72
  -1  -2  -7  168.38   10.37
  -1  -2  -7  176.71   10.31
  -1  -2  -7  193.18   10.70
  -1  -2  -7  168.57   10.57
   1  -2   7  180.34    8.44
  -1  -2  -7  179.37   10.84
  -1  -2  -7  175.39   11.43
  -1  -2  -7  183.08   10.77
  -1  -2  -7  171.74    9.11
   1  -2   7  170.46   10.07
   1  -2   7  179.76    9.22
  -1  -2  -7  175.14    8.63
   1  -2   8  757.17   27.83
   1  -2   8  735.95   23.91
  -1  -2  -8  761.83   23.96
   1  -2   8  738.23   30.00
  -1  -2  -8  777.86   27.68
  -1  -2  -8  794.15   27.60
   1  -2   8  749.57   29.64
   1  -2   8  714.70   29.46
   1  -2   8  787.04   27.68
  -1  -2  -8  746.63   28.29
  -1  -2  -8  752.14   25.34
  -1  -2  -8  706.04   26.67
  -1  -2  -8  711.95   26.87
  -1  -2  -8  707.37   28.09
   1  -2   8  790.59   27.80
   1  -2   8  762.70   27.28
  -1  -2  -8  733.68   29.49
  -1  -2  -8  734.19   27.09
  -1  -2  -9  122.38    8.49
  -1  -2  -9  125.95    9.48
   1  -2   9  136.06   10.04
  -1  -2  -9  118.50   10.53
  -1  -2  -9  123.51    8.45
  -1  -2  -9  131.99    9.09
   1  -2   9  121.00    9.82
   1  -2   9  144.82   11.63
  -1  -2  -9  128.78    9.70
   1  -2   9  142.16   10.65
   1  -2   9  147.96   11.85
  -1  -2  -9  136.83   10.08
  -1  -2  -9  109.05    9.71
   1  -2   9  126.49    9.90
  -1  -2  -9  123.80   10.30
   1  -2   9  150.01   10.51
  -1  -2  -9  127.06   10.11
   1  -2   9  128.51    7.85
   1  -2   9  141.36   11.73
   1  -2   9  122.27    9.46
  -1  -2 -10   34.50    6.05
   1  -2  10   26.72    5.62
  -1  -2 -10   32.25    4.41
   1  -2  10   40.87    5.73
  -1  -2 -10   29.84    4.93
   1  -2  10   38.57    6.32
   1  -2  10   39.94    6.49
   1  -2  10   30.65    5.58
  -1  -2 -10   39.92    5.56
  -1  -2 -10   34.07    5.58
   1  -2  10   37.89    5.48
  -1  -2 -10   30.57    4.82
  -1  -2 -10   32.44    5.60
  -1  -2 -10   33.17    5.01
   1  -2  10   34.89    5.37
   1  -2  10   38.51    5.56
  -1  -2 -10   39.06    4.85
  -1  -2 -10   46.01    5.94
  -1  -2 -10   24.63    4.80
   1  -2  10   31.32    5.06
   1  -2  11   34.62    5.78
  -1  -2 -11   38.57    5.56
  -1  -2 -11   34.18    4.65
  -1  -2 -11   48.71    6.32
  -1  -2 -11   31.87    5.09
   1  -2  11   25.33    5.57
  -1  -2 -11   34.99    6.18
  -1  -2 -11   34.38    6.01
  -1  -2 -11   37.18    6.07
  -1  -2 -11   37.11    5.53
  -1  -2 -11   34.93    5.94
   1  -2  11   34.62    5.46
  -1  -2 -11   36.80    5.78
   1  -2  11   31.80    5.45
  -1  -2 -11   32.73    5.07
   1  -2  11   33.29    6.10
   1  -2  11   40.77    5.72
   1  -2  11   34.03    5.43
  -1  -2 -12  170.55   12.51
  -1  -2 -12  193.05   14.07
  -1  -2 -12  180.09   12.82
   1  -2  12  195.17   14.93
  -1  -2 -12  184.27   14.41
   1  -2  12  186.14   13.53
  -1  -2 -12  160.59   11.40
  -1  -2 -12  192.90   14.11
   1  -2  12  182.33   12.94
  -1  -2 -12  167.80   12.19
  -1  -2 -12  183.43   14.59
   1  -2  12  157.33   11.04
  -1  -2 -12  189.01   12.64
  -1  -2 -12  164.54   11.38
  -1  -2 -13   65.14    7.33
  -1  -2 -13   51.51    7.21
   1  -2  13   58.58    6.98
   1  -2  13   59.12    7.96
   1  -2  13   54.71    6.95
   1  -2  13   69.69    8.12
   1  -2  13   69.95    7.60
  -1  -2 -13   58.96    7.58
  -1  -2 -13   72.07    7.47
   1  -2  14   30.31    4.69
  -1  -2 -14   27.32    4.52
   1  -2  14   45.02    6.37
  -1  -2 -14   35.66    5.58
  -1  -2 -14   24.60    4.90
  -1  -2 -14   36.19    5.16
  -1  -2 -14   36.81    5.59
   1  -2  14   43.75    5.57
  -1  -2 -15    6.45    1.77
   1  -2  15    5.43    1.76
   1  -2  15    6.60    2.41
  -1  -2 -15    4.99    2.06
  -1  -2 -15    3.27    1.71
  -1  -2 -16   10.66    2.09
  -1  -2 -16    6.82    1.66
   1  -2  16    6.44    2.05
   1  -1 -17   51.87    3.48
   1  -1 -17   67.62    4.04
  -1  -1  16  262.05   12.35
   1  -1 -16  212.60    8.95
  -1  -1  16  222.09   12.38
   1  -1 -16  256.72   11.86
   1  -1 -16  273.80   12.39
   1  -1 -15   93.57    7.06
   1  -1 -15   88.71    7.69
  -1  -1  15   82.51    7.94
  -1  -1  15   86.73    8.47
   1  -1 -15  101.90    8.32
  -1  -1  15   75.56    7.57
  -1  -1  14   49.22    7.20
   1  -1 -14   51.68    6.10
  -1  -1  14   59.52    6.59
   1  -1 -14   51.39    7.13
  -1  -1  14   57.48    7.41
  -1  -1  14   60.27    7.28
   1  -1 -14   53.30    6.80
  -1  -1  14   66.55    7.18
  -1  -1  14   47.71    5.43
   1  -1 -14   58.91    6.90
   1  -1 -14   47.13    6.22
  -1  -1  14   53.86    5.48
   1  -1 -14   48.25    6.04
  -1  -1  13  196.23   12.49
  -1  -1  13  183.52   11.61
   1  -1 -13  187.18   13.26
  -1  -1  13  198.50   14.95
  -1  -1  13  211.82   15.27
  -1  -1  13  194.86   13.44
   1  -1 -13  180.64   13.37
   1  -1 -13  193.40   13.56
   1  -1 -13  189.82   14.30
   1  -1 -13  194.27   13.23
  -1  -1  13  211.18   14.75
  -1  -1  13  205.53   13.94
  -1  -1  12  150.65   12.72
  -1  -1  12  150.93   10.82
  -1  -1  12  153.00   13.07
   1  -1 -12  147.33   10.76
   1  -1 -12  133.38   12.00
   1  -1 -12  136.38   11.24
   1  -1 -12  141.77   11.91
   1  -1 -12  145.03   11.74
  -1  -1  12  137.61   10.12
  -1  -1  12  143.28   12.26
  -1  -1  12  148.51   11.79
   1  -1 -12  145.34   11.76
  -1  -1  12  152.64   11.69
  -1  -1  12  140.96   11.45
   1  -1 -12  141.95   11.38
   1  -1 -12  159.20   12.34
  -1  -1  11 1735.04   56.10
   1  -1 -11 1806.24   57.66
  -1  -1  11 1737.60   53.79
  -1  -1  11 1886.50   60.37
  -1  -1  11 1697.02   57.80
   1  -1 -11 1825.70   56.92
   1  -1 -11 1763.88   57.36
   1  -1 -11 1692.01   53.40
   1  -1 -11 1774.87   56.60
  -1  -1  11 1791.78   58.71
  -1  -1  11 1818.07   56.47
   1  -1 -11 1759.26   53.33
   1  -1 -11 1853.40   58.98
  -1  -1  11 1852.59   54.27
   1  -1 -11 1796.57   57.29
  -1  -1  11 1928.96   57.68
   1  -1 -11 1734.82   56.40
   1  -1 -11 1819.05   55.36
   1  -1 -11 1871.02   54.03
   1  -1 -10  385.15   17.55
  -1  -1  10  393.62   20.97
   1  -1 -10  377.07   18.85
  -1  -1  10  396.45   18.90
   1  -1 -10  363.73   17.86
  -1  -1  10  370.28   16.64
  -1  -1  10  378.70   19.61
   1  -1 -10  416.60   17.90
  -1  -1  10  387.43   19.83
  -1  -1  10  414.02   18.11
   1  -1 -10  395.61   19.71
  -1  -1  10  413.36   20.55
   1  -1 -10  376.78   19.30
  -1  -1  10  357.19   18.24
   1  -1 -10  386.35   17.34
  -1  -1  10  410.06   19.27
   1  -1 -10  403.50   19.18
   1  -1 -10  396.43   19.16
  -1  -1  10  385.90   17.53
   1  -1 -10  366.21   19.60
   1  -1 -10  372.23   19.10
   1  -1  -9  469.16   20.66
  -1  -1   9  454.63   19.75
   1  -1  -9  449.82   20.41
   1  -1  -9  490.44   19.15
   1  -1  -9  488.83   20.81
  -1  -1   9  455.21   16.85
   1  -1  -9  420.28   19.88
  -1  -1   9  450.72   19.75
  -1  -1   9  486.73   22.35
  -1  -1   9  474.86   19.52
   1  -1  -9  442.08   20.50
  -1  -1   9  441.41   16.68
   1  -1  -9  487.57   20.89
   1  -1  -9  487.92   20.59
  -1  -1   9  482.01   20.38
  -1  -1   9  490.07   21.60
   1  -1  -9  467.65   21.44
  -1  -1   9  468.08   19.51
   1  -1  -8  996.87   30.97
   1  -1  -8  993.90   33.03
  -1  -1   8 1015.03   33.56
   1  -1  -8  906.98   31.98
  -1  -1   8  960.76   31.35
   1  -1  -8  957.72   32.68
  -1  -1   8  925.84   31.73
  -1  -1   8 1041.83   35.33
  -1  -1   8  931.46   31.72
  -1  -1   8 1031.35   32.26
  -1  -1   8  956.07   29.04
   1  -1  -8  995.12   33.76
  -1  -1   7  696.89   23.56
   1  -1  -7  697.49   24.29
  -1  -1   7  666.42   25.33
   1  -1  -7  680.39   23.99
  -1  -1   7  685.04   23.17
   1  -1  -7  719.48   24.43
   1  -1  -7  762.77   25.44
  -1  -1   7  724.43   23.52
  -1  -1   7  639.30   21.05
   1  -1  -7  659.81   22.11
   1  -1  -7  603.95   18.87
  -1  -1   7  734.06   24.62
  -1  -1   7  690.64   23.49
  -1  -1   7  690.14   23.51
  -1  -1   6  251.36   11.30
  -1  -1   6  233.50   11.47
  -1  -1   6  249.62   10.93
  -1  -1   6  231.49   10.33
   1  -1  -6  249.08   11.88
   1  -1  -6  234.00    8.09
  -1  -1   6  254.88   10.80
   1  -1  -6  226.81   11.15
  -1  -1   6  241.49    9.77
   1  -1  -6  251.06   11.69
  -1  -1   6  249.80   11.11
   1  -1  -6  250.10   11.48
  -1  -1   6  250.17   11.07
   1  -1  -5 1084.09   28.65
   1  -1  -5 1150.94   32.85
  -1  -1   5 1115.20   30.99
  -1  -1   5 1155.16   31.64
  -1  -1   5 1102.09   32.06
   1  -1  -5 1095.73   32.65
   1  -1  -5 1188.86   33.66
   1  -1  -5 1080.05   31.93
  -1  -1   5 1124.19   32.57
  -1  -1   5 1111.57   32.23
   1  -1  -5 1192.91   33.37
  -1  -1   5 1198.03   32.60
  -1  -1   5 1076.79   32.63
   1  -1  -4  718.58   21.86
   1  -1  -4  749.82   20.57
  -1  -1   4  737.20   22.23
   1  -1  -4  723.00   21.11
  -1  -1   4  722.82   21.63
   1  -1  -4  770.23   22.60
  -1  -1   4  718.97   21.48
   1  -1  -4  720.48   22.27
   1  -1  -4  711.64   21.93
  -1  -1   4  742.60   20.63
   1  -1  -4  676.02   18.35
  -1  -1   4  699.37   21.42
  -1  -1   4  687.79   21.33
   1  -1  -3 3198.80   78.18
  -1  -1   3 3126.68   76.84
   1  -1  -3 3174.13   77.76
   1  -1  -3 3207.58   76.19
   1  -1  -3 3068.84   78.02
  -1  -1   3 3148.71   77.43
   1  -1  -3 3286.38   76.88
  -1  -1   3 3031.36   77.29
   1  -1  -3 3030.57   75.73
  -1  -1   3 3095.06   77.03
  -1  -1   3 3072.42   77.98
   1  -1  -3 2942.50   74.29
  -1  -1   2 1724.79   43.96
   1  -1  -2 1769.62   44.75
   1  -1  -2 1734.93   42.82
   1  -1  -2 1624.13   44.28
  -1  -1   2 1690.06   43.24
   1  -1  -2 1729.99   44.65
   1  -1  -2 1773.46   43.44
  -1  -1   2 1682.47   43.07
  -1  -1   1  327.25   10.40
   1  -1  -1  316.75    9.22
   1  -1  -1  320.55   10.41
  -1  -1   1  296.52    9.52
  -1  -1   0 7928.40  187.94
  -1  -1   0 7509.69  187.68
  -1  -1   0 7868.38  188.22
   1  -1   0 7942.75  187.65
  -1  -1  -1 4113.81   95.92
  -1  -1  -1 3862.09   96.17
   1  -1   1 3890.52   95.56
  -1  -1  -1 3826.34   94.60
   1  -1   2 3730.40   89.76
   1  -1   2 4011.02   89.77
  -1  -1  -2 3752.88   89.93
   1  -1   2 3744.64   89.12
  -1  -1  -2 3970.35   89.88
   1  -1   3  857.49   24.94
   1  -1   3  879.76   25.02
  -1  -1  -3  851.98   24.60
  -1  -1  -3  883.80   24.70
   1  -1   3  861.62   25.56
  -1  -1  -3  829.60   24.58
   1  -1   3  878.84   24.63
  -1  -1  -3  870.57   24.81
  -1  -1  -3  841.11   25.09
   1  -1   3  894.88   25.96
  -1  -1  -3  894.61   25.36
   1  -1   4  492.39   16.74
   1  -1   4  500.65   16.73
   1  -1   4  491.24   16.59
  -1  -1  -4  507.30   16.61
  -1  -1  -4  471.75   16.44
   1  -1   4  490.88   17.63
  -1  -1  -4  505.66   16.30
  -1  -1  -4  490.18   14.01
   1  -1   4  554.69   17.71
   1  -1   4  511.78   16.56
   1  -1   4  507.95   15.39
  -1  -1  -4  467.84   16.16
  -1  -1  -4  504.18   17.20
  -1  -1  -4  496.58   16.86
  -1  -1  -4  484.66   14.94
  -1  -1  -5  745.85   21.18
   1  -1   5  741.93   23.88
   1  -1   5  760.65   22.50
   1  -1   5  761.28   24.03
  -1  -1  -5  792.75   24.19
  -1  -1  -5  693.24   23.62
  -1  -1  -5  769.25   23.64
  -1  -1  -5  775.34   23.33
  -1  -1  -5  740.84   23.95
  -1  -1  -5  766.00   23.44
  -1  -1  -5  714.46   21.28
   1  -1   5  822.16   25.20
   1  -1   5  738.42   23.78
  -1  -1  -5  755.92   23.56
  -1  -1  -5  777.25   24.86
   1  -1   5  828.39   24.35
   1  -1   5  794.38   25.31
   1  -1   5  713.58   21.51
  -1  -1  -6  398.34   16.10
   1  -1   6  418.60   16.36
   1  -1   6  409.20   16.20
   1  -1   6  414.31   13.63
   1  -1   6  421.53   16.34
  -1  -1  -6  408.23   15.48
  -1  -1  -6  423.77   16.10
  -1  -1  -6  417.05   15.44
  -1  -1  -6  430.76   15.87
   1  -1   6  419.97   17.18
   1  -1   6  407.56   16.09
  -1  -1  -6  432.12   16.53
  -1  -1  -6  373.96   13.03
  -1  -1  -6  438.14   17.33
   1  -1   6  419.67   17.29
  -1  -1  -6  421.18   13.88
  -1  -1  -6  404.50   16.01
   1  -1   6  423.01   14.93
  -1  -1  -7   36.75    4.15
   1  -1   7   37.59    5.00
  -1  -1  -7   35.04    4.12
  -1  -1  -7   46.07    4.85
   1  -1   7   46.80    5.16
  -1  -1  -7   35.74    2.90
   1  -1   7   39.49    4.96
  -1  -1  -7   43.56    4.65
   1  -1   7   36.64    4.43
  -1  -1  -7   38.54    3.54
  -1  -1  -7   39.15    4.61
  -1  -1  -7   37.55    4.61
   1  -1   7   35.52    4.27
  -1  -1  -7   42.48    4.36
   1  -1   7   41.20    4.06
   1  -1   7   47.34    4.93
  -1  -1  -7   44.54    5.21
   1  -1   7   36.71    4.48
   1  -1   7   38.66    3.14
  -1  -1  -8  190.08   11.11
   1  -1   8  214.90   12.84
  -1  -1  -8  207.96   12.05
   1  -1   8  194.00   11.36
  -1  -1  -8  183.61   11.54
  -1  -1  -8  208.79   10.93
   1  -1   8  194.17   11.53
  -1  -1  -8  198.00   10.93
  -1  -1  -8  210.60   12.05
   1  -1   8  187.74   12.18
  -1  -1  -8  182.05   12.10
  -1  -1  -8  178.31    9.26
   1  -1   8  202.09   11.70
   1  -1   8  194.01   10.34
   1  -1   8  207.74   11.86
   1  -1   9  228.37   13.19
   1  -1   9  248.86   13.87
   1  -1   9  240.88   14.82
  -1  -1  -9  210.53   12.18
   1  -1   9  235.16   14.67
   1  -1   9  214.11   13.25
   1  -1   9  239.83   15.11
   1  -1   9  235.35   13.58
   1  -1   9  221.93   14.16
   1  -1   9  237.49   14.40
  -1  -1  -9  220.90   10.97
  -1  -1  -9  218.77   14.11
  -1  -1  -9  235.67   13.98
  -1  -1  -9  218.81   13.69
  -1  -1  -9  232.15   13.65
   1  -1   9  245.02   12.32
  -1  -1  -9  186.39    9.80
  -1  -1  -9  216.94   12.31
  -1  -1 -10   60.63    6.36
   1  -1  10   52.28    6.57
   1  -1  10   52.32    5.71
  -1  -1 -10   47.95    6.70
   1  -1  10   51.75    6.15
  -1  -1 -10   60.65    6.29
  -1  -1 -10   55.67    6.92
   1  -1  10   66.94    7.99
   1  -1  10   51.23    6.94
  -1  -1 -10   50.96    6.98
   1  -1  10   60.73    6.91
  -1  -1 -10   55.59    6.53
   1  -1  10   59.68    7.81
  -1  -1 -10   45.95    5.89
  -1  -1 -10   53.17    6.85
   1  -1  10   57.19    6.55
  -1  -1 -10   65.54    7.33
   1  -1  10   48.49    6.97
  -1  -1 -11   48.02    7.07
   1  -1  11   40.67    5.73
   1  -1  11   39.96    5.38
  -1  -1 -11   43.03    6.00
  -1  -1 -11   47.91    5.95
  -1  -1 -11   45.07    5.86
   1  -1  11   58.57    7.85
   1  -1  11   46.42    7.04
  -1  -1 -11   49.35    7.10
   1  -1  11   44.24    6.28
   1  -1  11   43.96    7.19
   1  -1  11   44.73    5.41
  -1  -1 -11   47.48    6.63
  -1  -1 -11   43.87    6.42
   1  -1  11   45.11    6.39
  -1  -1 -11   48.51    6.10
  -1  -1 -11   54.27    6.44
  -1  -1 -11   50.71    6.52
   1  -1  11   48.15    7.04
  -1  -1 -11   36.54    5.30
  -1  -1 -11   46.49    6.58
  -1  -1 -12  429.12   19.54
  -1  -1 -12  395.99   21.06
  -1  -1 -12  381.16   19.87
   1  -1  12  416.14   21.20
   1  -1  12  431.46   21.52
  -1  -1 -12  412.45   19.35
   1  -1  12  399.15   18.13
  -1  -1 -12  368.50   20.39
   1  -1  12  418.29   23.07
   1  -1  12  434.30   22.96
  -1  -1 -12  377.03   21.77
   1  -1  12  410.20   21.38
  -1  -1 -12  362.35   18.50
   1  -1  12  420.06   22.70
  -1  -1 -12  392.26   22.52
  -1  -1 -12  400.82   21.43
  -1  -1 -12  328.06   17.84
  -1  -1 -12  378.71   19.67
   1  -1  12  373.92   18.67
   1  -1  13  250.01   15.42
   1  -1  13  222.53   14.81
  -1  -1 -13  204.69   14.51
  -1  -1 -13  224.12   14.11
   1  -1  13  207.78   15.20
   1  -1  13  236.09   15.07
  -1  -1 -13  200.50   14.42
  -1  -1 -13  187.82   14.78
  -1  -1 -13  196.43   15.12
  -1  -1 -13  179.72   11.67
  -1  -1 -13  214.86   14.89
  -1  -1 -13  226.35   14.19
   1  -1  13  203.72   15.42
  -1  -1 -13  215.20   12.81
   1  -1  14    2.21    2.27
  -1  -1 -14    0.60    1.53
   1  -1  14    1.26    1.91
   1  -1  14    0.56    1.27
  -1  -1 -14    0.51    1.64
  -1  -1 -14    5.25    2.40
  -1  -1 -14    2.71    1.53
   1  -1  14    2.11    1.90
  -1  -1 -14    2.52    2.15
  -1  -1 -14    0.59    1.63
  -1  -1 -15   30.37    3.41
  -1  -1 -15   27.35    4.16
   1  -1  15   27.75    4.72
   1  -1  15   21.34    3.64
  -1  -1 -15   26.12    3.97
  -1  -1 -16   62.13    5.10
   1  -1  16   66.64    5.90
  -1  -1 -16   71.29    5.51
  -1   0  17  158.24    7.24
   1   0 -17  150.11    6.94
   1   0 -17  171.64    7.17
   1   0 -16    0.33    1.12
  -1   0  16    0.72    1.37
  -1   0  16    0.79    1.19
   1   0 -16    0.98    1.35
  -1   0  15   -0.46    0.91
   1   0 -15    2.72    1.35
  -1   0  15    1.01    1.64
  -1   0  15    1.10    1.99
   1   0 -15    1.38    1.74
  -1   0  15    1.98    1.70
   1   0 -15    0.93    1.50
   1   0 -14   29.90    4.31
  -1   0  14   22.21    4.37
  -1   0  14   18.43    4.37
  -1   0  14   30.83    5.55
   1   0 -14   32.14    5.30
   1   0 -14   34.26    5.37
   1   0 -14   24.35    4.77
  -1   0  14   32.47    5.79
   1   0 -14   29.23    4.62
  -1   0  14   25.79    4.65
  -1   0  14   30.34    4.47
  -1   0  13   69.30    8.57
   1   0 -13   61.67    6.77
  -1   0  13   57.91    6.70
   1   0 -13   51.68    7.27
  -1   0  13   41.12    5.32
   1   0 -13   53.44    6.39
  -1   0  13   54.95    7.10
  -1   0  13   62.58    7.93
   1   0 -13   50.53    6.94
  -1   0  13   59.51    8.10
   1   0 -13   55.70    7.55
   1   0 -13   53.22    6.67
   1   0 -13   57.67    7.41
  -1   0  13   49.13    5.62
  -1   0  13   54.90    7.24
  -1   0  13   58.32    7.11
   1   0 -12    2.01    1.62
  -1   0  12   -0.59    1.79
  -1   0  12    0.49    1.36
   1   0 -12    4.09    2.46
  -1   0  12    2.14    2.30
  -1   0  12    0.91    1.03
  -1   0  12    0.61    1.84
   1   0 -12    1.62    1.51
  -1   0  12    4.43    3.04
  -1   0  12    3.40    2.68
   1   0 -12    4.90    2.65
   1   0 -12    0.52    1.44
   1   0 -12    2.95    1.90
  -1   0  12   -0.62    1.73
   1   0 -12    1.61    1.73
   1   0 -12    2.86    1.96
   1   0 -12    0.65    1.81
   1   0 -12   -1.27    2.05
  -1   0  12    2.47    1.86
   1   0 -12    0.54    1.39
  -1   0  11  772.11   31.07
   1   0 -11  682.37   30.17
  -1   0  11  705.70   27.40
   1   0 -11  723.65   29.64
   1   0 -11  751.02   28.67
  -1   0  11  682.30   26.37
  -1   0  11  695.70   30.91
  -1   0  11  714.59   29.53
  -1   0  11  695.46   27.76
   1   0 -11  707.00   28.62
   1   0 -11  786.36   31.04
  -1   0  11  744.09   29.53
   1   0 -11  727.06   28.71
  -1   0  11  741.79   29.11
  -1   0  11  760.10   31.09
  -1   0  11  660.61   24.39
   1   0 -11  755.55   28.36
  -1   0  11  622.94   24.96
   1   0 -11  770.49   30.46
  -1   0  11  732.71   29.41
   1   0 -11  714.55   29.87
   1   0 -11  700.17   27.85
   1   0 -11  729.59   28.50
  -1   0  10  224.73   14.48
   1   0 -10  225.17   13.93
  -1   0  10  222.80   12.23
  -1   0  10  246.76   13.51
  -1   0  10  236.70   13.80
  -1   0  10  220.43   12.28
   1   0 -10  235.16   14.52
   1   0 -10  244.83   13.64
  -1   0  10  246.75   15.60
  -1   0  10  224.55   13.18
   1   0 -10  220.98   14.03
   1   0 -10  232.74   14.57
  -1   0  10  242.08   15.09
   1   0 -10  208.87   13.19
   1   0 -10  250.45   13.86
  -1   0  10  241.59   14.14
  -1   0  10  236.11   14.39
   1   0 -10  219.92   13.36
  -1   0  10  215.43   13.43
   1   0 -10  255.83   14.21
  -1   0  10  221.88   11.58
   1   0  -9  398.79   17.90
   1   0  -9  379.70   17.33
   1   0  -9  360.04   17.92
   1   0  -9  411.58   18.59
   1   0  -9  355.78   18.10
  -1   0   9  387.93   16.38
  -1   0   9  372.34   17.41
  -1   0   9  371.67   16.90
  -1   0   9  394.62   18.66
   1   0  -9  361.33   18.36
   1   0  -9  399.27   17.53
  -1   0   9  376.87   15.74
   1   0  -9  396.16   17.33
  -1   0   9  390.30   18.71
   1   0  -9  389.06   17.58
  -1   0   9  386.96   19.43
   1   0  -9  378.24   18.34
  -1   0   9  358.18   16.08
  -1   0   9  355.60   17.24
   1   0  -8  130.27    5.59
  -1   0   8  101.64    7.41
  -1   0   8  131.96    8.51
  -1   0   8  132.00    8.64
   1   0  -8  123.66    8.35
   1   0  -8  134.37    9.13
   1   0  -8  125.28    9.05
  -1   0   8  128.13    8.07
  -1   0   8  129.00    9.44
  -1   0   8  132.35    8.02
  -1   0   8  125.22    9.08
  -1   0   8  136.47    9.97
  -1   0   8  127.72    8.55
   1   0  -8  116.36    5.75
   1   0  -8  119.27    8.83
   1   0  -8  131.29    8.45
  -1   0   7  600.44   21.24
  -1   0   7  607.50   21.68
   1   0  -7  649.83   22.99
  -1   0   7  645.80   21.88
   1   0  -7  637.37   22.91
  -1   0   7  658.33   23.40
  -1   0   7  569.29   20.56
  -1   0   7  669.92   22.29
  -1   0   7  652.17   22.88
   1   0  -7  639.93   21.91
   1   0  -7  641.95   22.72
   1   0  -7  630.74   21.51
   1   0  -7  612.27   17.95
  -1   0   7  606.92   18.25
   1   0  -7  603.23   18.03
   1   0  -6 1540.59   41.38
  -1   0   6 1614.59   45.24
   1   0  -6 1614.05   45.30
  -1   0   6 1751.05   46.76
   1   0  -6 1589.96   45.98
  -1   0   6 1641.21   44.38
  -1   0   6 1668.72   45.41
   1   0  -6 1680.32   41.90
   1   0  -6 1572.96   45.89
  -1   0   6 1681.99   45.44
   1   0  -6 1776.38   46.67
  -1   0   6 1437.76   45.42
  -1   0   6 1625.47   41.98
  -1   0   6 1681.25   45.35
   1   0  -5 1295.54   38.63
  -1   0   5 1275.99   36.90
   1   0  -5 1399.45   38.11
  -1   0   5 1396.98   38.85
   1   0  -5 1405.60   38.61
   1   0  -5 1367.30   35.35
  -1   0   5 1399.16   38.31
  -1   0   5 1395.14   38.09
  -1   0   5 1438.72   38.96
  -1   0   5 1362.67   37.95
   1   0  -5 1370.85   38.62
  -1   0   4  978.96   27.21
  -1   0   4  893.94   26.94
  -1   0   4  986.37   27.11
  -1   0   4  874.46   25.89
   1   0  -4  955.82   26.97
   1   0  -4  949.07   26.69
  -1   0   4  966.30   26.88
   1   0  -4  935.79   25.92
  -1   0   4  933.89   26.75
   1   0  -4  988.33   27.57
   1   0  -4  981.16   27.28
   1   0  -4  912.06   24.69
  -1   0   3   51.95    3.46
  -1   0   3   48.80    3.11
   1   0  -3   54.47    3.44
   1   0  -3   51.31    3.31
   1   0  -3   55.21    3.70
   1   0  -3   56.85    2.97
   1   0  -3   49.04    3.30
   1   0  -3   52.46    2.70
  -1   0   3   58.16    3.42
  -1   0   3   54.36    3.54
   1   0  -2 4707.11  118.21
  -1   0   2 4814.93  119.29
   1   0  -2 4903.80  119.54
   1   0  -2 4985.34  119.22
  -1   0   2 5094.50  118.94
  -1   0   2 5030.53  120.33
   1   0  -2 5133.57  120.68
   1   0  -2 5145.44  120.31
   1   0  -2 4895.67  118.49
   1   0  -2 4990.98  119.89
   1   0  -2 4989.50  120.09
   1   0  -1 3483.85   87.50
   1   0  -1 3568.10   85.65
  -1   0   1 3574.66   85.94
   1   0  -1 3514.78   86.61
   1   0  -1 3645.52   87.65
  -1   0   1 3661.29   86.03
   1   0  -1 3593.47   87.40
   1   0   0  162.95    5.77
  -1   0   0  153.32    4.41
   1   0   0  151.28    5.53
   1   0   1  983.57   25.46
  -1   0  -1 1033.00   25.89
   1   0   2  334.30   11.26
   1   0   2  340.45   11.13
  -1   0  -2  339.03   10.38
  -1   0  -2  360.51   10.86
   1   0   2  347.45   10.70
   1   0   2  308.13   10.55
  -1   0  -2  353.56   10.99
   1   0   3   14.45    1.86
   1   0   3   14.09    1.93
   1   0   3   20.54    2.27
   1   0   3   14.79    1.88
   1   0   3   11.68    1.71
  -1   0  -3   13.44    1.79
  -1   0  -3   11.85    1.66
  -1   0  -3   14.33    1.97
  -1   0  -3   12.54    1.56
   1   0   3   13.86    1.90
   1   0   3   11.91    1.85
  -1   0  -4  117.52    6.07
   1   0   4  111.98    6.29
  -1   0  -4  116.21    5.47
   1   0   4  122.73    6.67
   1   0   4  117.08    6.40
   1   0   4  130.66    6.67
   1   0   4  117.01    6.54
  -1   0  -4  120.88    5.80
   1   0   4  113.97    5.13
   1   0   4  122.42    6.25
  -1   0  -4  105.38    4.99
   1   0   4  117.27    6.28
  -1   0  -4  117.33    6.26
  -1   0  -4  107.28    6.42
  -1   0  -4  119.78    6.19
   1   0   4  113.12    6.15
   1   0   4  119.30    6.09
   1   0   5   68.72    5.10
   1   0   5   72.07    5.55
  -1   0  -5   66.10    4.87
   1   0   5   66.65    4.89
  -1   0  -5   69.00    4.59
   1   0   5   75.19    5.43
   1   0   5   74.53    5.47
   1   0   5   66.92    5.15
  -1   0  -5   65.46    5.00
   1   0   5   74.17    5.47
   1   0   5   66.56    3.97
   1   0   5   69.04    4.83
  -1   0  -5   63.03    4.02
   1   0   5   74.36    5.54
  -1   0  -5   65.54    4.87
  -1   0  -5   73.86    5.27
  -1   0  -5   62.78    5.09
   1   0   6 1763.53   48.65
   1   0   6 1758.36   47.60
  -1   0  -6 1711.58   45.94
  -1   0  -6 1775.13   46.83
   1   0   6 1729.42   49.26
  -1   0  -6 1757.36   47.77
  -1   0  -6 1709.94   48.23
   1   0   6 1648.89   44.94
   1   0   6 1740.64   48.53
   1   0   6 1626.79   47.43
  -1   0  -6 1674.22   48.03
  -1   0  -6 1706.06   48.20
   1   0   6 1748.71   48.59
   1   0   6 1707.53   49.04
  -1   0  -6 1615.06   48.83
   1   0   6 1748.23   49.34
   1   0   7 2119.61   60.68
  -1   0  -7 2061.78   59.65
  -1   0  -7 2243.33   60.06
  -1   0  -7 2063.52   58.60
  -1   0  -7 2066.25   57.05
   1   0   7 2181.10   58.84
   1   0   7 2265.94   61.54
   1   0   7 2083.42   59.40
   1   0   7 2140.71   60.18
  -1   0  -7 2109.87   59.34
   1   0   7 2216.21   61.00
  -1   0  -7 2172.58   60.67
   1   0   7 2056.45   58.64
   1   0   7 2139.81   60.03
  -1   0  -7 2066.55   56.79
   1   0   7 2161.20   60.06
   1   0   7 2103.45   55.40
  -1   0  -8  109.69    8.28
  -1   0  -8  107.66    7.06
  -1   0  -8   98.98    6.77
  -1   0  -8  116.52    8.10
   1   0   8  101.22    5.88
   1   0   8   97.54    8.55
  -1   0  -8  108.37    8.77
   1   0   8  110.78    8.58
  -1   0  -8  108.07    8.68
  -1   0  -8  104.19    7.08
   1   0   8  100.72    8.06
   1   0   8   95.46    7.87
  -1   0  -8  112.52    8.48
   1   0   8   98.68    8.44
   1   0   8  101.41    8.59
   1   0   8  103.26    7.60
   1   0   8  107.61    8.34
   1   0   8  101.59    7.73
  -1   0  -8  105.02    8.19
   1   0   9   17.03    3.85
   1   0   9   17.12    3.83
  -1   0  -9   18.15    3.73
   1   0   9   17.80    3.79
  -1   0  -9   14.28    3.72
   1   0   9   13.99    3.72
   1   0   9   16.05    3.70
  -1   0  -9   13.68    2.76
   1   0   9   18.49    3.74
   1   0   9   21.85    4.29
  -1   0  -9   16.39    3.28
  -1   0  -9   16.19    3.89
  -1   0  -9   12.21    3.36
  -1   0  -9   16.23    3.30
   1   0   9   18.95    4.02
  -1   0  -9   12.33    2.44
   1   0   9   14.34    3.08
  -1   0  -9   13.56    3.29
   1   0   9   16.13    3.59
  -1   0  -9   15.61    3.26
  -1   0  -9   15.99    2.88
  -1   0 -10   50.13    6.47
   1   0  10   38.02    5.96
  -1   0 -10   49.38    5.57
   1   0  10   59.84    6.92
   1   0  10   50.03    6.70
   1   0  10   45.17    5.69
  -1   0 -10   61.44    6.62
   1   0  10   54.19    7.41
  -1   0 -10   57.08    5.99
  -1   0 -10   55.50    5.65
   1   0  10   44.10    6.45
   1   0  10   56.63    6.78
  -1   0 -10   54.28    7.21
  -1   0 -10   52.34    6.08
  -1   0 -10   49.56    4.88
  -1   0 -10   45.95    5.85
  -1   0 -10   60.20    6.92
  -1   0 -10   55.14    6.69
   1   0  10   50.83    6.52
  -1   0 -10   50.05    6.77
   1   0  10   42.01    6.36
   1   0  11   15.49    3.60
  -1   0 -11   12.81    3.00
   1   0  11   13.44    3.69
   1   0  11   12.37    3.47
   1   0  11   12.32    3.04
   1   0  11   10.87    3.62
  -1   0 -11   14.84    3.19
  -1   0 -11   11.94    2.85
   1   0  11   15.84    3.88
   1   0  11   12.98    3.75
  -1   0 -11   19.50    4.60
   1   0  11   17.05    4.37
  -1   0 -11   12.62    3.93
   1   0  11    9.23    3.31
  -1   0 -11   13.07    3.53
  -1   0 -11   10.45    2.81
   1   0  11   15.56    4.13
  -1   0 -11   11.49    3.43
  -1   0 -11    8.74    3.28
  -1   0 -11   15.66    3.92
  -1   0 -11   19.49    4.18
  -1   0 -12  207.20   12.24
  -1   0 -12  185.87   13.08
  -1   0 -12  206.27   14.17
   1   0  12  191.16   13.91
   1   0  12  185.91   14.30
   1   0  12  151.06   10.99
  -1   0 -12  211.85   13.62
   1   0  12  196.13   15.02
   1   0  12  208.49   15.17
  -1   0 -12  188.58   13.16
   1   0  12  197.88   14.84
   1   0  12  221.30   13.48
  -1   0 -12  207.58   15.58
  -1   0 -12  188.27   13.95
  -1   0 -12  182.96   13.70
   1   0  12  211.22   14.35
  -1   0 -12  203.75   15.16
   1   0  12  199.28   15.29
  -1   0 -12  185.79   12.59
   1   0  12  203.92   14.08
   1   0  13    0.45    1.26
  -1   0 -13    0.40    1.12
   1   0  13    0.50    1.15
   1   0  13   -0.65    1.80
  -1   0 -13    1.47    1.88
  -1   0 -13    1.10    1.53
   1   0  13    2.92    2.76
   1   0  13   -0.70    2.24
  -1   0 -13   -1.52    2.12
  -1   0 -13    1.11    1.68
  -1   0 -13    0.65    1.66
   1   0  13   -0.64    1.78
  -1   0 -13    1.69    1.93
  -1   0 -13    0.47    0.92
  -1   0 -13    1.26    1.91
  -1   0 -13   -0.66    1.30
   1   0  13   -0.64    1.64
  -1   0 -14   12.15    2.42
   1   0  14   15.70    3.77
   1   0  14    9.10    3.41
   1   0  14   15.58    3.97
  -1   0 -14   10.63    3.25
  -1   0 -14   15.60    3.70
  -1   0 -14   12.90    3.27
   1   0  14   16.47    3.21
  -1   0 -14   17.84    3.83
  -1   0 -14   10.82    3.13
   1   0  14   19.63    4.18
   1   0  15  111.61    8.69
  -1   0 -15  128.46    9.14
  -1   0 -15  127.38    8.82
   1   0  15  120.89    9.68
   1   0  16  103.11    7.47
  -1   0 -16  104.79    6.87
  -1   0 -17    9.81    1.45
  -1   1  17   65.47    4.30
  -1   1  16  258.06   12.94
  -1   1  16  250.51   12.89
   1   1 -16  267.53   12.03
   1   1 -16  257.75   12.02
   1   1 -15   87.42    7.28
  -1   1  15   91.73    8.34
  -1   1  15   86.21    8.43
   1   1 -15   92.23    7.78
   1   1 -15   96.35    8.00
   1   1 -14   51.41    6.45
   1   1 -14   56.07    6.43
  -1   1  14   49.11    5.36
   1   1 -14   59.61    6.92
  -1   1  14   50.97    6.86
  -1   1  14   52.32    7.14
  -1   1  14   55.95    6.57
   1   1 -14   42.69    6.21
  -1   1  14   60.46    7.20
   1   1 -13  183.69   11.10
   1   1 -13  223.50   13.91
  -1   1  13  180.33   11.94
  -1   1  13  206.40   14.95
  -1   1  13  165.70   12.26
  -1   1  13  205.57   14.92
   1   1 -13  153.60   13.24
   1   1 -13  181.74   12.96
  -1   1  13  210.39   14.75
   1   1 -13  181.33   13.51
   1   1 -13  189.30   13.47
  -1   1  13  194.08   13.14
   1   1 -13  157.96   11.18
   1   1 -13  206.27   13.88
  -1   1  13  173.45   12.40
  -1   1  13  182.38   13.45
   1   1 -12  144.04   11.30
  -1   1  12  148.00   12.20
   1   1 -12  154.14   10.45
  -1   1  12  128.05   10.28
  -1   1  12  128.74   10.90
  -1   1  12  152.81   12.69
   1   1 -12  137.35   11.61
  -1   1  12  121.47   10.46
  -1   1  12  178.74   13.58
   1   1 -12  111.44    9.16
  -1   1  12  148.67    9.65
   1   1 -12  127.76   11.28
   1   1 -12  148.26   11.85
  -1   1  12  158.13   11.82
   1   1 -12  144.20   10.69
   1   1 -12  158.51   11.62
  -1   1  12  148.40   11.56
   1   1 -12  117.91   11.03
   1   1 -11 1804.09   54.34
  -1   1  11 1789.40   55.29
   1   1 -11 1854.67   57.01
  -1   1  11 1879.37   58.89
  -1   1  11 1721.49   56.31
   1   1 -11 1659.79   54.72
  -1   1  11 1767.07   55.93
  -1   1  11 1773.18   57.93
  -1   1  11 1884.60   59.52
  -1   1  11 1704.59   52.76
   1   1 -11 1844.11   57.84
   1   1 -11 1781.39   55.93
   1   1 -11 1713.34   53.51
  -1   1  11 1781.07   51.81
   1   1 -11 1854.54   57.80
  -1   1  11 1829.32   56.12
   1   1 -11 1722.23   56.93
   1   1 -11 1837.86   54.95
   1   1 -11 1783.49   55.98
  -1   1  11 1799.69   56.38
   1   1 -11 1810.70   57.21
  -1   1  10  408.03   17.02
   1   1 -10  410.88   19.39
  -1   1  10  381.34   18.65
  -1   1  10  390.42   20.23
   1   1 -10  434.65   20.04
  -1   1  10  409.70   20.47
  -1   1  10  435.64   21.55
   1   1 -10  364.45   17.24
  -1   1  10  405.79   20.74
   1   1 -10  375.46   20.35
  -1   1  10  403.64   19.00
  -1   1  10  390.79   18.85
   1   1 -10  389.12   19.70
  -1   1  10  398.79   19.56
   1   1 -10  424.19   20.24
  -1   1  10  389.42   16.38
  -1   1  10  357.12   17.09
  -1   1  10  357.89   18.94
   1   1 -10  383.12   17.93
  -1   1  10  391.74   18.55
  -1   1  10  383.36   18.54
   1   1 -10  410.33   19.20
   1   1 -10  392.92   19.62
   1   1 -10  369.56   19.24
   1   1 -10  393.95   18.11
  -1   1   9  444.90   18.00
   1   1  -9  441.20   20.22
   1   1  -9  476.47   20.57
   1   1  -9  460.33   19.18
   1   1  -9  447.89   20.45
  -1   1   9  461.56   21.46
   1   1  -9  467.13   21.80
  -1   1   9  461.24   19.67
  -1   1   9  455.76   19.72
   1   1  -9  456.50   20.76
  -1   1   9  464.30   18.97
  -1   1   9  435.17   19.19
  -1   1   9  420.03   18.25
   1   1  -9  462.98   18.71
  -1   1   9  443.19   17.33
  -1   1   9  475.40   21.48
   1   1  -9  442.31   20.50
  -1   1   9  480.03   20.68
   1   1  -9  446.67   16.26
   1   1  -9  487.12   20.55
   1   1  -9  468.29   19.87
  -1   1   9  461.96   19.73
  -1   1   8 1011.78   31.66
   1   1  -8  967.39   31.25
   1   1  -8 1026.21   33.74
   1   1  -8 1008.75   33.83
  -1   1   8 1048.85   34.82
   1   1  -8 1050.96   33.86
   1   1  -8  984.10   34.62
  -1   1   8 1023.31   32.61
  -1   1   8  984.12   31.67
  -1   1   8 1007.73   33.44
  -1   1   8  990.27   30.27
  -1   1   8 1033.87   34.34
  -1   1   8  978.60   32.32
  -1   1   8 1008.32   32.62
   1   1  -8  971.23   31.64
   1   1  -8 1010.45   29.83
  -1   1   8  995.08   32.83
  -1   1   7  685.72   21.44
   1   1  -7  711.81   24.32
  -1   1   7  667.70   22.44
   1   1  -7  692.63   25.31
   1   1  -7  695.52   21.46
   1   1  -7  716.33   24.20
   1   1  -7  726.29   24.66
   1   1  -7  666.11   22.10
  -1   1   7  659.29   24.62
  -1   1   7  657.33   22.99
   1   1  -7  664.92   22.43
  -1   1   7  660.92   23.84
  -1   1   7  653.14   23.36
  -1   1   7  643.81   22.89
  -1   1   7  668.70   24.40
   1   1  -6  249.57   10.06
  -1   1   6  247.76   10.95
   1   1  -6  249.83   11.57
   1   1  -6  251.49   10.25
  -1   1   6  253.47   11.91
   1   1  -6  259.41   12.40
   1   1  -6  248.70   11.79
  -1   1   6  243.73   11.44
  -1   1   6  245.76    9.75
  -1   1   6  254.79   11.07
   1   1  -6  261.60   11.56
   1   1  -6  254.37   10.54
  -1   1   6  239.35   10.83
  -1   1   6  255.06   11.52
  -1   1   6  266.63   12.30
   1   1  -5 1106.70   32.88
  -1   1   5 1158.38   32.58
   1   1  -5 1181.89   33.67
  -1   1   5 1163.75   33.23
  -1   1   5 1130.51   33.50
   1   1  -5 1116.31   33.91
  -1   1   5 1180.99   32.82
   1   1  -5 1189.13   33.80
  -1   1   5 1149.67   33.22
  -1   1   5 1060.36   30.74
   1   1  -5 1187.28   31.75
  -1   1   5 1188.17   32.67
  -1   1   5 1137.06   33.59
   1   1  -5 1146.38   31.31
  -1   1   4  728.85   22.43
   1   1  -4  723.34   22.21
  -1   1   4  716.49   21.38
  -1   1   4  749.67   22.23
   1   1  -4  741.96   22.81
  -1   1   4  724.29   20.18
  -1   1   4  759.89   21.88
   1   1  -4  712.41   19.22
  -1   1   4  709.11   21.92
   1   1  -4  677.05   22.11
  -1   1   4  737.46   21.41
   1   1  -4  766.41   21.38
  -1   1   3 3166.92   77.84
   1   1  -3 2918.81   75.52
   1   1  -3 3122.96   75.81
   1   1  -3 3184.17   77.57
   1   1  -3 3026.97   78.13
   1   1  -3 3271.75   78.00
   1   1  -3 3199.98   78.79
  -1   1   3 3076.62   77.55
   1   1  -3 3218.27   78.24
  -1   1   3 3039.11   77.15
  -1   1   3 3174.83   77.24
   1   1  -3 3019.73   77.20
   1   1  -2 1718.11   41.94
  -1   1   2 1697.63   43.13
   1   1  -2 1577.66   42.47
  -1   1   2 1664.44   42.70
   1   1  -2 1743.33   43.75
   1   1  -2 1682.19   42.88
   1   1  -2 1607.98   43.29
  -1   1   2 1606.58   42.30
   1   1  -2 1722.13   43.02
   1   1  -1  336.05   10.11
   1   1  -1  322.37   10.20
  -1   1   1  332.35   10.25
   1   1  -1  335.45   10.97
   1   1  -1  315.71    9.89
   1   1  -1  331.48   10.66
   1   1   0 7666.91  185.99
   1   1   0 7701.46  185.74
   1   1   0 7795.26  185.80
   1   1   0 7666.41  184.32
   1   1   1 3949.77   97.24
   1   1   1 4050.96   96.21
   1   1   1 3898.35   97.20
  -1   1  -1 3978.35   95.87
   1   1   1 4009.13   96.48
   1   1   1 3786.06   97.22
   1   1   1 3922.13   96.99
   1   1   2 3930.25   94.88
   1   1   2 3638.08   94.31
   1   1   2 3920.63   95.26
  -1   1  -2 3851.00   93.30
   1   1   2 3802.12   94.41
  -1   1  -2 3851.65   94.37
   1   1   2 3880.47   94.84
   1   1   2 3879.06   95.11
   1   1   2 3815.07   94.51
   1   1   3  862.16   24.93
  -1   1  -3  772.65   23.71
  -1   1  -3  863.60   24.42
  -1   1  -3  859.98   21.95
   1   1   3  837.55   24.49
   1   1   3  879.52   24.56
  -1   1  -3  867.01   24.50
   1   1   3  851.84   24.77
   1   1   3  864.11   24.19
   1   1   3  859.07   24.72
   1   1   3  832.85   24.62
   1   1   3  877.62   24.42
   1   1   3  845.22   23.81
   1   1   4  519.60   17.01
   1   1   4  496.75   16.06
   1   1   4  492.15   16.88
  -1   1  -4  502.37   14.32
   1   1   4  489.56   16.88
  -1   1  -4  480.60   16.92
   1   1   4  514.65   17.10
   1   1   4  489.92   16.15
   1   1   4  499.52   16.98
  -1   1  -4  514.10   16.74
  -1   1  -4  488.29   16.07
   1   1   4  551.72   17.53
   1   1   5  810.18   24.75
  -1   1  -5  785.39   24.13
  -1   1  -5  749.49   21.34
   1   1   5  757.59   23.58
   1   1   5  770.57   24.63
  -1   1  -5  703.21   22.77
  -1   1  -5  729.68   24.58
   1   1   5  735.41   24.34
   1   1   5  727.26   24.79
   1   1   5  797.04   24.51
  -1   1  -5  784.52   24.88
   1   1   5  785.73   24.87
   1   1   5  788.23   24.54
  -1   1  -5  783.46   24.43
  -1   1  -5  753.54   21.88
   1   1   5  774.37   24.66
   1   1   6  434.52   17.24
  -1   1  -6  444.03   16.75
   1   1   6  411.86   15.89
  -1   1  -6  395.91   15.93
   1   1   6  435.40   16.70
  -1   1  -6  408.86   14.08
   1   1   6  406.89   16.79
  -1   1  -6  425.05   17.07
   1   1   6  385.21   16.06
   1   1   6  446.59   17.18
   1   1   6  423.32   16.49
   1   1   6  396.56   14.95
  -1   1  -6  441.01   16.73
   1   1   6  420.74   16.58
   1   1   6  403.85   16.64
  -1   1  -6  401.02   16.93
   1   1   7   41.84    4.61
  -1   1  -7   50.39    4.65
   1   1   7   36.05    4.49
   1   1   7   34.77    4.36
  -1   1  -7   37.95    3.56
   1   1   7   35.07    4.60
   1   1   7   40.71    4.45
  -1   1  -7   40.85    5.02
   1   1   7   40.67    4.61
  -1   1  -7   44.94    5.04
   1   1   7   49.29    5.10
  -1   1  -7   42.82    4.86
   1   1   7   38.05    3.88
  -1   1  -7   38.92    4.43
  -1   1  -7   32.86    4.32
   1   1   7   38.18    4.72
   1   1   7   36.39    4.61
  -1   1  -7   36.68    4.82
   1   1   7   37.83    4.75
  -1   1  -8  199.08   11.44
  -1   1  -8  189.67   11.58
   1   1   8  210.13   12.09
  -1   1  -8  180.48    9.39
   1   1   8  218.54   13.06
   1   1   8  219.70   12.81
  -1   1  -8  214.95   12.92
  -1   1  -8  212.47   11.06
   1   1   8  206.75   10.30
  -1   1  -8  200.43   11.75
   1   1   8  218.64   12.06
   1   1   8  196.10   11.41
   1   1   8  193.41   11.57
   1   1   8  206.89   12.45
   1   1   8  195.59   12.38
  -1   1  -8  193.86   12.28
   1   1   8  203.79   12.06
  -1   1  -8  207.36   12.14
  -1   1  -9  244.17   13.98
   1   1   9  239.48   13.56
  -1   1  -9  223.18   12.25
   1   1   9  219.53   12.98
  -1   1  -9  224.99   13.16
   1   1   9  221.83   14.38
  -1   1  -9  214.35   14.09
  -1   1  -9  220.07   11.13
   1   1   9  257.74   15.32
   1   1   9  222.32   13.12
  -1   1  -9  238.04   14.86
  -1   1  -9  223.83   12.60
  -1   1  -9  224.21   11.94
   1   1   9  227.84   14.09
   1   1   9  240.18   11.57
   1   1   9  241.46   14.41
   1   1   9  275.44   15.43
   1   1   9  235.49   13.72
  -1   1  -9  223.53   13.59
  -1   1  -9  225.76   13.50
   1   1   9  207.84   13.79
   1   1   9  223.67   13.72
   1   1  10   45.19    4.74
  -1   1 -10   52.98    6.13
  -1   1 -10   54.06    6.67
   1   1  10   52.45    7.04
   1   1  10   68.06    7.29
   1   1  10   58.93    6.59
  -1   1 -10   63.44    6.92
   1   1  10   53.94    7.47
   1   1  10   52.64    6.41
   1   1  10   58.63    7.21
  -1   1 -10   59.89    7.59
  -1   1 -10   51.84    6.63
  -1   1 -10   59.42    6.85
   1   1  10   61.82    7.40
   1   1  10   51.18    7.20
   1   1  10   55.80    6.84
   1   1  10   46.97    6.68
   1   1  10   61.39    7.18
  -1   1 -10   51.19    6.89
  -1   1 -10   52.61    6.22
  -1   1 -10   62.25    5.96
  -1   1 -10   49.40    5.66
  -1   1 -11   44.12    5.08
  -1   1 -11   45.21    5.73
   1   1  11   55.95    7.11
   1   1  11   48.39    6.89
   1   1  11   45.29    5.88
  -1   1 -11   55.19    6.78
  -1   1 -11   47.58    6.39
   1   1  11   45.03    7.04
   1   1  11   49.91    6.95
   1   1  11   52.85    6.75
  -1   1 -11   40.59    6.56
   1   1  11   43.17    6.70
   1   1  11   50.23    7.36
  -1   1 -11   44.26    6.10
  -1   1 -11   51.36    6.71
   1   1  11   51.29    6.99
  -1   1 -11   47.60    6.69
  -1   1 -11   50.03    7.14
  -1   1 -11   38.01    5.51
  -1   1 -11   43.36    5.79
   1   1  11   48.26    6.28
   1   1  12  434.63   22.98
   1   1  12  412.20   21.91
  -1   1 -12  404.14   20.76
  -1   1 -12  428.27   20.91
   1   1  12  377.29   19.92
   1   1  12  433.74   23.15
  -1   1 -12  386.06   21.05
   1   1  12  420.10   21.97
   1   1  12  387.88   21.07
   1   1  12  410.96   20.56
  -1   1 -12  374.73   22.10
   1   1  12  409.51   21.42
  -1   1 -12  380.05   18.51
  -1   1 -12  368.71   18.96
  -1   1 -12  382.66   20.43
   1   1  12  338.83   17.66
   1   1  12  434.65   21.63
  -1   1 -12  380.76   19.25
  -1   1 -12  388.17   21.83
  -1   1 -12  400.17   19.84
   1   1  13  214.14   15.68
   1   1  13  219.60   14.79
   1   1  13  203.38   14.69
  -1   1 -13  205.55   13.25
   1   1  13  214.41   15.47
   1   1  13  233.78   15.53
   1   1  13  217.29   15.01
  -1   1 -13  202.63   15.63
  -1   1 -13  202.48   14.04
  -1   1 -13  237.55   15.22
   1   1  13  214.01   14.58
  -1   1 -13  216.08   13.71
  -1   1 -13  243.68   14.36
  -1   1 -13  225.15   15.28
  -1   1 -14    0.56    0.90
   1   1  14    2.28    2.05
  -1   1 -14    2.26    1.63
  -1   1 -14    0.59    1.35
   1   1  14   -0.63    2.04
   1   1  14    2.24    1.69
   1   1  14   -0.59    1.77
   1   1  14    0.49    1.37
   1   1  14   -0.65    1.49
  -1   1 -14    0.97    1.91
   1   1  14    0.58    1.61
  -1   1 -14    0.92    1.58
   1   1  15   19.46    4.12
   1   1  15   29.24    4.60
  -1   1 -15   29.48    3.93
  -1   1 -15   35.08    4.34
  -1   1 -15   32.37    4.40
  -1   1 -16   56.60    4.17
   1   1  16   64.72    5.51
   1   1  16   58.82    4.93
  -1   1 -16   65.93    5.09
   1   2 -16    9.74    1.98
  -1   2  16    6.60    2.00
  -1   2  16    5.92    1.85
   1   2 -16    8.05    1.66
  -1   2  15   15.55    2.44
   1   2 -15   19.19    3.40
  -1   2  15   19.41    3.80
  -1   2  15   26.65    4.31
   1   2 -15   17.93    3.27
   1   2 -15   20.08    3.33
   1   2 -14  101.50    8.78
  -1   2  14   85.48    7.48
  -1   2  14   94.43    9.00
  -1   2  14   95.83    9.13
  -1   2  14   94.34    9.44
   1   2 -14  101.42    8.61
  -1   2  14  105.65    8.62
  -1   2  14   83.79    7.40
   1   2 -14   99.15    8.47
   1   2 -14   98.13    8.96
  -1   2  14   91.01    8.35
  -1   2  13   74.93    8.47
  -1   2  13   65.62    6.39
   1   2 -13   65.13    7.97
  -1   2  13   89.88    8.71
  -1   2  13   77.58    8.85
  -1   2  13   68.04    7.52
  -1   2  13   83.97    9.32
  -1   2  13   73.42    7.67
  -1   2  13   79.67    7.81
   1   2 -13   87.98    8.63
   1   2 -13   81.29    8.39
   1   2 -13   86.48    8.45
   1   2 -12   25.55    4.66
  -1   2  12   17.55    4.08
  -1   2  12   21.18    4.33
  -1   2  12   11.38    4.00
  -1   2  12   16.15    4.30
  -1   2  12   20.34    3.91
  -1   2  12   15.15    4.03
   1   2 -12   15.08    4.05
   1   2 -12   21.54    3.82
  -1   2  12   20.55    4.56
  -1   2  12   22.98    4.34
   1   2 -12   20.06    5.07
   1   2 -12   19.98    4.43
   1   2 -12   14.47    3.85
   1   2 -12   19.98    4.50
  -1   2  12   18.41    4.02
  -1   2  12   17.51    3.98
  -1   2  11  416.07   22.10
  -1   2  11  443.37   21.20
   1   2 -11  416.96   21.39
  -1   2  11  422.63   21.27
   1   2 -11  506.86   23.45
   1   2 -11  387.15   17.82
  -1   2  11  462.12   21.77
   1   2 -11  442.50   19.51
   1   2 -11  429.26   21.33
  -1   2  11  405.09   22.83
  -1   2  11  450.79   23.17
   1   2 -11  453.92   24.01
  -1   2  11  460.29   22.03
   1   2 -11  445.49   22.47
   1   2 -11  451.18   21.79
  -1   2  11  443.74   20.07
   1   2 -11  459.27   19.45
  -1   2  11  460.23   22.57
   1   2 -11  426.98   21.44
  -1   2  11  433.16   22.23
  -1   2  11  455.09   21.15
   1   2 -11  449.27   21.44
   1   2 -10  628.21   26.85
  -1   2  10  594.12   24.06
  -1   2  10  548.39   21.74
  -1   2  10  641.41   26.16
   1   2 -10  632.52   26.48
  -1   2  10  642.80   28.16
   1   2 -10  602.91   25.80
   1   2 -10  626.08   28.34
  -1   2  10  612.17   25.90
   1   2 -10  648.22   27.05
  -1   2  10  586.28   25.61
  -1   2  10  630.18   25.95
   1   2 -10  645.51   24.38
   1   2 -10  601.74   23.59
  -1   2  10  648.34   27.12
   1   2 -10  633.38   22.73
   1   2 -10  667.63   26.84
   1   2 -10  621.27   25.83
   1   2 -10  564.12   22.39
  -1   2  10  629.82   25.27
  -1   2  10  605.22   26.82
  -1   2   9  137.21   10.07
  -1   2   9  139.99    8.88
  -1   2   9  152.09   10.22
   1   2  -9  141.29    9.18
   1   2  -9  154.37   11.18
   1   2  -9  137.96   10.28
   1   2  -9  140.70    8.73
   1   2  -9  128.87   10.36
   1   2  -9  146.29   10.68
   1   2  -9  152.69   11.96
   1   2  -9  145.02    8.97
   1   2  -9  155.55   10.97
  -1   2   9  137.77    9.42
  -1   2   9  144.17   10.84
  -1   2   9  163.99   11.40
  -1   2   9  145.95   10.42
  -1   2   9  141.61   10.44
   1   2  -9  128.71    9.71
   1   2  -9  149.61    9.93
  -1   2   9  139.95   11.13
  -1   2   8  560.26   22.04
  -1   2   8  534.52   22.48
   1   2  -8  582.36   22.89
   1   2  -8  580.95   24.45
  -1   2   8  513.09   18.60
  -1   2   8  540.79   20.76
   1   2  -8  532.80   19.34
  -1   2   8  565.21   21.77
   1   2  -8  545.41   22.50
   1   2  -8  505.22   19.63
  -1   2   8  538.45   22.52
   1   2  -8  594.63   23.13
   1   2  -8  514.22   22.04
   1   2  -8  535.13   20.03
  -1   2   8  601.94   23.98
  -1   2   8  543.71   20.26
   1   2  -8  554.49   22.00
  -1   2   7  229.28   11.54
  -1   2   7  247.85   12.44
   1   2  -7  239.78    9.06
   1   2  -7  234.90   12.82
   1   2  -7  254.48   13.21
  -1   2   7  258.79   13.68
   1   2  -7  255.92   14.02
  -1   2   7  240.13   10.48
  -1   2   7  247.50   12.75
  -1   2   7  254.34   12.59
   1   2  -7  257.42   11.23
  -1   2   7  258.78   13.08
  -1   2   7  254.87   13.13
   1   2  -7  247.51   10.65
   1   2  -6   18.52    2.76
   1   2  -6   23.05    2.37
  -1   2   6   23.21    2.63
  -1   2   6   19.52    2.83
   1   2  -6   23.50    3.49
  -1   2   6   20.28    3.25
  -1   2   6   23.42    3.59
   1   2  -6   32.15    4.42
   1   2  -6   25.48    3.61
   1   2  -6   26.15    2.73
  -1   2   6   24.24    3.48
  -1   2   6   24.44    3.46
  -1   2   6   20.01    3.10
  -1   2   6   17.04    2.69
   1   2  -6   25.24    2.82
  -1   2   6   23.54    2.10
  -1   2   5 1717.94   46.67
  -1   2   5 1746.99   44.66
   1   2  -5 1718.48   47.34
   1   2  -5 1693.39   46.31
   1   2  -5 1623.88   45.62
   1   2  -5 1665.01   44.08
   1   2  -5 1738.31   44.38
   1   2  -5 1492.32   41.42
   1   2  -5 1746.66   43.83
   1   2  -5 1814.36   47.82
  -1   2   5 1769.30   47.78
   1   2  -5 1791.95   48.86
  -1   2   5 1833.64   47.59
  -1   2   5 1693.71   45.24
   1   2  -5 1835.24   47.78
  -1   2   5 1723.15   47.41
  -1   2   5 1637.15   41.91
  -1   2   5 1725.24   47.59
   1   2  -4 1666.31   43.67
  -1   2   4 1599.87   42.55
  -1   2   4 1468.75   39.38
  -1   2   4 1644.77   43.73
   1   2  -4 1576.62   42.58
   1   2  -4 1646.30   43.40
   1   2  -4 1564.65   43.16
   1   2  -4 1513.61   41.80
  -1   2   4 1530.53   41.09
  -1   2   4 1503.13   43.25
   1   2  -4 1611.45   44.45
  -1   2   4 1545.41   43.23
  -1   2   4 1541.63   41.06
  -1   2   4 1564.20   43.55
   1   2  -4 1572.22   41.12
   1   2  -4 1508.28   40.08
  -1   2   3   46.66    2.90
  -1   2   3   43.18    3.47
   1   2  -3   54.30    4.11
   1   2  -3   55.80    4.27
  -1   2   3   47.35    3.12
  -1   2   3   54.17    4.17
  -1   2   3   44.28    3.92
   1   2  -3   45.75    4.20
   1   2  -3   52.87    3.82
   1   2  -3   49.62    3.87
  -1   2   3   48.33    3.07
   1   2  -3   49.56    3.38
   1   2  -3   48.09    3.81
   1   2  -2   52.22    2.43
  -1   2   2   54.69    2.52
   1   2  -2   64.04    3.88
   1   2  -2   57.86    3.77
   1   2  -2   58.79    4.02
   1   2  -2   53.70    3.88
   1   2  -2   57.99    4.12
  -1   2   2   58.22    4.21
  -1   2   2   54.98    4.17
   1   2  -2   52.81    3.83
  -1   2   2   55.29    2.88
   1   2  -2   58.31    4.49
   1   2  -1  644.17   19.32
  -1   2   1  686.44   17.31
   1   2  -1  629.39   19.20
   1   2  -1  635.41   20.48
   1   2  -1  677.36   20.09
   1   2  -1  625.83   19.22
   1   2  -1  636.92   19.56
   1   2   0 6162.55  149.65
   1   2   0 6219.43  149.63
   1   2   0 5911.40  149.43
   1   2   0 6312.35  150.81
   1   2   0 6340.00  150.29
  -1   2   0 6514.00  149.42
   1   2   0 5627.01  147.74
   1   2   0 6307.00  149.89
   1   2   0 5971.40  149.46
   1   2   0 6106.24  147.56
   1   2   0 6247.19  149.12
   1   2   1 5409.66  138.07
   1   2   1 5754.85  138.39
  -1   2  -1 5268.40  136.32
   1   2   1 5840.53  138.83
  -1   2  -1 5946.64  138.46
   1   2   1 5704.18  137.83
   1   2   1 5656.32  137.71
   1   2   1 5758.50  137.17
   1   2   1 5638.53  138.23
   1   2   1 5592.79  137.84
   1   2   1 5468.75  137.95
   1   2   1 5639.73  137.15
   1   2   2 1420.23   37.91
   1   2   2 1328.87   37.89
  -1   2  -2 1423.78   36.86
  -1   2  -2 1366.56   34.00
   1   2   2 1418.78   37.69
   1   2   2 1442.95   38.47
  -1   2  -2 1394.35   37.11
   1   2   2 1407.58   37.49
   1   2   2 1333.03   38.03
   1   2   2 1374.81   34.88
   1   2   2 1372.01   36.51
   1   2   2 1463.32   37.55
   1   2   2 1409.92   37.76
   1   2   3  808.25   24.13
   1   2   3  760.85   22.73
   1   2   3  772.61   24.18
  -1   2  -3  758.81   19.49
   1   2   3  820.13   24.02
   1   2   3  771.79   23.60
   1   2   3  791.23   23.56
  -1   2  -3  785.76   23.46
   1   2   3  817.40   23.87
  -1   2  -3  801.60   23.04
   1   2   3  809.40   23.28
   1   2   3  756.90   21.36
   1   2   3  734.15   22.84
   1   2   3  753.89   23.17
  -1   2  -4  742.05   23.20
   1   2   4  702.19   22.77
   1   2   4  705.58   22.66
  -1   2  -4  743.16   22.71
  -1   2  -4  707.83   18.86
   1   2   4  749.21   21.94
   1   2   4  716.90   23.27
  -1   2  -4  736.31   23.42
   1   2   4  781.18   23.68
   1   2   4  714.57   23.07
   1   2   4  733.21   23.52
   1   2   4  730.00   21.40
   1   2   4  749.86   23.49
   1   2   4  716.97   22.54
   1   2   4  716.57   23.65
   1   2   5  247.64   11.51
  -1   2  -5  235.38   10.90
  -1   2  -5  252.88   11.30
  -1   2  -5  236.43    8.02
   1   2   5  254.23   11.86
  -1   2  -5  252.90   11.89
   1   2   5  243.20   11.63
   1   2   5  243.77   11.57
   1   2   5  264.42   11.56
   1   2   5  266.63   10.62
   1   2   5  260.22   12.19
   1   2   5  243.07   11.14
   1   2   5  256.63   10.05
  -1   2  -5  256.69   11.34
   1   2   5  244.15   10.77
   1   2   5  260.75   11.92
  -1   2  -6 1423.85   42.42
   1   2   6 1360.75   38.37
  -1   2  -6 1349.43   36.67
   1   2   6 1430.01   42.79
   1   2   6 1429.90   42.27
  -1   2  -6 1461.98   43.09
   1   2   6 1439.72   42.62
   1   2   6 1492.09   41.98
  -1   2  -6 1386.40   41.17
   1   2   6 1409.57   42.86
  -1   2  -6 1476.65   41.68
   1   2   6 1320.63   40.01
  -1   2  -6 1462.04   41.51
   1   2   6 1462.66   41.45
   1   2   6 1385.25   41.94
   1   2   6 1420.51   42.34
   1   2   7  182.27   11.08
   1   2   7  183.43   10.56
   1   2   7  174.96   11.21
  -1   2  -7  178.24   11.37
   1   2   7  177.13   11.13
   1   2   7  192.48   10.95
  -1   2  -7  182.62   10.99
  -1   2  -7  187.17   10.32
   1   2   7  169.83    7.87
  -1   2  -7  164.32   11.00
   1   2   7  168.94    9.90
   1   2   7  160.86    9.53
   1   2   7  169.15   10.59
  -1   2  -7  169.11   10.22
  -1   2  -7  195.97   10.54
   1   2   7  183.18   11.38
   1   2   8  732.93   26.73
   1   2   8  712.51   28.66
   1   2   8  762.66   28.91
   1   2   8  687.13   28.28
  -1   2  -8  751.50   27.50
  -1   2  -8  766.13   26.80
  -1   2  -8  755.37   27.64
   1   2   8  728.25   29.24
  -1   2  -8  786.82   29.69
   1   2   8  692.81   28.99
   1   2   8  814.70   29.13
   1   2   8  727.94   27.35
  -1   2  -8  808.17   29.56
   1   2   8  754.89   29.33
   1   2   8  715.99   27.45
  -1   2  -8  746.38   28.31
  -1   2  -8  754.08   27.80
   1   2   8  781.98   28.49
  -1   2  -9  112.18    9.77
   1   2   9  127.08    9.63
  -1   2  -9  131.52   10.08
  -1   2  -9  126.90    8.92
   1   2   9  111.16    9.91
   1   2   9  132.76   10.90
  -1   2  -9  125.11    9.81
  -1   2  -9  143.51   10.37
   1   2   9  122.80   10.91
   1   2   9  136.74   10.33
   1   2   9  114.80    9.14
  -1   2  -9  123.85   10.87
   1   2   9  111.54    9.21
   1   2   9  117.06   10.28
  -1   2  -9  137.98   11.07
   1   2   9  130.46   10.26
   1   2   9  137.17   10.93
   1   2   9  132.80   10.06
   1   2   9  124.22   10.37
   1   2   9  143.83   10.27
  -1   2  -9  113.37    8.75
   1   2   9  124.87   10.77
   1   2   9  141.51    9.43
   1   2  10   42.73    5.64
  -1   2 -10   32.39    5.25
   1   2  10   31.63    5.81
   1   2  10   40.36    5.84
  -1   2 -10   35.04    5.58
   1   2  10   27.59    5.34
   1   2  10   38.75    5.41
  -1   2 -10   43.45    6.60
   1   2  10   34.35    4.65
   1   2  10   37.78    6.07
  -1   2 -10   29.26    4.41
   1   2  10   38.75    5.60
  -1   2 -10   42.62    5.64
  -1   2 -10   37.35    5.56
   1   2  10   37.21    5.56
   1   2  10   34.33    5.99
   1   2  10   27.34    5.44
  -1   2 -10   30.56    5.07
  -1   2 -10   37.94    5.10
  -1   2 -10   33.85    4.91
   1   2  10   33.07    5.74
  -1   2 -10   46.57    6.75
   1   2  10   44.77    6.53
  -1   2 -11   38.18    5.85
   1   2  11   37.63    6.13
   1   2  11   27.67    5.34
  -1   2 -11   39.01    6.43
   1   2  11   37.52    5.35
   1   2  11   44.46    6.35
   1   2  11   37.44    6.41
   1   2  11   28.62    5.15
  -1   2 -11   30.88    5.03
   1   2  11   33.94    6.20
   1   2  11   33.02    5.25
  -1   2 -11   37.29    6.49
   1   2  11   34.60    6.08
  -1   2 -11   42.34    6.31
  -1   2 -11   36.20    5.08
   1   2  11   30.57    5.38
   1   2  11   27.92    5.20
  -1   2 -11   35.21    5.64
  -1   2 -11   27.66    4.31
  -1   2 -11   32.88    4.93
  -1   2 -11   30.40    5.18
   1   2  11   33.72    4.68
   1   2  12  215.11   14.80
  -1   2 -12  170.58   12.04
   1   2  12  196.73   13.76
  -1   2 -12  183.73   13.41
  -1   2 -12  168.40   13.24
   1   2  12  222.68   14.51
   1   2  12  159.59   11.47
  -1   2 -12  195.48   13.76
   1   2  12  194.56   14.74
   1   2  12  168.32   12.95
  -1   2 -12  203.23   15.52
   1   2  12  183.33   13.74
  -1   2 -12  181.28   11.92
   1   2  12  192.19   13.58
   1   2  12  187.99   14.33
  -1   2 -12  181.23   14.40
  -1   2 -12  177.50   12.12
  -1   2 -12  168.66   12.18
  -1   2 -13   49.79    6.01
   1   2  13   56.10    7.08
  -1   2 -13   49.37    5.83
   1   2  13   52.09    5.69
   1   2  13   49.40    7.12
  -1   2 -13   58.21    7.08
  -1   2 -13   63.96    7.48
   1   2  13   62.18    7.75
   1   2  13   55.81    7.00
  -1   2 -13   56.92    6.81
   1   2  13   60.94    8.06
  -1   2 -13   64.03    7.88
  -1   2 -13   61.89    6.76
   1   2  14   37.52    5.46
   1   2  14   35.81    5.58
  -1   2 -14   39.47    5.28
   1   2  14   33.36    5.74
   1   2  14   31.98    5.47
  -1   2 -14   29.29    4.62
  -1   2 -14   30.51    5.22
  -1   2 -14   43.26    5.31
  -1   2 -14   36.55    4.43
   1   2  15    6.70    2.34
   1   2  15    8.62    2.69
  -1   2 -15    6.22    2.04
  -1   2 -15    5.36    1.87
  -1   2 -15    6.22    1.55
  -1   2 -16    6.27    1.31
  -1   2 -16    5.58    1.55
  -1   3  16   28.87    3.23
   1   3 -16   26.37    2.74
   1   3 -16   27.28    2.96
  -1   3  15    6.41    1.63
   1   3 -15   12.19    2.64
   1   3 -15   10.42    2.50
  -1   3  15    9.44    2.66
  -1   3  15   11.65    2.70
   1   3 -15   10.64    1.92
   1   3 -15   12.38    2.20
   1   3 -14   90.42    8.03
  -1   3  14   95.03    7.55
   1   3 -14   95.25    8.10
  -1   3  14   92.88    8.60
  -1   3  14   63.25    6.00
  -1   3  14   83.90    8.10
  -1   3  14   86.11    7.80
   1   3 -14   96.39    7.51
   1   3 -14   76.27    6.67
   1   3 -13   49.58    6.77
  -1   3  13   54.08    6.52
  -1   3  13   56.32    6.43
  -1   3  13   54.12    6.97
  -1   3  13   59.45    7.53
   1   3 -13   54.20    6.64
   1   3 -13   56.60    6.37
   1   3 -13   48.77    6.32
  -1   3  13   49.33    5.76
  -1   3  13   50.52    5.74
   1   3 -13   56.59    6.82
   1   3 -13   51.16    6.01
  -1   3  13   58.47    6.99
  -1   3  13   56.81    7.33
   1   3 -12   71.17    8.34
  -1   3  12   77.48    8.29
  -1   3  12   82.22    7.90
  -1   3  12   66.56    7.52
   1   3 -12   67.02    7.78
  -1   3  12   78.66    8.62
  -1   3  12   70.20    8.41
   1   3 -12   64.55    8.82
  -1   3  12   69.25    8.11
  -1   3  12   64.53    7.95
   1   3 -12   70.33    7.55
  -1   3  12   75.70    7.37
  -1   3  12   74.82    8.75
  -1   3  12   69.93    7.70
   1   3 -12   67.86    7.95
   1   3 -12   72.27    8.48
   1   3 -12   80.10    7.94
  -1   3  11  324.70   18.76
   1   3 -11  344.98   19.26
  -1   3  11  304.99   16.02
   1   3 -11  312.97   18.35
  -1   3  11  359.30   20.77
   1   3 -11  327.86   20.47
  -1   3  11  319.63   18.43
   1   3 -11  305.31   17.27
   1   3 -11  345.71   19.23
  -1   3  11  358.57   18.89
  -1   3  11  334.82   18.11
   1   3 -11  367.58   17.65
  -1   3  11  336.50   16.89
  -1   3  11  306.81   18.74
  -1   3  11  357.76   18.60
  -1   3  11  290.30   14.45
   1   3 -11  347.05   19.06
   1   3 -11  304.25   17.18
   1   3 -11  273.48   16.89
  -1   3  11  320.77   16.91
   1   3 -10  122.39    9.14
  -1   3  10  108.47    8.90
   1   3 -10  117.91   10.43
  -1   3  10  116.22   10.15
  -1   3  10  126.39   10.41
   1   3 -10  111.59   10.42
   1   3 -10  124.38   11.83
  -1   3  10  121.92   11.24
   1   3 -10  107.00    9.56
  -1   3  10  134.08   11.24
   1   3 -10  111.03    8.07
   1   3 -10  117.97    9.59
  -1   3  10  100.66    8.11
   1   3 -10  115.50    9.77
  -1   3  10  111.28    8.82
   1   3 -10  111.02   10.16
   1   3 -10  139.58   11.08
   1   3 -10  109.64    9.69
  -1   3  10  104.88    8.77
  -1   3  10  114.11   10.25
  -1   3  10  112.19    9.48
  -1   3   9   34.96    4.41
  -1   3   9   44.78    6.04
   1   3  -9   51.92    6.59
  -1   3   9   44.60    5.81
  -1   3   9   42.67    5.86
   1   3  -9   38.11    5.80
  -1   3   9   46.79    6.57
   1   3  -9   40.35    6.48
  -1   3   9   39.68    5.78
   1   3  -9   42.07    5.99
   1   3  -9   36.55    5.28
   1   3  -9   35.87    5.26
   1   3  -9   37.85    5.35
  -1   3   9   41.70    5.23
   1   3  -9   35.12    5.21
   1   3  -9   32.96    4.15
  -1   3   9   43.65    5.15
   1   3  -9   40.54    5.79
   1   3  -9   46.04    5.43
  -1   3   9   44.18    6.12
  -1   3   9   39.69    4.96
  -1   3   9   53.44    6.37
  -1   3   8    8.32    2.23
  -1   3   8    6.50    2.43
  -1   3   8    7.57    2.58
  -1   3   8    4.16    1.84
   1   3  -8    6.10    2.28
  -1   3   8    9.99    2.38
   1   3  -8    5.72    2.45
  -1   3   8    6.16    2.27
  -1   3   8    5.89    2.38
  -1   3   8    2.84    1.95
   1   3  -8    5.70    2.61
  -1   3   8    4.42    1.53
  -1   3   8    5.67    2.59
   1   3  -8    5.79    1.59
   1   3  -8    5.88    1.70
  -1   3   8   11.56    3.06
   1   3  -8    5.61    2.14
   1   3  -8    5.39    2.05
   1   3  -8    3.56    2.10
   1   3  -8    7.69    2.81
   1   3  -7   57.18    6.22
  -1   3   7   56.89    5.11
  -1   3   7   61.32    6.58
   1   3  -7   67.40    7.35
  -1   3   7   61.57    6.35
   1   3  -7   56.57    6.32
  -1   3   7   57.84    5.85
   1   3  -7   62.30    4.59
  -1   3   7   57.99    5.09
  -1   3   7   56.69    5.64
   1   3  -7   48.71    5.76
  -1   3   7   57.05    5.05
  -1   3   7   62.69    6.31
   1   3  -7   68.65    5.06
  -1   3   7   61.12    6.47
  -1   3   7   60.22    6.33
   1   3  -7   47.36    4.39
   1   3  -7   58.62    5.77
   1   3  -6   81.05    6.62
  -1   3   6   67.70    6.23
   1   3  -6   84.49    5.71
   1   3  -6   79.86    5.27
   1   3  -6   66.98    5.83
  -1   3   6   73.09    6.66
   1   3  -6   74.71    6.93
  -1   3   6   69.37    6.71
   1   3  -6   75.92    7.42
   1   3  -6   69.62    4.62
  -1   3   6   74.76    5.57
   1   3  -6   84.75    6.96
  -1   3   6   86.51    5.68
   1   3  -6   70.93    6.51
  -1   3   6   82.39    6.98
  -1   3   6   74.05    5.33
  -1   3   6   78.49    6.39
  -1   3   6   82.31    6.97
   1   3  -6   74.32    5.66
  -1   3   6   80.94    6.37
  -1   3   6   73.73    4.22
  -1   3   5  301.21   10.92
  -1   3   5  289.12   13.98
   1   3  -5  337.55   14.15
   1   3  -5  313.06   13.05
  -1   3   5  309.76   13.22
  -1   3   5  317.97   13.41
   1   3  -5  298.67   14.45
   1   3  -5  306.80   12.48
  -1   3   5  298.47   14.37
   1   3  -5  308.07   15.18
  -1   3   5  331.65   14.63
   1   3  -5  327.64   14.17
  -1   3   5  300.94   13.77
  -1   3   5  301.95   12.57
   1   3  -5  301.62   12.69
  -1   3   5  307.03   14.29
  -1   3   5  299.51   11.47
   1   3  -5  288.66   10.59
  -1   3   5  303.57   11.52
   1   3  -5  311.50   13.94
   1   3  -5  310.58   11.41
   1   3  -4  402.77   15.87
  -1   3   4  408.86   13.81
   1   3  -4  409.17   15.86
   1   3  -4  410.67   15.93
   1   3  -4  395.94   14.81
  -1   3   4  405.55   14.56
   1   3  -4  415.46   16.79
  -1   3   4  399.90   16.51
  -1   3   4  403.96   15.59
   1   3  -4  411.31   17.47
  -1   3   4  413.79   16.49
  -1   3   4  421.10   16.10
  -1   3   4  408.52   13.21
  -1   3   4  400.85   14.95
  -1   3   4  419.29   13.27
   1   3  -3   93.47    6.52
  -1   3   3   69.41    5.62
  -1   3   3   88.35    5.90
   1   3  -3   78.96    5.42
   1   3  -3   82.52    5.56
  -1   3   3   77.61    5.27
   1   3  -3   79.67    5.49
  -1   3   3   81.23    5.07
  -1   3   3   83.16    6.15
  -1   3   3   82.06    4.93
  -1   3   3   74.94    4.95
  -1   3   3   71.06    2.81
   1   3  -3   76.99    6.30
   1   3  -3   79.67    5.74
  -1   3   3   81.62    3.81
   1   3  -3   77.70    5.57
   1   3  -2  318.10   12.05
  -1   3   2  317.86   13.08
   1   3  -2  305.37   10.25
  -1   3   2  294.93   10.78
   1   3  -2  318.11   12.29
   1   3  -2  296.03   12.30
  -1   3   2  287.03    9.63
  -1   3   2  318.37   13.08
   1   3  -2  316.60   13.56
   1   3  -2  305.19   11.47
  -1   3   2  332.82   12.32
   1   3  -2  316.03   12.56
  -1   3   2  298.93    8.51
   1   3  -2  334.54   13.50
   1   3  -1  326.11   13.16
  -1   3   1  339.59   12.21
  -1   3   1  302.44   10.58
   1   3  -1  315.57   13.61
   1   3  -1  316.29   10.67
  -1   3   1  311.43   10.26
   1   3  -1  329.40   12.53
   1   3  -1  299.36   12.37
   1   3  -1  319.08   12.51
   1   3  -1  314.75   12.25
   1   3  -1  295.80   11.50
   1   3   0 1438.11   40.05
   1   3   0 1498.46   40.60
  -1   3   0 1422.22   38.48
  -1   3   0 1438.66   36.16
   1   3   0 1436.42   41.02
  -1   3   0 1522.30   40.52
   1   3   0 1411.39   40.26
  -1   3   0 1491.03   38.95
   1   3   0 1414.03   38.10
   1   3   0 1501.57   40.62
   1   3   0 1416.91   39.81
   1   3   1 1716.61   44.85
   1   3   1 1564.74   41.37
   1   3   1 1577.05   40.33
   1   3   1 1639.69   43.79
  -1   3  -1 1594.06   41.36
   1   3   1 1671.57   45.42
  -1   3  -1 1644.57   44.93
  -1   3  -1 1643.05   43.60
   1   3   1 1582.18   44.60
   1   3   1 1640.62   44.83
  -1   3  -1 1596.68   43.30
   1   3   1 1560.15   43.19
  -1   3  -1 1625.90   41.64
   1   3   1 1681.61   45.01
   1   3   1 1602.22   42.53
   1   3   1 1699.52   44.58
   1   3   2  153.40    8.22
   1   3   2  159.44    8.44
  -1   3  -2  158.68    8.01
  -1   3  -2  165.25    7.29
   1   3   2  175.21    8.54
  -1   3  -2  164.42    7.05
   1   3   2  172.84    8.65
  -1   3  -2  169.32    9.01
   1   3   2  162.36    7.63
   1   3   2  159.72    6.95
   1   3   2  161.20    7.98
   1   3   2  167.54    8.55
   1   3   2  172.37    8.94
   1   3   2  152.81    5.89
   1   3   2  167.85    7.66
   1   3   2  155.54    8.63
   1   3   2  166.56    6.03
   1   3   3    6.14    1.75
   1   3   3    4.16    1.49
   1   3   3    6.17    1.71
   1   3   3    4.99    1.22
  -1   3  -3    5.20    1.60
   1   3   3    6.07    1.77
  -1   3  -3    5.41    1.89
   1   3   3    3.39    1.33
   1   3   3    3.61    1.44
   1   3   3    2.73    1.51
   1   3   3    9.51    1.39
  -1   3  -3    4.67    1.21
   1   3   3    4.51    1.52
   1   3   3    2.71    0.93
   1   3   3    3.75    1.44
   1   3   4  175.79    9.14
   1   3   4  179.83    9.58
   1   3   4  174.11    9.46
  -1   3  -4  171.28    9.62
  -1   3  -4  175.95    6.82
   1   3   4  171.28    9.80
   1   3   4  179.28    9.93
  -1   3  -4  163.10    8.43
   1   3   4  168.87    9.57
  -1   3  -4  172.85    9.41
  -1   3  -4  184.50    9.57
   1   3   4  192.21    9.85
   1   3   4  176.26    9.16
   1   3   4  170.78    8.88
   1   3   4  164.89    7.44
   1   3   4  181.96    9.86
   1   3   4  152.75    7.04
   1   3   5    0.30    0.89
   1   3   5    6.01    1.48
   1   3   5    0.74    1.41
  -1   3  -5    1.11    1.11
   1   3   5    2.26    1.20
   1   3   5    0.36    0.82
  -1   3  -5   -0.34    1.18
   1   3   5    0.71    1.29
   1   3   5   -0.35    1.12
   1   3   5    1.38    1.04
  -1   3  -5    0.30    1.01
   1   3   5    0.67    1.20
   1   3   5    3.45    1.64
  -1   3  -5    0.67    0.85
   1   3   5   -1.05    1.12
   1   3   6  127.28    8.92
  -1   3  -6  128.42    8.71
  -1   3  -6  118.28    8.37
   1   3   6  120.47    8.02
  -1   3  -6  123.17    8.18
   1   3   6  118.28    9.01
  -1   3  -6  126.26    9.32
   1   3   6  127.88    8.71
   1   3   6  111.32    8.74
   1   3   6  130.49    9.00
   1   3   6  130.24    7.69
   1   3   6  119.19    9.16
   1   3   6  123.21    8.62
   1   3   6  110.94    7.14
  -1   3  -7  287.13   14.93
  -1   3  -7  253.20   13.75
  -1   3  -7  292.65   14.38
   1   3   7  264.37   14.52
  -1   3  -7  280.66   13.99
   1   3   7  264.04   15.22
   1   3   7  270.75   14.92
   1   3   7  262.28   14.92
  -1   3  -7  261.16   14.89
   1   3   7  264.51   14.89
   1   3   7  276.91   14.93
   1   3   7  269.93   14.24
   1   3   7  269.08   12.09
   1   3   7  272.75   14.55
   1   3   7  257.83   13.44
   1   3   7  226.85   11.98
   1   3   7  264.45   13.89
   1   3   7  283.55   14.70
   1   3   8   98.76    9.05
  -1   3  -8  122.86    9.35
   1   3   8  120.34   10.16
  -1   3  -8  111.29    9.09
   1   3   8  108.38    9.67
   1   3   8  106.20    8.63
  -1   3  -8  121.17   10.32
   1   3   8  122.49   10.12
   1   3   8  110.08    9.02
  -1   3  -8  127.39    9.46
   1   3   8   88.64    7.53
   1   3   8  102.12    9.29
   1   3   8  120.13    9.65
   1   3   8  107.12    8.64
  -1   3  -8  118.42    9.86
   1   3   8  120.67   10.16
   1   3   8  109.70    7.06
   1   3   8  100.88    8.96
   1   3   8  119.41    8.96
  -1   3  -8  116.26    8.98
  -1   3  -8   98.82    9.41
   1   3   9   77.20    8.42
   1   3   9   88.51    8.98
  -1   3  -9   84.68    8.65
   1   3   9   92.61    9.09
  -1   3  -9   95.78    8.64
   1   3   9   87.11    8.34
   1   3   9   92.15    9.46
   1   3   9   91.60    8.84
   1   3   9  102.53   10.00
  -1   3  -9   93.54    8.44
   1   3   9   86.91    8.22
  -1   3  -9   98.27    9.85
  -1   3  -9  104.03    9.06
   1   3   9   88.74    8.53
   1   3   9   90.28    9.19
  -1   3  -9   89.54    8.33
   1   3   9   95.09    9.18
  -1   3  -9  102.31    8.77
   1   3   9   84.46    8.07
  -1   3  -9   84.48    9.26
  -1   3  -9   92.94    7.57
   1   3   9   73.21    7.23
   1   3  10   60.25    6.85
   1   3  10   67.60    7.98
   1   3  10   58.94    6.64
   1   3  10   65.93    7.34
  -1   3 -10   56.72    6.22
  -1   3 -10   62.46    7.45
   1   3  10   59.39    7.86
   1   3  10   58.57    7.39
   1   3  10   52.59    7.58
   1   3  10   52.98    6.65
   1   3  10   64.93    7.06
  -1   3 -10   54.70    7.81
   1   3  10   69.42    8.43
  -1   3 -10   53.04    7.17
   1   3  10   70.10    8.22
   1   3  10   55.52    6.67
  -1   3 -10   64.20    7.44
  -1   3 -10   57.53    7.68
  -1   3 -10   63.03    6.49
   1   3  10   63.92    8.05
  -1   3 -11   36.25    5.69
  -1   3 -11   45.87    6.68
   1   3  11   53.84    7.32
   1   3  11   46.33    6.17
   1   3  11   43.54    5.94
  -1   3 -11   46.97    6.63
   1   3  11   50.53    7.34
  -1   3 -11   43.52    7.23
   1   3  11   43.38    6.18
  -1   3 -11   39.74    5.49
   1   3  11   41.82    6.95
  -1   3 -11   49.60    7.51
   1   3  11   50.47    7.43
   1   3  11   45.90    6.68
   1   3  11   33.13    6.15
  -1   3 -11   42.45    5.12
   1   3  11   43.48    5.64
   1   3  11   37.37    6.23
  -1   3 -11   37.44    5.19
  -1   3 -11   41.13    6.09
  -1   3 -11   27.14    5.58
  -1   3 -12   37.75    5.76
   1   3  12   53.99    7.44
  -1   3 -12   45.25    6.37
  -1   3 -12   43.14    5.97
   1   3  12   40.81    6.55
   1   3  12   37.22    5.31
  -1   3 -12   43.21    7.22
   1   3  12   64.65    8.52
   1   3  12   47.57    6.43
  -1   3 -12   44.60    7.09
   1   3  12   48.00    6.84
   1   3  12   63.53    7.64
  -1   3 -12   49.79    6.97
  -1   3 -12   38.50    4.76
   1   3  12   44.20    5.39
   1   3  12   43.43    6.54
  -1   3 -12   35.26    4.95
  -1   3 -12   42.86    6.02
  -1   3 -12   38.48    6.60
   1   3  13   42.92    5.92
  -1   3 -13   38.57    5.87
   1   3  13   33.80    4.45
   1   3  13   49.73    6.85
   1   3  13   42.44    6.26
  -1   3 -13   36.84    5.37
  -1   3 -13   30.96    4.78
  -1   3 -13   39.37    5.57
   1   3  13   38.30    6.09
  -1   3 -13   57.17    6.50
  -1   3 -13   38.21    4.81
   1   3  13   51.47    6.64
   1   3  14   53.37    6.40
  -1   3 -14   47.95    6.11
   1   3  14   57.40    6.74
   1   3  14   55.13    6.31
   1   3  14   65.07    7.45
  -1   3 -14   62.81    6.44
  -1   3 -14   55.10    5.00
   1   3  15   69.70    6.18
   1   3  15   58.87    5.84
  -1   3 -15   58.58    5.31
   1   3  16    0.37    0.71
  -1   3 -16    0.16    0.49
  -1   3 -16    1.26    0.82
  -1   4  15   78.03    5.84
   1   4 -15   76.58    5.56
   1   4 -15   71.87    5.42
   1   4 -14   82.79    6.95
  -1   4  14   80.81    6.59
  -1   4  14   75.55    6.89
  -1   4  14   59.82    6.41
   1   4 -14   87.41    7.17
  -1   4  13    2.75    1.99
   1   4 -13    0.48    1.66
  -1   4  13    0.79    1.27
   1   4 -13    1.00    1.61
  -1   4  13    0.52    1.68
   1   4 -13    2.19    1.34
  -1   4  13   -0.50    1.15
  -1   4  13   -0.56    1.57
  -1   4  13    3.00    1.55
   1   4 -13    0.64    1.16
   1   4 -12  176.22   12.32
  -1   4  12  181.55   12.34
  -1   4  12  196.71   13.54
  -1   4  12  200.01   14.11
  -1   4  12  199.23   13.68
   1   4 -12  221.43   14.76
   1   4 -12  182.91   11.32
  -1   4  12  230.57   14.16
  -1   4  12  211.04   14.63
   1   4 -12  227.38   14.11
   1   4 -12  196.09   11.63
  -1   4  11  111.31    9.82
  -1   4  11   96.24    9.96
   1   4 -11  110.01    8.93
  -1   4  11  109.70    9.93
   1   4 -11  115.67   10.62
   1   4 -11  108.29   10.36
   1   4 -11  102.99   11.09
  -1   4  11  117.01   10.75
   1   4 -11   94.49    9.81
  -1   4  11  117.46   10.18
  -1   4  11   95.56    8.33
  -1   4  11  112.95    9.83
   1   4 -11  109.41   10.02
   1   4 -11  108.97    8.82
   1   4 -11  111.26    9.94
  -1   4  11  100.68    8.02
   1   4 -11  112.20    9.74
  -1   4  10  105.59    8.64
  -1   4  10  102.94    9.63
  -1   4  10  107.76   10.01
   1   4 -10   99.12    9.80
  -1   4  10  116.93   10.14
   1   4 -10   94.22    9.77
  -1   4  10  105.70   10.81
   1   4 -10  108.25   11.40
   1   4 -10   92.26    9.25
   1   4 -10   93.42    8.82
  -1   4  10   93.56    9.84
   1   4 -10   99.24    8.61
  -1   4  10  102.05    9.41
   1   4 -10  109.26    9.30
  -1   4  10  107.25    9.07
   1   4 -10  100.75    9.31
   1   4 -10   85.64    7.97
   1   4 -10   95.25    9.35
  -1   4  10  111.22    9.79
   1   4 -10  105.22   10.07
  -1   4   9   68.58    7.58
   1   4  -9   58.52    6.55
  -1   4   9   66.51    7.52
   1   4  -9   67.45    7.86
  -1   4   9   75.26    8.27
  -1   4   9   78.34    7.64
   1   4  -9   84.58    8.75
   1   4  -9   82.78    8.24
   1   4  -9   81.48    8.89
  -1   4   9   59.99    7.87
   1   4  -9   66.87    8.87
  -1   4   9   83.63    8.72
  -1   4   9   79.78    8.00
   1   4  -9   65.85    7.22
  -1   4   9   73.48    8.05
   1   4  -9   78.27    7.35
  -1   4   9   68.20    7.08
  -1   4   9   72.42    6.28
  -1   4   9   86.50    9.01
   1   4  -9   67.82    7.62
   1   4  -9   73.71    8.24
   1   4  -9   81.80    7.97
  -1   4   8   11.36    3.33
   1   4  -8    6.22    2.37
  -1   4   8    7.73    2.34
   1   4  -8    8.02    2.85
   1   4  -8   10.66    2.82
  -1   4   8    6.37    1.82
   1   4  -8    8.61    2.93
   1   4  -8    8.66    2.14
  -1   4   8    5.85    2.09
  -1   4   8    5.60    2.48
  -1   4   8    4.43    2.20
   1   4  -8    7.06    2.71
  -1   4   8    7.77    2.96
   1   4  -8   14.59    4.08
   1   4  -8    7.85    2.48
  -1   4   8    9.52    3.03
  -1   4   8    6.56    2.64
   1   4  -8    9.35    2.95
  -1   4   8    4.83    2.00
  -1   4   8   12.66    3.58
   1   4  -8    9.47    2.56
   1   4  -8   10.57    3.05
  -1   4   8    7.20    2.02
  -1   4   7   35.54    4.88
   1   4  -7   31.51    5.02
   1   4  -7   35.02    5.17
   1   4  -7   35.03    4.19
   1   4  -7   27.15    4.63
  -1   4   7   37.29    4.73
   1   4  -7   34.22    5.44
  -1   4   7   30.01    4.73
  -1   4   7   26.80    4.61
  -1   4   7   27.56    4.93
   1   4  -7   26.50    5.18
  -1   4   7   29.65    4.95
  -1   4   7   26.37    3.92
   1   4  -7   38.30    4.87
   1   4  -7   30.37    4.31
  -1   4   7   34.81    4.92
  -1   4   7   27.42    4.94
   1   4  -7   31.84    4.73
   1   4  -7   35.71    5.22
  -1   4   7   34.25    5.00
  -1   4   7   32.80    3.62
   1   4  -6  342.60   16.77
   1   4  -6  335.71   14.76
   1   4  -6  310.87   15.91
   1   4  -6  331.80   16.22
   1   4  -6  323.97   15.97
   1   4  -6  336.83   17.50
  -1   4   6  317.59   17.08
   1   4  -6  323.15   18.10
  -1   4   6  321.43   15.54
  -1   4   6  364.14   17.55
   1   4  -6  321.01   14.97
  -1   4   6  316.88   16.00
   1   4  -6  317.63   14.28
  -1   4   6  323.10   12.63
  -1   4   6  306.02   14.45
  -1   4   6  368.57   17.32
   1   4  -6  297.64   12.54
  -1   4   6  313.97   12.16
  -1   4   6  309.24   15.83
  -1   4   5 2140.18   58.37
   1   4  -5 2160.72   60.69
   1   4  -5 2190.36   61.89
   1   4  -5 2213.76   64.72
  -1   4   5 2191.03   63.91
   1   4  -5 2252.06   65.74
  -1   4   5 2183.70   63.58
   1   4  -5 2277.04   62.61
   1   4  -5 2225.18   60.73
  -1   4   5 2215.78   62.48
  -1   4   5 2172.50   61.86
  -1   4   5 2153.71   60.40
  -1   4   5 2125.95   60.75
  -1   4   5 2089.18   62.11
  -1   4   5 2151.34   63.38
   1   4  -5 2164.29   60.60
   1   4  -5 2269.07   62.94
  -1   4   4  455.88   16.72
   1   4  -4  428.13   15.15
  -1   4   4  420.38   17.13
   1   4  -4  490.08   20.43
  -1   4   4  507.45   20.35
   1   4  -4  457.16   20.50
  -1   4   4  486.82   19.89
   1   4  -4  494.24   18.77
  -1   4   4  445.34   16.91
  -1   4   4  504.00   19.13
  -1   4   4  459.92   18.74
   1   4  -4  461.74   18.91
  -1   4   4  463.77   18.02
   1   4  -4  440.81   18.01
   1   4  -3  307.77   13.61
  -1   4   3  327.16   12.25
  -1   4   3  284.37   14.23
  -1   4   3  280.54    9.32
   1   4  -3  300.88   13.52
  -1   4   3  275.25   12.26
   1   4  -3  280.09   12.92
  -1   4   3  295.09   12.96
  -1   4   3  318.64   15.15
   1   4  -3  315.62   15.61
   1   4  -3  308.97   14.02
  -1   4   3  317.92   13.79
   1   4  -3  299.93   11.32
   1   4  -3  313.94   15.05
  -1   4   2   17.23    1.99
   1   4  -2   17.14    2.28
  -1   4   2   15.68    2.05
  -1   4   2   18.12    3.30
   1   4  -2   15.95    2.93
   1   4  -2   13.79    2.72
  -1   4   2   17.71    2.80
  -1   4   2   20.63    3.49
   1   4  -2   18.29    3.41
  -1   4   2   16.10    2.75
   1   4  -2   14.67    2.36
   1   4  -2   16.45    3.24
   1   4  -2   15.19    2.86
   1   4  -2   18.51    3.00
  -1   4   1  316.49   13.32
  -1   4   1  295.21   14.10
   1   4  -1  308.24   13.54
   1   4  -1  275.83   13.12
  -1   4   1  310.98   13.11
   1   4  -1  300.65   14.22
  -1   4   1  281.93   11.14
   1   4  -1  303.47   14.61
   1   4  -1  314.38   11.84
   1   4  -1  297.45   13.42
  -1   4   1  296.93   12.14
   1   4  -1  287.03   12.31
   1   4  -1  295.50   13.05
   1   4  -1  317.33   12.33
  -1   4   1  292.68    9.89
   1   4  -1  302.12   12.10
   1   4   0 5052.89  122.39
   1   4   0 4651.84  124.99
  -1   4   0 4701.78  122.70
  -1   4   0 4839.61  124.91
  -1   4   0 4948.61  125.20
   1   4   0 4983.30  125.64
   1   4   0 4793.00  122.88
  -1   4   0 4933.44  122.33
   1   4   0 4672.07  122.10
   1   4   0 5038.48  125.46
  -1   4   0 5163.32  124.49
   1   4   0 5029.02  124.48
   1   4   0 5226.09  127.13
   1   4   1 1615.63   45.37
   1   4   1 1577.31   45.70
   1   4   1 1633.58   45.48
   1   4   1 1517.43   43.81
   1   4   1 1494.10   41.70
  -1   4  -1 1575.35   45.15
   1   4   1 1528.21   42.91
   1   4   1 1529.91   46.24
  -1   4  -1 1692.12   46.37
  -1   4  -1 1499.61   39.88
   1   4   1 1652.32   46.20
   1   4   1 1546.68   41.67
  -1   4  -1 1524.54   43.88
   1   4   1 1603.80   43.05
   1   4   1 1584.50   44.74
  -1   4  -1 1595.38   41.41
   1   4   1 1567.17   45.96
  -1   4  -1 1459.41   43.26
   1   4   2  576.12   20.80
   1   4   2  569.51   21.51
   1   4   2  584.14   20.97
  -1   4  -2  600.61   19.44
   1   4   2  558.64   17.17
  -1   4  -2  556.40   20.95
  -1   4  -2  550.96   17.54
   1   4   2  559.94   21.93
  -1   4  -2  584.83   22.02
   1   4   2  549.41   20.97
  -1   4  -2  569.71   20.08
  -1   4  -2  579.41   20.44
   1   4   2  566.80   19.59
   1   4   2  561.17   19.25
   1   4   2  594.23   21.21
   1   4   2  633.45   21.91
   1   4   2  525.51   17.23
   1   4   2  540.14   16.54
   1   4   3  190.35   10.26
  -1   4  -3  184.51    8.66
   1   4   3  172.04    7.00
  -1   4  -3  169.35   10.22
   1   4   3  178.48   10.24
   1   4   3  164.73    7.11
  -1   4  -3  184.63    8.62
   1   4   3  172.80    9.48
   1   4   3  178.32   10.79
  -1   4  -3  162.15   10.60
   1   4   3  180.36   10.50
  -1   4  -3  196.59   10.49
   1   4   3  172.60    9.83
   1   4   3  184.92   10.69
  -1   4  -3  178.96    9.98
   1   4   3  187.61   10.48
   1   4   3  185.83    9.66
   1   4   3  161.76   10.19
   1   4   3  178.74    7.45
  -1   4  -4  564.32   18.01
  -1   4  -4  530.43   19.27
  -1   4  -4  586.20   23.56
  -1   4  -4  562.06   21.20
   1   4   4  563.18   21.79
   1   4   4  548.88   21.84
   1   4   4  563.13   21.52
  -1   4  -4  574.21   21.97
   1   4   4  556.71   22.22
   1   4   4  536.46   17.53
   1   4   4  560.58   22.23
   1   4   4  507.67   17.66
   1   4   4  523.81   21.40
   1   4   4  550.37   20.77
   1   4   4  578.01   21.38
  -1   4  -5  196.75   11.46
  -1   4  -5  195.82   11.68
  -1   4  -5  177.70   10.08
  -1   4  -5  188.69   12.44
   1   4   5  185.75   11.68
   1   4   5  209.82   11.92
   1   4   5  205.68   12.11
   1   4   5  189.35   11.21
   1   4   5  182.32   11.62
   1   4   5  167.90    8.54
   1   4   5  194.69    9.50
   1   4   5  175.02   11.30
   1   4   5  185.49   10.67
  -1   4  -6   11.82    3.22
   1   4   6   19.44    3.68
   1   4   6   23.57    4.06
   1   4   6   16.86    3.57
   1   4   6   16.82    3.45
   1   4   6   21.28    3.89
   1   4   6   15.36    3.70
   1   4   6   17.09    2.73
   1   4   6   15.76    2.89
  -1   4  -6   20.21    3.80
   1   4   6   18.45    3.57
  -1   4  -6   22.52    4.45
   1   4   6   20.31    4.08
   1   4   6   29.74    4.53
   1   4   6   18.64    3.85
   1   4   6   21.13    3.42
   1   4   6   18.97    3.56
   1   4   6   19.77    3.96
  -1   4  -7   66.98    6.84
   1   4   7   59.58    5.89
   1   4   7   76.38    7.56
   1   4   7   69.12    7.81
  -1   4  -7   70.77    8.22
   1   4   7   65.49    7.55
   1   4   7   67.01    7.57
   1   4   7   64.80    7.14
   1   4   7   56.88    6.69
   1   4   7   66.98    5.80
   1   4   7   72.38    7.48
   1   4   7   70.50    6.40
  -1   4  -7   75.73    7.52
   1   4   7   75.81    7.95
   1   4   7   70.76    7.30
  -1   4  -7   73.59    7.32
   1   4   7   73.60    7.57
  -1   4  -7   69.21    7.46
   1   4   7   67.20    6.19
   1   4   7   89.01    8.59
   1   4   7   75.26    6.77
   1   4   7   62.05    7.10
   1   4   8  170.86   10.93
   1   4   8  148.16   11.71
  -1   4  -8  151.46   10.93
   1   4   8  168.00   11.94
   1   4   8  164.40   12.66
  -1   4  -8  177.70   14.02
   1   4   8  154.63   12.37
   1   4   8  163.02   12.45
   1   4   8  165.92   10.99
   1   4   8  166.58   12.54
   1   4   8  166.56   12.06
   1   4   8  154.08   11.62
  -1   4  -8  163.53   12.13
  -1   4  -8  144.52   12.12
   1   4   8  163.97   11.79
  -1   4  -8  165.92   11.92
   1   4   8  165.84   12.07
  -1   4  -8  165.98   11.92
   1   4   8  152.31    9.75
   1   4   8  158.19   12.25
   1   4   8  156.61    9.84
   1   4   9   99.80    8.61
   1   4   9  113.69   10.32
   1   4   9  110.44    9.72
   1   4   9   95.36    9.71
  -1   4  -9  107.74    8.98
  -1   4  -9  111.61    9.76
   1   4   9  122.16   11.33
  -1   4  -9   97.05   10.92
   1   4   9  115.29   11.10
   1   4   9   97.40    8.69
   1   4   9  109.95   10.45
   1   4   9   87.92    8.87
  -1   4  -9  107.31    9.55
  -1   4  -9  117.84   10.14
   1   4   9   98.41    9.93
  -1   4  -9  101.52    9.28
   1   4   9  109.90   10.16
   1   4   9  119.16   10.51
  -1   4  -9   94.08    9.96
   1   4   9  100.23    7.30
  -1   4  -9  102.79    9.84
   1   4  10   71.43    7.63
  -1   4 -10   86.33    8.80
   1   4  10   95.13    9.69
  -1   4 -10  105.93    9.55
   1   4  10   90.83    9.72
  -1   4 -10   84.30   10.11
   1   4  10   83.32    9.50
   1   4  10   73.61    7.66
   1   4  10   91.14    9.85
   1   4  10   83.37    9.01
  -1   4 -10   78.45    8.03
   1   4  10   83.35    9.28
   1   4  10   85.98    9.29
  -1   4 -10   88.92    9.26
   1   4  10   85.38    8.58
  -1   4 -10   74.64    9.01
  -1   4 -10   79.95    8.08
   1   4  10   80.93    8.34
  -1   4 -11   45.62    6.10
   1   4  11   52.84    6.53
   1   4  11   65.18    7.93
  -1   4 -11   62.97    7.78
   1   4  11   51.48    7.24
   1   4  11   60.95    7.01
  -1   4 -11   62.65    7.05
   1   4  11   54.18    7.61
  -1   4 -11   66.60    8.92
  -1   4 -11   71.67    7.93
   1   4  11   56.08    7.98
   1   4  11   48.49    7.32
   1   4  11   48.06    6.80
  -1   4 -11   62.97    7.30
  -1   4 -11   59.06    7.92
  -1   4 -11   63.74    7.31
   1   4  11   56.47    6.75
   1   4  11   53.52    7.45
   1   4  12  235.54   13.32
  -1   4 -12  204.78   13.62
  -1   4 -12  205.99   12.66
   1   4  12  215.35   14.92
   1   4  12  226.25   13.47
   1   4  12  245.42   15.47
  -1   4 -12  206.64   14.21
   1   4  12  205.50   12.69
   1   4  12  220.71   15.25
  -1   4 -12  207.86   13.20
   1   4  12  229.33   14.98
   1   4  12  239.12   15.12
  -1   4 -12  217.80   13.66
   1   4  13    0.53    1.48
  -1   4 -13   -0.53    1.49
   1   4  13    2.15    1.94
   1   4  13    2.26    1.22
   1   4  13    3.91    2.38
   1   4  13    1.13    1.44
  -1   4 -13    2.71    1.79
   1   4  14   19.00    3.57
   1   4  14   18.98    3.65
  -1   4 -14   22.43    3.48
   1   4  15    0.83    1.05
  -1   4 -15    0.48    0.95
   1   4  15    1.91    1.20
  -1   4 -15    0.95    1.01
   1   5 -15    5.32    1.09
  -1   5  14    5.92    1.69
   1   5 -14    4.35    1.46
  -1   5  14    6.94    1.98
   1   5 -14    3.59    1.55
  -1   5  13   17.68    2.76
  -1   5  13   29.29    4.37
  -1   5  13   27.24    4.12
   1   5 -13   23.37    3.65
  -1   5  13   27.38    4.07
   1   5 -13   22.68    3.69
   1   5 -12   52.35    5.91
  -1   5  12   39.45    5.45
  -1   5  12   41.95    5.50
  -1   5  12   47.99    5.61
  -1   5  12   44.28    5.86
  -1   5  12   51.47    6.40
   1   5 -12   54.90    6.29
  -1   5  12   52.21    6.04
   1   5 -12   44.57    6.03
  -1   5  12   42.73    5.99
  -1   5  11   34.16    5.47
  -1   5  11   22.58    3.67
  -1   5  11   29.26    4.92
  -1   5  11   31.17    5.08
  -1   5  11   30.20    4.79
   1   5 -11   29.26    4.88
   1   5 -11   26.53    4.34
   1   5 -11   23.54    4.43
  -1   5  11   26.97    5.11
   1   5 -11   23.98    4.80
   1   5 -10   95.08    9.62
  -1   5  10  107.84    9.73
   1   5 -10   82.35    8.46
  -1   5  10   84.32    8.57
   1   5 -10   75.88    8.93
  -1   5  10   90.98    8.21
  -1   5  10  104.71   10.64
   1   5 -10  106.94   11.40
  -1   5  10   88.85    9.45
  -1   5  10   96.95    8.92
  -1   5  10   93.69    9.11
  -1   5  10  120.02   10.34
   1   5 -10   92.54    8.75
  -1   5  10   96.75    9.77
   1   5 -10  101.80    9.40
   1   5 -10   86.67    8.17
   1   5 -10  105.01    9.94
   1   5 -10   97.58    9.28
  -1   5  10   82.24    7.96
  -1   5   9   47.71    6.21
   1   5  -9   52.37    7.06
  -1   5   9   51.90    7.03
  -1   5   9   43.98    5.50
   1   5  -9   58.31    7.71
  -1   5   9   57.85    7.14
  -1   5   9   55.18    7.79
   1   5  -9   51.61    7.98
  -1   5   9   49.91    7.25
  -1   5   9   54.80    7.34
  -1   5   9   58.78    7.29
  -1   5   9   52.64    6.35
  -1   5   9   49.99    6.30
   1   5  -9   50.94    6.93
  -1   5   9   49.69    6.62
   1   5  -9   43.35    6.36
   1   5  -9   43.78    6.33
   1   5  -9   47.50    5.98
  -1   5   8  254.96   16.28
  -1   5   8  243.02   14.53
   1   5  -8  205.99   14.26
  -1   5   8  251.13   14.01
  -1   5   8  229.29   14.95
  -1   5   8  218.00   16.04
   1   5  -8  266.84   18.21
  -1   5   8  255.13   16.39
  -1   5   8  221.51   12.99
   1   5  -8  238.11   15.37
  -1   5   8  246.35   14.28
  -1   5   8  220.64   13.98
  -1   5   8  251.04   15.29
   1   5  -8  248.18   15.53
   1   5  -8  263.18   15.64
   1   5  -8  208.71   13.29
   1   5  -7   13.47    3.20
   1   5  -7   15.60    3.14
  -1   5   7   12.74    3.23
  -1   5   7   13.70    3.06
   1   5  -7   17.29    4.19
   1   5  -7   15.61    3.86
  -1   5   7   15.33    3.82
  -1   5   7   19.08    4.48
   1   5  -7   11.47    3.92
   1   5  -7   11.62    3.17
  -1   5   7   13.43    3.48
   1   5  -7   18.87    3.74
  -1   5   7   13.88    3.68
  -1   5   7   15.33    3.84
   1   5  -7   15.49    3.86
  -1   5   7   16.40    3.59
   1   5  -7   20.49    4.24
  -1   5   7   15.55    3.46
  -1   5   7    6.45    2.77
   1   5  -7   14.52    3.54
  -1   5   6  111.25    8.58
  -1   5   6  114.86    9.06
   1   5  -6  139.74    9.75
   1   5  -6  114.46    9.79
   1   5  -6  115.57    9.16
  -1   5   6  119.07    9.66
   1   5  -6  131.74   11.35
  -1   5   6  121.16   10.16
  -1   5   6  128.24   10.92
   1   5  -6  129.03   11.59
  -1   5   6  128.26   10.70
   1   5  -6  123.56    9.89
  -1   5   6  133.82   10.32
  -1   5   6  113.59   10.07
   1   5  -6  129.34    9.84
   1   5  -6  138.43   10.75
   1   5  -6  136.57    9.48
   1   5  -6  120.47    8.66
  -1   5   6  123.91    7.88
  -1   5   6  121.35    9.82
   1   5  -5  421.09   19.45
   1   5  -5  412.24   17.85
  -1   5   5  409.17   18.49
   1   5  -5  426.06   18.31
   1   5  -5  412.40   19.78
  -1   5   5  412.55   20.12
   1   5  -5  438.25   21.67
  -1   5   5  405.51   20.60
   1   5  -5  409.35   21.55
  -1   5   5  430.05   20.66
  -1   5   5  426.55   17.50
  -1   5   5  408.49   19.20
   1   5  -5  396.15   18.62
   1   5  -5  414.52   18.59
  -1   5   5  406.16   19.75
   1   5  -5  427.42   19.99
  -1   5   5  413.33   19.33
  -1   5   5  390.73   16.63
  -1   5   4  103.85    7.57
   1   5  -4  110.99    8.71
  -1   5   4  108.67    8.14
   1   5  -4  112.55    9.72
  -1   5   4  114.03    9.69
   1   5  -4  115.84   10.21
  -1   5   4  129.49   10.10
  -1   5   4  113.73    8.68
   1   5  -4  107.99    8.83
   1   5  -4   94.84    6.07
   1   5  -4  119.75   10.22
  -1   5   4   95.43    8.60
  -1   5   4  101.66    7.01
   1   5  -4  112.28    9.01
  -1   5   4  109.92    8.77
   1   5  -4  109.71    8.27
   1   5  -3   35.05    4.75
  -1   5   3   32.24    4.10
  -1   5   3   29.12    3.23
   1   5  -3   34.13    3.54
  -1   5   3   35.49    4.56
   1   5  -3   26.12    4.62
  -1   5   3   26.29    4.60
   1   5  -3   27.55    4.87
  -1   5   3   30.08    4.75
  -1   5   3   32.47    4.65
   1   5  -3   30.26    4.29
   1   5  -3   35.66    4.86
   1   5  -3   31.57    5.13
   1   5  -3   34.59    4.49
   1   5  -3   29.74    4.42
   1   5  -3   29.80    3.98
   1   5  -2   47.29    5.42
   1   5  -2   38.22    5.33
   1   5  -2   44.14    4.58
   1   5  -2   47.16    5.91
  -1   5   2   52.53    6.22
   1   5  -2   40.82    4.08
   1   5  -2   48.03    5.64
  -1   5   2   48.38    5.45
   1   5  -2   45.08    5.93
   1   5  -2   33.60    3.94
   1   5  -2   40.94    4.57
  -1   5   2   37.78    5.26
  -1   5   2   44.75    3.74
  -1   5   2   37.12    4.40
  -1   5   2   40.48    4.86
   1   5  -2   47.60    5.29
   1   5  -2   44.15    5.17
  -1   5   2   43.11    5.17
  -1   5   1   34.96    3.62
   1   5  -1   37.33    3.90
  -1   5   1   38.33    4.63
  -1   5   1   25.89    4.01
   1   5  -1   34.00    5.01
   1   5  -1   39.14    4.95
  -1   5   1   42.25    5.64
   1   5  -1   39.94    4.11
  -1   5   1   37.33    5.05
   1   5  -1   31.63    3.80
   1   5  -1   29.18    4.44
  -1   5   1   41.64    4.37
  -1   5   1   39.47    4.74
   1   5  -1   37.83    4.28
   1   5  -1   37.19    4.72
  -1   5   1   37.18    4.86
   1   5  -1   39.32    4.70
  -1   5   0   42.91    5.36
   1   5   0   34.68    4.72
   1   5   0   32.48    4.27
  -1   5   0   31.28    4.32
   1   5   0   29.64    3.97
  -1   5   0   27.96    3.54
  -1   5   0   33.15    4.30
  -1   5   0   30.47    4.44
   1   5   0   35.05    4.92
   1   5   0   35.36    4.03
   1   5   0   33.91    3.71
   1   5   0   42.23    5.25
   1   5   0   36.41    5.15
  -1   5   0   44.71    4.12
   1   5   0   38.83    5.20
   1   5   0   34.19    3.67
   1   5   0   48.11    5.31
   1   5   0   28.66    3.23
  -1   5  -1   57.76    6.26
   1   5   1   55.86    4.11
   1   5   1   56.12    6.14
   1   5   1   62.08    4.74
  -1   5  -1   66.16    6.37
   1   5   1   59.51    6.18
   1   5   1   56.62    6.27
   1   5   1   65.30    5.78
   1   5   1   58.71    6.19
  -1   5  -1   56.86    4.27
   1   5   1   57.28    6.24
   1   5   1   56.39    4.98
  -1   5  -1   67.05    5.72
   1   5   1   69.80    6.99
   1   5   2  285.04   14.48
  -1   5  -2  293.77   13.30
   1   5   2  275.07   12.54
   1   5   2  281.46   14.75
  -1   5  -2  291.41   14.77
   1   5   2  289.16   15.22
   1   5   2  239.09   12.41
   1   5   2  298.24   15.42
  -1   5  -2  282.31   14.05
   1   5   2  289.80   14.09
   1   5   2  269.85   10.93
   1   5   2  276.12   14.73
   1   5   2  290.97   14.40
  -1   5  -2  294.98   15.58
   1   5   2  272.64   15.39
   1   5   2  263.62   12.70
   1   5   2  282.62   15.33
   1   5   3  316.76   14.50
  -1   5  -3  332.64   16.48
  -1   5  -3  336.21   14.10
  -1   5  -3  316.85   16.33
  -1   5  -3  299.89   12.36
   1   5   3  316.20   16.28
   1   5   3  335.30   17.04
  -1   5  -3  332.53   17.27
   1   5   3  293.52   16.09
  -1   5  -3  333.37   16.02
   1   5   3  332.78   16.63
   1   5   3  297.90   16.23
   1   5   3  303.46   15.62
   1   5   3  329.95   15.76
   1   5   3  333.24   16.16
   1   5   3  311.72   16.26
   1   5   3  319.38   17.03
   1   5   3  344.38   15.06
   1   5   3  334.98   16.12
  -1   5  -3  336.71   15.70
  -1   5  -4  379.78   18.46
   1   5   4  363.04   18.00
   1   5   4  359.44   18.05
  -1   5  -4  393.27   18.49
  -1   5  -4  356.23   14.86
   1   5   4  364.74   18.17
   1   5   4  367.98   18.82
  -1   5  -4  394.05   19.82
   1   5   4  370.05   18.48
  -1   5  -4  363.83   17.83
  -1   5  -4  388.41   17.85
   1   5   4  367.61   17.11
   1   5   4  385.36   18.21
   1   5   4  347.18   18.23
   1   5   4  363.44   16.61
   1   5   4  395.34   18.01
   1   5   4  346.07   16.46
   1   5   4  376.12   18.97
  -1   5  -4  361.61   14.69
   1   5   4  367.41   17.45
  -1   5  -5  445.90   20.77
  -1   5  -5  434.74   20.73
  -1   5  -5  443.51   18.22
   1   5   5  455.53   21.00
  -1   5  -5  467.85   22.70
   1   5   5  420.12   21.52
   1   5   5  420.38   21.07
  -1   5  -5  478.89   21.54
   1   5   5  453.52   20.80
   1   5   5  437.17   20.85
   1   5   5  454.91   19.88
   1   5   5  444.10   19.38
   1   5   5  437.68   20.72
   1   5   5  430.52   20.37
   1   5   5  459.07   20.09
   1   5   5  452.47   21.62
   1   5   5  459.64   19.88
   1   5   5  491.22   22.04
  -1   5  -5  463.07   20.74
  -1   5  -5  410.76   17.59
   1   5   5  418.44   19.39
   1   5   6  132.66   10.38
   1   5   6  131.39   10.11
   1   5   6  131.01   10.38
  -1   5  -6  141.22   10.77
  -1   5  -6  135.11    9.55
   1   5   6  117.18   10.18
  -1   5  -6  137.44   11.88
   1   5   6  134.55    9.50
   1   5   6  137.85   11.54
   1   5   6  142.12   11.40
  -1   5  -6  126.40   10.74
   1   5   6  118.75   10.08
   1   5   6  120.86   10.26
  -1   5  -6  135.40   10.49
   1   5   6  127.35   10.04
   1   5   6  121.72   10.28
  -1   5  -6  135.04   10.75
   1   5   6  154.99   11.91
   1   5   6  130.83   11.00
  -1   5  -6  124.49    8.92
   1   5   6  124.97    9.54
   1   5   7  511.70   23.83
  -1   5  -7  538.98   23.72
   1   5   7  496.25   21.82
  -1   5  -7  565.65   23.04
   1   5   7  562.63   24.70
  -1   5  -7  569.69   27.09
   1   5   7  552.23   25.63
   1   5   7  560.85   25.64
  -1   5  -7  522.94   25.12
  -1   5  -7  546.35   24.34
   1   5   7  545.60   24.98
   1   5   7  548.43   24.50
  -1   5  -7  539.00   24.60
   1   5   7  499.57   21.04
  -1   5  -7  502.35   24.17
   1   5   7  511.66   24.67
   1   5   7  546.32   24.40
   1   5   7  490.96   23.00
   1   5   7  494.50   24.35
  -1   5  -7  501.01   21.66
   1   5   7  483.87   21.68
  -1   5  -8  342.85   18.65
   1   5   8  367.50   19.63
  -1   5  -8  338.32   18.22
  -1   5  -8  376.74   18.48
   1   5   8  363.50   19.42
   1   5   8  327.04   19.64
   1   5   8  327.37   19.85
  -1   5  -8  365.43   20.58
   1   5   8  334.26   19.48
   1   5   8  352.27   19.18
   1   5   8  344.83   19.92
  -1   5  -8  334.32   18.71
  -1   5  -8  344.52   19.23
   1   5   8  371.30   19.52
   1   5   8  351.23   19.66
  -1   5  -8  329.90   17.09
  -1   5  -8  342.98   21.24
   1   5   8  364.68   17.24
  -1   5  -9  178.61   13.31
   1   5   9  193.16   11.16
  -1   5  -9  148.21   12.30
   1   5   9  182.96   13.48
  -1   5  -9  175.84   12.16
  -1   5  -9  176.26   12.39
   1   5   9  170.92   12.86
  -1   5  -9  186.93   13.16
   1   5   9  175.46   13.70
  -1   5  -9  180.60   14.94
   1   5   9  164.09   13.61
  -1   5  -9  171.46   13.85
   1   5   9  165.85   13.44
   1   5   9  185.54   13.88
   1   5   9  160.87   12.53
   1   5   9  165.14   12.58
  -1   5  -9  180.15   12.03
  -1   5  -9  179.29   12.03
  -1   5  -9  163.43   12.00
  -1   5  -9  150.77   13.16
  -1   5 -10  154.93   12.13
   1   5  10  166.78   12.84
   1   5  10  168.25   12.60
  -1   5 -10  168.50   12.10
  -1   5 -10  158.29   11.87
  -1   5 -10  173.25   12.97
   1   5  10  172.78   13.38
  -1   5 -10  185.94   14.87
   1   5  10  149.73   13.03
  -1   5 -10  178.25   14.01
   1   5  10  152.72   11.97
   1   5  10  168.66   13.65
   1   5  10  171.06   12.47
   1   5  10  175.04   13.19
  -1   5 -10  155.61   11.04
  -1   5 -10  144.36   11.15
  -1   5 -10  145.63   12.82
   1   5  11  165.32   11.50
  -1   5 -11  154.93   12.12
   1   5  11  202.95   14.03
  -1   5 -11  182.27   12.72
   1   5  11  172.11   12.94
  -1   5 -11  164.99   10.74
   1   5  11  184.36   12.89
   1   5  11  159.53   12.32
   1   5  11  188.72   13.21
  -1   5 -11  158.91   11.07
   1   5  12  156.57   10.13
  -1   5 -12  175.62   11.21
   1   5  12  182.29   12.21
  -1   5 -12  146.44   11.17
   1   5  12  174.09   12.32
   1   5  12  178.69   11.14
   1   5  12  163.64   11.45
  -1   5 -12  168.08   10.72
   1   5  13   31.89    4.57
   1   5  13   20.30    2.73
   1   5  13   22.07    3.90
   1   5  13   23.91    4.02
  -1   5 -13   28.92    3.87
  -1   5 -13   29.43    3.90
   1   5  14   35.70    4.15
   1   5  14   29.86    3.83
  -1   5 -14   32.94    3.38
   1   6 -13  109.60    6.85
  -1   6  13  113.52    7.04
   1   6 -13   94.66    5.40
   1   6 -12  160.42    9.34
  -1   6  12  129.57    7.58
  -1   6  12  146.83    9.64
  -1   6  12  169.48   10.15
   1   6 -12  159.12   10.25
   1   6 -12  141.32    8.23
   1   6 -11  158.39    9.83
  -1   6  11  200.38   12.22
  -1   6  11  158.16   10.24
  -1   6  11  180.80   11.24
  -1   6  11  168.09   11.18
   1   6 -11  180.11   11.34
   1   6 -11  167.80   11.80
  -1   6  11  165.61   12.00
   1   6 -10  295.83   14.72
  -1   6  10  295.36   16.55
  -1   6  10  305.05   13.61
   1   6 -10  300.48   16.28
   1   6 -10  282.50   15.42
  -1   6  10  274.27   14.75
  -1   6  10  279.13   15.52
   1   6 -10  332.02   18.35
   1   6 -10  299.56   16.89
  -1   6  10  282.46   14.91
  -1   6  10  315.04   17.74
  -1   6  10  277.75   14.48
  -1   6  10  293.83   16.35
  -1   6   9   93.66    8.57
   1   6  -9   93.53    9.05
   1   6  -9   78.74    7.29
  -1   6   9   88.68    8.87
  -1   6   9   82.79    7.38
   1   6  -9   95.31   10.02
  -1   6   9   90.82    8.00
   1   6  -9   79.48    7.35
  -1   6   9  107.28    9.43
  -1   6   9   93.17    9.14
  -1   6   9   89.89    9.28
   1   6  -9   75.14    7.67
   1   6  -9   82.69    8.69
   1   6  -9   88.92    8.83
  -1   6   9   95.09    8.42
   1   6  -8  108.07    9.08
   1   6  -8  105.41    9.99
   1   6  -8  105.43    8.53
   1   6  -8  109.98    8.84
  -1   6   8  115.55    9.40
  -1   6   8  104.65    8.65
   1   6  -8  114.09   11.18
  -1   6   8  115.54   10.38
  -1   6   8  115.21    9.85
  -1   6   8  117.80   11.41
   1   6  -8  114.93   11.75
   1   6  -8  123.57   10.65
  -1   6   8  123.88   11.35
  -1   6   8  111.55    8.89
  -1   6   8  121.46   10.95
  -1   6   8  116.32   10.21
  -1   6   8  114.92    9.75
   1   6  -8  130.56   11.14
  -1   6   8  111.95    9.64
   1   6  -8  115.79   11.25
   1   6  -8  109.41    9.47
   1   6  -8  127.84   10.60
   1   6  -7  122.21   10.62
   1   6  -7  119.01    9.35
  -1   6   7  105.99    8.45
   1   6  -7  111.27   10.30
   1   6  -7  117.97    9.82
   1   6  -7  110.33    9.78
  -1   6   7  108.21    9.40
  -1   6   7  122.27   10.34
   1   6  -7  100.28   10.68
  -1   6   7  113.29   10.29
  -1   6   7  110.96   11.07
   1   6  -7  114.41   11.72
  -1   6   7  113.96   10.96
  -1   6   7  101.96    8.88
  -1   6   7  130.24   10.81
  -1   6   7  105.66    9.55
   1   6  -7  120.17   11.40
  -1   6   7  112.36   10.57
   1   6  -7  101.81    8.90
  -1   6   7  107.91    9.51
   1   6  -7  109.02    8.79
   1   6  -6  607.34   28.10
   1   6  -6  590.87   24.37
  -1   6   6  533.03   24.52
  -1   6   6  572.35   24.21
  -1   6   6  545.99   24.68
  -1   6   6  574.18   24.58
   1   6  -6  574.03   27.53
  -1   6   6  559.14   25.53
  -1   6   6  559.55   26.99
   1   6  -6  577.23   28.42
  -1   6   6  560.43   25.12
  -1   6   6  532.45   22.85
  -1   6   6  543.33   26.39
   1   6  -6  569.01   24.43
  -1   6   6  547.40   21.73
   1   6  -6  512.75   22.12
   1   6  -6  584.16   22.98
   1   6  -6  615.95   26.54
   1   6  -6  539.08   25.22
  -1   6   6  587.96   26.38
   1   6  -6  527.68   22.93
   1   6  -6  552.25   24.23
  -1   6   6  587.11   24.76
   1   6  -5   46.79    6.05
   1   6  -5   40.48    5.02
   1   6  -5   36.40    5.11
  -1   6   5   37.66    5.29
   1   6  -5   42.93    6.58
  -1   6   5   35.81    5.29
   1   6  -5   39.77    6.45
  -1   6   5   33.17    5.16
  -1   6   5   40.30    6.46
   1   6  -5   32.12    5.92
  -1   6   5   39.94    6.24
   1   6  -5   46.11    6.01
  -1   6   5   43.14    5.94
   1   6  -5   38.10    5.99
  -1   6   5   36.26    5.57
   1   6  -5   37.16    4.95
  -1   6   5   27.86    5.19
   1   6  -5   35.49    5.08
   1   6  -5   43.58    6.29
  -1   6   5   37.14    4.73
  -1   6   4   35.62    4.77
   1   6  -4   41.38    5.84
   1   6  -4   36.64    5.49
   1   6  -4   36.33    5.12
  -1   6   4   39.40    5.54
   1   6  -4   30.25    4.68
  -1   6   4   43.33    5.52
   1   6  -4   41.12    6.37
  -1   6   4   39.08    6.12
   1   6  -4   43.16    6.78
  -1   6   4   33.09    5.75
   1   6  -4   33.35    4.47
  -1   6   4   50.54    6.37
  -1   6   4   34.15    5.50
  -1   6   4   38.94    5.33
   1   6  -4   34.50    5.84
   1   6  -4   36.42    4.92
   1   6  -4   37.37    5.52
  -1   6   3    8.74    2.74
   1   6  -3   15.55    3.92
  -1   6   3    9.40    2.48
   1   6  -3   17.09    3.89
  -1   6   3   11.65    2.88
  -1   6   3    9.74    2.97
   1   6  -3   17.68    3.74
  -1   6   3   14.61    3.41
   1   6  -3   13.47    3.69
  -1   6   3   11.36    3.50
   1   6  -3    8.35    2.37
   1   6  -3   11.80    2.85
  -1   6   3    9.97    3.19
  -1   6   3   10.36    3.02
  -1   6   3   11.84    3.17
  -1   6   3   11.46    3.25
   1   6  -3   13.23    3.40
   1   6  -2  121.98   10.47
   1   6  -2  106.52    9.33
   1   6  -2   98.95    8.80
   1   6  -2   99.07    7.28
   1   6  -2  118.51    9.37
  -1   6   2  107.96    9.13
   1   6  -2  125.56   10.81
  -1   6   2  116.51   10.59
   1   6  -2  101.14    7.21
  -1   6   2  106.49    9.84
   1   6  -2  111.37    8.30
   1   6  -2  112.10    9.51
  -1   6   2  111.07    9.53
  -1   6   2   99.46    7.93
   1   6  -2   97.08    8.98
  -1   6   2   97.50    8.69
  -1   6   2   94.39    8.72
  -1   6   2  107.59    9.50
   1   6  -2  108.45    9.02
   1   6  -2  101.98    7.36
  -1   6   1   47.43    6.34
   1   6  -1   55.96    6.63
  -1   6   1   49.49    5.98
  -1   6   1   48.13    6.11
   1   6  -1   57.21    7.16
  -1   6   1   50.50    6.87
   1   6  -1   46.12    6.41
   1   6  -1   43.32    4.84
  -1   6   1   51.06    6.37
   1   6  -1   51.66    6.71
  -1   6   1   50.87    5.24
   1   6  -1   47.21    5.27
   1   6  -1   41.89    5.59
   1   6  -1   49.22    6.18
   1   6  -1   50.91    6.00
   1   6  -1   47.72    6.33
  -1   6   1   43.15    4.52
   1   6  -1   51.38    5.27
   1   6  -1   60.29    6.73
   1   6  -1   49.36    6.34
  -1   6   1   40.68    5.49
   1   6   0  107.67    9.44
  -1   6   0  122.03   10.21
   1   6   0  103.16    9.11
   1   6   0  118.94   10.51
  -1   6   0  116.92    9.85
   1   6   0  108.28    9.77
  -1   6   0  103.28    9.95
   1   6   0  106.26    8.12
   1   6   0   99.77    7.16
   1   6   0  100.32    8.05
   1   6   0  111.11    9.56
   1   6   0  114.36    8.90
  -1   6   0  116.73    9.86
  -1   6   0  103.31    7.04
   1   6   0   96.93    8.07
  -1   6   0  117.32    9.49
   1   6   0   97.38    9.21
   1   6   0  113.68    7.51
  -1   6   0  107.02    8.85
   1   6   0  123.29    9.75
   1   6   0  113.82    9.85
  -1   6   0  102.14    7.61
   1   6   1  418.34   19.86
  -1   6  -1  411.01   20.24
   1   6   1  389.54   17.33
  -1   6  -1  395.65   19.39
  -1   6  -1  384.85   17.87
   1   6   1  366.26   19.94
  -1   6  -1  381.74   18.11
   1   6   1  378.16   19.94
   1   6   1  372.72   17.58
   1   6   1  386.71   17.75
  -1   6  -1  390.61   19.42
  -1   6  -1  424.25   20.52
   1   6   1  388.05   15.36
   1   6   1  397.61   19.72
  -1   6  -1  391.91   17.45
   1   6   1  386.99   20.05
   1   6   1  377.45   16.30
   1   6   1  399.87   18.33
   1   6   1  432.04   20.01
   1   6   1  372.17   18.75
   1   6   1  406.37   20.83
   1   6   2   80.39    8.18
  -1   6  -2   78.43    7.67
  -1   6  -2   77.76    8.18
  -1   6  -2   81.95    8.24
   1   6   2   76.19    8.39
  -1   6  -2   74.10    7.07
   1   6   2   78.69    7.75
  -1   6  -2   72.29    6.77
   1   6   2   70.35    8.05
  -1   6  -2   73.92    8.09
   1   6   2   81.28    8.41
   1   6   2   72.95    7.07
  -1   6  -2   73.27    7.81
   1   6   2   82.92    8.27
   1   6   2   81.88    8.44
   1   6   2   73.78    6.55
   1   6   2   73.28    7.68
  -1   6  -3   49.91    6.33
  -1   6  -3   53.29    6.65
  -1   6  -3   58.41    6.96
   1   6   3   49.53    6.66
   1   6   3   45.91    5.99
   1   6   3   44.88    6.17
   1   6   3   51.06    6.86
  -1   6  -3   44.84    6.53
   1   6   3   53.61    6.93
   1   6   3   50.60    6.12
   1   6   3   56.09    7.01
   1   6   3   52.93    6.57
   1   6   3   55.66    6.68
  -1   6  -3   49.39    5.31
   1   6   3   48.16    6.70
   1   6   3   54.97    5.77
   1   6   3   47.92    6.26
   1   6   4   60.58    7.01
   1   6   4   57.77    7.21
  -1   6  -4   52.60    6.85
   1   6   4   45.01    6.62
   1   6   4   55.59    7.09
   1   6   4   51.53    7.03
  -1   6  -4   65.12    8.09
   1   6   4   56.51    5.88
   1   6   4   55.59    7.24
  -1   6  -4   65.62    7.37
   1   6   4   58.19    6.93
   1   6   4   62.25    7.20
  -1   6  -4   68.17    7.68
   1   6   4   51.57    6.22
  -1   6  -4   57.74    6.77
   1   6   4   55.10    6.77
   1   6   4   56.90    7.23
   1   6   4   57.83    6.37
  -1   6  -4   55.17    5.34
   1   6   4   59.43    6.97
  -1   6  -5   78.07    8.46
   1   6   5   82.85    7.64
  -1   6  -5   78.41    8.41
   1   6   5   86.01    8.89
  -1   6  -5   85.59    8.44
  -1   6  -5   88.65    9.69
   1   6   5   67.10    8.32
   1   6   5   82.70    8.93
  -1   6  -5   87.62    8.86
   1   6   5   90.70    8.80
   1   6   5   77.39    7.59
   1   6   5   88.13    8.14
   1   6   5   90.07    9.33
   1   6   5   77.55    8.19
   1   6   5   80.91    8.78
   1   6   5   81.60    8.28
   1   6   5   86.17    9.22
   1   6   5   78.74    8.49
   1   6   6   36.83    6.04
   1   6   6   36.62    5.04
  -1   6  -6   41.94    6.07
   1   6   6   31.57    4.99
  -1   6  -6   35.91    5.75
   1   6   6   36.84    5.95
  -1   6  -6   30.06    6.15
   1   6   6   42.46    6.71
   1   6   6   34.89    5.96
   1   6   6   32.91    5.52
  -1   6  -6   33.96    5.64
   1   6   6   39.36    6.23
  -1   6  -6   41.23    6.24
   1   6   6   38.04    5.99
   1   6   6   33.33    5.29
   1   6   6   44.30    6.68
   1   6   6   33.70    5.22
   1   6   6   34.60    5.10
   1   6   7  539.70   25.00
  -1   6  -7  534.74   24.86
  -1   6  -7  524.84   24.11
   1   6   7  524.25   24.19
  -1   6  -7  556.39   24.75
   1   6   7  538.98   24.98
  -1   6  -7  482.82   26.06
   1   6   7  542.84   25.98
   1   6   7  523.54   25.76
  -1   6  -7  524.80   25.26
   1   6   7  545.76   25.10
   1   6   7  519.51   25.40
   1   6   7  459.00   20.38
  -1   6  -7  518.25   24.51
   1   6   7  450.88   22.03
   1   6   7  548.34   23.42
   1   6   7  492.41   24.62
  -1   6  -7  507.18   20.83
   1   6   7  515.26   23.04
   1   6   7  500.18   23.53
   1   6   7  520.98   22.63
   1   6   8  216.75   13.95
  -1   6  -8  232.22   14.53
   1   6   8  227.26   14.94
  -1   6  -8  257.21   15.65
   1   6   8  239.44   15.22
  -1   6  -8  207.73   14.65
  -1   6  -8  239.84   17.19
   1   6   8  240.63   16.16
   1   6   8  206.43   15.48
  -1   6  -8  229.00   15.83
   1   6   8  223.23   14.91
  -1   6  -8  237.97   15.54
   1   6   8  227.54   15.24
   1   6   8  236.00   15.29
   1   6   8  214.00   14.27
  -1   6  -8  214.86   12.55
   1   6   8  240.60   16.06
   1   6   8  242.45   13.84
  -1   6  -8  231.54   16.17
  -1   6  -8  229.37   13.49
  -1   6  -9   17.20    4.05
   1   6   9   14.94    3.88
   1   6   9   13.72    3.46
   1   6   9   25.71    4.81
  -1   6  -9   26.68    4.71
   1   6   9   28.77    5.36
  -1   6  -9   20.34    4.41
   1   6   9   17.66    4.01
   1   6   9   16.97    4.17
   1   6   9   21.04    3.58
  -1   6  -9   15.91    3.30
   1   6   9   13.14    3.48
  -1   6  -9   22.59    3.76
  -1   6  -9   21.30    3.98
  -1   6 -10    4.37    1.98
   1   6  10    4.45    2.29
   1   6  10    4.95    2.35
   1   6  10    6.11    2.79
  -1   6 -10    6.19    2.49
   1   6  10    3.12    1.88
  -1   6 -10    1.69    1.94
   1   6  10    4.14    2.53
   1   6  10    8.71    2.74
  -1   6 -10    3.87    1.77
   1   6  11  257.38   14.28
   1   6  11  274.09   14.88
   1   6  11  261.24   13.66
   1   6  11  262.35   15.13
  -1   6 -11  240.30   14.17
   1   6  11  227.99   14.21
  -1   6 -11  294.63   14.75
   1   6  11  234.44   13.37
  -1   6 -11  273.77   12.90
   1   6  12  212.11   12.01
   1   6  12  189.66    9.77
   1   6  12  228.96   12.65
  -1   6 -12  221.45   11.48
  -1   6 -12  205.11    9.95
  -1   6 -13  146.21    7.51
   1   6  13  147.64    8.31
   1   6  13  145.14    8.13
  -1   6 -13  136.51    8.07
  -1   7  12   31.48    3.35
   1   7 -12   32.68    3.13
   1   7 -12   24.38    2.98
   1   7 -11  123.19    8.42
  -1   7  11  130.92    8.27
  -1   7  11   92.14    5.64
   1   7 -11   99.79    5.61
   1   7 -11  136.01    8.11
   1   7 -10    7.19    1.91
  -1   7  10   11.22    2.88
  -1   7  10    6.07    2.01
   1   7 -10    9.08    2.67
   1   7 -10   11.36    2.91
  -1   7   9  119.30    9.52
  -1   7   9  105.15    9.35
  -1   7   9  114.00    7.92
  -1   7   9  108.92    8.69
   1   7  -9  112.44    9.82
  -1   7   9  123.63    9.54
  -1   7   9  114.28    8.37
   1   7  -9  122.58    9.49
  -1   7   9  116.17    8.86
   1   7  -9  101.44    7.33
   1   7  -8   12.06    3.55
  -1   7   8   13.44    3.15
  -1   7   8   10.10    2.66
  -1   7   8   11.43    3.26
   1   7  -8   12.66    3.25
   1   7  -8    9.32    2.88
  -1   7   8    8.53    2.59
  -1   7   8   10.31    2.95
  -1   7   8    9.47    2.95
   1   7  -8   11.14    2.51
  -1   7   7   40.19    5.77
  -1   7   7   35.76    5.62
   1   7  -7   39.40    6.31
  -1   7   7   40.69    5.81
  -1   7   7   44.07    5.79
  -1   7   7   38.55    5.20
   1   7  -7   32.76    5.33
   1   7  -7   42.06    6.03
   1   7  -7   38.51    4.60
  -1   7   7   45.14    6.42
  -1   7   7   34.12    5.35
   1   7  -7   41.34    6.04
   1   7  -6    5.33    2.36
  -1   7   6   10.36    3.58
  -1   7   6    7.82    2.75
   1   7  -6    5.80    2.01
  -1   7   6    6.23    2.85
   1   7  -6    9.84    2.99
  -1   7   6    4.24    1.92
   1   7  -6   12.69    4.02
   1   7  -6    6.67    2.93
   1   7  -6    5.39    2.47
  -1   7   6    5.27    2.50
   1   7  -6    5.08    2.33
  -1   7   6    4.74    1.97
  -1   7   6    5.15    2.44
   1   7  -6    8.30    3.09
   1   7  -5   25.82    4.75
   1   7  -5   24.13    4.19
  -1   7   5   20.09    4.40
  -1   7   5   23.22    3.87
  -1   7   5   29.28    5.15
   1   7  -5   24.93    5.19
  -1   7   5   21.02    4.95
  -1   7   5   12.65    3.71
   1   7  -5   19.71    3.97
  -1   7   5   20.44    4.23
  -1   7   5   13.71    3.41
   1   7  -5   14.91    4.00
  -1   7   5   21.35    4.06
   1   7  -5   31.19    5.28
   1   7  -5   26.08    4.75
  -1   7   5   28.40    5.05
   1   7  -5   26.89    4.98
   1   7  -5   19.96    4.70
  -1   7   4  478.92   20.80
   1   7  -4  507.44   23.13
   1   7  -4  447.44   23.45
   1   7  -4  432.07   20.47
  -1   7   4  473.67   23.03
   1   7  -4  452.13   21.01
   1   7  -4  471.18   24.60
  -1   7   4  452.18   24.10
  -1   7   4  468.29   23.78
   1   7  -4  457.72   22.29
  -1   7   4  467.71   21.17
   1   7  -4  439.30   22.04
   1   7  -4  468.33   22.80
  -1   7   4  410.24   21.57
  -1   7   4  475.54   21.29
  -1   7   4  427.06   20.50
  -1   7   3  133.87   10.31
   1   7  -3  130.24   10.94
  -1   7   3  140.47   10.58
  -1   7   3  132.24   11.29
   1   7  -3  141.89   11.53
  -1   7   3  127.94   10.43
   1   7  -3  130.19   11.98
  -1   7   3  112.19   10.44
  -1   7   3  131.96   12.07
   1   7  -3  133.24   11.82
  -1   7   3  144.47   12.07
   1   7  -3  117.80    9.36
  -1   7   3  110.41    9.16
  -1   7   3  126.59    9.30
   1   7  -3  130.55   10.47
   1   7  -3  150.25   11.56
   1   7  -3  128.54   11.15
  -1   7   3  136.39   11.15
  -1   7   3  130.89   10.47
   1   7  -3  155.23   12.71
   1   7  -3  129.02   10.43
  -1   7   3  120.89   10.48
  -1   7   2    6.50    2.61
   1   7  -2    5.68    2.60
  -1   7   2    6.12    2.54
  -1   7   2    7.56    2.88
   1   7  -2    5.67    2.39
  -1   7   2    8.23    2.85
   1   7  -2    5.21    2.55
   1   7  -2   10.20    3.38
  -1   7   2    6.04    2.73
   1   7  -2    2.82    2.28
  -1   7   2    6.09    2.68
  -1   7   2    5.78    2.56
  -1   7   2    4.39    2.38
  -1   7   2    7.72    2.40
   1   7  -2    4.76    2.09
  -1   7   2    4.33    2.06
  -1   7   2    4.61    2.71
   1   7  -2    9.26    3.38
   1   7  -2    8.63    2.94
   1   7  -2    6.50    2.21
   1   7  -2    6.20    2.83
   1   7  -1  108.72   10.15
   1   7  -1  113.56    9.63
  -1   7   1  113.83    9.92
  -1   7   1  104.09    9.48
   1   7  -1   89.21    9.45
  -1   7   1  108.62   10.40
  -1   7   1  103.87    9.63
   1   7  -1  110.07   10.82
  -1   7   1  120.69   11.43
  -1   7   1  117.87   10.74
   1   7  -1  111.05    9.99
  -1   7   1   90.69    9.50
  -1   7   1  116.94   10.18
   1   7  -1   97.91    7.65
   1   7  -1   94.04    8.41
   1   7  -1   91.22    9.39
  -1   7   1  116.17    9.80
   1   7  -1   98.04    9.72
   1   7  -1  120.91   10.18
   1   7  -1  117.75   11.19
  -1   7   0  173.69   10.51
  -1   7   0  165.46   12.24
   1   7   0  161.47   10.74
   1   7   0  161.90   12.70
  -1   7   0  154.20   12.19
   1   7   0  175.09   13.88
  -1   7   0  162.42   13.57
   1   7   0  158.99   11.33
  -1   7   0  155.40   12.71
   1   7   0  188.94   13.06
   1   7   0  168.40   12.66
   1   7   0  174.31   13.28
   1   7   0  159.97   12.56
   1   7   0  188.33   14.16
   1   7   0  164.00   10.84
   1   7   0  155.04   12.33
   1   7   1  305.80   17.47
  -1   7  -1  287.94   16.75
  -1   7  -1  276.68   16.81
   1   7   1  278.87   14.07
   1   7   1  283.34   18.00
  -1   7  -1  266.06   16.87
   1   7   1  268.96   14.86
  -1   7  -1  315.53   19.40
   1   7   1  282.54   17.18
   1   7   1  286.17   16.58
  -1   7  -1  288.02   17.48
   1   7   1  289.73   18.01
   1   7   1  253.19   14.70
   1   7   1  280.64   17.51
   1   7   1  290.05   17.13
  -1   7  -1  270.57   14.94
  -1   7  -1  289.70   15.72
  -1   7  -1  291.09   15.06
  -1   7  -2   10.30    3.29
   1   7   2    6.82    2.74
   1   7   2    3.20    1.93
  -1   7  -2    7.34    2.75
  -1   7  -2    4.43    2.17
   1   7   2    8.16    2.78
   1   7   2    5.02    2.46
  -1   7  -2    5.48    2.71
   1   7   2    5.56    2.24
  -1   7  -2    9.17    3.04
  -1   7  -2    8.84    3.11
  -1   7  -2    5.48    2.05
   1   7   2    5.04    2.49
   1   7   2    6.83    3.02
  -1   7  -2    5.24    2.24
   1   7   2    7.77    3.42
   1   7   2    6.70    2.87
   1   7   2    6.62    2.83
   1   7   2    5.75    2.37
  -1   7  -2    4.50    2.14
  -1   7  -3   59.26    7.42
  -1   7  -3   66.51    7.72
  -1   7  -3   63.28    7.87
  -1   7  -3   75.13    8.63
   1   7   3   69.73    8.00
   1   7   3   68.72    7.56
   1   7   3   57.84    7.74
   1   7   3   66.24    7.21
   1   7   3   48.07    6.93
   1   7   3   66.44    8.27
  -1   7  -3   61.90    7.16
   1   7   3   77.89    8.85
  -1   7  -3   53.99    6.05
   1   7   3   60.28    7.23
  -1   7  -3   62.61    6.31
   1   7   3   62.07    7.59
  -1   7  -3   69.98    7.42
   1   7   3   63.44    7.61
  -1   7  -4   78.32    8.21
  -1   7  -4   79.34    8.49
  -1   7  -4   78.97    8.96
   1   7   4   76.66    8.23
   1   7   4   82.77    9.23
   1   7   4   67.78    7.83
   1   7   4   79.42    8.73
  -1   7  -4   86.93    7.93
   1   7   4   83.72    8.37
   1   7   4   86.19    9.21
  -1   7  -4   72.47    8.25
   1   7   4   90.87    9.64
   1   7   4   72.52    7.53
   1   7   4   73.36    7.95
  -1   7  -4   81.71    8.82
  -1   7  -4   74.55    7.88
   1   7   5  341.34   19.16
   1   7   5  338.52   17.49
   1   7   5  308.11   17.04
  -1   7  -5  322.98   18.91
   1   7   5  339.14   18.73
  -1   7  -5  310.23   16.71
  -1   7  -5  323.65   19.90
   1   7   5  299.23   18.84
   1   7   5  302.41   17.31
  -1   7  -5  290.18   17.30
  -1   7  -5  334.02   18.54
   1   7   5  299.95   17.65
   1   7   5  319.24   17.99
   1   7   5  359.19   19.89
  -1   7  -5  333.52   18.79
   1   7   5  315.82   18.81
   1   7   5  298.91   16.18
  -1   7  -5  353.33   18.96
   1   7   5  330.27   17.92
   1   7   6  683.83   29.46
  -1   7  -6  727.50   29.57
   1   7   6  644.51   27.08
  -1   7  -6  702.15   29.16
   1   7   6  655.17   27.33
   1   7   6  725.50   29.74
  -1   7  -6  694.92   29.91
  -1   7  -6  703.30   31.32
   1   7   6  712.02   30.52
   1   7   6  650.45   28.20
   1   7   6  650.55   28.96
  -1   7  -6  680.82   29.13
   1   7   6  722.46   29.53
   1   7   6  686.91   29.85
   1   7   6  662.83   26.65
  -1   7  -6  698.98   29.01
   1   7   6  660.01   25.51
   1   7   6  668.17   27.86
  -1   7  -6  657.06   28.14
  -1   7  -7  254.69   15.76
  -1   7  -7  270.13   16.44
  -1   7  -7  287.36   15.63
   1   7   7  276.31   16.14
   1   7   7  256.14   16.40
   1   7   7  284.35   16.58
   1   7   7  274.59   16.24
  -1   7  -7  240.38   15.40
   1   7   7  237.04   12.34
   1   7   7  259.68   14.97
   1   7   7  249.41   15.78
   1   7   7  254.85   16.34
  -1   7  -7  266.71   15.77
   1   7   8  228.11   12.69
  -1   7  -8  213.76   13.02
   1   7   8  181.10   12.44
   1   7   8  212.22   13.52
   1   7   8  197.86   13.72
   1   7   8  203.34   13.44
  -1   7  -8  167.17   12.46
  -1   7  -8  223.60   13.28
  -1   7  -8  186.97   12.84
   1   7   8  185.97   13.00
  -1   7  -8  195.33   11.63
   1   7   8  201.15   13.87
  -1   7  -9  117.24    9.08
   1   7   9  102.41    8.57
   1   7   9  117.95    9.18
   1   7   9  106.06    9.31
   1   7   9  101.03    8.67
  -1   7  -9   89.28    8.21
   1   7   9  113.43    9.59
  -1   7  -9  104.74    9.05
   1   7   9  101.75    8.83
   1   7  10   24.90    3.94
  -1   7 -10   31.05    4.29
   1   7  10   26.74    4.35
   1   7  10   28.02    4.03
   1   7  10   25.93    4.25
  -1   7 -10   21.96    4.07
   1   7  11  201.22   10.56
   1   7  11  207.95    9.83
   1   7  11  217.56   11.43
  -1   7 -11  218.36   10.69
  -1   7 -11  229.13   11.30
   1   7  12  105.69    6.14
  -1   7 -12  117.86    6.50
  -1   7 -12  120.21    6.35
   1   7  12  111.72    6.61
  -1   8  10    4.76    1.60
   1   8 -10    7.49    1.72
   1   8 -10    6.87    1.84
   1   8  -9  112.40    7.41
  -1   8   9  113.50    7.62
  -1   8   9   84.11    4.91
  -1   8   9  103.43    6.31
   1   8  -9  109.32    7.85
   1   8  -9  108.37    7.52
  -1   8   8   14.57    3.11
  -1   8   8    7.68    2.04
  -1   8   8    8.55    2.22
   1   8  -8   17.34    3.21
   1   8  -8   11.19    2.90
  -1   8   7   29.55    4.51
  -1   8   7   22.60    3.77
  -1   8   7   33.70    4.38
  -1   8   7   27.32    4.24
   1   8  -7   28.83    4.39
  -1   8   7   23.11    4.06
   1   8  -7   28.28    4.84
  -1   8   6  185.41   11.40
  -1   8   6  176.34   11.89
  -1   8   6  205.57   11.89
   1   8  -6  181.49   11.76
  -1   8   6  197.07   12.18
   1   8  -6  180.28   12.72
   1   8  -6  193.88   11.97
   1   8  -5   48.72    6.02
  -1   8   5   46.32    5.77
   1   8  -5   37.43    5.33
  -1   8   5   46.51    5.92
  -1   8   5   37.57    5.54
  -1   8   5   35.87    4.82
  -1   8   5   47.78    6.08
  -1   8   5   45.60    4.84
   1   8  -5   47.76    6.47
   1   8  -4  129.54   10.27
   1   8  -4  123.48    9.37
   1   8  -4  142.81   11.82
   1   8  -4  130.88   10.48
  -1   8   4  122.30   10.12
  -1   8   4  126.06   10.13
  -1   8   4  119.30    8.79
  -1   8   4  124.08   10.24
   1   8  -4  131.01   11.00
  -1   8   4  118.77    8.86
   1   8  -4  123.29    9.59
  -1   8   4  126.53    9.23
  -1   8   3  208.69   12.88
   1   8  -3  219.38   14.26
  -1   8   3  203.83   12.37
   1   8  -3  221.67   14.20
   1   8  -3  222.36   13.97
  -1   8   3  227.93   11.94
   1   8  -3  220.89   13.05
  -1   8   3  209.99   14.20
  -1   8   3  221.47   14.08
   1   8  -3  221.97   14.70
  -1   8   3  204.89   12.70
   1   8  -3  206.16   14.86
  -1   8   3  217.29   14.05
   1   8  -3  227.73   13.72
  -1   8   2  205.46   13.22
   1   8  -2  219.65   14.34
   1   8  -2  208.35   14.08
   1   8  -2  176.56   13.36
  -1   8   2  204.77   12.09
   1   8  -2  203.22   13.26
  -1   8   2  208.97   12.82
  -1   8   2  213.58   14.17
  -1   8   2  220.32   14.57
   1   8  -2  213.44   14.50
  -1   8   2  195.27   12.88
   1   8  -2  236.65   15.91
  -1   8   2  221.82   14.07
   1   8  -2  228.38   14.41
  -1   8   2  209.32   13.67
   1   8  -2  208.08   12.41
   1   8  -1  337.40   18.44
  -1   8   1  322.77   16.87
  -1   8   1  321.61   18.50
   1   8  -1  318.42   16.80
   1   8  -1  309.52   15.21
   1   8  -1  306.94   17.83
  -1   8   1  314.29   18.11
   1   8  -1  353.42   18.50
  -1   8   1  324.48   16.39
   1   8  -1  333.74   18.72
   1   8  -1  284.98   17.13
   1   8  -1  330.54   19.14
  -1   8   1  345.93   18.06
  -1   8   1  310.63   17.12
   1   8  -1  303.64   17.27
   1   8   0  137.71   11.39
  -1   8   0  142.93   11.25
   1   8   0  132.88   11.13
  -1   8   0  147.77   10.63
   1   8   0  134.25   10.76
  -1   8   0  115.14   10.64
   1   8   0  144.92   12.47
  -1   8   0  143.05   12.56
   1   8   0  137.38    8.81
  -1   8   0  139.24   10.66
   1   8   0  136.92   11.44
   1   8   0  148.43   11.32
   1   8   0  149.81   12.07
  -1   8   0  137.73   11.69
  -1   8   0  153.61   11.01
   1   8   0  134.66   11.75
  -1   8   0  140.65   11.07
  -1   8   0  145.32   11.20
  -1   8  -1  187.92   13.22
  -1   8  -1  189.48   13.77
   1   8   1  206.61   13.58
  -1   8  -1  188.17   12.80
   1   8   1  199.06   14.03
  -1   8  -1  202.41   13.02
   1   8   1  188.37   12.85
  -1   8  -1  185.47   13.90
   1   8   1  179.44   11.04
   1   8   1  187.19   12.88
  -1   8  -1  201.39   13.63
  -1   8  -1  169.42   11.56
   1   8   1  186.17   13.32
   1   8   1  193.45   14.00
   1   8   1  207.21   14.63
   1   8   1  188.77   13.43
  -1   8  -2  193.15   13.39
   1   8   2  188.68   13.56
  -1   8  -2  169.95   10.99
   1   8   2  176.46   13.34
   1   8   2  211.25   13.85
  -1   8  -2  191.48   12.93
  -1   8  -2  193.92   13.77
   1   8   2  191.29   12.62
   1   8   2  164.55   11.11
  -1   8  -2  181.45   13.77
   1   8   2  161.30   11.83
  -1   8  -2  170.40   10.81
   1   8   2  182.75   13.37
   1   8   2  185.11   13.77
   1   8   2  176.11   12.86
  -1   8  -3  200.52   13.68
   1   8   3  173.33   11.88
   1   8   3  181.98   12.91
   1   8   3  192.38   13.82
   1   8   3  161.68   11.41
  -1   8  -3  188.86   13.73
   1   8   3  211.79   14.37
  -1   8  -3  179.35   10.38
   1   8   3  195.12   13.91
  -1   8  -3  197.97   11.90
   1   8   3  190.09   13.29
   1   8   3  212.82   13.71
  -1   8  -4  266.52   15.90
   1   8   4  229.84   15.16
   1   8   4  252.02   15.86
   1   8   4  251.22   15.34
   1   8   4  276.80   16.66
  -1   8  -4  303.20   17.12
   1   8   4  226.87   13.43
  -1   8  -4  259.99   13.19
   1   8   4  227.97   13.49
   1   8   4  284.53   16.79
   1   8   4  258.22   15.54
  -1   8  -4  246.86   13.95
   1   8   4  247.96   14.48
   1   8   4  253.09   15.05
  -1   8  -5   85.64    8.31
  -1   8  -5   73.21    7.70
   1   8   5   74.78    7.67
  -1   8  -5   83.03    7.52
   1   8   5   85.36    8.38
   1   8   5   81.57    8.54
   1   8   5   83.31    8.37
   1   8   5   80.91    7.84
   1   8   5   82.51    6.96
  -1   8  -5   92.60    8.92
   1   8   5   79.66    8.55
  -1   8  -5   82.95    7.11
   1   8   5   64.66    6.42
   1   8   5   71.54    7.86
   1   8   5   72.60    7.41
  -1   8  -6   33.95    4.91
   1   8   6   32.94    5.03
   1   8   6   34.54    5.41
   1   8   6   36.82    5.35
   1   8   6   26.82    3.54
  -1   8  -6   30.31    4.91
   1   8   6   32.62    5.18
  -1   8  -6   25.44    3.91
  -1   8  -6   29.98    4.61
   1   8   6   29.30    4.71
   1   8   7   21.16    3.84
  -1   8  -7   18.99    3.82
   1   8   7   17.33    3.79
   1   8   7   16.10    3.49
   1   8   7   19.25    3.86
  -1   8  -7   19.49    3.61
   1   8   8  355.24   16.40
   1   8   8  378.79   17.42
  -1   8  -8  389.05   16.32
   1   8   8  349.06   16.85
   1   8   8  355.78   15.94
   1   8   9   62.72    5.44
   1   8   9   58.36    4.88
   1   8   9   68.02    6.08
   1   8   9   54.64    5.50
  -1   8  -9   67.17    5.25
  -1   8  -9   64.32    5.37
  -1   8  -9   62.57    5.14
   1   8  10   96.17    6.28
  -1   8 -10   90.14    5.40
  -1   8 -10   76.93    4.94
  -1   9   8   14.87    2.09
   1   9  -8   20.18    2.39
   1   9  -8   21.97    2.52
  -1   9   7  181.08    8.75
  -1   9   7  164.96    7.53
  -1   9   7  145.09    7.14
   1   9  -7  175.75    8.97
   1   9  -7  172.28    9.07
  -1   9   6   76.75    5.91
  -1   9   6   74.63    5.72
   1   9  -6   76.43    5.81
   1   9  -6   65.19    5.06
   1   9  -6   73.61    6.08
   1   9  -6   78.44    6.48
   1   9  -5  107.45    7.84
  -1   9   5  118.43    7.94
  -1   9   5  111.84    7.71
   1   9  -5  113.88    7.01
   1   9  -5  112.78    8.17
   1   9  -5  118.57    8.74
  -1   9   4  156.98    9.81
   1   9  -4  163.20   10.87
   1   9  -4  142.81    9.42
  -1   9   4  141.30    9.42
   1   9  -4  135.57    7.94
   1   9  -4  146.72    9.68
  -1   9   3   75.15    6.86
   1   9  -3   67.10    6.57
  -1   9   3   68.22    6.70
   1   9  -3   55.08    5.91
   1   9  -3   55.25    4.69
  -1   9   3   54.23    4.62
   1   9  -3   65.89    6.84
  -1   9   2   72.22    6.90
   1   9  -2   66.76    6.68
  -1   9   2   58.39    4.87
   1   9  -2   58.34    6.17
  -1   9   2   63.65    6.65
  -1   9   2   66.40    5.66
   1   9  -2   61.01    6.78
   1   9  -1   10.28    2.80
   1   9  -1   11.92    3.04
  -1   9   1    7.70    2.53
   1   9  -1    8.86    2.98
  -1   9   1   11.42    2.42
   1   9  -1   10.69    2.94
  -1   9   1   14.34    3.44
  -1   9   1   13.18    2.81
   1   9  -1    9.66    2.76
  -1   9   0   48.49    5.95
   1   9   0   44.79    5.59
   1   9   0   44.19    5.64
   1   9   0   44.27    5.39
  -1   9   0   48.23    5.09
  -1   9   0   47.22    5.91
   1   9   0   40.80    4.98
   1   9   0   44.40    5.75
   1   9   0   35.89    5.37
  -1   9   0   36.88    4.72
   1   9   1   26.74    3.94
  -1   9  -1   22.99    4.25
  -1   9  -1   31.37    4.76
   1   9   1   34.38    4.81
   1   9   1   27.69    4.32
   1   9   1   20.90    3.62
   1   9   1   25.70    4.37
   1   9   1   25.97    4.46
  -1   9  -1   22.06    3.76
   1   9   1   24.10    4.25
   1   9   2   31.69    4.07
   1   9   2   43.20    5.28
   1   9   2   40.56    5.50
  -1   9  -2   37.08    4.73
   1   9   2   45.92    5.74
   1   9   2   40.86    5.37
  -1   9  -2   32.26    5.00
  -1   9  -2   44.82    5.30
   1   9   2   40.37    5.46
  -1   9  -2   39.73    5.30
   1   9   2   44.05    5.48
   1   9   3   40.19    5.04
   1   9   3   34.97    5.04
  -1   9  -3   40.00    5.29
   1   9   3   34.14    4.84
   1   9   3   30.92    4.62
  -1   9  -3   36.91    5.23
  -1   9  -3   39.16    4.80
   1   9   3   30.96    4.74
   1   9   3   28.01    3.53
   1   9   3   37.07    4.32
   1   9   4   47.42    5.39
   1   9   4   44.74    5.50
   1   9   4   43.55    4.22
  -1   9  -4   44.29    5.03
  -1   9  -4   41.91    5.37
   1   9   4   43.40    5.20
   1   9   4   38.52    5.11
   1   9   5   52.22    5.48
   1   9   5   55.46    5.80
  -1   9  -5   49.96    5.07
   1   9   5   38.64    3.20
   1   9   5   48.88    5.52
  -1   9  -5   54.87    5.84
   1   9   5   46.86    5.03
  -1   9  -5   60.65    5.73
  -1   9  -6  147.27    8.44
   1   9   6  142.88    8.58
   1   9   6  137.59    8.83
   1   9   6  131.86    8.65
  -1   9  -6  139.39    8.91
  -1   9  -6  124.15    8.24
   1   9   7  123.44    7.19
   1   9   7  128.17    7.60
  -1   9  -7  130.27    7.07
  -1   9  -7  120.83    7.22
   1   9   8   19.88    2.33
   1   9   8   26.39    2.85
  -1   9  -8   22.11    2.52
  -1   9  -8   21.82    2.32
  -1  10   4  100.73    5.16
   1  10  -4   98.95    5.58
   1  10  -4   93.83    5.13
  -1  10   3   80.76    5.14
  -1  10   3   74.44    4.51
   1  10  -3   88.50    5.30
   1  10  -3   89.86    5.63
  -1  10   2   14.09    2.24
   1  10  -2   12.69    2.20
   1  10  -2   15.93    2.36
   1  10  -2   19.35    2.67
  -1  10   1    7.46    1.88
  -1  10   1   12.11    2.12
   1  10  -1   10.96    2.02
   1  10  -1   12.45    2.09
   1  10  -1   11.33    2.26
   1  10   0   99.17    6.43
  -1  10   0   93.70    6.07
   1  10   0  110.40    6.65
  -1  10   0   95.08    6.16
   1  10   0  100.28    5.94
  -1  10  -1   33.01    3.31
   1  10   1   31.28    3.51
  -1  10  -1   26.68    2.44
   1  10   1   34.19    3.55
  -1  10  -2   77.99    5.07
   1  10   2   96.67    6.05
  -1  10  -2   86.33    4.84
   1  10   2   83.48    5.56
   1  10   3   12.87    1.95
   1  10   3   15.16    2.25
  -1  10  -3   14.33    1.89
   1  10   4    5.86    1.25
   1  10   4    8.66    1.57
  -1  10  -4    7.18    1.27
   2 -10  -2   39.58    2.68
   2 -10  -1    3.46    0.92
  -2 -10   1    3.93    0.98
   2 -10   0   13.24    1.60
  -2 -10   0   17.24    2.00
  -2 -10  -1   40.05    3.02
   2  -9  -6   50.76    3.40
  -2  -9   6   46.83    4.28
   2  -9  -5   94.19    6.47
   2  -9  -5   93.70    5.77
  -2  -9   5   92.36    6.55
  -2  -9   5   77.93    6.15
   2  -9  -4   31.69    3.70
  -2  -9   4   40.35    4.44
   2  -9  -4   33.16    3.99
   2  -9  -3  290.39   13.24
  -2  -9   3  279.51   13.31
  -2  -9   3  291.42   13.59
   2  -9  -3  303.46   13.72
   2  -9  -2    4.13    1.71
   2  -9  -2    4.11    1.79
  -2  -9   2    3.28    1.77
   2  -9  -2    4.60    2.03
   2  -9  -1   30.83    4.00
  -2  -9   1   22.90    3.40
  -2  -9   1   26.47    3.91
   2  -9  -1   21.37    3.80
   2  -9   0   22.43    3.41
  -2  -9   0   24.13    3.75
  -2  -9   0   19.42    3.02
   2  -9   0   21.32    3.86
   2  -9   0   24.90    3.97
   2  -9   1   72.35    6.06
  -2  -9  -1   66.23    6.21
   2  -9   1   69.41    6.80
   2  -9   1   71.33    6.69
   2  -9   2  215.21   12.33
  -2  -9  -2  194.64   11.03
  -2  -9  -2  196.06   10.74
   2  -9   2  222.02   11.97
   2  -9   3   35.87    2.99
  -2  -9  -3   39.34    4.36
  -2  -9  -3   41.83    4.52
   2  -9   3   28.96    4.03
   2  -9   3   39.09    4.88
   2  -9   4   25.61    2.49
  -2  -9  -4   29.28    3.76
   2  -9   4   36.16    4.43
   2  -9   4   28.88    3.71
  -2  -9  -5  103.66    5.87
  -2  -9  -5  111.39    6.48
  -2  -9  -5  111.07    6.98
   2  -9   5  107.54    7.44
   2  -9   6   26.63    2.53
  -2  -9  -6   38.83    3.61
   2  -9   6   33.32    3.72
  -2  -9  -6   37.38    3.33
  -2  -9  -7   26.92    2.44
  -2  -9  -7   28.90    2.63
   2  -9   7   26.64    2.78
   2  -8 -10   40.59    2.91
  -2  -8  10   36.30    3.17
   2  -8  -9   10.47    2.00
  -2  -8   9   10.14    2.28
   2  -8  -9   15.27    2.34
   2  -8  -8    0.29    0.99
   2  -8  -8    0.25    0.50
  -2  -8   8    0.38    1.06
  -2  -8   8   -0.33    1.06
   2  -8  -8    0.57    1.04
   2  -8  -7   12.56    2.26
   2  -8  -7   12.46    2.77
   2  -8  -7   11.02    2.44
  -2  -8   7   12.19    3.06
  -2  -8   7   12.14    2.86
   2  -8  -6   34.49    4.45
  -2  -8   6   33.34    4.88
   2  -8  -6   43.50    5.30
  -2  -8   6   30.40    4.91
   2  -8  -5  134.77    9.24
   2  -8  -5  135.48    9.30
  -2  -8   5  117.93    9.96
  -2  -8   5  134.16   10.28
   2  -8  -5  137.31   10.12
  -2  -8   5  138.01    9.60
   2  -8  -4  512.07   22.67
   2  -8  -4  518.18   21.64
  -2  -8   4  525.24   22.92
  -2  -8   4  484.24   21.56
  -2  -8   4  495.70   23.03
  -2  -8   4  502.54   21.30
   2  -8  -3  230.58   13.47
  -2  -8   3  222.36   13.83
   2  -8  -3  220.35   13.68
  -2  -8   3  223.49   13.73
  -2  -8   3  214.36   14.16
   2  -8  -3  212.47   14.32
   2  -8  -3  202.03   13.38
   2  -8  -2   28.21    4.83
  -2  -8   2   20.02    4.33
   2  -8  -2   32.22    4.93
   2  -8  -2   25.86    3.51
  -2  -8   2   32.99    5.08
  -2  -8   2   30.56    4.46
   2  -8  -2   31.52    5.47
   2  -8  -2   28.58    5.11
   2  -8  -1    1.04    1.78
   2  -8  -1    2.15    1.36
  -2  -8   1    4.43    2.28
   2  -8  -1    7.27    2.84
  -2  -8   1    5.31    2.23
  -2  -8   1    2.45    1.86
  -2  -8   1    2.20    1.42
   2  -8  -1    1.29    2.09
   2  -8  -1    4.20    2.16
  -2  -8   0   13.60    3.15
   2  -8   0   14.43    3.39
   2  -8   0   16.59    3.17
  -2  -8   0   15.74    3.92
  -2  -8   0   18.37    4.03
  -2  -8   0   16.06    3.17
  -2  -8   0   12.81    3.17
  -2  -8   0   16.22    3.72
   2  -8   0   11.80    3.75
   2  -8   0    8.51    3.04
   2  -8   1   96.94    8.56
   2  -8   1  102.24    8.17
  -2  -8  -1  109.79    8.58
  -2  -8  -1  121.75   10.09
  -2  -8  -1  109.99    9.96
  -2  -8  -1  103.48    7.70
  -2  -8  -1   99.79    8.90
  -2  -8  -1  103.81    9.08
   2  -8   1  110.50   10.43
   2  -8   1  117.99   10.22
   2  -8   2   34.40    5.44
   2  -8   2   40.28    5.22
   2  -8   2   41.38    5.17
  -2  -8  -2   33.43    5.53
  -2  -8  -2   37.60    4.62
  -2  -8  -2   34.86    5.25
   2  -8   2   32.60    5.82
  -2  -8  -2   35.31    5.41
  -2  -8  -2   37.07    5.36
   2  -8   3   54.58    6.10
  -2  -8  -3   62.20    6.44
  -2  -8  -3   69.38    7.16
  -2  -8  -3   62.79    6.87
   2  -8   3   53.98    6.82
  -2  -8  -3   60.47    7.36
  -2  -8  -3   58.89    6.61
   2  -8   3   63.12    7.89
   2  -8   4   21.71    3.84
  -2  -8  -4   19.25    4.06
  -2  -8  -4   23.75    4.21
  -2  -8  -4   23.31    4.30
   2  -8   4   23.23    4.80
   2  -8   4   14.88    3.67
  -2  -8  -4   18.68    3.55
  -2  -8  -5   14.74    3.09
   2  -8   5   22.91    4.50
  -2  -8  -5   13.66    3.36
  -2  -8  -5   16.98    3.46
  -2  -8  -5   23.70    4.20
   2  -8   5   18.22    3.73
  -2  -8  -5   22.98    3.85
  -2  -8  -6    2.12    1.34
  -2  -8  -6    0.84    1.36
  -2  -8  -6    1.18    1.49
   2  -8   6    0.52    1.45
  -2  -8  -7  104.09    5.72
   2  -8   7  125.78    8.30
   2  -8   7  141.79    9.96
  -2  -8  -7  125.47    8.43
  -2  -8  -7  128.06    8.30
   2  -8   7  107.63    7.50
   2  -8   8   99.83    6.66
  -2  -8  -8   86.91    6.31
  -2  -8  -8   96.43    6.58
   2  -8   8   93.61    7.34
   2  -8   8   78.26    5.17
   2  -8   9    4.57    1.37
  -2  -8  -9    5.56    1.35
   2  -8   9    6.08    1.66
  -2  -8  -9    6.09    1.56
  -2  -7  12   37.38    3.10
   2  -7 -11   42.75    3.76
  -2  -7  11   36.25    4.15
   2  -7 -11   37.69    3.84
  -2  -7  10  106.97    8.34
   2  -7 -10   94.16    6.76
   2  -7 -10   90.49    6.98
   2  -7  -9  103.97    8.29
   2  -7  -9  102.14    7.83
  -2  -7   9   89.64    7.73
  -2  -7   9  114.57    9.49
   2  -7  -9  100.01    8.06
   2  -7  -8   11.42    2.91
   2  -7  -8   10.73    3.11
   2  -7  -8    6.15    1.87
  -2  -7   8   14.52    3.44
  -2  -7   8   14.28    3.15
  -2  -7   8   13.16    3.55
   2  -7  -8   11.93    3.09
   2  -7  -8   13.81    3.49
   2  -7  -7   17.68    3.71
   2  -7  -7   15.69    3.14
   2  -7  -7   20.87    4.16
  -2  -7   7   23.77    4.59
  -2  -7   7   19.76    3.89
  -2  -7   7   18.96    4.31
  -2  -7   7   15.85    3.13
   2  -7  -7   16.90    3.63
   2  -7  -7   23.15    4.21
   2  -7  -6   97.96    8.90
  -2  -7   6   99.23    9.61
   2  -7  -6  109.77    9.69
  -2  -7   6  101.16   10.08
  -2  -7   6  107.45    9.17
   2  -7  -6  117.28    9.61
  -2  -7   6  100.36    7.90
  -2  -7   5    0.72    1.83
   2  -7  -5    1.64    1.65
   2  -7  -5    3.13    1.97
   2  -7  -5    1.75    1.50
   2  -7  -5    4.72    2.32
   2  -7  -5    0.61    1.57
  -2  -7   5    2.72    2.06
  -2  -7   5    2.18    1.64
  -2  -7   5    3.16    2.04
  -2  -7   5    4.93    3.11
  -2  -7   5    2.77    1.56
   2  -7  -4  219.17   15.42
   2  -7  -4  206.86   13.32
   2  -7  -4  209.43   13.50
   2  -7  -4  194.81   11.47
   2  -7  -4  192.57   13.37
  -2  -7   4  241.31   15.32
   2  -7  -4  235.04   15.04
  -2  -7   4  218.42   14.12
  -2  -7   4  165.73   10.45
  -2  -7   4  211.90   13.57
  -2  -7   4  217.96   15.48
   2  -7  -4  207.15   14.12
  -2  -7   4  184.74   12.29
   2  -7  -4  210.05   13.15
   2  -7  -3  411.18   20.70
   2  -7  -3  448.93   22.19
   2  -7  -3  428.26   19.20
   2  -7  -3  438.37   21.48
  -2  -7   3  452.63   22.39
  -2  -7   3  469.81   21.23
  -2  -7   3  467.78   22.42
  -2  -7   3  464.59   20.84
  -2  -7   3  418.83   20.44
   2  -7  -3  417.99   22.87
   2  -7  -3  419.45   21.84
   2  -7  -2   22.53    4.28
   2  -7  -2   34.99    4.98
   2  -7  -2   26.81    4.41
  -2  -7   2   36.24    5.68
   2  -7  -2   31.81    5.50
  -2  -7   2   19.89    4.36
  -2  -7   2   20.86    4.14
  -2  -7   2   28.47    5.09
   2  -7  -2   28.59    5.70
   2  -7  -2   24.58    5.01
   2  -7  -1   45.36    5.82
   2  -7  -1   49.80    7.44
   2  -7  -1   57.66    6.23
   2  -7  -1   48.57    6.01
   2  -7  -1   58.13    7.24
  -2  -7   1   54.45    7.13
  -2  -7   1   47.96    6.39
  -2  -7   1   48.64    6.05
  -2  -7   1   43.14    5.48
  -2  -7   1   50.58    6.98
  -2  -7   1   43.64    6.50
   2  -7  -1   57.01    7.48
  -2  -7   1   63.38    7.33
   2  -7   0  187.34   12.41
  -2  -7   0  183.87   12.63
  -2  -7   0  164.69   11.44
  -2  -7   0  161.69   12.61
  -2  -7   0  145.32   12.04
  -2  -7   0  168.39   13.03
  -2  -7   0  190.92   13.05
  -2  -7   0  158.00   12.06
   2  -7   0  176.02   14.13
   2  -7   0  182.00   13.70
  -2  -7   0  171.07   11.71
   2  -7   1  126.02   10.52
  -2  -7  -1  119.51    9.40
   2  -7   1  139.75   11.54
  -2  -7  -1  139.19   10.55
   2  -7   1  154.31   11.14
  -2  -7  -1  141.11   11.54
  -2  -7  -1  126.00   10.84
  -2  -7  -1  128.70    9.75
  -2  -7  -1  124.39   11.24
  -2  -7  -1  114.82   10.22
  -2  -7  -1  128.68   11.64
  -2  -7  -1  139.44   11.31
   2  -7   1  144.48   12.63
   2  -7   1  129.12   11.54
  -2  -7  -2  373.89   20.69
   2  -7   2  325.99   18.23
  -2  -7  -2  340.38   17.38
   2  -7   2  351.82   19.24
  -2  -7  -2  324.21   16.57
  -2  -7  -2  352.77   19.01
  -2  -7  -2  321.93   16.06
  -2  -7  -2  351.32   19.84
  -2  -7  -2  344.59   18.73
  -2  -7  -2  333.55   18.69
   2  -7   2  391.86   21.73
   2  -7   2  374.30   20.34
  -2  -7  -2  336.99   17.86
  -2  -7  -3   23.65    4.32
  -2  -7  -3   27.00    4.03
   2  -7   3   28.56    4.98
  -2  -7  -3   16.42    4.45
  -2  -7  -3   31.82    5.27
  -2  -7  -3   20.87    3.49
  -2  -7  -3   28.42    5.41
  -2  -7  -3   23.83    4.69
  -2  -7  -3   29.36    5.30
   2  -7   3   22.22    5.13
   2  -7   3   29.98    5.58
  -2  -7  -3   23.72    4.49
   2  -7   4  161.90   12.50
  -2  -7  -4  196.98   12.83
  -2  -7  -4  194.82   13.35
  -2  -7  -4  193.23   13.49
   2  -7   4  193.32   13.90
  -2  -7  -4  170.12   13.44
  -2  -7  -4  175.13   13.82
   2  -7   4  183.79   14.66
  -2  -7  -4  193.72   12.99
  -2  -7  -5  120.13   10.10
   2  -7   5  127.34   10.73
  -2  -7  -5  126.82    9.85
  -2  -7  -5  108.85   10.56
  -2  -7  -5  131.75   10.71
   2  -7   5  111.95   11.37
  -2  -7  -5  133.89   10.50
   2  -7   5  118.45   10.65
   2  -7   6   23.19    4.74
  -2  -7  -6   23.75    4.71
  -2  -7  -6   22.57    3.91
  -2  -7  -6   30.04    4.85
  -2  -7  -6   20.54    4.19
   2  -7   6   26.27    5.40
  -2  -7  -6   31.53    4.91
   2  -7   6   27.00    4.91
   2  -7   7   56.22    6.93
  -2  -7  -7   46.91    5.81
  -2  -7  -7   50.28    6.57
  -2  -7  -7   48.46    5.09
  -2  -7  -7   51.37    6.21
   2  -7   7   71.97    8.38
  -2  -7  -7   59.21    6.51
   2  -7   8   72.05    6.86
   2  -7   8   76.52    7.67
  -2  -7  -8   73.77    7.00
  -2  -7  -8   77.18    7.11
   2  -7   8   85.46    8.77
   2  -7   9   60.87    6.40
  -2  -7  -9   56.13    5.55
  -2  -7  -9   57.75    5.63
   2  -7   9   69.55    7.29
   2  -7   9   49.48    4.91
   2  -7  10   15.64    2.95
  -2  -7 -10   13.51    2.44
   2  -7  10   14.60    3.01
  -2  -7 -10   16.61    2.67
   2  -7  11   74.38    5.24
  -2  -7 -11   59.59    3.95
   2  -7  11   64.70    5.13
  -2  -6  13   18.62    2.64
   2  -6 -12   19.10    2.57
  -2  -6  12   16.84    3.30
  -2  -6  12   15.31    2.80
   2  -6 -12   24.04    3.25
   2  -6 -11   84.94    6.61
  -2  -6  11   66.13    6.68
  -2  -6  11   81.25    7.89
   2  -6 -11   72.38    6.67
   2  -6 -10  109.77    9.16
   2  -6 -10  105.61    8.38
  -2  -6  10   92.27    8.76
  -2  -6  10   97.27    8.04
  -2  -6  10  101.09    9.60
  -2  -6  10  101.31    7.99
   2  -6 -10   96.62    8.50
   2  -6  -9    8.63    2.84
   2  -6  -9    7.50    1.97
  -2  -6   9    4.24    2.40
  -2  -6   9    8.17    2.92
  -2  -6   9    6.71    2.33
   2  -6  -9    8.57    2.99
  -2  -6   9    6.91    3.35
   2  -6  -9    8.89    2.91
   2  -6  -8   79.76    8.06
   2  -6  -8   70.70    6.62
   2  -6  -8   75.15    8.19
  -2  -6   8   78.10    8.67
  -2  -6   8   66.30    7.83
   2  -6  -8   76.96    8.10
  -2  -6   8   73.90    9.05
  -2  -6   8   72.62    7.55
   2  -6  -8   75.05    8.14
  -2  -6   7   42.60    6.75
   2  -6  -7   30.98    4.67
  -2  -6   7   27.08    5.30
   2  -6  -7   32.19    5.47
  -2  -6   7   26.95    5.19
   2  -6  -7   25.89    5.07
  -2  -6   7   25.28    4.56
  -2  -6   7   36.58    6.43
  -2  -6   7   34.25    5.32
   2  -6  -7   28.23    4.98
   2  -6  -7   38.95    6.18
   2  -6  -7   32.53    5.38
   2  -6  -6  113.54   10.62
   2  -6  -6   99.38    9.52
   2  -6  -6   93.81    7.91
  -2  -6   6  109.43   10.11
  -2  -6   6   92.12    9.71
   2  -6  -6  110.19   10.15
  -2  -6   6   96.13   10.43
  -2  -6   6  105.35    8.83
  -2  -6   6  117.51    9.83
   2  -6  -6   89.81    9.16
   2  -6  -6   88.04    8.98
  -2  -6   6  112.30   11.06
   2  -6  -5  358.66   19.68
   2  -6  -5  343.37   18.57
  -2  -6   5  330.16   18.37
  -2  -6   5  325.54   16.60
  -2  -6   5  351.27   20.70
   2  -6  -5  335.29   17.81
   2  -6  -5  321.09   16.33
  -2  -6   5  320.80   18.36
   2  -6  -5  347.52   19.52
  -2  -6   5  353.74   19.65
  -2  -6   5  340.88   18.13
  -2  -6   5  310.43   16.11
  -2  -6   5  401.46   21.54
   2  -6  -5  334.43   18.39
   2  -6  -5  312.54   19.69
   2  -6  -5  349.28   18.68
   2  -6  -4  148.46   11.81
   2  -6  -4  162.97   12.04
  -2  -6   4  160.60   10.52
   2  -6  -4  162.12   11.75
   2  -6  -4  133.34   10.13
  -2  -6   4  150.63   11.61
  -2  -6   4  150.29   11.81
  -2  -6   4  150.43   12.14
  -2  -6   4  149.51   11.23
  -2  -6   4  158.32   13.07
  -2  -6   4  154.94   11.58
   2  -6  -4  139.11   10.91
  -2  -6   4  153.87   10.89
  -2  -6   4  156.56   12.99
   2  -6  -4  172.51   12.89
   2  -6  -4  144.05   12.94
   2  -6  -3  367.94   19.45
   2  -6  -3  345.67   17.90
  -2  -6   3  356.41   16.33
   2  -6  -3  322.71   17.07
  -2  -6   3  325.02   16.04
  -2  -6   3  355.82   19.04
  -2  -6   3  346.88   19.01
   2  -6  -3  359.61   17.80
  -2  -6   3  411.08   21.02
   2  -6  -3  312.88   17.00
   2  -6  -3  342.56   20.11
  -2  -6   3  327.12   17.68
   2  -6  -3  335.64   18.82
  -2  -6   2   64.65    7.50
   2  -6  -2   41.14    5.73
  -2  -6   2   57.53    7.02
  -2  -6   2   56.98    6.16
  -2  -6   2   63.96    7.36
   2  -6  -2   66.84    7.61
  -2  -6   2   54.07    5.59
  -2  -6   2   65.29    7.86
  -2  -6   2   49.22    6.14
  -2  -6   2   52.66    6.38
   2  -6  -2   56.36    6.18
   2  -6  -2   58.78    6.42
   2  -6  -2   56.21    7.81
   2  -6  -2   58.99    7.32
   2  -6  -1   53.24    6.33
   2  -6  -1   42.04    5.45
  -2  -6   1   59.98    7.30
   2  -6  -1   54.07    6.58
  -2  -6   1   47.44    5.67
   2  -6  -1   54.68    7.04
  -2  -6   1   56.28    7.21
  -2  -6   1   60.93    7.06
  -2  -6   1   46.39    6.08
   2  -6  -1   50.94    6.68
  -2  -6   1   42.11    6.22
  -2  -6   1   52.89    5.30
  -2  -6   1   46.74    6.34
  -2  -6   1   45.09    5.78
  -2  -6   1   55.89    6.88
   2  -6  -1   43.86    5.20
   2  -6  -1   59.27    7.86
   2  -6  -1   52.73    6.98
   2  -6   0  745.73   29.00
   2  -6   0  731.34   27.94
   2  -6   0  735.44   29.87
  -2  -6   0  752.55   28.89
   2  -6   0  754.60   31.02
  -2  -6   0  801.82   30.24
  -2  -6   0  807.28   31.29
  -2  -6   0  810.47   30.80
  -2  -6   0  737.90   25.42
  -2  -6   0  819.32   31.95
  -2  -6   0  813.31   29.41
  -2  -6   0  762.46   31.42
  -2  -6   0  752.88   31.33
   2  -6   0  809.16   32.45
   2  -6   0  843.73   34.07
   2  -6   1  323.05   16.31
  -2  -6  -1  330.78   17.01
   2  -6   1  313.98   16.95
   2  -6   1  366.60   18.95
  -2  -6  -1  323.44   14.80
  -2  -6  -1  322.20   16.81
  -2  -6  -1  352.91   18.76
  -2  -6  -1  326.26   18.05
   2  -6   1  320.35   15.49
   2  -6   1  375.95   20.84
  -2  -6  -1  344.71   18.83
  -2  -6  -1  339.80   17.99
  -2  -6  -1  364.36   19.39
  -2  -6  -1  299.36   17.48
   2  -6   1  317.18   18.87
  -2  -6  -1  303.13   16.71
   2  -6   2   27.73    3.84
  -2  -6  -2   36.82    5.57
  -2  -6  -2   27.27    4.74
   2  -6   2   37.38    5.81
  -2  -6  -2   32.22    5.55
   2  -6   2   35.91    5.68
  -2  -6  -2   29.57    4.19
  -2  -6  -2   33.35    4.76
   2  -6   2   27.66    4.46
  -2  -6  -2   32.66    5.36
  -2  -6  -2   39.59    5.13
  -2  -6  -2   33.15    5.31
   2  -6   2   32.61    5.29
  -2  -6  -2   25.90    4.97
  -2  -6  -2   26.88    5.02
   2  -6   2   38.15    6.49
   2  -6   2   34.39    5.85
   2  -6   3  396.71   18.09
   2  -6   3  445.57   21.95
   2  -6   3  429.89   20.85
  -2  -6  -3  405.78   18.24
  -2  -6  -3  407.54   17.98
   2  -6   3  419.91   20.72
  -2  -6  -3  390.06   17.96
  -2  -6  -3  395.17   21.19
  -2  -6  -3  410.91   20.73
  -2  -6  -3  396.60   21.52
  -2  -6  -3  433.37   21.13
   2  -6   3  435.49   23.77
   2  -6   3  394.23   21.39
  -2  -6  -3  412.03   20.20
   2  -6   4  611.84   27.57
  -2  -6  -4  553.89   25.25
  -2  -6  -4  596.22   24.30
  -2  -6  -4  596.12   25.41
   2  -6   4  635.35   26.47
  -2  -6  -4  595.46   22.92
  -2  -6  -4  610.65   27.76
  -2  -6  -4  640.07   26.57
  -2  -6  -4  601.90   27.83
  -2  -6  -4  605.86   26.89
   2  -6   4  629.34   28.39
  -2  -6  -4  624.72   26.40
  -2  -6  -5  118.38    9.31
  -2  -6  -5  132.38   11.59
   2  -6   5  126.48   11.42
  -2  -6  -5  118.43   10.28
   2  -6   5  138.41   12.15
   2  -6   5  142.66   10.71
  -2  -6  -5  129.76    9.89
  -2  -6  -5  130.44   10.13
  -2  -6  -5  118.91    8.17
  -2  -6  -5  137.44   10.91
  -2  -6  -5  121.61   10.58
  -2  -6  -5  136.14   11.93
  -2  -6  -5  146.85   11.38
   2  -6   5  140.51   12.03
  -2  -6  -6   59.48    6.58
  -2  -6  -6   84.71    9.34
   2  -6   6   73.50    8.65
  -2  -6  -6   76.39    8.18
   2  -6   6   71.84    8.86
  -2  -6  -6   67.90    7.25
  -2  -6  -6   73.43    7.26
   2  -6   6   67.81    8.32
  -2  -6  -6   86.53    9.33
  -2  -6  -6   70.23    7.64
  -2  -6  -6   83.66    8.64
  -2  -6  -6   71.52    7.83
   2  -6   7  208.84   14.63
  -2  -6  -7  173.77   10.74
  -2  -6  -7  164.02   12.34
   2  -6   7  165.99   13.47
  -2  -6  -7  183.86   12.33
  -2  -6  -7  170.61   11.77
  -2  -6  -7  171.95   13.26
  -2  -6  -7  169.32   11.84
  -2  -6  -7  162.65   13.23
  -2  -6  -7  197.47   13.26
  -2  -6  -7  185.89   12.72
  -2  -6  -8  849.63   30.91
  -2  -6  -8  767.65   28.87
   2  -6   8  832.49   33.10
   2  -6   8  756.15   32.44
  -2  -6  -8  713.22   29.04
  -2  -6  -8  799.68   30.21
  -2  -6  -8  748.69   31.34
  -2  -6  -8  764.75   28.84
  -2  -6  -9   69.73    6.87
   2  -6   9   82.91    8.68
   2  -6   9   82.90    8.74
  -2  -6  -9   70.33    7.10
  -2  -6  -9   66.41    6.27
  -2  -6  -9   78.30    7.46
   2  -6   9   69.32    7.17
  -2  -6 -10    8.02    2.34
   2  -6  10    6.29    2.68
   2  -6  10    7.14    2.59
  -2  -6 -10    5.70    2.08
   2  -6  10    7.97    2.41
  -2  -6 -11   19.16    3.18
   2  -6  11   13.69    3.17
  -2  -6 -11   11.67    2.32
  -2  -6 -11   16.66    2.80
   2  -6  11   12.96    2.15
  -2  -6 -12   94.48    6.05
   2  -6  12   97.42    6.69
  -2  -6 -13   43.38    3.15
   2  -6  13   41.91    3.29
   2  -5 -14   45.53    3.68
  -2  -5  14   40.73    4.08
   2  -5 -13  142.98    6.61
  -2  -5  13  133.92    9.19
   2  -5 -13  173.48    9.39
  -2  -5  13  182.37   10.84
   2  -5 -12   12.47    2.86
   2  -5 -12   12.15    2.60
  -2  -5  12   12.05    3.32
   2  -5 -12   10.98    2.84
   2  -5 -11   68.59    7.51
  -2  -5  11   70.44    8.26
  -2  -5  11   63.47    6.02
  -2  -5  11   63.20    6.76
   2  -5 -11   55.20    6.47
   2  -5 -11   73.79    7.48
   2  -5 -10  154.13   11.29
   2  -5 -10  143.78   10.54
   2  -5 -10  161.08   12.31
  -2  -5  10  134.33   10.54
  -2  -5  10  135.49    8.94
  -2  -5  10  156.06   13.13
  -2  -5  10  137.68    9.99
   2  -5 -10  152.94   11.67
   2  -5  -9  257.19   15.27
   2  -5  -9  246.78   12.62
  -2  -5   9  261.78   17.11
  -2  -5   9  238.71   12.81
  -2  -5   9  249.77   15.70
   2  -5  -9  262.36   17.10
  -2  -5   9  275.61   15.60
  -2  -5   9  271.99   18.21
   2  -5  -9  240.26   16.02
   2  -5  -9  253.63   15.91
  -2  -5   9  280.77   17.90
   2  -5  -8   99.59   10.23
   2  -5  -8   86.10    8.59
   2  -5  -8   89.97    8.82
  -2  -5   8   88.05    7.17
   2  -5  -8   85.48    7.53
  -2  -5   8   83.93    9.45
   2  -5  -8   85.46    8.96
  -2  -5   8   98.29    9.67
  -2  -5   8   91.17    8.38
  -2  -5   8   82.49    7.98
  -2  -5   8   83.59    9.79
  -2  -5   8   84.96    8.33
   2  -5  -8   98.06    9.82
   2  -5  -8   92.00    9.29
  -2  -5   8  109.45   10.82
   2  -5  -7   15.37    4.07
   2  -5  -7   10.51    3.46
  -2  -5   7   14.06    4.14
   2  -5  -7   12.93    3.43
   2  -5  -7   10.12    2.81
  -2  -5   7   11.54    3.56
  -2  -5   7    6.88    2.65
  -2  -5   7   10.84    3.50
   2  -5  -7   15.91    3.87
  -2  -5   7    7.45    2.73
  -2  -5   7   16.18    4.40
  -2  -5   7   13.34    2.82
  -2  -5   7    9.89    2.51
   2  -5  -7   19.89    4.46
   2  -5  -7   13.22    3.67
   2  -5  -6  146.87   11.85
   2  -5  -6  126.35    9.79
   2  -5  -6  127.29   10.57
   2  -5  -6  122.41    9.57
   2  -5  -6  107.43    8.92
  -2  -5   6  117.51    8.72
  -2  -5   6  100.39    8.32
  -2  -5   6  131.00   11.04
   2  -5  -6  125.47   10.77
  -2  -5   6  115.02    9.30
  -2  -5   6  125.97   11.00
  -2  -5   6  109.36    7.74
  -2  -5   6  119.97    9.63
  -2  -5   6  132.47   11.96
   2  -5  -6  115.74   10.26
  -2  -5   6  114.52    7.93
   2  -5  -6  111.20   10.16
   2  -5  -6  100.36    9.00
  -2  -5   6  119.42   11.31
   2  -5  -5  199.59   13.64
   2  -5  -5  178.70   11.19
  -2  -5   5  161.39   11.04
   2  -5  -5  191.25   12.68
   2  -5  -5  169.82   11.27
  -2  -5   5  153.26   10.50
  -2  -5   5  160.46   12.14
   2  -5  -5  178.87   12.79
  -2  -5   5  170.87   12.52
   2  -5  -5  175.70   13.59
  -2  -5   5  164.00    9.40
  -2  -5   5  182.10   11.97
  -2  -5   5  169.26   13.48
   2  -5  -5  167.86   11.75
  -2  -5   5  157.23   10.59
  -2  -5   5  170.98    9.57
   2  -5  -5  174.31   12.38
  -2  -5   5  187.88   13.82
   2  -5  -4   33.04    5.21
   2  -5  -4   27.25    3.95
  -2  -5   4   31.94    5.53
   2  -5  -4   21.57    4.25
   2  -5  -4   19.47    3.81
  -2  -5   4   26.75    4.82
  -2  -5   4   28.00    4.28
  -2  -5   4   29.19    3.54
   2  -5  -4   32.98    4.85
  -2  -5   4   25.54    4.52
  -2  -5   4   31.67    4.75
   2  -5  -4   34.15    5.36
  -2  -5   4   23.78    3.97
  -2  -5   4   30.22    4.66
  -2  -5   4   27.81    3.44
   2  -5  -4   28.80    4.75
   2  -5  -4   29.61    5.33
   2  -5  -4   29.71    4.77
   2  -5  -4   29.93    4.77
   2  -5  -3  150.24   11.20
   2  -5  -3  155.83   10.81
   2  -5  -3  155.99   10.77
   2  -5  -3  166.37   11.85
   2  -5  -3  146.33   10.38
  -2  -5   3  140.78   10.84
  -2  -5   3  144.03    9.96
  -2  -5   3  137.78    7.83
  -2  -5   3  150.55   10.63
  -2  -5   3  155.95    8.28
  -2  -5   3  156.55   10.61
  -2  -5   3  142.91   11.54
  -2  -5   3  129.02   10.02
  -2  -5   3  133.69    9.79
   2  -5  -3  157.48   10.78
  -2  -5   3  125.10    7.60
   2  -5  -3  133.51   11.60
  -2  -5   3  179.08   12.37
  -2  -5   2   26.64    4.63
   2  -5  -2   24.67    4.16
   2  -5  -2   30.58    4.64
   2  -5  -2   30.89    4.87
  -2  -5   2   25.25    4.05
  -2  -5   2   26.91    3.35
  -2  -5   2   32.91    4.94
   2  -5  -2   30.24    4.85
  -2  -5   2   31.20    4.09
  -2  -5   2   25.78    3.09
  -2  -5   2   25.31    4.21
  -2  -5   2   23.59    4.50
  -2  -5   2   29.76    4.60
   2  -5  -2   26.14    4.08
  -2  -5   2   24.66    3.01
   2  -5  -2   27.75    5.11
   2  -5  -2   24.19    4.03
   2  -5  -2   32.96    5.05
   2  -5  -1   26.25    4.28
   2  -5  -1   29.30    4.87
  -2  -5   1   37.02    5.27
  -2  -5   1   32.60    3.83
  -2  -5   1   36.60    5.11
   2  -5  -1   31.92    4.99
  -2  -5   1   27.45    4.70
  -2  -5   1   30.78    4.03
  -2  -5   1   25.34    4.02
  -2  -5   1   32.19    5.15
  -2  -5   1   36.74    5.06
  -2  -5   1   32.32    4.68
  -2  -5   1   32.08    4.87
  -2  -5   1   32.15    3.37
   2  -5  -1   40.49    6.02
   2  -5  -1   26.28    4.65
   2  -5   0  258.48   14.18
  -2  -5   0  295.50   15.67
   2  -5   0  264.04   13.83
  -2  -5   0  251.76   13.95
   2  -5   0  289.03   15.70
  -2  -5   0  278.12   12.99
  -2  -5   0  293.34   15.05
  -2  -5   0  253.53   14.01
   2  -5   0  286.76   16.12
   2  -5   0  268.93   14.93
  -2  -5   0  276.57   12.89
  -2  -5   0  268.45   15.24
  -2  -5   0  286.23   14.36
  -2  -5   0  263.59   15.21
  -2  -5   0  292.12   15.90
  -2  -5   0  262.80   11.37
  -2  -5   0  320.78   15.36
   2  -5   0  280.83   16.72
   2  -5   1 1338.85   42.83
   2  -5   1 1429.81   46.50
  -2  -5  -1 1412.20   44.79
   2  -5   1 1483.70   46.56
  -2  -5  -1 1372.93   42.51
  -2  -5  -1 1450.82   44.36
  -2  -5  -1 1395.06   45.65
  -2  -5  -1 1371.66   41.37
   2  -5   1 1497.48   45.51
   2  -5   1 1366.29   45.44
  -2  -5  -1 1381.96   43.83
  -2  -5  -1 1434.82   46.48
  -2  -5  -1 1434.08   45.54
  -2  -5  -1 1447.30   46.61
  -2  -5  -1 1453.22   46.17
  -2  -5  -1 1502.43   44.31
   2  -5   1 1431.17   48.76
   2  -5   1 1426.73   47.27
  -2  -5  -2  691.38   27.67
   2  -5   2  678.40   27.59
   2  -5   2  642.88   22.47
  -2  -5  -2  632.77   25.62
   2  -5   2  675.09   26.95
  -2  -5  -2  652.93   24.43
  -2  -5  -2  634.65   24.27
  -2  -5  -2  638.09   25.81
  -2  -5  -2  668.62   22.55
   2  -5   2  654.85   26.39
  -2  -5  -2  660.86   27.11
   2  -5   2  687.76   25.29
  -2  -5  -2  710.75   26.64
   2  -5   2  673.37   25.13
   2  -5   2  663.23   28.35
   2  -5   3    4.72    2.34
   2  -5   3    4.09    1.53
  -2  -5  -3    4.51    2.07
  -2  -5  -3    5.57    2.19
   2  -5   3    3.83    2.42
  -2  -5  -3    6.93    2.80
  -2  -5  -3    6.20    1.89
  -2  -5  -3    6.79    2.12
  -2  -5  -3    7.61    1.81
  -2  -5  -3    6.83    2.10
   2  -5   3    5.06    2.24
  -2  -5  -3    6.36    2.56
  -2  -5  -3    8.87    2.87
  -2  -5  -3    4.84    2.14
  -2  -5  -3   11.72    3.16
   2  -5   3    6.72    2.96
  -2  -5  -4  100.47    8.69
   2  -5   4   96.70    7.04
  -2  -5  -4  113.05    9.38
   2  -5   4  105.21   10.17
   2  -5   4  106.02    8.91
   2  -5   4  104.11    8.89
  -2  -5  -4  111.67    9.01
  -2  -5  -4   99.17    7.83
  -2  -5  -4   86.21    7.35
  -2  -5  -4   96.44    9.29
  -2  -5  -4  109.63    9.86
  -2  -5  -4   94.42    8.90
  -2  -5  -4  112.89    9.41
   2  -5   4  125.50   10.76
   2  -5   5   98.48    7.54
   2  -5   5   96.27    7.18
  -2  -5  -5  101.04    9.07
  -2  -5  -5   86.34    9.03
   2  -5   5   86.66    9.43
   2  -5   5  103.87    8.62
  -2  -5  -5   89.81    8.21
  -2  -5  -5   91.69    7.28
  -2  -5  -5   97.19    8.26
  -2  -5  -5   82.71    7.71
  -2  -5  -5   89.40    7.88
   2  -5   5   87.31    8.21
  -2  -5  -5  100.96    9.73
  -2  -5  -5  107.71    9.36
  -2  -5  -5   94.82    8.46
  -2  -5  -5   95.47    8.80
   2  -5   5   83.63    9.12
  -2  -5  -6   20.71    4.03
  -2  -5  -6   21.71    3.84
   2  -5   6   16.74    3.03
  -2  -5  -6   23.52    4.62
  -2  -5  -6   14.97    3.58
   2  -5   6   19.15    4.77
   2  -5   6   18.74    3.63
   2  -5   6   25.51    4.49
  -2  -5  -6   23.52    4.27
  -2  -5  -6   15.78    2.83
  -2  -5  -6   21.07    4.59
  -2  -5  -6   16.65    4.12
  -2  -5  -6   18.71    4.06
   2  -5   6   18.71    4.59
  -2  -5  -6   19.77    4.23
  -2  -5  -7  226.65   13.82
  -2  -5  -7  219.31   14.07
  -2  -5  -7  245.21   15.47
   2  -5   7  206.05   15.58
  -2  -5  -7  232.03   14.47
  -2  -5  -7  207.65   13.69
  -2  -5  -7  240.66   15.79
  -2  -5  -7  215.85   13.33
  -2  -5  -7  201.91   14.78
  -2  -5  -7  226.88   14.19
   2  -5   7  226.18   15.54
  -2  -5  -8   12.27    3.34
  -2  -5  -8    9.94    3.18
  -2  -5  -8   18.52    3.97
   2  -5   8    9.97    3.62
  -2  -5  -8   10.05    3.10
  -2  -5  -8   14.58    3.59
  -2  -5  -8   11.35    3.50
  -2  -5  -8   20.42    4.54
  -2  -5  -8   10.95    3.09
  -2  -5  -8   10.45    3.09
  -2  -5  -8   14.12    3.57
  -2  -5  -9  329.50   18.39
  -2  -5  -9  362.27   17.94
  -2  -5  -9  334.21   17.64
  -2  -5  -9  348.26   18.93
   2  -5   9  396.60   21.76
  -2  -5  -9  339.10   18.30
   2  -5   9  355.36   19.85
  -2  -5  -9  337.02   18.46
  -2  -5  -9  325.82   15.96
  -2  -5  -9  343.47   19.24
   2  -5   9  384.52   19.72
  -2  -5 -10   17.53    3.78
   2  -5  10   23.60    5.16
  -2  -5 -10   26.86    4.29
  -2  -5 -10   22.84    4.45
  -2  -5 -10   17.40    3.93
  -2  -5 -10   22.10    3.87
  -2  -5 -10   18.47    3.70
   2  -5  10   26.01    4.55
  -2  -5 -11   76.92    6.27
  -2  -5 -11   81.92    7.35
   2  -5  11   64.40    7.72
  -2  -5 -11   69.36    6.58
  -2  -5 -11   63.88    7.13
  -2  -5 -11   74.00    7.50
  -2  -5 -11   74.75    7.33
  -2  -5 -11   73.95    6.40
   2  -5  11   67.47    6.48
  -2  -5 -12   67.38    6.17
   2  -5  12   67.57    7.08
  -2  -5 -12   60.55    4.66
  -2  -5 -12   62.66    5.68
   2  -5  12   55.05    4.49
  -2  -5 -13   18.99    2.90
   2  -5  13   16.19    2.86
   2  -5  13   17.54    3.19
  -2  -5 -14   53.96    3.76
   2  -4 -15  141.45    6.77
  -2  -4  15  127.88    7.10
   2  -4 -14   38.26    4.34
  -2  -4  14   34.26    4.58
   2  -4 -13   17.15    3.54
   2  -4 -13   23.75    2.68
  -2  -4  13   18.26    3.97
  -2  -4  13   21.80    4.29
   2  -4 -13   17.02    3.19
   2  -4 -12    3.19    2.10
  -2  -4  12    6.97    2.80
  -2  -4  12    1.96    1.48
   2  -4 -12    4.92    1.84
  -2  -4  12    4.17    1.96
  -2  -4  12    0.66    2.01
   2  -4 -11   21.31    4.42
   2  -4 -11   24.42    4.05
  -2  -4  11   29.12    4.52
  -2  -4  11   30.37    5.73
  -2  -4  11   31.00    4.96
  -2  -4  11   22.22    3.65
  -2  -4  11   29.13    5.81
   2  -4 -11   27.84    5.08
   2  -4 -11   33.18    5.29
   2  -4 -10   21.83    4.78
   2  -4 -10   23.58    4.72
   2  -4 -10   19.56    4.10
   2  -4 -10   22.72    4.67
  -2  -4  10   15.81    3.45
  -2  -4  10   22.21    3.83
  -2  -4  10   15.80    4.53
  -2  -4  10   27.13    4.72
   2  -4 -10   19.17    4.42
  -2  -4  10   19.54    3.90
   2  -4  -9  167.73   12.56
   2  -4  -9  151.20   11.88
   2  -4  -9  149.76    9.47
  -2  -4   9  141.86   11.60
   2  -4  -9  164.93   13.22
  -2  -4   9  130.82    9.96
  -2  -4   9  152.83   13.49
  -2  -4   9  150.85   11.52
   2  -4  -9  166.23   12.88
  -2  -4   9  130.17   10.02
  -2  -4   9  159.97   13.01
  -2  -4   9  142.76   10.22
   2  -4  -8   91.88    9.68
   2  -4  -8  100.80    9.47
   2  -4  -8  102.13    9.17
   2  -4  -8  106.04    8.19
  -2  -4   8  101.11    9.46
  -2  -4   8  100.56   10.06
   2  -4  -8   95.21    7.90
  -2  -4   8   98.76    8.83
  -2  -4   8  101.13    8.36
  -2  -4   8  109.01   11.11
   2  -4  -8   92.45    9.54
  -2  -4   8   92.12    8.00
   2  -4  -8   96.60    9.37
  -2  -4   8  110.68   10.43
   2  -4  -7  156.04   12.27
  -2  -4   7  135.25    9.46
   2  -4  -7  149.48   11.54
   2  -4  -7  142.69   10.97
   2  -4  -7  160.80   10.47
   2  -4  -7  144.83   10.47
   2  -4  -7  133.15   11.14
  -2  -4   7  146.84   11.82
  -2  -4   7  152.78   11.83
  -2  -4   7  148.82   10.46
  -2  -4   7  134.07   12.18
  -2  -4   7  148.12   10.63
  -2  -4   7  124.31    8.72
  -2  -4   7  154.85   10.05
   2  -4  -7  159.86   11.86
  -2  -4   7  177.23   13.09
  -2  -4   6  377.18   16.77
   2  -4  -6  437.21   20.89
   2  -4  -6  393.13   18.78
  -2  -4   6  370.04   17.71
   2  -4  -6  374.11   18.57
   2  -4  -6  398.60   18.02
   2  -4  -6  334.14   17.37
  -2  -4   6  343.89   16.29
  -2  -4   6  417.34   20.20
   2  -4  -6  398.70   19.64
  -2  -4   6  406.99   17.09
  -2  -4   6  379.82   17.92
  -2  -4   6  390.01   20.86
   2  -4  -6  370.32   19.40
   2  -4  -6  388.04   19.56
   2  -4  -6  383.04   17.57
  -2  -4   6  420.62   20.51
  -2  -4   6  410.85   19.82
   2  -4  -5  301.21   16.47
   2  -4  -5  299.81   15.10
   2  -4  -5  292.56   15.64
   2  -4  -5  280.65   14.81
  -2  -4   5  289.20   14.33
  -2  -4   5  311.78   16.22
  -2  -4   5  294.20   14.67
   2  -4  -5  271.51   15.68
  -2  -4   5  285.94   15.83
  -2  -4   5  277.71   13.28
  -2  -4   5  285.37   14.54
  -2  -4   5  272.01   13.63
   2  -4  -5  279.03   15.62
  -2  -4   5  274.38   13.21
   2  -4  -5  274.36   16.53
   2  -4  -5  305.78   16.13
  -2  -4   5  342.63   17.30
   2  -4  -4   37.04    5.29
  -2  -4   4   25.89    4.37
   2  -4  -4   27.15    4.27
   2  -4  -4   26.65    4.12
   2  -4  -4   17.18    3.41
  -2  -4   4   29.81    4.45
   2  -4  -4   31.47    4.84
  -2  -4   4   22.54    4.43
  -2  -4   4   27.38    4.49
  -2  -4   4   23.72    3.65
  -2  -4   4   26.44    3.56
  -2  -4   4   26.79    3.97
  -2  -4   4   25.50    3.70
  -2  -4   4   25.08    3.39
   2  -4  -4   24.97    4.42
   2  -4  -4   25.30    4.22
   2  -4  -3  273.33   14.58
  -2  -4   3  278.87   13.49
  -2  -4   3  284.56   12.39
  -2  -4   3  279.84   14.14
  -2  -4   3  285.34   14.70
  -2  -4   3  270.39   13.63
  -2  -4   3  266.73   13.39
  -2  -4   3  268.66   12.17
  -2  -4   3  268.28   13.69
  -2  -4   3  306.64   15.22
   2  -4  -2  954.30   31.88
  -2  -4   2  902.94   30.58
  -2  -4   2  806.93   29.23
  -2  -4   2  924.94   28.71
  -2  -4   2  963.93   31.66
  -2  -4   2  896.90   29.47
  -2  -4   2  899.53   30.36
  -2  -4   2  843.34   27.95
  -2  -4   2  951.85   30.85
  -2  -4   2 1017.92   32.09
   2  -4  -1  538.32   21.68
  -2  -4   1  564.73   21.36
   2  -4  -1  565.78   22.25
  -2  -4   1  565.09   21.31
  -2  -4   1  526.60   19.41
  -2  -4   1  544.55   20.81
  -2  -4   1  534.53   21.33
  -2  -4   1  518.26   21.32
   2  -4   0  304.42   14.25
  -2  -4   0  281.63   13.62
   2  -4   0  285.39   12.63
  -2  -4   0  279.18   13.75
   2  -4   0  283.66   14.38
  -2  -4   0  278.48   13.38
  -2  -4   0  282.55   14.11
  -2  -4   0  291.88   14.30
  -2  -4   0  274.86   13.71
  -2  -4   0  294.89   13.80
   2  -4   1  927.81   31.40
   2  -4   1  920.46   29.84
  -2  -4  -1  930.77   31.70
   2  -4   1  944.39   32.50
  -2  -4  -1  941.77   30.83
  -2  -4  -1 1040.04   31.01
  -2  -4  -1  981.30   31.32
  -2  -4  -1  932.31   32.32
  -2  -4  -1  982.44   32.67
  -2  -4  -1  985.67   32.13
   2  -4   2   86.57    6.40
  -2  -4  -2   84.70    7.14
  -2  -4  -2   70.30    6.14
  -2  -4  -2   83.01    6.25
   2  -4   2   80.25    6.69
  -2  -4  -2   71.49    5.25
  -2  -4  -2   83.87    6.66
  -2  -4  -2   76.95    7.13
  -2  -4  -2   81.97    5.87
  -2  -4  -2   76.37    7.10
  -2  -4  -2   73.63    6.66
   2  -4   3  615.19   23.69
   2  -4   3  629.55   22.58
  -2  -4  -3  648.62   24.35
   2  -4   3  575.48   25.33
   2  -4   3  674.71   24.22
  -2  -4  -3  657.28   23.80
  -2  -4  -3  605.97   23.02
  -2  -4  -3  595.61   21.04
  -2  -4  -3  584.91   21.39
  -2  -4  -3  614.87   21.53
  -2  -4  -3  651.77   25.42
  -2  -4  -3  644.39   25.12
   2  -4   4  399.72   17.14
   2  -4   4  389.85   17.59
   2  -4   4  378.44   16.42
  -2  -4  -4  362.11   17.39
   2  -4   4  389.32   19.87
   2  -4   4  383.88   17.06
  -2  -4  -4  384.07   17.30
  -2  -4  -4  382.65   17.12
  -2  -4  -4  354.45   15.83
  -2  -4  -4  357.13   16.03
  -2  -4  -4  380.20   16.33
  -2  -4  -4  405.20   18.95
  -2  -4  -4  376.07   18.26
  -2  -4  -4  348.76   17.33
   2  -4   4  397.17   19.40
  -2  -4  -5    3.20    2.02
   2  -4   5    5.85    1.99
   2  -4   5    3.57    2.15
  -2  -4  -5    4.76    1.56
   2  -4   5    3.20    1.58
  -2  -4  -5    3.92    2.02
  -2  -4  -5    6.93    2.36
   2  -4   5    5.65    2.77
   2  -4   5    5.08    2.32
  -2  -4  -5    4.19    1.85
   2  -4   5    5.02    1.97
  -2  -4  -5    2.90    1.64
  -2  -4  -5    2.54    1.55
  -2  -4  -5    7.68    2.80
  -2  -4  -5    4.06    2.20
  -2  -4  -5    5.99    2.56
   2  -4   5    3.49    2.30
   2  -4   6  377.64   17.69
   2  -4   6  351.20   19.65
   2  -4   6  364.99   17.10
  -2  -4  -6  357.07   14.93
  -2  -4  -6  377.27   18.63
   2  -4   6  369.88   20.56
   2  -4   6  353.08   15.81
  -2  -4  -6  381.19   18.29
   2  -4   6  364.86   19.39
  -2  -4  -6  344.91   17.38
  -2  -4  -6  362.76   17.59
  -2  -4  -6  357.19   15.85
  -2  -4  -6  360.04   19.29
  -2  -4  -6  382.56   17.28
  -2  -4  -6  393.84   20.42
  -2  -4  -6  358.19   19.09
  -2  -4  -6  377.93   18.23
   2  -4   6  394.61   20.30
  -2  -4  -6  356.72   17.62
   2  -4   7  314.14   18.63
   2  -4   7  336.08   16.56
  -2  -4  -7  321.86   15.74
  -2  -4  -7  339.19   14.07
  -2  -4  -7  325.88   17.51
   2  -4   7  314.25   19.23
  -2  -4  -7  327.37   17.32
   2  -4   7  345.72   18.92
  -2  -4  -7  298.96   17.71
  -2  -4  -7  325.19   17.14
  -2  -4  -7  331.52   17.34
  -2  -4  -7  297.45   14.01
  -2  -4  -7  293.99   17.72
  -2  -4  -7  326.84   19.26
  -2  -4  -7  326.57   16.87
   2  -4   7  313.48   18.54
  -2  -4  -8 1550.43   50.10
   2  -4   8 1526.71   53.13
   2  -4   8 1548.02   49.20
  -2  -4  -8 1615.66   51.95
   2  -4   8 1595.33   55.35
  -2  -4  -8 1575.90   51.22
   2  -4   8 1636.30   53.78
  -2  -4  -8 1628.71   51.79
  -2  -4  -8 1511.14   50.91
  -2  -4  -8 1557.08   52.69
  -2  -4  -8 1615.57   48.08
  -2  -4  -8 1545.85   54.47
  -2  -4  -8 1511.16   52.11
  -2  -4  -8 1532.19   49.44
  -2  -4  -8 1604.59   50.19
  -2  -4  -9   26.41    4.82
   2  -4   9   24.65    5.24
   2  -4   9   35.39    5.14
  -2  -4  -9   22.51    4.64
  -2  -4  -9   31.53    5.29
   2  -4   9   36.67    6.45
   2  -4   9   24.99    5.15
  -2  -4  -9   24.24    4.74
  -2  -4  -9   27.84    5.22
  -2  -4  -9   21.51    4.62
  -2  -4  -9   20.45    5.03
  -2  -4  -9   25.13    5.04
  -2  -4  -9   29.03    4.63
  -2  -4  -9   24.32    3.73
  -2  -4  -9   28.22    4.59
   2  -4   9   20.61    4.74
  -2  -4 -10   61.61    7.08
   2  -4  10   56.12    7.48
   2  -4  10   59.98    6.61
  -2  -4 -10   64.39    7.45
   2  -4  10   57.44    8.25
  -2  -4 -10   58.42    7.12
   2  -4  10   56.47    7.37
  -2  -4 -10   50.26    6.96
  -2  -4 -10   53.37    7.07
  -2  -4 -10   51.42    7.82
  -2  -4 -10   61.11    7.56
  -2  -4 -10   51.99    5.84
  -2  -4 -10   51.06    5.99
   2  -4  10   55.33    6.95
  -2  -4 -11   46.22    5.98
   2  -4  11   41.85    5.29
   2  -4  11   37.66    6.36
  -2  -4 -11   42.60    5.70
  -2  -4 -11   47.60    6.53
  -2  -4 -11   46.60    6.27
  -2  -4 -11   45.89    4.96
  -2  -4 -11   45.35    5.04
   2  -4  11   38.90    5.71
  -2  -4 -12  194.89   11.72
   2  -4  12  184.48   13.20
  -2  -4 -12  157.32   11.70
  -2  -4 -12  172.07   11.08
  -2  -4 -12  142.30   10.52
   2  -4  12  162.84   10.19
  -2  -4 -13  118.59    8.27
   2  -4  13  120.69    9.46
  -2  -4 -13  101.56    7.78
  -2  -4 -14   53.00    4.62
   2  -4  14   46.02    4.97
  -2  -4 -14   50.74    4.54
   2  -4  15   41.52    3.41
  -2  -4 -15   48.35    3.22
   2  -3 -15   67.90    5.39
  -2  -3  15   72.31    6.22
  -2  -3  15   77.47    6.43
   2  -3 -14   13.79    2.98
  -2  -3  14    7.91    2.78
  -2  -3  14   17.05    3.67
   2  -3 -13   78.57    7.67
  -2  -3  13   58.49    5.80
  -2  -3  13   60.85    7.76
  -2  -3  13   77.54    8.57
   2  -3 -12   48.27    6.48
   2  -3 -12   48.59    5.97
   2  -3 -12   57.95    5.38
  -2  -3  12   45.72    6.31
  -2  -3  12   43.39    5.60
  -2  -3  12   50.22    7.35
   2  -3 -12   44.87    6.00
  -2  -3  12   53.08    6.33
  -2  -3  12   50.07    6.11
  -2  -3  12   47.54    7.22
   2  -3 -11  143.41   12.12
   2  -3 -11  166.71   12.92
   2  -3 -11  159.98   10.57
  -2  -3  11  154.87   11.35
  -2  -3  11  147.41   11.00
  -2  -3  11  163.63   12.32
  -2  -3  11  169.22   13.82
   2  -3 -11  174.91   12.86
   2  -3 -11  156.17   11.67
  -2  -3  11  156.09   11.41
  -2  -3  11  198.65   12.89
   2  -3 -11  155.34   12.32
  -2  -3  11  186.34   14.73
   2  -3 -11  156.64   11.39
  -2  -3  11  144.45   11.96
   2  -3 -10  468.33   22.26
   2  -3 -10  483.79   20.83
   2  -3 -10  460.02   21.62
   2  -3 -10  485.07   23.33
   2  -3 -10  478.92   23.20
  -2  -3  10  427.31   20.54
  -2  -3  10  463.32   22.24
  -2  -3  10  456.63   24.08
  -2  -3  10  402.24   17.59
  -2  -3  10  471.38   21.72
  -2  -3  10  438.11   18.91
  -2  -3  10  497.56   25.62
   2  -3 -10  441.43   21.03
   2  -3 -10  461.45   23.43
  -2  -3  10  464.34   21.19
   2  -3  -9   12.41    3.89
  -2  -3   9   15.25    3.92
   2  -3  -9   14.21    3.94
  -2  -3   9   15.88    3.03
   2  -3  -9   16.84    3.63
  -2  -3   9   12.59    3.20
   2  -3  -9    8.60    2.42
  -2  -3   9   10.64    3.17
  -2  -3   9   15.29    3.89
  -2  -3   9   13.50    3.29
   2  -3  -9   11.01    3.12
  -2  -3   9   18.77    3.44
  -2  -3   9   15.14    4.33
   2  -3  -9   13.38    3.23
  -2  -3   9   14.85    3.52
   2  -3  -9   22.54    4.88
   2  -3  -9   13.71    3.61
   2  -3  -8    3.07    2.52
  -2  -3   8    2.97    2.04
   2  -3  -8    4.02    2.36
   2  -3  -8   10.21    2.88
  -2  -3   8    1.93    1.66
   2  -3  -8    2.66    1.56
  -2  -3   8    4.09    1.61
   2  -3  -8    4.19    1.91
   2  -3  -8    2.39    1.73
   2  -3  -8    3.31    2.02
   2  -3  -8    4.17    2.36
  -2  -3   8    4.94    2.58
  -2  -3   8    6.91    2.35
   2  -3  -8    6.02    2.75
  -2  -3   8    1.99    1.88
  -2  -3   8    4.08    1.68
  -2  -3   8    4.21    2.65
  -2  -3   8    7.94    2.44
   2  -3  -8    1.21    1.83
  -2  -3   8    2.75    1.41
   2  -3  -8    0.57    1.59
   2  -3  -7   31.48    5.07
   2  -3  -7   35.53    5.15
   2  -3  -7   32.21    4.41
  -2  -3   7   34.08    5.48
  -2  -3   7   35.90    4.70
   2  -3  -7   40.64    5.76
  -2  -3   7   43.05    5.33
  -2  -3   7   30.46    4.89
   2  -3  -7   36.49    5.45
  -2  -3   7   34.96    5.76
   2  -3  -7   30.42    4.33
   2  -3  -7   37.79    5.69
  -2  -3   7   31.79    4.13
  -2  -3   7   29.44    4.28
   2  -3  -7   33.44    5.16
  -2  -3   7   45.56    6.03
  -2  -3   7   32.52    4.48
   2  -3  -7   27.53    4.20
   2  -3  -6   26.95    4.45
  -2  -3   6   20.92    4.06
   2  -3  -6   21.50    3.88
   2  -3  -6   25.40    4.07
  -2  -3   6   22.15    3.46
  -2  -3   6   23.43    4.33
   2  -3  -6   22.37    3.95
   2  -3  -6   30.49    4.73
  -2  -3   6   24.42    4.30
  -2  -3   6   20.73    3.37
   2  -3  -6   25.62    4.32
  -2  -3   6   27.09    4.09
  -2  -3   6   22.77    3.60
  -2  -3   6   31.29    5.18
  -2  -3   6   22.45    3.59
  -2  -3   6   21.44    3.52
   2  -3  -6   29.20    4.70
   2  -3  -6   22.46    4.13
   2  -3  -5  789.42   27.93
  -2  -3   5  691.97   24.41
  -2  -3   5  703.34   23.38
  -2  -3   5  728.65   26.77
  -2  -3   5  695.06   24.45
  -2  -3   5  693.38   26.88
   2  -3  -5  762.04   27.41
  -2  -3   5  669.04   25.19
  -2  -3   5  697.92   25.21
  -2  -3   5  747.57   27.31
   2  -3  -4  203.17   11.64
  -2  -3   4  184.80    8.46
  -2  -3   4  169.57   10.34
  -2  -3   4  192.98   10.24
  -2  -3   4  188.42   11.13
  -2  -3   4  195.21   10.51
  -2  -3   4  188.35    9.46
  -2  -3   4  189.16    9.84
  -2  -3   4  188.78   10.45
  -2  -3   4  182.83   10.89
   2  -3  -3  372.40   16.14
  -2  -3   3  338.50   15.55
  -2  -3   3  337.61   14.46
  -2  -3   3  374.51   15.02
  -2  -3   3  347.94   14.03
  -2  -3   3  339.21   13.87
  -2  -3   3  319.54   13.73
  -2  -3   3  343.52   15.10
  -2  -3   3  374.59   15.91
   2  -3  -2   85.42    6.78
  -2  -3   2   90.77    6.86
  -2  -3   2   77.47    5.94
  -2  -3   2   86.82    6.31
  -2  -3   2   80.94    5.93
  -2  -3   2   82.43    6.40
  -2  -3   2   88.61    6.62
   2  -3  -1  262.85   12.32
   2  -3  -1  245.93   11.18
  -2  -3   1  257.77   11.74
  -2  -3   1  210.56   10.70
  -2  -3   1  241.72   11.67
  -2  -3   1  241.08   11.45
   2  -3   0 1212.78   36.92
   2  -3   0 1184.45   35.73
  -2  -3   0 1228.35   36.98
   2  -3   0 1214.31   37.07
  -2  -3   0 1184.10   35.68
  -2  -3   0 1217.59   36.04
  -2  -3   0 1229.88   36.29
  -2  -3   0 1261.34   36.72
  -2  -3   0 1195.20   36.21
  -2  -3   0 1241.75   36.71
   2  -3   1 4091.04  103.93
   2  -3   1 3822.51  102.80
  -2  -3  -1 3940.28  104.01
   2  -3   1 3941.01  104.04
  -2  -3  -1 4026.39  103.28
  -2  -3  -1 3982.89  103.59
  -2  -3  -1 4031.77  104.28
  -2  -3  -1 4114.23  104.30
  -2  -3  -1 4111.82  103.87
  -2  -3  -1 4123.81  101.94
   2  -3   2  693.50   23.92
   2  -3   2  682.32   23.52
  -2  -3  -2  710.89   24.42
   2  -3   2  699.23   23.92
  -2  -3  -2  737.32   23.99
  -2  -3  -2  701.88   21.53
  -2  -3  -2  668.20   21.13
  -2  -3  -2  720.59   24.91
  -2  -3  -2  700.41   24.82
  -2  -3  -2  696.32   23.74
  -2  -3  -2  701.98   21.44
  -2  -3  -3   53.38    5.46
  -2  -3  -3   51.41    5.31
   2  -3   3   62.94    5.32
  -2  -3  -3   54.94    5.26
   2  -3   3   57.24    5.66
  -2  -3  -3   53.65    4.55
  -2  -3  -3   53.21    4.46
  -2  -3  -3   56.34    5.85
  -2  -3  -3   54.49    5.07
  -2  -3  -4  206.89   11.58
   2  -3   4  224.38   10.96
  -2  -3  -4  213.26   11.57
   2  -3   4  234.44   12.78
  -2  -3  -4  229.46   11.08
  -2  -3  -4  205.06   11.93
  -2  -3  -4  228.10   11.04
  -2  -3  -4  229.68   12.66
  -2  -3  -4  239.16   12.71
  -2  -3  -5  615.83   23.32
   2  -3   5  625.03   20.89
  -2  -3  -5  590.51   22.78
   2  -3   5  617.18   24.07
  -2  -3  -5  553.60   20.15
  -2  -3  -5  594.89   22.35
  -2  -3  -5  599.74   22.28
  -2  -3  -5  575.76   23.96
  -2  -3  -5  614.82   24.27
  -2  -3  -5  561.71   23.85
  -2  -3  -5  597.70   21.57
   2  -3   6  747.00   26.99
   2  -3   6  744.62   29.90
  -2  -3  -6  719.47   25.53
  -2  -3  -6  758.33   27.99
   2  -3   6  777.45   30.82
  -2  -3  -6  772.38   28.19
   2  -3   6  785.87   29.31
  -2  -3  -6  729.24   25.50
  -2  -3  -6  757.10   27.55
  -2  -3  -6  772.61   27.62
  -2  -3  -6  749.13   26.04
  -2  -3  -6  755.34   29.18
  -2  -3  -6  772.60   29.68
  -2  -3  -6  704.75   28.21
  -2  -3  -6  723.05   26.73
   2  -3   6  829.86   30.75
   2  -3   7  221.33   12.19
   2  -3   7  186.30   13.44
  -2  -3  -7  184.55   11.04
  -2  -3  -7  181.41   10.52
  -2  -3  -7  196.03   12.38
   2  -3   7  190.46   13.75
  -2  -3  -7  196.63   12.38
   2  -3   7  176.93   12.59
  -2  -3  -7  197.83   12.53
  -2  -3  -7  209.55   13.54
  -2  -3  -7  184.01   10.37
  -2  -3  -7  220.89   14.35
  -2  -3  -7  189.09   12.95
  -2  -3  -7  194.00   11.54
  -2  -3  -7  195.59   11.64
   2  -3   7  222.35   14.33
  -2  -3  -8  535.28   21.97
   2  -3   8  560.05   22.30
   2  -3   8  535.10   25.65
  -2  -3  -8  531.94   22.27
  -2  -3  -8  527.75   21.02
  -2  -3  -8  545.41   23.72
   2  -3   8  546.06   26.40
  -2  -3  -8  529.57   23.41
   2  -3   8  557.44   24.76
  -2  -3  -8  545.28   24.67
  -2  -3  -8  543.08   20.19
  -2  -3  -8  563.22   26.18
  -2  -3  -8  511.36   24.16
  -2  -3  -8  533.51   22.18
   2  -3   9   51.84    5.68
  -2  -3  -9   51.43    6.56
   2  -3   9   60.24    8.05
  -2  -3  -9   68.78    6.36
  -2  -3  -9   68.66    7.46
  -2  -3  -9   63.28    8.34
   2  -3   9   61.21    8.30
  -2  -3  -9   69.50    7.52
   2  -3   9   57.89    7.32
  -2  -3  -9   54.26    6.39
  -2  -3  -9   49.02    6.56
  -2  -3  -9   60.30    7.41
  -2  -3  -9   63.19    7.62
  -2  -3  -9   74.42    6.79
  -2  -3  -9   56.87    6.10
  -2  -3 -10  163.74   11.98
   2  -3  10  190.60   14.27
   2  -3  10  177.08   12.70
   2  -3  10  158.02   13.61
  -2  -3 -10  185.16   12.81
  -2  -3 -10  182.68   14.73
   2  -3  10  197.54   13.72
  -2  -3 -10  181.56   13.27
  -2  -3 -10  153.90   12.36
  -2  -3 -10  174.22   10.87
  -2  -3 -10  139.74   11.09
   2  -3  10  178.64   13.22
  -2  -3 -11   38.80    5.67
   2  -3  11   46.63    6.88
   2  -3  11   35.39    5.53
  -2  -3 -11   29.56    4.98
  -2  -3 -11   32.30    5.25
   2  -3  11   46.04    7.05
  -2  -3 -11   39.68    5.91
  -2  -3 -11   42.14    5.87
  -2  -3 -11   37.67    6.13
  -2  -3 -11   44.57    6.53
  -2  -3 -11   45.85    7.21
  -2  -3 -11   40.50    6.18
   2  -3  11   42.16    6.15
  -2  -3 -12  166.94   11.36
   2  -3  12  172.94   12.68
   2  -3  12  165.08   11.57
   2  -3  12  167.04   13.25
  -2  -3 -12  176.39   11.86
  -2  -3 -12  150.31   12.11
  -2  -3 -12  148.12   11.98
  -2  -3 -12  157.51   11.56
  -2  -3 -12  148.59   10.57
   2  -3  12  153.93   11.03
  -2  -3 -13   90.44    7.48
   2  -3  13  104.26    9.51
  -2  -3 -13   98.47    8.18
  -2  -3 -13   82.13    8.21
  -2  -3 -13  104.26    8.00
   2  -3  14   41.65    5.39
  -2  -3 -14   52.20    5.24
  -2  -3 -14   40.03    4.44
  -2  -3 -15   10.39    1.71
  -2  -3 -15   12.64    2.24
   2  -3  15   10.07    2.24
   2  -2 -16  206.25    8.41
  -2  -2  16  212.58    9.63
   2  -2 -15   42.85    4.54
  -2  -2  15   39.87    3.74
  -2  -2  15   50.15    5.68
  -2  -2  15   47.72    5.50
   2  -2 -15   48.03    4.81
   2  -2 -14   54.68    6.01
   2  -2 -14   60.21    6.30
  -2  -2  14   56.84    5.88
  -2  -2  14   55.59    6.98
  -2  -2  14   61.30    6.34
  -2  -2  14   67.03    7.51
   2  -2 -14   54.18    5.96
   2  -2 -13   47.36    6.25
  -2  -2  13   37.70    4.79
  -2  -2  13   52.97    6.28
  -2  -2  13   38.62    5.46
  -2  -2  13   52.10    7.28
   2  -2 -13   51.51    6.43
  -2  -2  13   47.64    5.66
  -2  -2  13   55.64    7.51
   2  -2 -13   41.42    5.71
   2  -2 -12  159.59   12.20
  -2  -2  12  149.23   11.36
  -2  -2  12  168.73   13.53
  -2  -2  12  157.05   12.48
  -2  -2  12  140.66    9.59
   2  -2 -12  149.97   11.72
   2  -2 -12  156.37   12.97
   2  -2 -12  157.13   11.45
  -2  -2  12  136.29   10.89
   2  -2 -12  154.95   11.64
  -2  -2  12  151.16   13.20
   2  -2 -12  145.56   11.36
  -2  -2  12  153.13   11.71
   2  -2 -12  157.36   10.97
   2  -2 -11 1270.20   43.66
   2  -2 -11 1272.79   44.17
   2  -2 -11 1184.17   44.36
  -2  -2  11 1213.28   42.35
  -2  -2  11 1223.14   45.55
  -2  -2  11 1194.80   43.49
  -2  -2  11 1183.01   39.10
   2  -2 -11 1199.81   42.85
  -2  -2  11 1091.68   40.13
   2  -2 -11 1207.08   42.39
  -2  -2  11 1204.86   41.38
  -2  -2  11 1241.53   42.32
   2  -2 -11 1318.18   43.75
  -2  -2  11 1290.13   47.08
   2  -2 -11 1204.02   42.82
  -2  -2  11 1318.89   43.40
   2  -2 -11 1237.49   42.03
   2  -2 -11 1172.41   40.35
  -2  -2  11 1211.90   42.78
  -2  -2  10  102.91    8.84
   2  -2 -10   89.96    8.88
   2  -2 -10   94.91    9.36
   2  -2 -10   82.92    7.16
  -2  -2  10   75.59    8.02
  -2  -2  10   82.51    9.24
  -2  -2  10   80.30    8.46
  -2  -2  10   87.02    7.58
   2  -2 -10   81.83    9.05
  -2  -2  10   70.00    7.64
   2  -2 -10   68.43    7.68
  -2  -2  10   83.15    8.20
   2  -2 -10   85.08    8.59
  -2  -2  10   81.47    8.18
   2  -2 -10   81.97    8.26
   2  -2 -10   78.27    7.78
   2  -2  -9  510.86   23.38
   2  -2  -9  522.23   22.93
   2  -2  -9  486.07   20.42
  -2  -2   9  492.97   21.93
  -2  -2   9  490.38   24.00
  -2  -2   9  478.90   22.07
  -2  -2   9  470.67   20.01
   2  -2  -9  507.45   23.78
  -2  -2   9  466.36   21.00
   2  -2  -9  529.27   23.28
  -2  -2   9  483.11   21.54
  -2  -2   9  513.74   19.25
   2  -2  -9  455.15   19.90
   2  -2  -9  481.71   23.52
  -2  -2   9  483.90   21.68
   2  -2  -9  473.31   21.25
  -2  -2   9  526.22   23.22
   2  -2  -8  346.69   17.45
   2  -2  -8  331.11   17.61
  -2  -2   8  324.88   16.16
   2  -2  -8  315.01   15.33
   2  -2  -8  321.07   16.91
  -2  -2   8  319.56   15.90
   2  -2  -8  323.83   13.98
  -2  -2   8  314.55   16.09
  -2  -2   8  299.47   14.54
   2  -2  -8  346.06   18.16
   2  -2  -8  308.49   16.38
   2  -2  -8  316.08   16.53
  -2  -2   8  311.76   15.71
   2  -2  -8  303.74   16.39
  -2  -2   8  330.04   14.29
   2  -2  -8  321.41   16.65
   2  -2  -8  282.55   14.20
   2  -2  -8  321.92   17.48
  -2  -2   8  339.53   16.39
   2  -2  -8  348.87   16.52
  -2  -2   8  314.81   17.08
   2  -2  -7  351.79   17.27
  -2  -2   7  363.12   16.20
   2  -2  -7  331.15   16.90
   2  -2  -7  331.10   13.40
  -2  -2   7  346.25   15.84
   2  -2  -7  331.80   17.05
  -2  -2   7  323.81   14.19
   2  -2  -7  346.71   14.71
  -2  -2   7  349.21   16.04
   2  -2  -7  352.94   17.64
  -2  -2   7  378.55   16.40
   2  -2  -7  303.50   11.91
   2  -2  -7  366.27   17.31
  -2  -2   7  343.39   16.98
   2  -2  -6   52.98    5.70
  -2  -2   6   46.22    5.52
   2  -2  -6   48.17    3.79
  -2  -2   6   55.98    4.96
  -2  -2   6   41.62    4.54
   2  -2  -6   56.95    6.07
  -2  -2   6   52.39    5.31
  -2  -2   6   53.79    5.25
   2  -2  -6   43.24    4.31
   2  -2  -6   49.36    3.59
  -2  -2   6   48.29    5.01
  -2  -2   6   57.91    5.99
  -2  -2   5  411.70   16.89
   2  -2  -5  381.73   16.48
  -2  -2   5  346.61   14.81
  -2  -2   5  396.57   16.39
   2  -2  -5  334.07   11.34
   2  -2  -5  376.77   16.50
  -2  -2   5  318.78   14.58
  -2  -2   5  377.53   14.40
   2  -2  -5  376.12   12.26
  -2  -2   4  578.26   20.90
   2  -2  -4  590.04   20.90
  -2  -2   4  542.27   17.80
   2  -2  -4  580.24   20.63
  -2  -2   4  559.47   19.82
  -2  -2   4  551.97   19.01
  -2  -2   4  519.88   17.01
  -2  -2   4  519.08   19.21
   2  -2  -4  536.66   16.40
  -2  -2   3   75.25    5.90
   2  -2  -3   59.24    5.24
  -2  -2   3   67.31    5.28
  -2  -2   3   63.70    3.89
  -2  -2   3   65.22    5.05
  -2  -2   3   66.26    4.33
  -2  -2   3   63.74    4.25
  -2  -2   3   59.24    4.90
   2  -2  -3   63.57    3.77
  -2  -2   2   81.52    5.74
   2  -2  -2   84.20    6.05
   2  -2  -2   81.68    5.71
  -2  -2   2   71.07    3.36
  -2  -2   2   81.63    5.55
  -2  -2   2   86.71    5.14
  -2  -2   2   76.59    4.88
   2  -2  -2   75.95    4.19
  -2  -2   1   30.40    3.33
   2  -2  -1   32.16    3.58
   2  -2  -1   29.68    3.39
  -2  -2   1   41.20    3.81
  -2  -2   1   32.81    3.21
   2  -2  -1   30.76    2.64
   2  -2   0  128.60    7.31
   2  -2   0  114.98    6.96
  -2  -2   0  113.86    6.49
   2  -2   1  213.50    9.94
   2  -2   1  209.96    9.92
  -2  -2  -1  222.02   10.24
  -2  -2  -1  215.91    9.93
  -2  -2  -1  195.95    9.75
  -2  -2  -1  217.76    9.32
  -2  -2  -1  211.52    9.95
  -2  -2  -1  214.56    9.80
   2  -2   1  192.42    8.46
  -2  -2  -1  207.52    8.39
   2  -2   2  468.60   17.22
   2  -2   2  510.40   17.82
  -2  -2  -2  502.52   17.58
  -2  -2  -2  488.22   17.32
  -2  -2  -2  495.88   15.40
  -2  -2  -2  459.42   14.95
  -2  -2  -2  499.16   17.78
  -2  -2  -2  517.66   17.76
  -2  -2  -2  470.71   16.93
  -2  -2  -2  418.29   14.08
   2  -2   3   31.69    3.79
  -2  -2  -3   33.57    3.31
  -2  -2  -3   34.24    3.81
  -2  -2  -3   36.99    3.99
  -2  -2  -3   32.74    3.20
  -2  -2  -3   32.24    3.88
  -2  -2  -3   34.78    4.00
  -2  -2  -4   54.06    4.05
   2  -2   4   58.02    5.42
  -2  -2  -4   63.35    5.43
  -2  -2  -4   77.67    5.98
  -2  -2  -4   69.50    5.31
  -2  -2  -4   60.85    5.00
  -2  -2  -4   64.99    5.83
  -2  -2  -4   63.24    5.57
  -2  -2  -4   61.93    5.66
  -2  -2  -4   64.09    4.98
   2  -2   5   50.54    5.32
  -2  -2  -5   59.58    5.60
  -2  -2  -5   50.22    5.13
  -2  -2  -5   49.64    4.31
  -2  -2  -5   50.28    4.86
  -2  -2  -5   55.35    5.76
  -2  -2  -5   57.47    5.71
  -2  -2  -5   55.17    5.61
  -2  -2  -5   57.81    4.75
  -2  -2  -6  126.07    7.91
   2  -2   6  135.03    9.44
  -2  -2  -6  118.87    8.45
  -2  -2  -6  153.22    9.39
  -2  -2  -6  116.74    8.51
   2  -2   6  146.66    9.59
  -2  -2  -6  114.43    7.00
  -2  -2  -6  140.79    9.87
  -2  -2  -6  114.96    9.01
   2  -2   7  960.39   35.72
   2  -2   7 1047.63   34.81
   2  -2   7  911.23   34.29
  -2  -2  -7  933.07   32.58
   2  -2   7  923.09   35.47
   2  -2   7  996.26   36.26
  -2  -2  -7  992.35   33.44
   2  -2   7  997.54   33.93
  -2  -2  -7  927.56   31.62
  -2  -2  -7  969.71   33.30
  -2  -2  -7 1053.45   35.25
  -2  -2  -7  933.12   29.04
  -2  -2  -7 1004.63   35.29
  -2  -2  -7  997.78   34.61
   2  -2   8  660.57   24.51
   2  -2   8  603.19   25.83
   2  -2   8  669.07   29.17
   2  -2   8  678.74   27.60
  -2  -2  -8  705.33   25.68
   2  -2   8  650.44   28.94
   2  -2   8  690.50   29.60
  -2  -2  -8  741.37   27.34
   2  -2   8  644.37   26.67
  -2  -2  -8  675.41   25.68
  -2  -2  -8  674.77   27.10
  -2  -2  -8  676.61   27.04
  -2  -2  -8  681.64   27.76
  -2  -2  -8  750.58   29.45
  -2  -2  -8  693.53   27.73
  -2  -2  -8  680.21   24.45
   2  -2   9   91.53    7.15
  -2  -2  -9   81.12    7.91
   2  -2   9   89.21    9.57
   2  -2   9   82.92    8.54
  -2  -2  -9   83.71    7.50
  -2  -2  -9   81.28    7.78
   2  -2   9  105.83   10.43
  -2  -2  -9   86.33    8.13
   2  -2   9   79.42    8.16
  -2  -2  -9   81.55    8.55
   2  -2   9   77.42    8.02
  -2  -2  -9   71.01    7.90
  -2  -2  -9   74.58    7.55
  -2  -2  -9  100.36    9.25
  -2  -2  -9   79.01    8.83
  -2  -2  -9   80.11    8.44
  -2  -2 -10   49.21    6.10
   2  -2  10   48.18    7.21
   2  -2  10   67.22    7.86
  -2  -2 -10   51.22    6.46
  -2  -2 -10   55.34    6.23
  -2  -2 -10   46.86    6.05
   2  -2  10   53.69    7.57
  -2  -2 -10   60.02    7.02
   2  -2  10   56.96    6.98
  -2  -2 -10   48.21    6.82
  -2  -2 -10   55.53    7.16
   2  -2  10   51.07    6.69
  -2  -2 -10   45.39    6.59
  -2  -2 -10   62.73    7.50
  -2  -2 -10   62.42    8.26
   2  -2  10   51.38    7.21
  -2  -2 -11   33.92    5.16
   2  -2  11   24.48    5.24
  -2  -2 -11   30.04    4.50
   2  -2  11   28.37    5.19
  -2  -2 -11   29.75    5.01
   2  -2  11   41.39    6.85
  -2  -2 -11   27.33    5.57
  -2  -2 -11   28.94    5.06
  -2  -2 -11   25.45    4.75
  -2  -2 -11   34.27    5.81
  -2  -2 -11   24.46    5.35
  -2  -2 -11   29.54    5.31
  -2  -2 -11   24.37    4.92
   2  -2  11   29.83    5.44
   2  -2  12   28.96    5.53
   2  -2  12   27.11    5.17
   2  -2  12   35.02    6.14
  -2  -2 -12   27.51    4.83
  -2  -2 -12   29.42    4.99
  -2  -2 -12   36.94    6.00
  -2  -2 -12   31.16    5.23
  -2  -2 -12   34.62    5.27
  -2  -2 -12   30.41    5.52
   2  -2  12   32.62    5.25
  -2  -2 -13   92.98    7.80
   2  -2  13   80.51    8.50
   2  -2  13   88.91    9.17
  -2  -2 -13   75.92    7.53
  -2  -2 -13   92.85    8.08
  -2  -2 -13   75.06    8.36
  -2  -2 -13   91.78    8.18
  -2  -2 -13   89.26    9.04
  -2  -2 -13   83.96    7.91
   2  -2  13   77.25    7.24
  -2  -2 -14   60.62    5.40
   2  -2  14   59.01    6.39
   2  -2  14   61.14    6.85
  -2  -2 -14   61.77    6.06
  -2  -2 -14   73.47    6.52
   2  -2  14   42.65    4.10
  -2  -2 -15    0.50    0.76
   2  -2  15    0.28    0.97
  -2  -2 -15    0.29    1.05
   2  -2  15    0.70    1.26
  -2  -2 -15    0.57    1.12
   2  -2  16    3.60    1.06
  -2  -2 -16    5.33    1.14
  -2  -2 -16    5.41    1.14
   2  -1 -16   13.11    2.19
  -2  -1  16   10.09    2.26
   2  -1 -16   11.79    2.06
   2  -1 -15   19.28    3.04
  -2  -1  15   19.95    3.24
  -2  -1  15   21.49    4.06
  -2  -1  15   19.63    3.79
   2  -1 -15   25.82    3.73
   2  -1 -15   28.51    4.11
   2  -1 -14   21.57    4.21
  -2  -1  14   20.11    3.92
  -2  -1  14   22.93    4.70
  -2  -1  14   21.16    3.92
  -2  -1  14   19.27    4.43
   2  -1 -14   26.35    4.57
   2  -1 -14   29.49    4.78
   2  -1 -13   92.03    8.77
  -2  -1  13   96.55    9.15
  -2  -1  13   98.51   10.04
  -2  -1  13   88.81    9.34
  -2  -1  13   86.79    7.62
   2  -1 -13  111.38    9.88
  -2  -1  13   72.08    6.90
  -2  -1  13   73.60    7.90
   2  -1 -13   94.57    9.08
   2  -1 -12   49.74    6.74
  -2  -1  12   55.32    6.99
  -2  -1  12   49.61    7.41
  -2  -1  12   51.66    6.18
   2  -1 -12   52.47    7.03
   2  -1 -12   45.25    5.64
  -2  -1  12   43.67    5.62
  -2  -1  12   54.17    6.85
   2  -1 -12   50.24    6.25
   2  -1 -12   47.77    6.80
  -2  -1  12   54.56    6.95
   2  -1 -12   50.61    6.41
   2  -1 -11  462.97   22.68
   2  -1 -11  475.24   23.30
  -2  -1  11  455.38   22.29
  -2  -1  11  474.87   24.32
  -2  -1  11  412.14   20.10
  -2  -1  11  443.24   20.67
   2  -1 -11  492.75   23.80
   2  -1 -11  445.81   21.31
   2  -1 -11  472.17   21.08
  -2  -1  11  471.84   20.77
  -2  -1  11  455.13   21.86
   2  -1 -11  485.92   21.77
   2  -1 -11  453.50   22.82
  -2  -1  11  444.22   21.81
   2  -1 -11  452.74   20.71
  -2  -1  11  471.66   21.92
   2  -1 -10  849.29   31.57
   2  -1 -10  851.27   32.94
  -2  -1  10  829.28   31.96
  -2  -1  10  851.62   34.55
   2  -1 -10  792.20   29.99
   2  -1 -10  856.70   33.35
   2  -1 -10  826.33   32.97
   2  -1 -10  808.24   30.49
  -2  -1  10  846.72   30.45
   2  -1 -10  810.26   30.91
   2  -1 -10  842.69   29.55
   2  -1 -10  847.05   33.11
  -2  -1  10  778.96   30.98
  -2  -1  10  794.88   31.35
   2  -1 -10  801.30   30.90
   2  -1 -10  812.29   27.99
  -2  -1  10  867.08   32.41
   2  -1  -9   80.85    7.74
   2  -1  -9   73.94    7.87
   2  -1  -9   86.24    7.82
   2  -1  -9   80.43    6.49
  -2  -1   9   76.75    7.57
  -2  -1   9   77.38    8.41
   2  -1  -9   74.24    6.90
  -2  -1   9   80.64    7.39
   2  -1  -9   93.57    8.79
   2  -1  -9   77.55    8.05
   2  -1  -9   85.26    7.62
  -2  -1   9   73.96    7.44
   2  -1  -9   77.27    6.88
   2  -1  -9   84.42    8.36
   2  -1  -9   74.01    6.48
  -2  -1   9   73.55    7.48
  -2  -1   9   83.38    6.87
   2  -1  -9   76.20    7.43
  -2  -1   9   87.08    8.20
  -2  -1   8   73.19    7.20
   2  -1  -8   68.55    6.96
   2  -1  -8   77.39    7.59
  -2  -1   8   80.71    7.19
  -2  -1   8   69.76    7.52
   2  -1  -8   67.68    6.16
  -2  -1   8   71.41    6.53
   2  -1  -8   71.96    7.35
   2  -1  -8   66.79    7.09
   2  -1  -8   78.44    6.96
  -2  -1   8   75.95    6.66
  -2  -1   8   71.46    5.86
   2  -1  -8   71.93    6.77
  -2  -1   8   71.35    5.15
   2  -1  -8   73.85    7.41
   2  -1  -8   64.31    5.63
  -2  -1   8   85.14    7.40
   2  -1  -8   71.30    7.08
   2  -1  -8   67.25    5.71
  -2  -1   7  246.89   13.54
   2  -1  -7  249.48   11.48
   2  -1  -7  243.62   11.68
   2  -1  -7  257.24   13.68
   2  -1  -7  268.89   13.18
  -2  -1   7  257.13   12.56
  -2  -1   7  234.85   10.90
  -2  -1   7  260.00   13.18
   2  -1  -7  283.15   13.48
  -2  -1   7  246.30   10.67
   2  -1  -7  241.89   11.07
  -2  -1   7  263.26   13.22
  -2  -1   6  116.24    8.47
  -2  -1   6  155.66    9.78
   2  -1  -6  150.99    7.70
   2  -1  -6  138.93    8.48
  -2  -1   6  127.84    8.21
  -2  -1   6  134.28    8.54
  -2  -1   6  144.34    7.08
   2  -1  -6  151.03    8.82
  -2  -1   6  135.75    7.25
   2  -1  -6  143.98    7.23
  -2  -1   6  135.91    8.56
   2  -1  -6  137.16    7.60
   2  -1  -5  875.18   26.83
  -2  -1   5  830.52   27.22
   2  -1  -5  810.55   24.48
   2  -1  -5  792.05   23.35
   2  -1  -5  815.12   25.70
  -2  -1   5  821.73   25.83
  -2  -1   5  783.35   22.69
  -2  -1   5  750.14   25.03
   2  -1  -5  842.33   26.08
  -2  -1   5  781.03   24.20
   2  -1  -5  779.83   23.02
  -2  -1   5  802.93   26.12
   2  -1  -4  566.84   19.33
  -2  -1   4  567.18   19.96
   2  -1  -4  533.45   15.67
   2  -1  -4  593.85   19.06
  -2  -1   4  540.55   18.74
   2  -1  -4  546.50   18.51
  -2  -1   4  555.05   18.06
  -2  -1   4  501.75   17.40
  -2  -1   4  576.15   19.33
   2  -1  -4  522.52   17.42
   2  -1  -3 1007.01   29.80
  -2  -1   3  991.37   29.95
  -2  -1   3  975.10   27.69
   2  -1  -2  202.70    9.17
  -2  -1   2  224.43    9.54
   2  -1  -2  202.41    9.21
  -2  -1   2  206.35    7.46
   2  -1  -2  204.57    8.27
   2  -1  -1  103.13    5.46
   2  -1  -1   96.02    5.92
  -2  -1   1  110.41    5.95
   2  -1  -1  100.87    6.03
  -2  -1   1  108.46    5.23
  -2  -1   1  101.15    5.02
  -2  -1   1  102.06    4.19
   2  -1   0  423.33   14.66
  -2  -1   0  394.34   13.43
  -2  -1   0  390.54   11.02
  -2  -1   0  375.58   13.30
   2  -1   0  428.13   14.93
  -2  -1   0  446.05   13.97
   2  -1   0  411.17   13.71
   2  -1   1  276.39   11.19
   2  -1   1  273.04   11.37
  -2  -1  -1  274.46    9.53
  -2  -1  -1  265.00    9.46
  -2  -1  -1  278.76   10.67
   2  -1   1  265.04   10.45
  -2  -1  -2 1958.13   51.38
   2  -1   2 2120.83   55.89
  -2  -1  -2 2171.41   55.21
  -2  -1  -2 2199.22   55.49
  -2  -1  -2 2077.47   53.31
  -2  -1  -2 2104.81   53.09
  -2  -1  -2 1893.88   53.31
  -2  -1  -2 2143.49   55.22
   2  -1   2 2092.48   54.48
   2  -1   3  137.05    8.10
  -2  -1  -3  160.32    7.93
  -2  -1  -3  150.92    7.97
  -2  -1  -3  141.44    6.06
  -2  -1  -3  152.93    7.25
  -2  -1  -3  145.30    8.04
  -2  -1  -3  133.16    6.84
   2  -1   3  145.02    7.59
   2  -1   4   95.02    6.87
  -2  -1  -4  103.94    6.99
  -2  -1  -4   92.67    6.01
  -2  -1  -4   85.12    6.01
  -2  -1  -4   91.16    5.24
  -2  -1  -4  104.86    6.64
  -2  -1  -4   75.04    4.92
   2  -1   5  473.28   18.75
   2  -1   5  488.23   18.46
  -2  -1  -5  463.52   17.14
  -2  -1  -5  491.94   17.86
  -2  -1  -5  478.43   17.86
  -2  -1  -5  469.65   18.40
   2  -1   5  468.10   16.94
  -2  -1  -5  448.22   16.32
  -2  -1  -5  453.67   18.39
  -2  -1  -5  425.45   14.96
   2  -1   6  699.67   26.07
  -2  -1  -6  704.33   24.95
  -2  -1  -6  768.75   25.27
   2  -1   6  729.34   24.23
  -2  -1  -6  705.52   23.91
  -2  -1  -6  673.52   25.16
   2  -1   6  772.57   26.42
  -2  -1  -6  726.61   25.28
  -2  -1  -6  738.18   26.43
  -2  -1  -6  675.46   21.02
  -2  -1  -6  741.28   26.26
   2  -1   7  431.79   17.57
  -2  -1  -7  422.09   17.79
   2  -1   7  411.73   20.17
   2  -1   7  450.96   19.87
  -2  -1  -7  439.08   18.86
  -2  -1  -7  427.82   18.21
  -2  -1  -7  411.96   17.28
  -2  -1  -7  437.63   18.15
   2  -1   7  440.68   18.24
   2  -1   7  414.28   18.92
   2  -1   7  443.57   20.57
  -2  -1  -7  423.26   18.53
  -2  -1  -7  445.68   19.98
  -2  -1  -7  416.38   18.98
   2  -1   8   85.48    6.86
   2  -1   8   88.38    7.10
   2  -1   8   69.29    7.95
   2  -1   8   68.28    7.40
  -2  -1  -8   80.70    7.25
  -2  -1  -8   69.31    6.79
  -2  -1  -8   72.00    6.52
   2  -1   8   93.65    9.11
  -2  -1  -8   78.41    7.03
   2  -1   8   67.45    6.69
  -2  -1  -8   73.65    7.27
   2  -1   8   76.04    7.61
  -2  -1  -8   85.85    7.78
  -2  -1  -8   67.84    7.59
  -2  -1  -8   79.23    7.78
  -2  -1  -9  108.02    8.60
   2  -1   9  106.08   10.24
   2  -1   9  107.69    9.71
  -2  -1  -9  105.64    8.75
  -2  -1  -9  118.71    8.70
   2  -1   9  120.46   11.03
   2  -1   9  112.46   10.36
   2  -1   9  101.18    8.76
   2  -1   9  107.69    8.38
  -2  -1  -9  105.59    8.97
  -2  -1  -9  109.33    9.60
   2  -1   9  113.59    9.85
  -2  -1  -9  112.35    9.78
  -2  -1  -9  125.91   10.82
  -2  -1  -9   93.20    9.05
  -2  -1 -10  156.35   10.83
   2  -1  10  170.99   13.41
   2  -1  10  174.67   12.88
  -2  -1 -10  138.17    9.45
   2  -1  10  136.91   11.58
  -2  -1 -10  150.84   10.49
   2  -1  10  165.10   13.34
  -2  -1 -10  173.42   11.48
   2  -1  10  152.16   12.75
   2  -1  10  139.66   10.78
  -2  -1 -10  159.75   12.93
   2  -1  10  152.35   10.37
  -2  -1 -10  159.19   11.57
  -2  -1 -10  148.19   11.74
   2  -1  10  180.15   12.85
  -2  -1 -10  157.26   12.31
  -2  -1 -10  144.62   12.59
  -2  -1 -10  155.90   12.15
  -2  -1 -11   18.95    4.51
  -2  -1 -11   17.12    3.72
   2  -1  11   29.09    5.77
  -2  -1 -11   21.77    4.15
   2  -1  11   28.98    5.30
   2  -1  11   18.73    4.15
  -2  -1 -11   23.97    5.23
   2  -1  11   18.38    4.82
  -2  -1 -11   23.68    4.19
   2  -1  11   30.44    5.69
  -2  -1 -11   30.92    5.91
   2  -1  11   26.03    4.10
  -2  -1 -11   24.03    4.67
  -2  -1 -11   29.84    4.99
   2  -1  11   30.60    5.48
  -2  -1 -11   27.60    5.22
  -2  -1 -11   21.73    4.62
  -2  -1 -12  115.96   10.44
  -2  -1 -12   87.93    7.89
   2  -1  12   85.66    9.68
   2  -1  12   94.75    9.59
   2  -1  12  102.14    9.82
  -2  -1 -12   94.91    8.58
   2  -1  12   95.56   10.41
  -2  -1 -12   84.80    8.06
   2  -1  12   97.92   10.07
  -2  -1 -12   83.70    9.72
  -2  -1 -12  102.48    9.45
  -2  -1 -12   77.72    8.04
  -2  -1 -12   85.72    9.19
  -2  -1 -12   85.16    9.92
  -2  -1 -12   98.87    9.01
  -2  -1 -12   83.49    8.78
   2  -1  12   83.87    8.74
  -2  -1 -13    2.33    1.53
   2  -1  13    3.15    2.16
   2  -1  13    3.63    2.39
   2  -1  13    1.91    2.05
  -2  -1 -13    2.15    1.74
  -2  -1 -13    3.49    1.97
  -2  -1 -13    4.30    2.43
  -2  -1 -13    2.59    1.96
  -2  -1 -13    4.88    2.41
  -2  -1 -13    3.53    2.07
   2  -1  13    1.96    1.85
  -2  -1 -14   18.91    2.84
   2  -1  14   14.31    3.56
   2  -1  14   10.10    2.95
   2  -1  14   12.53    3.38
  -2  -1 -14   15.15    3.59
  -2  -1 -14   11.60    3.31
  -2  -1 -14   13.75    2.99
  -2  -1 -14   18.82    3.50
   2  -1  14    9.77    2.43
   2  -1  15   11.05    2.53
   2  -1  15   16.37    3.13
  -2  -1 -15   15.20    2.78
  -2  -1 -15   13.10    2.55
  -2  -1 -16   12.02    1.92
  -2   0  16    0.64    0.88
  -2   0  16    3.47    1.61
   2   0 -16    2.34    1.39
  -2   0  16    0.59    1.26
   2   0 -16    3.07    1.37
   2   0 -15   21.84    2.90
  -2   0  15   24.43    4.40
   2   0 -15   25.22    3.97
  -2   0  15   18.22    3.77
   2   0 -15   26.89    4.10
   2   0 -14  161.15   10.31
  -2   0  14  175.32   12.86
  -2   0  14  176.21   11.03
   2   0 -14  174.69   12.08
   2   0 -14  162.20   11.62
  -2   0  14  172.36   11.53
   2   0 -14  174.94   11.90
   2   0 -13   61.78    7.00
   2   0 -13   63.53    6.91
  -2   0  13   67.18    8.32
  -2   0  13   58.13    7.73
   2   0 -13   71.39    8.22
   2   0 -13   64.60    7.70
  -2   0  13   66.57    7.35
   2   0 -13   74.05    8.14
   2   0 -12  279.84   16.43
   2   0 -12  260.35   15.60
  -2   0  12  272.67   17.79
  -2   0  12  226.65   12.44
  -2   0  12  261.33   15.24
  -2   0  12  266.29   17.12
   2   0 -12  257.99   16.69
  -2   0  12  254.88   13.42
  -2   0  12  236.10   14.17
  -2   0  12  253.24   15.37
   2   0 -12  296.44   17.50
  -2   0  12  269.82   16.15
   2   0 -12  273.19   16.66
   2   0 -11  227.38   14.86
  -2   0  11  232.78   16.00
   2   0 -11  198.28   13.57
  -2   0  11  207.98   13.52
   2   0 -11  205.27   14.67
  -2   0  11  202.47   14.62
  -2   0  11  203.24   12.08
  -2   0  11  203.71   12.05
  -2   0  11  224.27   13.48
  -2   0  11  210.80   13.91
   2   0 -11  223.02   12.86
   2   0 -11  246.23   14.22
   2   0 -11  209.74   14.61
  -2   0  11  228.57   14.44
   2   0 -11  230.48   13.25
  -2   0  11  210.76   13.49
  -2   0  10 1333.39   44.52
   2   0 -10 1336.10   42.56
   2   0 -10 1368.25   46.21
  -2   0  10 1310.93   45.22
  -2   0  10 1468.93   48.41
   2   0 -10 1375.91   45.17
   2   0 -10 1430.30   47.36
  -2   0  10 1239.68   43.37
   2   0 -10 1361.25   46.99
  -2   0  10 1424.96   47.13
   2   0 -10 1219.74   41.22
  -2   0  10 1424.63   42.64
  -2   0  10 1325.62   43.27
  -2   0  10 1410.62   45.23
   2   0 -10 1302.01   42.42
   2   0 -10 1389.88   44.55
  -2   0  10 1412.85   45.36
   2   0 -10 1311.63   43.06
   2   0  -9   18.31    3.33
   2   0  -9   14.88    3.71
  -2   0   9   13.03    3.29
   2   0  -9   11.91    3.28
  -2   0   9   15.53    3.81
   2   0  -9   21.61    4.01
  -2   0   9   15.94    3.54
   2   0  -9   15.20    3.05
  -2   0   9   12.49    3.07
  -2   0   9   13.98    2.91
   2   0  -9   17.50    4.01
   2   0  -9   16.18    3.15
  -2   0   9   12.05    2.79
   2   0  -9   14.77    3.15
   2   0  -9   10.55    2.36
   2   0  -9   14.42    3.56
   2   0  -9   14.33    3.19
  -2   0   9   14.60    3.39
  -2   0   9   22.12    4.00
  -2   0   8   34.06    4.79
   2   0  -8   25.66    3.83
   2   0  -8   31.55    4.89
   2   0  -8   44.30    5.02
   2   0  -8   21.04    4.10
  -2   0   8   34.31    5.26
   2   0  -8   46.20    5.27
  -2   0   8   33.98    3.61
   2   0  -8   33.96    5.04
   2   0  -8   36.52    5.35
   2   0  -8   39.03    4.38
  -2   0   8   38.01    5.20
  -2   0   8   37.87    4.97
  -2   0   8   30.72    4.07
  -2   0   8   37.11    4.29
   2   0  -8   37.66    4.42
  -2   0   8   31.64    4.46
   2   0  -8   33.11    4.97
   2   0  -8   32.26    3.78
  -2   0   8   39.69    4.93
   2   0  -7  251.91   13.69
   2   0  -7  231.57   11.56
  -2   0   7  244.17   12.98
   2   0  -7  238.70   12.13
  -2   0   7  243.90   10.21
   2   0  -7  213.90   12.11
   2   0  -7  246.65   11.30
  -2   0   7  223.25   11.24
  -2   0   7  252.70   12.56
  -2   0   7  254.31   11.71
   2   0  -7  234.22   11.33
  -2   0   7  229.03   12.54
   2   0  -7  232.24   10.31
  -2   0   7  269.52   12.94
   2   0  -6  319.36   13.09
  -2   0   6  339.32   14.59
   2   0  -6  303.92   12.85
  -2   0   6  291.61   10.75
   2   0  -6  303.33   14.37
   2   0  -6  286.51   11.90
   2   0  -6  309.01   12.45
  -2   0   6  334.74   14.02
  -2   0   6  320.75   12.45
  -2   0   6  308.75   10.37
  -2   0   6  308.59   13.79
   2   0  -6  308.28   11.02
  -2   0   6  321.74   13.62
   2   0  -6  309.11   13.58
   2   0  -5   29.43    3.31
  -2   0   5   29.27    3.76
   2   0  -5   27.53    3.31
   2   0  -5   25.71    2.77
  -2   0   5   22.78    2.84
   2   0  -5   28.81    3.18
  -2   0   5   27.47    2.39
   2   0  -5   32.67    4.08
  -2   0   5   31.00    3.04
   2   0  -5   30.84    3.04
  -2   0   5   23.71    2.32
   2   0  -5   24.96    2.18
  -2   0   5   32.85    3.75
  -2   0   5   32.51    3.69
   2   0  -5   32.51    3.55
  -2   0   4  328.51   13.66
   2   0  -4  324.66   12.40
  -2   0   4  316.45   11.01
   2   0  -4  331.25   11.47
  -2   0   4  296.51    9.72
   2   0  -4  326.48   13.19
  -2   0   4  296.74   11.83
   2   0  -4  282.68   10.62
  -2   0   4  340.22   11.13
   2   0  -4  291.77   10.75
  -2   0   4  306.33   10.62
  -2   0   4  338.28   12.82
  -2   0   4  338.86   12.63
   2   0  -4  341.56   12.25
   2   0  -3  759.64   21.55
  -2   0   3  765.82   20.44
   2   0  -3  770.04   22.28
  -2   0   3  737.85   21.15
  -2   0   3  725.04   21.67
  -2   0   3  782.35   23.71
   2   0  -3  745.97   23.15
   2   0  -2   18.66    2.24
  -2   0   2   20.12    1.76
   2   0  -2   17.38    2.30
   2   0  -2   21.53    1.88
  -2   0   2   17.02    1.16
   2   0  -2   18.13    2.38
   2   0  -1  684.48   19.89
   2   0  -1  626.81   19.94
  -2   0   1  623.50   17.68
   2   0  -1  644.19   19.85
   2   0   0    6.69    1.48
   2   0   0    6.95    1.60
  -2   0   0    5.23    0.54
   2   0   0    5.50    1.37
   2   0   1 1456.82   40.33
  -2   0  -1 1448.51   37.26
   2   0   1 1454.57   39.65
   2   0   2 1612.31   43.71
  -2   0  -2 1544.00   41.93
  -2   0  -2 1565.07   41.52
   2   0   2 1579.70   42.84
  -2   0  -3    9.73    1.34
   2   0   3   14.30    2.51
  -2   0  -3   13.40    2.15
  -2   0  -3   13.75    1.90
   2   0   3   10.98    1.90
   2   0   3    9.82    2.04
   2   0   3   10.79    2.08
   2   0   3   14.25    2.30
   2   0   4  229.48   11.15
   2   0   4  258.72   11.10
  -2   0  -4  220.66    9.25
  -2   0  -4  216.58    9.47
  -2   0  -4  238.00   10.17
  -2   0  -4  227.17    8.10
   2   0   4  211.03   10.87
   2   0   4  229.76    9.44
   2   0   4  219.46   10.93
  -2   0  -4  212.73   10.35
  -2   0  -4  197.34    7.90
   2   0   4  223.59   10.21
   2   0   5  427.68   17.53
  -2   0  -5  451.79   17.35
  -2   0  -5  442.06   15.38
  -2   0  -5  420.79   15.96
  -2   0  -5  453.12   13.97
   2   0   5  419.50   17.52
  -2   0  -5  434.60   16.08
   2   0   5  418.59   17.75
  -2   0  -5  451.42   17.19
   2   0   5  419.71   14.94
   2   0   5  431.85   17.55
  -2   0  -5  432.97   16.87
  -2   0  -5  444.46   17.38
   2   0   5  443.89   17.03
   2   0   6  125.36    8.89
  -2   0  -6  125.35    8.40
  -2   0  -6  119.95    7.01
  -2   0  -6  127.36    6.27
   2   0   6  135.67    8.61
  -2   0  -6  129.06    8.00
   2   0   6  131.13    6.91
   2   0   6  133.82    9.27
  -2   0  -6  126.03    8.48
   2   0   6  132.46    9.24
   2   0   6  130.23    8.99
  -2   0  -6  129.87    8.54
  -2   0  -6  123.70    8.72
   2   0   7   74.82    7.23
  -2   0  -7   79.23    6.87
  -2   0  -7   75.68    5.70
  -2   0  -7   73.42    6.07
  -2   0  -7   68.61    4.71
  -2   0  -7   86.68    6.88
   2   0   7   75.08    7.40
   2   0   7   66.82    4.86
  -2   0  -7   75.61    6.87
   2   0   7   69.75    7.05
  -2   0  -7   80.79    7.16
   2   0   7   71.26    7.20
  -2   0  -7   86.82    7.71
   2   0   8    4.59    2.36
  -2   0  -8    2.71    1.63
   2   0   8    4.79    2.19
   2   0   8    4.13    2.21
  -2   0  -8    5.34    1.61
   2   0   8    6.31    2.62
  -2   0  -8    6.23    2.01
   2   0   8    3.75    2.03
   2   0   8    5.00    1.81
  -2   0  -8    7.90    2.55
  -2   0  -8    6.29    2.34
  -2   0  -8    5.87    2.43
   2   0   8    3.38    2.03
   2   0   8    4.55    2.34
   2   0   8    4.72    2.39
  -2   0  -8    3.78    1.95
  -2   0  -8    2.53    1.92
  -2   0  -9  204.49   11.55
   2   0   9  219.40   14.10
   2   0   9  197.67   14.01
  -2   0  -9  212.83   12.98
  -2   0  -9  201.71   10.87
   2   0   9  205.57   14.47
   2   0   9  198.49   13.29
  -2   0  -9  190.79   11.23
   2   0   9  201.25   13.81
   2   0   9  169.80   11.12
  -2   0  -9  197.62   13.67
   2   0   9  173.05   11.94
  -2   0  -9  206.07   13.25
   2   0   9  213.60   14.69
   2   0   9  203.46   13.60
  -2   0  -9  209.69   13.43
  -2   0  -9  201.14   13.86
  -2   0  -9  203.09   13.35
  -2   0 -10  361.87   16.81
   2   0  10  350.63   19.55
   2   0  10  410.50   21.53
   2   0  10  342.80   20.39
   2   0  10  372.46   19.42
  -2   0 -10  372.91   18.74
   2   0  10  381.68   21.35
   2   0  10  352.41   20.02
  -2   0 -10  362.90   17.00
   2   0  10  324.70   16.93
  -2   0 -10  347.08   19.91
  -2   0 -10  372.82   19.50
  -2   0 -10  380.24   19.78
   2   0  10  403.69   20.65
  -2   0 -10  365.63   20.58
  -2   0 -10  345.87   19.04
  -2   0 -10  359.04   17.00
   2   0  10  405.07   19.18
  -2   0 -11  412.89   18.41
   2   0  11  453.97   23.52
   2   0  11  415.29   22.20
   2   0  11  369.63   20.30
  -2   0 -11  427.42   20.77
   2   0  11  409.85   22.88
  -2   0 -11  422.10   18.86
  -2   0 -11  407.75   22.72
   2   0  11  431.24   20.45
  -2   0 -11  425.24   21.93
  -2   0 -11  427.72   21.19
   2   0  11  455.71   24.00
   2   0  11  435.71   22.55
  -2   0 -11  419.78   21.77
  -2   0 -11  444.11   23.45
  -2   0 -12  103.37    7.95
   2   0  12  111.66   11.02
   2   0  12  138.27   11.76
   2   0  12  106.76    9.51
   2   0  12  111.32   11.22
  -2   0 -12  112.16   11.13
  -2   0 -12  105.30   10.26
  -2   0 -12  111.33   10.58
   2   0  12  109.77    9.29
  -2   0 -12  103.01   10.75
  -2   0 -12  110.76    9.55
  -2   0 -12  115.60   10.42
   2   0  12  113.87   10.60
  -2   0 -12  105.70    9.83
  -2   0 -13  307.54   13.69
  -2   0 -13  323.49   17.70
   2   0  13  346.49   18.81
   2   0  13  322.12   19.24
   2   0  13  341.36   16.35
  -2   0 -13  341.31   18.64
   2   0  13  322.74   18.77
  -2   0 -13  311.84   18.25
  -2   0 -13  328.16   17.41
  -2   0 -13  326.66   17.04
   2   0  13  322.48   17.23
   2   0  14   77.47    8.06
   2   0  14   87.13    8.19
  -2   0 -14   75.32    7.74
  -2   0 -14   67.63    7.48
  -2   0 -14   92.81    7.69
   2   0  14   65.01    6.20
   2   0  15  165.48   10.37
  -2   0 -15  177.96    9.21
  -2   0 -15  176.17    9.80
  -2   0 -16  116.23    6.23
  -2   1  16   13.76    2.61
   2   1 -16    9.59    1.89
  -2   1  16   12.47    2.42
   2   1 -16   10.32    1.97
  -2   1  15   19.84    3.93
  -2   1  15   23.52    3.90
   2   1 -15   18.93    3.36
   2   1 -15   19.17    3.42
   2   1 -15   23.64    3.56
   2   1 -14   24.84    3.31
   2   1 -14   27.09    4.47
  -2   1  14   27.88    5.00
  -2   1  14   28.79    4.76
  -2   1  14   23.37    4.16
   2   1 -14   23.17    4.35
   2   1 -14   17.81    3.80
   2   1 -13   99.62    8.01
   2   1 -13   93.39    8.96
  -2   1  13   95.77    8.75
  -2   1  13   88.00    8.21
  -2   1  13  103.86    9.63
  -2   1  13   91.78    9.77
  -2   1  13   93.55    9.66
   2   1 -13   97.07    9.33
   2   1 -13   90.68    8.86
   2   1 -13  105.91    9.73
   2   1 -12   53.63    6.26
   2   1 -12   52.96    7.04
  -2   1  12   53.43    7.26
  -2   1  12   47.09    7.31
  -2   1  12   58.49    6.95
   2   1 -12   62.05    7.44
   2   1 -12   60.51    7.69
  -2   1  12   58.04    6.18
  -2   1  12   47.68    7.03
  -2   1  12   44.78    6.14
  -2   1  12   55.38    6.72
   2   1 -12   51.70    7.27
   2   1 -12   54.03    6.53
  -2   1  11  393.95   20.00
   2   1 -11  464.72   21.55
   2   1 -11  487.21   23.39
  -2   1  11  495.49   23.37
  -2   1  11  457.28   23.86
   2   1 -11  490.37   23.63
   2   1 -11  461.34   23.51
  -2   1  11  456.24   21.95
   2   1 -11  470.73   22.46
   2   1 -11  448.14   23.15
  -2   1  11  507.72   24.25
  -2   1  11  445.85   20.60
  -2   1  11  453.77   21.60
  -2   1  11  475.51   21.76
   2   1 -11  506.93   24.19
   2   1 -11  510.58   22.66
  -2   1  10  818.22   30.65
   2   1 -10  783.51   30.64
   2   1 -10  785.41   32.01
  -2   1  10  780.66   30.18
  -2   1  10  814.21   33.54
   2   1 -10  782.28   31.98
   2   1 -10  819.78   32.80
   2   1 -10  819.87   31.15
   2   1 -10  817.25   33.18
  -2   1  10  797.64   26.92
  -2   1  10  764.50   32.02
  -2   1  10  800.48   30.45
   2   1 -10  824.66   31.58
  -2   1  10  764.94   30.45
   2   1 -10  838.53   33.12
  -2   1  10  838.47   31.09
   2   1 -10  895.71   31.95
   2   1  -9   70.65    7.29
  -2   1   9   72.83    7.29
   2   1  -9   75.42    7.90
   2   1  -9   80.27    8.06
  -2   1   9   77.86    7.87
   2   1  -9   93.05    8.66
  -2   1   9   78.40    6.77
  -2   1   9   81.06    7.73
   2   1  -9   84.32    8.53
   2   1  -9   76.74    8.19
  -2   1   9   81.33    6.20
  -2   1   9   77.23    7.34
  -2   1   9   89.27    8.56
  -2   1   9   81.30    7.50
   2   1  -9   84.24    8.03
   2   1  -9   75.02    8.07
   2   1  -9   71.96    6.16
  -2   1   9   70.76    7.07
   2   1  -9   77.41    7.60
   2   1  -8   69.11    5.25
   2   1  -8   73.24    7.18
  -2   1   8   81.65    7.46
   2   1  -8   70.07    7.34
   2   1  -8   68.32    6.98
   2   1  -8   66.45    5.21
  -2   1   8   81.46    7.47
   2   1  -8   77.04    5.26
   2   1  -8   82.18    7.64
  -2   1   8   66.38    5.78
   2   1  -8   70.90    7.33
   2   1  -8   73.21    6.82
   2   1  -8   69.93    7.46
  -2   1   8   79.18    6.95
  -2   1   8   67.59    6.48
   2   1  -8   69.07    5.41
  -2   1   8   68.33    7.06
   2   1  -8   68.66    6.97
   2   1  -8   84.84    8.06
   2   1  -8   62.57    5.37
  -2   1   8   68.79    6.53
  -2   1   8   79.60    7.18
  -2   1   8   72.83    5.61
   2   1  -8   77.62    7.23
   2   1  -7  237.81   10.34
  -2   1   7  249.66   13.28
  -2   1   7  247.00   10.92
   2   1  -7  262.74   13.66
   2   1  -7  217.86   10.11
  -2   1   7  256.30   12.89
   2   1  -7  265.58   13.66
   2   1  -7  256.21   10.84
  -2   1   7  238.06   11.28
   2   1  -7  247.65   13.67
  -2   1   7  258.29   13.19
   2   1  -7  270.49   12.94
  -2   1   7  250.53   12.49
  -2   1   7  255.70   12.52
   2   1  -7  226.86   10.30
  -2   1   7  251.78   13.53
   2   1  -7  238.35   10.61
  -2   1   7  259.06   12.61
   2   1  -7  269.07   13.53
   2   1  -6  134.16    6.83
  -2   1   6  142.97    9.28
   2   1  -6  149.88    9.42
  -2   1   6  134.13    8.20
   2   1  -6  140.05    6.90
  -2   1   6  138.49    8.33
   2   1  -6  139.74    8.98
   2   1  -6  138.00    7.45
  -2   1   6  141.24    7.72
   2   1  -6  150.60    8.50
  -2   1   6  141.25    7.39
   2   1  -6  141.86    9.22
  -2   1   6  156.51    8.77
  -2   1   6  134.79    8.10
   2   1  -6  139.33    6.87
  -2   1   6  134.69    9.24
   2   1  -6  143.93    9.01
   2   1  -5  766.60   22.96
   2   1  -5  722.46   22.58
  -2   1   5  829.62   25.30
   2   1  -5  847.60   24.74
  -2   1   5  803.36   24.40
   2   1  -5  840.39   24.95
  -2   1   5  795.97   25.18
   2   1  -5  779.32   22.43
   2   1  -5  811.75   26.78
  -2   1   5  774.89   23.78
  -2   1   5  804.75   25.44
   2   1  -5  829.66   26.52
  -2   1   5  868.01   27.01
  -2   1   5  804.74   25.50
   2   1  -4  529.16   16.57
  -2   1   4  569.66   19.79
  -2   1   4  595.75   17.90
   2   1  -4  532.91   16.37
  -2   1   4  557.01   17.85
  -2   1   4  537.31   17.79
   2   1  -4  539.14   17.37
   2   1  -4  577.45   19.74
  -2   1   4  566.75   18.63
   2   1  -4  551.99   15.53
  -2   1   4  610.85   19.19
   2   1  -4  585.49   19.81
   2   1  -3  895.19   24.83
   2   1  -3  949.61   24.79
  -2   1   3  944.08   25.48
   2   1  -3  926.60   26.81
  -2   1   3  959.58   26.49
   2   1  -3  998.88   27.66
   2   1  -3  841.67   22.60
   2   1  -3  948.16   28.05
  -2   1   3 1027.45   27.59
   2   1  -3  926.66   24.97
   2   1  -2  191.60    7.26
   2   1  -2  205.41    9.21
   2   1  -2  206.29    7.24
   2   1  -2  191.83    8.53
  -2   1   2  188.66    6.98
   2   1  -2  185.82    9.15
  -2   1   2  180.67    5.57
   2   1  -2  218.15    7.99
   2   1  -1  102.69    4.85
  -2   1   1   92.60    4.11
   2   1  -1  104.53    6.09
   2   1  -1  100.83    5.29
   2   1  -1  112.59    6.27
   2   1   0  412.43   14.43
   2   1   0  432.03   14.29
   2   1   0  394.19   14.54
   2   1   1  254.09   10.37
   2   1   1  246.34    7.66
  -2   1  -1  264.30    8.12
   2   1   1  273.67   10.85
   2   1   1  276.29   10.89
   2   1   1  275.01   10.41
   2   1   2 2067.74   54.17
   2   1   2 2037.87   55.32
  -2   1  -2 2165.38   53.13
   2   1   2 2092.62   52.92
   2   1   2 2097.88   55.53
  -2   1  -2 2048.24   53.21
   2   1   2 2076.72   55.66
   2   1   2 2127.45   55.64
   2   1   2 2044.57   56.16
   2   1   3  152.20    7.64
   2   1   3  140.41    7.79
  -2   1  -3  144.04    6.04
   2   1   3  148.05    6.94
   2   1   3  153.67    8.22
   2   1   3  156.58    8.48
   2   1   3  148.20    7.75
   2   1   3  157.76    6.99
   2   1   3  145.48    7.77
   2   1   4   98.70    6.76
  -2   1  -4   94.30    4.69
  -2   1  -4   92.96    5.51
   2   1   4   89.70    6.00
   2   1   4   91.68    6.65
  -2   1  -4   96.83    5.75
   2   1   4   85.20    6.54
   2   1   4   99.37    5.07
  -2   1  -4   93.48    6.40
   2   1   4   96.57    6.29
   2   1   4  106.92    7.12
   2   1   5  495.61   18.48
   2   1   5  467.00   18.44
  -2   1  -5  477.87   18.01
  -2   1  -5  416.86   14.07
   2   1   5  457.50   16.44
  -2   1  -5  431.01   15.47
   2   1   5  465.81   18.32
  -2   1  -5  472.06   16.13
   2   1   5  458.60   18.61
   2   1   5  443.81   17.80
  -2   1  -5  471.72   18.10
   2   1   5  471.60   17.31
   2   1   5  436.73   13.81
   2   1   6  729.87   26.32
   2   1   6  721.54   26.03
  -2   1  -6  768.58   25.85
  -2   1  -6  711.26   21.31
  -2   1  -6  685.15   22.70
   2   1   6  706.30   24.24
   2   1   6  717.87   26.20
  -2   1  -6  729.66   23.21
   2   1   6  720.71   26.01
   2   1   6  702.51   26.49
   2   1   6  698.48   23.93
   2   1   6  763.56   26.77
  -2   1  -6  746.17   26.25
   2   1   7  437.92   19.31
   2   1   7  440.56   19.61
  -2   1  -7  454.03   18.99
  -2   1  -7  400.05   14.45
  -2   1  -7  422.13   16.06
   2   1   7  438.83   17.04
   2   1   7  431.15   18.13
  -2   1  -7  432.06   16.46
   2   1   7  413.26   19.57
  -2   1  -7  458.95   19.65
   2   1   7  420.39   19.35
   2   1   7  430.66   19.53
  -2   1  -7  435.19   19.16
  -2   1  -7  449.10   19.82
   2   1   8   79.30    7.90
   2   1   8   80.04    8.13
   2   1   8   76.27    7.61
   2   1   8   86.58    8.20
  -2   1  -8   84.29    7.65
   2   1   8   70.10    7.82
   2   1   8   79.66    8.12
  -2   1  -8   71.88    5.83
   2   1   8   71.71    7.01
   2   1   8   74.38    7.39
  -2   1  -8   69.56    7.41
   2   1   8   80.03    7.16
  -2   1  -8   79.04    6.25
  -2   1  -8   69.99    7.03
   2   1   8   82.58    8.28
   2   1   8   72.70    6.04
  -2   1  -8   74.13    7.47
  -2   1  -8   65.91    7.11
   2   1   8   79.99    8.01
   2   1   8   75.56    7.64
  -2   1  -8   58.42    7.11
   2   1   9  120.02   10.25
   2   1   9  120.69   10.65
  -2   1  -9  110.88    7.80
   2   1   9  107.63    9.45
   2   1   9  113.81    9.78
  -2   1  -9  107.78    9.21
   2   1   9   98.19    9.76
  -2   1  -9  105.19    7.37
   2   1   9  103.30    9.06
   2   1   9  111.30    9.67
  -2   1  -9  112.15   10.08
  -2   1  -9  115.62    9.58
   2   1   9  112.45   10.53
  -2   1  -9  103.22    8.27
  -2   1  -9  100.91    9.37
   2   1   9   97.04    9.65
   2   1   9  127.28   10.99
   2   1   9  118.56   10.21
  -2   1  -9  116.14   10.46
  -2   1  -9  120.59    9.99
   2   1   9  112.08    7.60
   2   1  10  154.58   12.11
   2   1  10  178.17   13.18
   2   1  10  179.37   13.54
  -2   1 -10  167.10   12.03
   2   1  10  180.40   13.76
   2   1  10  168.14   12.32
   2   1  10  171.57   12.62
  -2   1 -10  149.69   12.65
  -2   1 -10  154.61    9.67
   2   1  10  150.48   12.62
  -2   1 -10  145.27   10.55
  -2   1 -10  164.07   11.14
  -2   1 -10  170.42   12.57
   2   1  10  154.16   12.99
   2   1  10  150.92   12.30
  -2   1 -10  165.95   12.08
  -2   1 -10  169.29   13.33
  -2   1 -10  170.53   12.48
   2   1  11   29.80    5.11
   2   1  11   30.20    5.65
  -2   1 -11   18.06    3.98
   2   1  11   16.19    4.18
   2   1  11   23.47    4.74
   2   1  11   29.65    5.76
   2   1  11   25.41    5.00
  -2   1 -11   21.27    5.12
  -2   1 -11   21.17    4.74
  -2   1 -11   23.84    4.22
  -2   1 -11   26.35    4.89
  -2   1 -11   21.45    3.94
   2   1  11   26.91    5.29
  -2   1 -11   31.82    5.57
   2   1  11   15.52    4.49
  -2   1 -11   20.49    4.42
   2   1  12  100.81   10.27
   2   1  12   86.11    9.22
   2   1  12   82.57    8.45
  -2   1 -12   94.35    9.08
   2   1  12   95.90   10.17
   2   1  12   93.41    9.26
   2   1  12   89.60    8.86
  -2   1 -12   80.54    7.63
  -2   1 -12  100.53    9.73
   2   1  12  106.08   10.84
  -2   1 -12   90.77    9.30
  -2   1 -12   77.51    9.46
  -2   1 -12   98.65    8.66
  -2   1 -12   75.49    8.50
   2   1  13    5.78    2.93
   2   1  13    1.84    1.98
   2   1  13    5.08    2.17
   2   1  13    4.03    2.66
   2   1  13    2.07    1.77
  -2   1 -13    5.29    2.51
  -2   1 -13    4.27    2.23
  -2   1 -13    6.63    2.75
  -2   1 -13    3.81    1.81
   2   1  14   11.19    2.77
   2   1  14   16.01    3.91
  -2   1 -14   14.22    2.84
   2   1  14   17.07    3.65
   2   1  14    7.92    2.83
  -2   1 -14   11.82    3.17
  -2   1 -14   11.97    3.18
  -2   1 -14   15.06    3.08
  -2   1 -14   18.05    3.50
  -2   1 -15   13.51    2.49
   2   1  15   15.57    3.15
  -2   1 -15   11.25    1.87
  -2   1 -15   14.46    2.62
   2   1  16    6.77    1.70
  -2   1 -16    9.40    1.47
  -2   2  16  212.32    9.29
  -2   2  16  205.23    9.49
   2   2 -16  215.18    8.87
  -2   2  15   44.44    5.03
  -2   2  15   44.01    5.30
   2   2 -15   56.68    5.17
   2   2 -15   42.55    4.52
   2   2 -15   39.72    4.55
   2   2 -14   57.97    6.36
  -2   2  14   61.02    6.71
  -2   2  14   61.71    7.13
  -2   2  14   48.06    5.80
   2   2 -14   56.60    6.20
   2   2 -14   59.32    6.12
   2   2 -14   58.46    6.24
  -2   2  13   41.81    5.67
   2   2 -13   41.06    5.85
   2   2 -13   43.10    5.80
  -2   2  13   47.00    6.73
  -2   2  13   36.20    5.73
  -2   2  13   39.63    5.71
   2   2 -13   44.52    6.11
   2   2 -13   34.90    5.10
  -2   2  13   38.76    6.10
  -2   2  13   37.56    4.92
  -2   2  13   53.81    6.04
   2   2 -13   39.25    5.65
   2   2 -12  146.41    9.46
   2   2 -12  167.66   12.67
   2   2 -12  154.85   12.10
  -2   2  12  128.42    9.37
  -2   2  12  133.51   11.57
  -2   2  12  158.62   12.93
   2   2 -12  134.82   11.88
   2   2 -12  127.96   11.65
  -2   2  12  161.97   11.15
  -2   2  12  145.52   12.26
   2   2 -12  148.80   11.18
  -2   2  12  139.92   11.28
  -2   2  12  156.96   11.08
   2   2 -12  154.78   11.78
   2   2 -12  147.09   11.75
  -2   2  12  144.01   11.31
   2   2 -12  137.99   11.23
   2   2 -11 1184.17   39.64
   2   2 -11 1275.93   44.56
  -2   2  11 1175.57   39.85
  -2   2  11 1311.06   46.33
   2   2 -11 1185.74   44.65
  -2   2  11 1240.03   43.02
   2   2 -11 1150.08   41.30
   2   2 -11 1238.15   44.25
  -2   2  11 1289.33   45.38
  -2   2  11 1259.36   43.26
   2   2 -11 1330.07   44.57
   2   2 -11 1245.37   44.29
   2   2 -11 1241.74   44.79
  -2   2  11 1231.65   41.86
  -2   2  11 1235.58   41.51
   2   2 -10  100.79    8.36
  -2   2  10   73.02    7.48
   2   2 -10  109.66   10.16
  -2   2  10   88.84    7.89
  -2   2  10   75.00    8.57
   2   2 -10   90.17    9.58
  -2   2  10   75.08    7.58
   2   2 -10   78.19    8.87
  -2   2  10   94.87    8.91
   2   2 -10   76.36    7.72
   2   2 -10   84.27    9.01
  -2   2  10   87.43    8.35
   2   2 -10   81.64    7.17
  -2   2  10   82.86    7.75
  -2   2  10   93.22    8.92
  -2   2  10   78.31    8.83
   2   2 -10   89.82    8.97
   2   2 -10   96.86    9.38
  -2   2  10  101.44    8.76
   2   2 -10   85.84    8.80
   2   2  -9  467.94   20.66
  -2   2   9  517.52   22.05
   2   2  -9  520.40   23.72
   2   2  -9  481.90   22.87
  -2   2   9  484.93   20.76
  -2   2   9  471.26   21.49
   2   2  -9  511.08   23.48
  -2   2   9  474.77   22.51
   2   2  -9  504.07   23.91
  -2   2   9  498.84   21.23
   2   2  -9  453.34   18.55
  -2   2   9  493.35   22.03
   2   2  -9  514.36   23.62
   2   2  -9  503.35   20.69
  -2   2   9  484.47   20.82
  -2   2   9  473.47   23.03
   2   2  -9  498.08   21.31
   2   2  -9  492.04   22.93
   2   2  -9  495.00   23.09
   2   2  -9  462.48   19.06
  -2   2   9  495.55   21.02
   2   2  -9  502.18   22.94
  -2   2   9  493.20   22.32
   2   2  -8  309.86   15.52
   2   2  -8  336.15   17.37
   2   2  -8  311.18   17.02
  -2   2   8  313.49   16.39
   2   2  -8  294.21   14.25
  -2   2   8  335.27   16.81
  -2   2   8  355.58   16.03
   2   2  -8  336.00   17.39
   2   2  -8  329.46   14.59
   2   2  -8  295.77   14.89
   2   2  -8  295.76   16.80
   2   2  -8  317.30   15.44
  -2   2   8  305.42   14.89
   2   2  -8  370.14   18.19
   2   2  -8  307.20   16.73
  -2   2   8  314.77   17.09
   2   2  -8  301.45   13.80
  -2   2   8  313.52   15.07
   2   2  -8  326.26   17.03
  -2   2   7  335.64   15.97
   2   2  -7  384.58   17.72
   2   2  -7  365.76   17.46
   2   2  -7  341.00   16.95
   2   2  -7  355.96   15.31
   2   2  -7  344.04   14.82
  -2   2   7  325.39   16.05
  -2   2   7  365.10   15.88
   2   2  -7  337.67   17.19
   2   2  -7  361.63   15.23
  -2   2   7  340.48   15.11
   2   2  -7  344.84   17.18
   2   2  -7  318.40   13.72
  -2   2   7  345.44   17.24
  -2   2   7  330.83   14.96
   2   2  -7  346.67   16.85
   2   2  -6   52.44    4.78
  -2   2   6   51.04    5.18
   2   2  -6   47.21    5.63
  -2   2   6   51.23    5.04
   2   2  -6   47.27    5.39
  -2   2   6   51.15    5.23
   2   2  -6   43.29    4.28
   2   2  -6   41.16    4.50
  -2   2   6   53.95    4.91
   2   2  -6   45.66    4.03
  -2   2   6   53.82    4.84
   2   2  -6   47.23    5.32
  -2   2   6   46.40    5.33
  -2   2   5  374.85   16.55
   2   2  -5  408.20   14.95
  -2   2   5  374.38   15.26
   2   2  -5  340.47   15.96
  -2   2   5  338.32   14.74
   2   2  -5  380.95   15.28
   2   2  -5  380.90   15.96
  -2   2   5  369.89   12.11
   2   2  -5  354.07   13.20
  -2   2   5  387.68   14.67
  -2   2   5  395.04   14.60
   2   2  -5  360.28   13.58
   2   2  -5  375.72   16.26
   2   2  -5  379.24   12.23
   2   2  -4  570.42   19.59
   2   2  -4  545.37   18.35
  -2   2   4  496.24   18.44
   2   2  -4  602.56   21.09
   2   2  -4  564.89   19.71
   2   2  -4  500.34   16.56
  -2   2   4  548.78   16.20
   2   2  -4  524.56   20.01
  -2   2   4  540.87   18.15
  -2   2   4  569.85   18.32
   2   2  -4  543.89   20.24
   2   2  -4  564.17   17.16
  -2   2   3   58.44    3.67
   2   2  -3   66.62    4.72
  -2   2   3   67.44    4.76
   2   2  -3   70.26    5.70
  -2   2   3   68.63    5.31
   2   2  -3   62.26    5.07
   2   2  -3   72.56    5.59
  -2   2   3   64.98    4.45
   2   2  -3   67.57    5.44
   2   2  -3   67.38    4.46
  -2   2   2   83.08    5.14
   2   2  -2   71.98    5.60
   2   2  -2   80.28    5.63
   2   2  -2   84.85    5.17
   2   2  -2   79.44    5.85
  -2   2   2   82.64    4.88
   2   2  -2   94.76    6.23
   2   2  -1   27.05    2.49
  -2   2   1   27.71    1.99
   2   2  -1   26.99    3.21
   2   2  -1   28.43    2.18
  -2   2   1   27.99    2.83
   2   2  -1   29.72    2.77
   2   2  -1   23.23    2.39
   2   2  -1   31.51    3.44
   2   2  -1   30.39    3.42
   2   2  -1   23.93    2.80
   2   2   0  110.89    6.23
   2   2   0  104.07    5.50
   2   2   0  117.82    6.78
   2   2   0  108.40    6.28
  -2   2   0  109.57    5.39
   2   2   0  112.83    4.85
   2   2   0  125.97    7.00
   2   2   0  107.90    6.65
   2   2   0  117.55    6.59
   2   2   1  185.48    8.23
   2   2   1  203.50    9.34
   2   2   1  216.09    9.61
   2   2   1  203.90    7.63
  -2   2  -1  185.03    6.20
   2   2   1  212.64    8.15
   2   2   1  194.33    9.12
   2   2   1  198.59    9.63
   2   2   1  196.03    9.33
   2   2   1  215.10    9.66
   2   2   2  478.75   16.04
  -2   2  -2  404.68   12.04
   2   2   2  485.36   16.37
   2   2   2  490.56   15.14
  -2   2  -2  473.86   14.39
   2   2   2  465.88   15.77
   2   2   2  480.29   16.97
   2   2   2  496.70   17.40
   2   2   2  457.08   14.66
   2   2   2  490.46   17.69
   2   2   2  487.36   16.68
   2   2   2  485.20   17.10
   2   2   3   30.13    3.39
  -2   2  -3   34.97    3.65
  -2   2  -3   36.05    2.82
   2   2   3   31.76    3.25
  -2   2  -3   34.35    3.23
   2   2   3   28.64    3.70
   2   2   3   33.86    4.06
   2   2   3   30.57    3.80
   2   2   3   35.37    3.94
   2   2   3   30.31    3.28
   2   2   3   37.30    3.47
   2   2   3   28.00    3.28
   2   2   3   35.62    3.94
   2   2   4   69.01    5.55
  -2   2  -4   63.10    5.28
  -2   2  -4   66.26    3.98
   2   2   4   69.27    5.33
  -2   2  -4   60.20    4.95
   2   2   4   63.61    5.52
   2   2   4   71.75    6.05
   2   2   4   62.49    5.85
   2   2   4   73.52    5.98
   2   2   4   70.22    6.03
   2   2   4   70.03    5.44
   2   2   4   52.21    4.69
   2   2   4   75.30    5.07
  -2   2  -5   47.22    4.87
   2   2   5   50.56    3.93
  -2   2  -5   48.05    3.45
   2   2   5   44.89    4.77
  -2   2  -5   47.92    4.89
   2   2   5   53.67    5.59
   2   2   5   46.82    5.22
   2   2   5   46.07    5.37
   2   2   5   52.12    5.13
   2   2   5   52.99    4.16
   2   2   5   54.86    5.22
  -2   2  -5   52.41    5.38
   2   2   5   50.03    5.45
  -2   2  -6  136.04    9.00
  -2   2  -6  136.78    6.47
   2   2   6  131.61    7.58
   2   2   6  128.38    8.92
  -2   2  -6  134.97    9.28
   2   2   6  145.48    9.95
   2   2   6  130.27    9.53
  -2   2  -6  146.80    8.74
   2   2   6  132.87    9.62
  -2   2  -6  126.47    9.04
   2   2   6  124.82    6.58
  -2   2  -6  132.14    9.47
   2   2   6  130.77    9.54
   2   2   7  988.78   33.77
   2   2   7  990.04   34.94
   2   2   7 1001.99   34.90
  -2   2  -7  992.45   33.36
   2   2   7  979.68   35.09
  -2   2  -7  944.41   27.63
  -2   2  -7 1010.41   33.78
   2   2   7  940.76   30.86
  -2   2  -7  975.02   34.17
   2   2   7  980.09   34.96
   2   2   7 1036.37   34.90
  -2   2  -7  997.18   31.99
   2   2   7  927.05   32.56
   2   2   7 1010.55   34.89
  -2   2  -7 1000.90   33.89
   2   2   7  964.20   34.94
   2   2   7  911.91   31.93
   2   2   7  882.92   33.35
   2   2   7  977.09   35.46
  -2   2  -7  979.99   34.67
   2   2   8  718.95   28.09
   2   2   8  715.59   28.99
   2   2   8  728.58   28.79
  -2   2  -8  696.31   27.28
   2   2   8  705.80   29.14
  -2   2  -8  706.77   27.90
   2   2   8  684.11   26.60
   2   2   8  651.53   25.08
  -2   2  -8  670.35   28.07
   2   2   8  688.51   28.27
   2   2   8  675.68   26.13
  -2   2  -8  703.81   25.71
   2   2   8  719.10   29.09
   2   2   8  715.70   29.20
   2   2   8  709.95   26.29
   2   2   8  709.52   28.49
   2   2   8  708.84   29.50
  -2   2  -8  659.92   28.36
  -2   2  -8  720.17   28.35
  -2   2  -8  780.46   29.08
  -2   2  -8  758.69   27.71
   2   2   9   82.84    7.30
   2   2   9   91.63    8.82
   2   2   9   66.78    8.00
  -2   2  -9   71.84    7.33
   2   2   9   72.33    8.01
  -2   2  -9   78.19    7.96
   2   2   9   80.07    8.83
   2   2   9   77.36    7.20
   2   2   9   65.59    7.21
   2   2   9   84.90    8.76
   2   2   9   67.81    6.87
  -2   2  -9   77.61    7.06
   2   2   9   78.20    8.42
   2   2   9   84.29    8.98
  -2   2  -9   84.17    8.47
  -2   2  -9   89.81    8.78
   2   2   9   63.78    7.90
   2   2   9   83.69    9.12
  -2   2  -9   70.01    6.45
  -2   2  -9   89.04    8.68
  -2   2  -9   90.83    9.25
  -2   2 -10   46.03    5.65
   2   2  10   57.80    7.25
   2   2  10   60.73    7.86
  -2   2 -10   49.10    6.75
   2   2  10   55.54    7.26
  -2   2 -10   51.92    6.35
  -2   2 -10   59.51    7.11
   2   2  10   59.80    8.06
   2   2  10   55.02    6.81
   2   2  10   49.87    7.09
  -2   2 -10   60.41    7.75
  -2   2 -10   64.02    7.58
   2   2  10   46.58    7.19
   2   2  10   79.44    9.02
  -2   2 -10   57.16    5.92
  -2   2 -10   54.80    7.12
   2   2  10   60.90    7.84
   2   2  10   51.39    5.75
  -2   2 -10   57.06    7.74
   2   2  11   38.88    5.99
   2   2  11   38.24    6.44
  -2   2 -11   32.67    5.39
   2   2  11   25.61    5.38
  -2   2 -11   18.90    4.66
  -2   2 -11   28.73    4.30
   2   2  11   30.07    5.47
  -2   2 -11   22.21    4.62
  -2   2 -11   25.69    4.05
  -2   2 -11   24.80    4.91
   2   2  11   23.11    5.32
  -2   2 -11   34.24    5.60
   2   2  11   24.98    5.19
  -2   2 -11   31.54    4.81
  -2   2 -11   29.59    5.88
  -2   2 -11   32.23    5.13
   2   2  12   35.49    5.92
   2   2  12   29.51    5.26
   2   2  12   27.54    4.80
   2   2  12   33.23    5.86
   2   2  12   44.73    6.30
  -2   2 -12   27.13    5.07
  -2   2 -12   28.13    5.08
  -2   2 -12   25.07    5.00
   2   2  12   34.25    6.11
  -2   2 -12   33.06    4.83
  -2   2 -12   28.05    4.04
   2   2  13   98.48    9.38
   2   2  13   88.48    8.61
   2   2  13   70.98    7.16
   2   2  13  114.50   10.39
  -2   2 -13   89.35    6.64
  -2   2 -13   88.00    8.61
   2   2  13   78.52    8.79
  -2   2 -13   83.44    8.52
  -2   2 -13   99.70    7.94
  -2   2 -13   79.40    8.19
   2   2  14   65.32    6.93
   2   2  14   45.46    4.58
   2   2  14   66.32    7.32
  -2   2 -14   55.75    5.28
  -2   2 -14   62.80    6.12
   2   2  15    0.35    1.14
   2   2  15    1.50    1.42
  -2   2 -15    0.77    0.73
  -2   2 -15   -0.28    0.90
   2   2  16    3.30    1.12
  -2   2 -16    3.37    0.99
  -2   3  15   81.13    6.23
  -2   3  15   80.24    6.50
   2   3 -15   79.42    5.58
   2   3 -15   64.32    4.49
   2   3 -15   83.96    5.99
   2   3 -14   13.16    2.94
  -2   3  14    9.16    2.76
  -2   3  14    9.22    2.80
   2   3 -14   11.88    2.63
   2   3 -14   11.51    2.52
   2   3 -14   13.01    2.96
   2   3 -13   77.53    7.68
  -2   3  13   71.15    6.03
  -2   3  13   73.28    7.63
  -2   3  13   62.61    7.57
  -2   3  13   65.24    6.49
  -2   3  13   65.62    7.05
   2   3 -13   72.35    7.44
   2   3 -13   59.72    6.51
  -2   3  13   74.33    7.45
   2   3 -12   48.42    6.46
   2   3 -12   39.35    6.43
  -2   3  12   51.94    5.82
  -2   3  12   55.78    7.22
  -2   3  12   49.25    6.94
  -2   3  12   56.59    6.81
   2   3 -12   39.95    5.25
  -2   3  12   43.69    6.59
  -2   3  12   54.77    6.94
  -2   3  12   44.48    5.22
   2   3 -12   55.14    6.86
   2   3 -12   58.29    6.76
   2   3 -11  161.97   12.43
  -2   3  11  133.88   10.38
  -2   3  11  166.84   13.11
   2   3 -11  171.21   13.87
  -2   3  11  146.91   11.36
   2   3 -11  163.00   13.06
  -2   3  11  171.31   12.35
   2   3 -11  157.52   11.01
  -2   3  11  153.33   11.63
  -2   3  11  147.09   10.27
  -2   3  11  152.86   12.70
  -2   3  11  150.00   10.37
  -2   3  11  164.74   12.49
   2   3 -11  172.79   13.05
   2   3 -11  176.82   12.51
  -2   3  11  165.53   11.02
   2   3 -11  170.41   12.89
  -2   3  10  468.73   21.06
   2   3 -10  458.04   22.69
  -2   3  10  449.53   21.04
  -2   3  10  440.93   23.10
  -2   3  10  484.35   23.73
   2   3 -10  489.48   25.12
  -2   3  10  455.93   21.84
   2   3 -10  446.51   23.09
  -2   3  10  458.22   22.04
   2   3 -10  440.47   20.38
  -2   3  10  490.17   22.53
   2   3 -10  509.63   21.77
  -2   3  10  459.66   20.07
   2   3 -10  483.36   23.55
   2   3 -10  495.20   23.00
  -2   3  10  462.46   20.34
   2   3 -10  496.01   23.88
   2   3  -9    8.72    3.03
  -2   3   9   16.14    3.53
   2   3  -9   10.31    2.68
  -2   3   9   15.89    3.67
  -2   3   9   16.11    4.04
   2   3  -9   15.58    3.76
   2   3  -9   13.76    3.08
  -2   3   9   19.87    4.32
   2   3  -9   13.90    2.96
  -2   3   9   10.72    3.48
  -2   3   9   14.03    3.44
  -2   3   9   15.27    3.80
   2   3  -9   20.65    4.13
  -2   3   9   14.81    3.17
   2   3  -9   12.72    3.44
   2   3  -9   13.87    3.89
  -2   3   9   14.87    3.16
   2   3  -9   17.76    4.17
  -2   3   8    5.97    2.27
  -2   3   8    5.97    2.64
   2   3  -8    6.08    2.36
   2   3  -8    4.63    1.90
  -2   3   8    2.81    1.93
   2   3  -8    3.34    2.41
  -2   3   8    3.06    1.74
   2   3  -8   -0.56    1.29
   2   3  -8    3.59    1.64
  -2   3   8    4.26    2.27
   2   3  -8    5.07    2.17
   2   3  -8    5.41    2.18
  -2   3   8    3.34    1.64
  -2   3   8    3.84    1.98
   2   3  -8    3.02    1.49
   2   3  -8    8.08    2.75
   2   3  -8    5.32    2.61
  -2   3   8    4.16    1.62
   2   3  -8    5.91    2.43
   2   3  -7   36.01    4.79
  -2   3   7   32.11    5.07
  -2   3   7   44.51    5.65
   2   3  -7   38.21    5.80
  -2   3   7   37.20    5.10
   2   3  -7   23.51    4.38
   2   3  -7   38.90    4.43
  -2   3   7   34.71    5.05
  -2   3   7   29.78    4.41
  -2   3   7   29.46    4.63
  -2   3   7   34.42    4.09
   2   3  -7   38.81    5.46
   2   3  -7   39.20    5.31
   2   3  -7   37.29    4.32
  -2   3   7   31.06    3.89
   2   3  -7   34.85    5.25
   2   3  -6   22.83    3.67
  -2   3   6   26.17    4.29
  -2   3   6   28.95    4.31
   2   3  -6   26.15    4.47
   2   3  -6   22.30    3.97
   2   3  -6   26.47    3.31
   2   3  -6   20.85    3.90
  -2   3   6   24.26    3.80
  -2   3   6   21.21    2.97
  -2   3   6   26.75    4.27
   2   3  -6   23.62    3.79
   2   3  -6   20.89    3.22
   2   3  -6   25.30    4.26
  -2   3   6   21.18    3.05
   2   3  -6   26.91    4.39
   2   3  -6   23.39    2.66
   2   3  -5  711.82   22.89
   2   3  -5  699.42   22.56
  -2   3   5  774.38   27.61
   2   3  -5  698.24   25.29
  -2   3   5  724.87   26.10
   2   3  -5  771.85   28.35
  -2   3   5  664.18   25.59
   2   3  -5  711.41   25.98
   2   3  -5  721.39   25.77
  -2   3   5  745.30   23.14
  -2   3   5  741.13   26.60
  -2   3   5  745.11   23.09
   2   3  -5  758.19   27.13
   2   3  -4  199.77    9.45
  -2   3   4  172.73    7.67
  -2   3   4  202.44    8.63
   2   3  -4  182.41   10.19
  -2   3   4  186.77   10.31
   2   3  -4  201.43   11.98
  -2   3   4  188.16   10.81
   2   3  -4  180.57    8.34
  -2   3   4  176.31    8.43
   2   3  -4  203.24   10.96
   2   3  -4  203.86   11.08
  -2   3   4  179.58    8.23
   2   3  -4  206.79   11.36
   2   3  -3  362.39   13.98
  -2   3   3  355.98   12.69
   2   3  -3  342.33   13.80
  -2   3   3  353.89   14.65
   2   3  -3  362.72   16.42
  -2   3   3  358.91   15.46
   2   3  -3  346.13   12.93
  -2   3   3  325.90   12.83
  -2   3   3  293.81    9.76
  -2   3   3  350.25   11.90
   2   3  -3  353.96   15.10
  -2   3   3  349.06   11.87
   2   3  -3  339.33   14.93
   2   3  -3  367.19   15.63
   2   3  -2   80.21    5.88
  -2   3   2   76.95    5.29
  -2   3   2   79.99    4.38
  -2   3   2   82.94    6.08
   2   3  -2  101.53    7.56
  -2   3   2   83.42    4.55
  -2   3   2   84.86    6.94
   2   3  -2   85.52    5.46
   2   3  -2   87.63    5.67
   2   3  -2   86.30    6.55
   2   3  -2   82.20    6.56
  -2   3   2   84.22    4.45
   2   3  -2   81.36    6.30
  -2   3   1  253.03    8.72
   2   3  -1  247.99   11.70
  -2   3   1  240.23    9.65
  -2   3   1  256.28   11.63
   2   3  -1  244.52   10.25
   2   3  -1  260.17   11.95
   2   3  -1  233.37    9.34
   2   3  -1  251.64   11.92
   2   3  -1  266.94   11.28
   2   3  -1  246.48   12.18
  -2   3   1  263.09    8.99
   2   3  -1  244.00   11.64
  -2   3   1  253.65   10.03
   2   3  -1  265.46   11.74
  -2   3   0 1166.43   31.08
   2   3   0 1214.35   35.13
  -2   3   0 1155.42   32.72
   2   3   0 1143.20   34.67
   2   3   0 1199.42   32.60
   2   3   0 1135.06   30.10
   2   3   0 1164.05   35.13
   2   3   0 1183.16   34.89
   2   3   0 1204.93   34.05
   2   3   0 1189.72   34.36
   2   3   0 1193.66   34.71
   2   3   1 3594.37   96.10
  -2   3  -1 3872.71   97.64
   2   3   1 3989.55  101.57
  -2   3  -1 3972.65   99.87
   2   3   1 3972.42   98.61
  -2   3  -1 3758.76   95.33
   2   3   1 4041.52   97.67
   2   3   1 4035.19  100.96
   2   3   1 3834.69  101.44
   2   3   1 4104.75  100.82
   2   3   1 4117.33  101.20
   2   3   1 3946.27  100.06
   2   3   1 4080.68  101.36
   2   3   2  731.44   24.34
   2   3   2  623.41   20.62
  -2   3  -2  693.90   21.97
   2   3   2  735.75   24.83
  -2   3  -2  718.02   23.92
  -2   3  -2  659.62   18.96
   2   3   2  675.76   22.20
  -2   3  -2  682.51   20.81
   2   3   2  714.79   22.35
   2   3   2  736.36   24.66
   2   3   2  764.76   24.19
   2   3   2  696.08   20.80
   2   3   2  732.53   24.41
   2   3   3   43.73    3.99
  -2   3  -3   49.36    4.48
  -2   3  -3   60.14    4.62
   2   3   3   53.27    4.88
   2   3   3   54.43    5.39
   2   3   3   56.65    5.62
  -2   3  -3   49.19    3.66
   2   3   3   57.31    5.63
   2   3   3   68.86    6.01
   2   3   3   52.81    4.35
   2   3   3   52.01    5.27
  -2   3  -4  251.73   12.39
   2   3   4  218.92   10.57
  -2   3  -4  240.27   12.25
   2   3   4  240.93   11.67
  -2   3  -4  232.50   11.15
   2   3   4  226.74   12.45
   2   3   4  224.60   12.21
   2   3   4  223.19   12.36
   2   3   4  240.90   11.39
   2   3   4  212.55   10.72
   2   3   4  212.13   12.12
   2   3   4  199.10   10.24
   2   3   4  234.57   12.19
  -2   3  -5  620.41   23.03
   2   3   5  604.22   21.93
   2   3   5  634.88   21.62
   2   3   5  592.17   22.71
  -2   3  -5  625.75   22.75
   2   3   5  570.68   23.72
   2   3   5  634.01   24.38
   2   3   5  640.92   23.84
   2   3   5  593.09   23.90
   2   3   5  609.40   22.41
   2   3   5  541.44   20.57
   2   3   5  574.29   22.86
  -2   3  -5  639.40   23.67
   2   3   6  764.57   26.97
   2   3   6  721.14   28.02
   2   3   6  779.83   29.29
  -2   3  -6  736.90   26.91
   2   3   6  769.63   29.53
   2   3   6  785.02   28.19
  -2   3  -6  775.54   28.02
   2   3   6  712.55   28.19
   2   3   6  723.81   28.63
   2   3   6  764.73   28.18
   2   3   6  794.31   28.12
   2   3   6  778.72   29.26
   2   3   6  750.10   29.09
   2   3   6  707.17   28.48
   2   3   6  743.45   24.88
   2   3   6  767.34   27.60
   2   3   6  740.93   29.42
  -2   3  -6  773.18   29.14
  -2   3  -6  722.05   27.88
   2   3   7  185.19   11.71
   2   3   7  229.56   13.99
  -2   3  -7  193.10   12.06
   2   3   7  202.23   13.57
   2   3   7  207.84   13.04
  -2   3  -7  211.33   13.08
   2   3   7  208.56   13.50
   2   3   7  192.00   12.88
   2   3   7  203.99   13.46
   2   3   7  189.32   11.88
   2   3   7  211.21   13.56
  -2   3  -7  210.51   13.30
   2   3   7  206.53   12.63
   2   3   7  183.34    9.51
   2   3   7  191.68   12.39
   2   3   7  199.36   13.68
  -2   3  -7  190.96   12.29
  -2   3  -7  187.43   12.94
   2   3   8  549.68   25.02
   2   3   8  498.55   22.76
   2   3   8  591.06   25.39
   2   3   8  557.03   24.84
  -2   3  -8  527.89   23.30
   2   3   8  564.88   25.53
  -2   3  -8  575.19   24.09
   2   3   8  535.59   24.33
  -2   3  -8  551.31   24.77
   2   3   8  526.31   24.98
   2   3   8  535.21   24.60
   2   3   8  542.09   22.56
  -2   3  -8  574.14   23.34
  -2   3  -8  539.10   24.23
   2   3   8  531.80   25.14
   2   3   8  526.61   25.21
  -2   3  -8  528.68   25.04
   2   3   9   61.98    7.22
  -2   3  -9   61.71    7.07
   2   3   9   64.79    7.89
  -2   3  -9   65.98    7.62
  -2   3  -9   58.24    7.28
   2   3   9   61.70    7.46
  -2   3  -9   55.83    6.81
   2   3   9   56.44    7.55
   2   3   9   65.69    7.80
  -2   3  -9   66.21    8.01
   2   3   9   78.15    8.42
  -2   3  -9   62.54    7.47
   2   3   9   54.69    6.21
  -2   3  -9   56.33    6.50
   2   3   9   58.57    7.61
   2   3   9   57.41    7.66
   2   3   9   62.95    6.92
   2   3   9   59.42    7.86
  -2   3  -9   66.95    8.27
  -2   3  -9   60.06    6.05
   2   3  10  193.44   13.19
   2   3  10  167.79   13.27
   2   3  10  179.18   13.14
  -2   3 -10  191.84   13.28
   2   3  10  174.99   13.89
   2   3  10  174.25   13.45
  -2   3 -10  170.60   13.52
   2   3  10  152.49   10.28
  -2   3 -10  148.51   11.05
  -2   3 -10  160.89   12.72
   2   3  10  164.78   13.53
   2   3  10  178.44   11.92
  -2   3 -10  166.64   12.66
   2   3  10  200.17   14.61
  -2   3 -10  170.01   12.93
  -2   3 -10  190.48   14.49
  -2   3 -10  176.21   10.97
   2   3  10  195.24   14.10
   2   3  11   44.16    6.55
  -2   3 -11   51.48    6.03
   2   3  11   41.47    6.05
   2   3  11   49.09    6.98
  -2   3 -11   53.60    6.91
   2   3  11   42.69    6.86
  -2   3 -11   36.61    6.30
   2   3  11   36.25    4.98
  -2   3 -11   39.27    5.98
   2   3  11   32.55    5.96
  -2   3 -11   46.91    6.01
   2   3  11   34.73    6.22
  -2   3 -11   38.41    6.13
  -2   3 -11   44.16    6.52
  -2   3 -11   42.04    5.07
  -2   3 -11   43.25    6.81
   2   3  12  197.57   13.80
   2   3  12  187.80   12.70
   2   3  12  157.17   11.54
   2   3  12  161.35   12.96
   2   3  12  169.67   12.67
  -2   3 -12  182.92   13.03
   2   3  12  180.81   13.55
  -2   3 -12  155.94   11.77
  -2   3 -12  168.69   12.37
  -2   3 -12  149.66    9.74
   2   3  13   92.75    8.89
   2   3  13   82.83    7.69
   2   3  13   70.96    6.86
   2   3  13   90.37    8.85
   2   3  13   90.59    8.42
  -2   3 -13   84.56    8.15
  -2   3 -13   77.01    7.72
  -2   3 -13   90.71    6.41
  -2   3 -13   97.21    8.02
   2   3  14   43.21    5.23
   2   3  14   39.71    5.36
  -2   3 -14   45.97    4.87
   2   3  15   15.17    2.69
   2   3  15    8.99    2.29
  -2   3 -15   12.83    2.20
  -2   4  15  136.43    7.05
   2   4 -15  119.76    6.28
   2   4 -15  141.52    6.65
  -2   4  14   44.74    4.90
  -2   4  14   37.19    4.68
   2   4 -14   38.87    4.44
   2   4 -14   41.22    4.43
  -2   4  13   18.40    3.05
   2   4 -13   22.18    3.89
  -2   4  13   13.25    3.37
  -2   4  13   23.35    4.12
   2   4 -13   17.83    2.96
   2   4 -13   22.28    3.21
   2   4 -13   21.77    3.85
  -2   4  12    2.13    1.68
   2   4 -12    1.54    1.66
  -2   4  12    4.27    2.41
  -2   4  12    2.78    2.20
   2   4 -12    2.91    1.88
  -2   4  12    4.03    2.07
   2   4 -12    7.36    2.42
  -2   4  12    2.94    1.85
  -2   4  12    2.21    2.00
   2   4 -12    7.56    2.27
   2   4 -12    3.80    2.06
   2   4 -11   35.36    5.44
  -2   4  11   31.77    4.99
  -2   4  11   36.06    5.82
   2   4 -11   24.78    5.17
  -2   4  11   37.34    5.43
   2   4 -11   23.08    4.27
  -2   4  11   27.55    4.89
  -2   4  11   22.05    4.00
   2   4 -11   25.60    4.31
   2   4 -11   28.70    5.11
  -2   4  10   21.00    4.08
  -2   4  10   24.19    4.48
  -2   4  10   26.34    4.75
  -2   4  10   24.18    5.05
   2   4 -10   22.59    4.63
  -2   4  10   21.57    4.77
  -2   4  10   25.86    4.78
   2   4 -10   19.61    4.38
   2   4 -10   22.35    4.35
  -2   4  10   23.36    4.76
   2   4 -10   20.71    4.20
   2   4 -10   18.46    4.24
  -2   4  10   25.29    4.99
   2   4 -10   22.66    4.19
   2   4 -10   18.11    4.33
   2   4 -10   20.36    4.54
  -2   4   9  148.43   10.99
  -2   4   9  156.15   12.85
   2   4  -9  154.20   13.43
  -2   4   9  142.26   11.54
   2   4  -9  154.82   12.28
  -2   4   9  135.18   10.69
   2   4  -9  164.31   11.52
   2   4  -9  140.55   11.05
  -2   4   9  163.51   12.27
   2   4  -9  173.93   13.10
  -2   4   9  167.01   12.78
   2   4  -9  143.04   11.88
  -2   4   9  151.89   12.50
   2   4  -9  140.91   10.64
   2   4  -9  152.75   12.38
   2   4  -8   86.77    8.55
   2   4  -8   90.90    8.61
  -2   4   8  100.28    9.62
   2   4  -8   99.83    8.60
   2   4  -8  116.63   11.25
  -2   4   8   91.72    9.06
   2   4  -8   86.73    7.09
   2   4  -8   86.47    8.52
  -2   4   8  110.21    9.67
   2   4  -8  107.60    9.24
   2   4  -8  106.05    9.66
   2   4  -8   88.68    8.79
  -2   4   8  100.96    9.67
   2   4  -8   99.01    9.59
   2   4  -8   90.35    7.67
  -2   4   8  102.59    9.77
   2   4  -8   84.00    9.09
   2   4  -8   84.82    8.96
   2   4  -7  156.74   11.18
   2   4  -7  152.59   11.29
  -2   4   7  154.33   11.72
   2   4  -7  169.88   13.36
   2   4  -7  165.77   11.70
   2   4  -7  145.99   10.83
   2   4  -7  157.09   11.28
   2   4  -7  162.19   11.84
  -2   4   7  139.23   11.14
   2   4  -7  162.69   12.10
  -2   4   7  136.22   10.75
   2   4  -7  138.22   10.15
   2   4  -7  134.68    9.46
  -2   4   7  167.96   12.41
   2   4  -7  149.16   11.71
   2   4  -6  392.26   15.94
  -2   4   6  380.07   19.41
   2   4  -6  390.73   18.29
   2   4  -6  403.85   19.19
  -2   4   6  388.02   19.22
   2   4  -6  416.43   21.47
  -2   4   6  400.27   19.60
  -2   4   6  412.19   17.88
   2   4  -6  363.51   18.26
  -2   4   6  399.81   19.08
   2   4  -6  386.16   17.34
  -2   4   6  421.19   16.99
   2   4  -6  405.17   19.67
   2   4  -6  408.03   19.29
  -2   4   6  411.93   19.86
   2   4  -6  393.39   19.42
   2   4  -6  372.91   17.53
   2   4  -6  396.55   19.69
   2   4  -5  316.42   13.95
   2   4  -5  302.07   15.17
  -2   4   5  300.07   16.33
   2   4  -5  303.31   15.72
  -2   4   5  307.51   16.14
  -2   4   5  286.27   15.45
   2   4  -5  314.20   17.50
  -2   4   5  275.79   15.51
  -2   4   5  285.43   12.88
   2   4  -5  297.12   12.84
  -2   4   5  269.68   13.56
   2   4  -5  279.54   15.01
  -2   4   5  313.40   15.63
  -2   4   5  308.69   13.91
   2   4  -5  303.94   16.06
   2   4  -5  254.61   14.59
   2   4  -5  274.25   16.09
   2   4  -5  312.81   16.00
   2   4  -5  306.38   15.98
   2   4  -4   29.44    3.99
   2   4  -4   26.01    3.44
  -2   4   4   25.11    3.04
  -2   4   4   25.31    4.27
  -2   4   4   25.80    4.17
   2   4  -4   28.65    4.83
   2   4  -4   27.92    3.95
  -2   4   4   25.98    3.42
  -2   4   4   21.77    3.25
  -2   4   4   24.07    3.95
  -2   4   4   23.69    3.44
   2   4  -4   28.23    4.47
   2   4  -4   25.48    4.05
   2   4  -4   26.82    4.61
   2   4  -4   22.44    4.02
   2   4  -4   25.55    4.16
   2   4  -4   21.19    3.83
  -2   4   3  284.45   14.92
  -2   4   3  273.24   12.07
  -2   4   3  247.18   10.54
  -2   4   3  263.43   13.88
   2   4  -3  261.48   15.02
   2   4  -3  281.21   12.67
   2   4  -3  267.15   12.50
  -2   4   3  270.50   11.85
  -2   4   3  281.99   12.85
   2   4  -3  278.93   14.29
  -2   4   3  247.46   12.89
  -2   4   3  281.66   13.16
   2   4  -3  274.38   12.99
   2   4  -3  290.31   14.22
   2   4  -3  291.37   14.43
   2   4  -2  951.14   30.79
  -2   4   2  917.96   29.43
  -2   4   2  922.91   27.83
   2   4  -2  919.63   31.66
   2   4  -2  950.54   28.52
  -2   4   2  879.26   26.20
  -2   4   2  914.26   27.46
   2   4  -2  950.28   31.61
  -2   4   2  937.46   30.20
  -2   4   2  924.80   30.07
   2   4  -2  939.01   30.34
   2   4  -2  930.01   31.57
  -2   4   2  940.24   32.91
   2   4  -2  939.64   29.96
   2   4  -2  894.41   30.59
   2   4  -1  531.91   17.61
   2   4  -1  585.22   21.48
   2   4  -1  567.69   22.04
  -2   4   1  554.65   19.25
   2   4  -1  550.53   20.15
   2   4  -1  515.76   21.21
   2   4  -1  581.29   20.93
  -2   4   1  535.71   17.10
  -2   4   1  566.85   19.74
   2   4  -1  548.98   20.98
   2   4  -1  525.05   20.53
   2   4  -1  549.27   21.66
  -2   4   1  531.80   18.23
  -2   4   0  276.41   12.15
  -2   4   0  299.98   13.77
   2   4   0  286.64   14.51
  -2   4   0  291.03   12.94
   2   4   0  271.25   12.68
   2   4   0  294.27   14.05
   2   4   0  278.54   10.30
  -2   4   0  287.26   12.04
   2   4   0  261.47   13.57
   2   4   0  288.64   13.70
   2   4   0  309.52   14.61
   2   4   0  302.57   14.25
  -2   4  -1  879.15   25.88
  -2   4  -1  915.88   29.35
   2   4   1  975.66   32.39
  -2   4  -1  952.34   30.64
   2   4   1  918.31   29.61
   2   4   1  930.26   27.67
   2   4   1  909.44   31.12
  -2   4  -1  924.90   26.96
   2   4   1  958.51   31.50
  -2   4  -1  948.88   29.29
   2   4   1  973.41   31.70
   2   4   1  883.25   29.20
   2   4   1  945.90   31.34
  -2   4  -2   83.46    5.34
   2   4   2   86.54    7.38
   2   4   2   87.92    7.68
  -2   4  -2   77.04    6.84
   2   4   2   90.87    6.78
  -2   4  -2   80.58    5.39
   2   4   2   89.15    6.26
   2   4   2   78.69    6.93
   2   4   2   80.73    7.11
  -2   4  -2   79.82    5.74
   2   4   2   88.60    7.20
   2   4   2   77.81    6.02
   2   4   2   89.45    7.44
  -2   4  -3  641.05   21.43
   2   4   3  621.29   25.18
  -2   4  -3  630.38   24.90
   2   4   3  637.07   23.53
  -2   4  -3  642.25   21.79
  -2   4  -3  656.11   23.96
   2   4   3  615.21   22.71
   2   4   3  637.83   24.63
   2   4   3  625.21   24.79
   2   4   3  643.55   24.95
  -2   4  -3  646.94   20.72
   2   4   3  629.56   24.02
   2   4   3  649.83   21.48
   2   4   3  592.00   21.42
   2   4   3  657.63   24.72
   2   4   4  389.10   17.99
  -2   4  -4  361.79   15.32
   2   4   4  389.21   18.33
  -2   4  -4  371.98   17.20
   2   4   4  369.08   16.92
  -2   4  -4  371.28   15.99
   2   4   4  373.42   16.98
   2   4   4  355.82   17.78
  -2   4  -4  369.52   17.93
   2   4   4  376.51   17.57
   2   4   4  399.09   18.36
   2   4   4  394.30   18.40
   2   4   4  378.14   18.45
   2   4   4  393.60   15.89
   2   4   4  347.29   18.19
   2   4   4  339.45   14.53
   2   4   4  371.88   17.63
   2   4   5    5.07    2.04
   2   4   5    3.65    1.61
   2   4   5    5.25    2.31
  -2   4  -5    7.47    2.18
   2   4   5    4.25    1.51
   2   4   5    4.24    1.91
  -2   4  -5    3.99    2.16
   2   4   5    4.91    2.16
   2   4   5    5.09    2.11
  -2   4  -5    4.19    1.79
   2   4   5    4.17    2.05
  -2   4  -5    5.85    2.16
   2   4   5    5.62    2.26
   2   4   5    4.19    2.16
   2   4   5    8.28    2.57
   2   4   5    4.29    2.29
   2   4   5    2.16    1.74
   2   4   5    2.29    1.73
  -2   4  -5    3.33    1.88
   2   4   5    4.66    1.77
   2   4   6  337.33   15.52
   2   4   6  362.55   18.32
  -2   4  -6  372.10   18.31
  -2   4  -6  326.41   16.45
   2   4   6  369.72   19.06
   2   4   6  367.89   19.23
  -2   4  -6  401.80   20.83
   2   4   6  395.07   18.75
  -2   4  -6  364.50   17.84
   2   4   6  370.87   19.27
   2   4   6  371.30   17.90
   2   4   6  357.61   18.82
   2   4   6  399.70   19.29
   2   4   6  349.29   18.80
   2   4   6  346.61   18.77
   2   4   6  357.75   16.49
   2   4   6  382.60   17.63
   2   4   6  374.11   19.79
  -2   4  -6  367.41   18.16
  -2   4  -7  319.81   17.53
   2   4   7  322.47   15.70
   2   4   7  358.75   18.97
  -2   4  -7  328.46   16.64
   2   4   7  330.90   18.82
  -2   4  -7  321.63   19.15
   2   4   7  347.56   18.29
  -2   4  -7  349.37   18.03
   2   4   7  316.07   18.07
  -2   4  -7  313.86   17.20
   2   4   7  331.08   16.92
   2   4   7  364.81   19.14
  -2   4  -7  320.76   18.15
   2   4   7  335.41   17.92
   2   4   7  346.69   18.99
   2   4   7  287.63   17.36
   2   4   7  316.96   14.86
   2   4   7  302.59   16.58
   2   4   7  321.75   18.93
  -2   4  -7  356.13   19.23
   2   4   8 1576.00   52.60
   2   4   8 1527.74   48.29
   2   4   8 1517.82   51.35
   2   4   8 1576.05   52.31
  -2   4  -8 1533.28   49.91
   2   4   8 1551.04   53.11
  -2   4  -8 1576.48   55.19
   2   4   8 1458.09   51.29
  -2   4  -8 1581.07   51.77
   2   4   8 1538.82   52.12
   2   4   8 1462.31   48.18
  -2   4  -8 1634.62   52.44
   2   4   8 1568.52   52.83
   2   4   8 1528.48   50.88
   2   4   8 1532.59   50.36
   2   4   8 1562.31   53.02
  -2   4  -8 1622.42   53.62
  -2   4  -8 1671.20   51.74
  -2   4  -9   28.76    5.06
   2   4   9   32.59    5.60
  -2   4  -9   24.47    4.54
   2   4   9   29.24    4.64
   2   4   9   32.19    5.53
  -2   4  -9   21.56    5.19
   2   4   9   30.35    5.73
  -2   4  -9   22.25    4.69
   2   4   9   23.22    4.77
  -2   4  -9   21.74    4.68
   2   4   9   25.05    5.30
  -2   4  -9   28.79    4.86
   2   4   9   24.41    4.97
   2   4   9   36.72    6.04
  -2   4  -9   29.63    5.29
  -2   4  -9   24.06    4.76
   2   4   9   29.65    4.48
   2   4   9   32.48    5.95
   2   4   9   26.89    5.51
   2   4   9   22.53    4.75
  -2   4  -9   23.07    4.97
   2   4  10   48.55    6.87
   2   4  10   57.03    6.55
   2   4  10   65.63    8.00
  -2   4 -10   46.48    6.19
   2   4  10   56.62    7.43
  -2   4 -10   54.76    6.88
   2   4  10   77.36    8.78
  -2   4 -10   53.69    8.13
   2   4  10   55.91    7.41
  -2   4 -10   67.78    8.10
   2   4  10   48.16    5.32
  -2   4 -10   56.59    6.88
   2   4  10   63.60    7.87
   2   4  10   62.11    8.16
  -2   4 -10   74.96    8.04
  -2   4 -10   63.56    7.38
   2   4  10   49.31    6.43
   2   4  10   43.67    6.98
  -2   4 -10   58.16    7.26
  -2   4 -10   60.25    7.88
  -2   4 -10   66.11    7.91
   2   4  11   49.44    6.80
   2   4  11   37.97    5.18
   2   4  11   47.61    6.47
   2   4  11   43.91    6.56
  -2   4 -11   52.74    6.27
   2   4  11   47.83    6.66
  -2   4 -11   38.21    5.92
   2   4  11   40.66    6.61
   2   4  11   35.89    5.07
  -2   4 -11   37.02    5.66
   2   4  11   38.63    6.31
  -2   4 -11   43.79    6.25
   2   4  11   32.96    5.76
   2   4  12  172.87   12.41
   2   4  12  184.57   13.15
   2   4  12  192.18   12.99
   2   4  12  179.32   12.83
  -2   4 -12  178.19   11.76
  -2   4 -12  174.98   11.94
  -2   4 -12  156.12   11.70
  -2   4 -12  179.09   11.28
   2   4  13  122.13    9.28
   2   4  13   90.09    7.17
   2   4  13  113.77    9.13
  -2   4 -13  118.54    8.21
   2   4  14   43.63    4.79
   2   4  14   44.93    5.00
  -2   4 -14   53.15    4.57
   2   4  15   38.85    3.33
   2   4  15   41.75    3.54
  -2   5  14   42.23    3.88
   2   5 -14   37.86    3.45
   2   5 -14   33.00    2.85
  -2   5  13  148.31    7.81
  -2   5  13  172.39    9.97
  -2   5  13  167.31   10.29
   2   5 -13  172.22    9.64
  -2   5  12   11.31    2.65
  -2   5  12   11.58    3.16
  -2   5  12    9.15    2.78
   2   5 -12   16.64    3.47
   2   5 -11   66.31    6.72
  -2   5  11   65.45    6.76
  -2   5  11   66.17    6.71
  -2   5  11   57.86    6.62
  -2   5  11   59.60    6.12
  -2   5  11   65.20    7.52
   2   5 -11   61.28    7.00
   2   5 -10  166.38   11.32
  -2   5  10  132.89   10.24
  -2   5  10  135.40   10.92
   2   5 -10  164.47   11.54
  -2   5  10  121.05    9.76
  -2   5  10  164.35   12.45
  -2   5  10  144.29   11.68
   2   5 -10  144.11   11.30
   2   5  -9  233.03   14.26
   2   5  -9  255.46   16.46
   2   5  -9  241.92   16.10
  -2   5   9  247.19   16.36
   2   5  -9  266.74   18.28
  -2   5   9  259.98   16.33
   2   5  -9  262.81   15.51
  -2   5   9  259.08   14.75
   2   5  -9  243.96   15.34
  -2   5   9  258.40   15.80
  -2   5   9  227.94   14.58
  -2   5   9  291.14   17.25
   2   5  -9  265.66   16.13
  -2   5   9  256.06   16.22
  -2   5   8   88.43    8.70
   2   5  -8   85.39    8.18
   2   5  -8   93.67    9.24
   2   5  -8   91.12    9.04
  -2   5   8   94.45    9.77
   2   5  -8   88.47   10.29
  -2   5   8   87.34    8.02
  -2   5   8   92.15    9.12
   2   5  -8   94.55    9.38
   2   5  -8   92.72    9.78
  -2   5   8   99.84    9.82
   2   5  -8  103.79    9.63
  -2   5   8   87.16    9.24
   2   5  -8  101.26    9.97
  -2   5   7   11.32    2.68
   2   5  -7   11.32    3.03
  -2   5   7   18.88    4.34
   2   5  -7    9.96    3.34
  -2   5   7   12.65    3.05
  -2   5   7    8.56    3.20
   2   5  -7    8.74    3.40
  -2   5   7   17.13    3.99
   2   5  -7    9.65    3.12
  -2   5   7   11.57    3.00
  -2   5   7   10.56    3.36
   2   5  -7   10.74    3.47
   2   5  -7   14.90    3.27
   2   5  -7   12.81    3.56
  -2   5   7    8.71    3.05
   2   5  -7    9.04    3.64
  -2   5   7   11.20    3.45
   2   5  -7   13.43    3.51
   2   5  -6  109.06    8.22
   2   5  -6  120.64    9.09
   2   5  -6  115.41    9.60
   2   5  -6  118.75   10.47
  -2   5   6  130.94    9.73
  -2   5   6  120.49   10.65
   2   5  -6  112.79   11.24
  -2   5   6  127.58   10.99
  -2   5   6  117.27    8.70
  -2   5   6  109.88    9.65
   2   5  -6  118.59   10.47
   2   5  -6  133.53    9.83
  -2   5   6  114.20    8.66
   2   5  -6  106.83   10.13
  -2   5   6  120.99   10.13
   2   5  -6  103.24    8.96
   2   5  -6  117.20   10.93
  -2   5   6  114.73   10.35
   2   5  -6  113.67    9.80
   2   5  -6  130.15   10.79
  -2   5   6  121.95   10.57
   2   5  -5  169.34   10.89
  -2   5   5  185.78   13.17
   2   5  -5  162.58   12.90
   2   5  -5  177.29   12.75
  -2   5   5  158.30   11.04
  -2   5   5  168.74   12.52
   2   5  -5  199.65   14.81
  -2   5   5  179.08   13.00
   2   5  -5  172.08   11.45
  -2   5   5  180.26   10.69
   2   5  -5  171.33   10.33
  -2   5   5  175.60   10.29
   2   5  -5  183.50   12.78
  -2   5   5  180.68   12.05
   2   5  -5  177.94   11.82
  -2   5   5  168.65   10.81
   2   5  -5  180.63   12.80
   2   5  -5  169.04   11.84
  -2   5   5  161.45   12.42
   2   5  -4   36.66    4.90
  -2   5   4   28.67    3.78
   2   5  -4   38.42    5.51
  -2   5   4   24.60    4.58
   2   5  -4   36.56    5.98
  -2   5   4   22.24    4.55
   2   5  -4   37.23    4.82
  -2   5   4   38.24    4.77
  -2   5   4   27.08    3.63
   2   5  -4   22.69    3.80
  -2   5   4   38.21    4.89
   2   5  -4   30.29    4.51
   2   5  -4   28.13    4.90
   2   5  -4   29.70    4.87
   2   5  -4   32.89    5.63
   2   5  -4   34.66    4.88
  -2   5   3  136.68   11.13
  -2   5   3  139.93    9.09
   2   5  -3  146.50   11.20
   2   5  -3  148.87    9.21
   2   5  -3  154.10   10.07
  -2   5   3  152.99   10.03
   2   5  -3  162.70   11.37
  -2   5   3  145.26    9.93
   2   5  -3  164.97   11.27
   2   5  -3  137.21   10.64
  -2   5   3  167.11   10.76
   2   5  -3  154.27   10.34
   2   5  -3  131.24   10.26
   2   5  -3  154.03   11.90
   2   5  -3  130.54    9.64
   2   5  -3  156.37   10.60
   2   5  -2   28.96    4.48
  -2   5   2   31.91    4.36
   2   5  -2   27.23    4.57
  -2   5   2   28.34    3.72
   2   5  -2   21.44    4.21
   2   5  -2   21.27    3.77
   2   5  -2   22.95    3.25
  -2   5   2   32.38    5.19
   2   5  -2   27.39    4.17
  -2   5   2   28.81    4.40
  -2   5   2   31.13    4.20
   2   5  -2   29.16    4.45
   2   5  -2   19.28    3.89
  -2   5   2   27.16    4.31
   2   5  -2   29.24    4.68
   2   5  -2   28.29    5.03
   2   5  -2   34.21    5.08
   2   5  -2   36.85    4.70
   2   5  -2   24.10    3.98
   2   5  -1   35.48    4.98
   2   5  -1   28.06    4.53
  -2   5   1   37.44    4.44
  -2   5   1   35.39    3.68
   2   5  -1   26.10    4.53
   2   5  -1   30.08    4.31
   2   5  -1   25.56    4.33
  -2   5   1   35.19    5.52
  -2   5   1   32.79    4.02
   2   5  -1   35.69    4.98
   2   5  -1   36.01    5.46
   2   5  -1   29.43    4.70
  -2   5   1   30.95    4.45
   2   5  -1   30.05    4.84
   2   5  -1   29.33    5.01
   2   5  -1   34.47    4.47
  -2   5   0  281.22   14.94
   2   5   0  277.62   14.74
   2   5   0  257.90   15.33
  -2   5   0  294.13   14.32
   2   5   0  274.48   14.68
   2   5   0  283.01   14.42
   2   5   0  266.82   14.60
  -2   5   0  263.54   12.65
  -2   5   0  265.19   11.91
   2   5   0  276.94   15.23
   2   5   0  256.51   14.22
   2   5   0  268.16   14.64
   2   5   0  294.94   15.25
   2   5   0  276.15   16.10
   2   5   0  286.53   15.43
   2   5   0  288.19   16.24
   2   5   0  262.01   13.16
   2   5   0  341.35   16.30
  -2   5  -1 1438.77   45.70
   2   5   1 1441.29   45.88
   2   5   1 1454.29   47.44
  -2   5  -1 1505.47   45.65
   2   5   1 1445.19   44.96
   2   5   1 1400.19   41.04
   2   5   1 1433.48   46.01
   2   5   1 1493.52   46.88
   2   5   1 1409.99   45.00
  -2   5  -1 1375.32   43.10
   2   5   1 1454.75   47.65
   2   5   1 1530.22   46.82
   2   5   1 1516.38   48.36
   2   5   1 1431.35   46.03
   2   5   1 1357.43   42.21
  -2   5  -1 1447.34   43.50
   2   5   1 1464.34   46.39
  -2   5  -2  668.18   26.64
  -2   5  -2  676.14   23.71
   2   5   2  665.62   27.69
  -2   5  -2  677.45   26.54
   2   5   2  700.59   25.97
   2   5   2  629.62   23.22
   2   5   2  672.26   26.75
   2   5   2  727.09   27.40
   2   5   2  650.15   26.38
   2   5   2  654.42   25.22
   2   5   2  687.12   26.89
   2   5   2  699.07   28.04
   2   5   2  689.52   26.81
   2   5   2  671.33   27.91
  -2   5  -2  647.64   24.83
   2   5   2  623.50   22.55
   2   5   2  655.39   26.74
   2   5   3    6.84    2.55
  -2   5  -3    9.10    2.73
   2   5   3    5.94    2.62
   2   5   3    7.12    2.79
  -2   5  -3    5.45    2.49
   2   5   3    3.81    1.81
   2   5   3    9.15    2.36
   2   5   3    5.43    2.40
   2   5   3    4.32    2.31
  -2   5  -3    6.08    2.60
   2   5   3    4.59    1.97
   2   5   3    4.13    1.96
   2   5   3   10.40    2.93
  -2   5  -3    8.35    1.99
   2   5   3    7.12    2.40
   2   5   3    6.94    2.64
   2   5   3    1.81    2.18
   2   5   3    7.31    1.85
   2   5   4  106.87    8.48
  -2   5  -4  111.48    9.71
  -2   5  -4  110.57    7.33
   2   5   4  105.34    9.48
  -2   5  -4  113.90   10.06
   2   5   4  109.81    9.17
  -2   5  -4  113.12    8.20
   2   5   4   95.15    8.21
   2   5   4  122.76   10.20
  -2   5  -4   98.43    9.11
   2   5   4  107.83    9.15
   2   5   4  102.39    9.27
   2   5   4  106.13    9.53
   2   5   4   91.85    9.22
   2   5   4  103.92    8.94
   2   5   4  108.05    7.59
   2   5   4  101.26    9.69
  -2   5  -4  111.49    9.12
   2   5   4  106.65    8.08
   2   5   4  100.97    9.05
   2   5   5   89.96    9.07
   2   5   5   89.77    8.65
   2   5   5  105.94    8.80
   2   5   5   91.77    9.22
  -2   5  -5   95.12    9.14
  -2   5  -5   99.25    7.51
   2   5   5  126.50   10.54
   2   5   5   80.46    8.68
   2   5   5   89.05    8.56
  -2   5  -5   97.84    8.19
   2   5   5   91.86    8.64
   2   5   5  107.43    9.82
   2   5   5   94.42    9.36
   2   5   5   99.62    7.87
   2   5   5  109.66   10.26
  -2   5  -5   98.26    9.12
  -2   5  -5   98.93    8.96
   2   5   5  104.61    9.31
  -2   5  -6   26.70    4.79
   2   5   6   18.05    3.82
   2   5   6   23.68    4.48
  -2   5  -6   16.77    3.39
  -2   5  -6   17.24    4.12
   2   5   6   12.68    4.05
   2   5   6   13.90    3.87
   2   5   6   15.33    3.71
  -2   5  -6   16.58    3.57
  -2   5  -6   19.08    4.10
   2   5   6   16.38    4.15
   2   5   6   23.70    4.75
   2   5   6   17.92    3.87
   2   5   6   20.40    4.46
   2   5   6   23.60    4.93
   2   5   6   18.90    3.77
   2   5   6   17.78    3.84
   2   5   6   16.44    4.30
   2   5   6   17.99    3.67
   2   5   7  235.43   14.75
  -2   5  -7  225.01   15.02
  -2   5  -7  243.82   13.68
   2   5   7  234.17   15.61
   2   5   7  222.71   15.39
  -2   5  -7  211.70   15.79
   2   5   7  229.87   15.94
   2   5   7  202.60   14.15
  -2   5  -7  207.95   13.74
   2   5   7  209.02   14.62
   2   5   7  212.28   14.97
  -2   5  -7  209.94   14.25
   2   5   7  215.63   13.48
  -2   5  -7  225.72   15.41
   2   5   7  227.66   14.88
  -2   5  -7  219.85   14.58
   2   5   7  216.68   12.68
   2   5   7  244.03   16.42
   2   5   7  245.68   15.75
  -2   5  -7  222.73   15.51
  -2   5  -8   15.38    3.52
  -2   5  -8   11.60    3.35
   2   5   8   12.42    3.88
  -2   5  -8    8.56    3.45
   2   5   8   11.86    3.83
   2   5   8   11.71    3.49
  -2   5  -8   13.86    3.52
   2   5   8   11.15    3.52
  -2   5  -8   13.89    3.66
   2   5   8   12.97    3.71
   2   5   8   12.71    3.90
  -2   5  -8   13.34    3.74
   2   5   8    7.66    2.83
   2   5   8   11.41    2.98
   2   5   8   13.65    2.86
   2   5   8   10.57    3.52
  -2   5  -8    7.19    2.97
   2   5   8   17.57    4.40
  -2   5  -8   11.70    3.52
   2   5   9  344.74   18.95
  -2   5  -9  358.49   18.76
   2   5   9  388.28   20.05
   2   5   9  369.59   20.57
  -2   5  -9  325.32   20.66
   2   5   9  338.48   19.29
   2   5   9  336.89   19.67
   2   5   9  368.49   19.98
  -2   5  -9  379.48   19.62
   2   5   9  303.38   15.51
   2   5   9  392.82   20.41
  -2   5  -9  380.89   20.27
   2   5   9  368.76   20.50
   2   5   9  359.11   19.28
  -2   5  -9  359.69   18.97
   2   5   9  339.11   20.08
  -2   5  -9  350.11   19.15
  -2   5  -9  323.44   19.74
  -2   5  -9  361.61   17.39
   2   5  10   30.89    5.18
  -2   5 -10   21.70    4.07
   2   5  10   22.54    4.65
   2   5  10   34.25    5.74
  -2   5 -10   22.09    4.29
   2   5  10   19.50    4.26
  -2   5 -10   23.99    4.69
   2   5  10   29.40    5.30
   2   5  10   22.14    4.98
  -2   5 -10   22.08    4.37
  -2   5 -10   18.59    3.72
   2   5  11   77.84    7.87
  -2   5 -11   77.85    7.35
   2   5  11   69.69    7.22
   2   5  11   67.62    7.59
  -2   5 -11   56.80    6.95
   2   5  11   68.66    7.70
   2   5  11   83.28    7.52
   2   5  11   77.26    8.02
  -2   5 -11   74.04    6.74
   2   5  11   70.28    7.55
   2   5  12   71.58    6.94
   2   5  12   67.29    7.09
   2   5  12   72.52    7.23
   2   5  13   16.74    2.97
   2   5  13   12.16    2.19
   2   5  13   13.32    2.95
  -2   5 -13   20.37    2.98
   2   5  14   51.23    3.95
   2   5  14   53.41    4.23
  -2   5 -14   53.21    4.00
  -2   6  13   17.24    2.33
  -2   6  12   20.94    2.88
  -2   6  12   23.89    3.47
  -2   6  12   21.07    3.49
   2   6 -12   22.76    3.07
   2   6 -12   18.02    2.13
   2   6 -11   89.37    6.95
   2   6 -11   76.23    6.53
  -2   6  10  114.90    8.96
  -2   6  10  100.32    8.56
   2   6 -10  112.25    8.83
   2   6 -10  104.49    9.02
  -2   6  10   98.90    9.03
  -2   6  10   90.41    7.91
   2   6 -10   94.08    6.98
  -2   6   9    4.27    2.37
   2   6  -9    5.16    1.93
   2   6  -9    9.46    2.88
  -2   6   9    9.20    2.90
   2   6  -9    9.87    3.19
  -2   6   9    7.64    2.73
   2   6  -9    8.42    3.00
  -2   6   9   12.20    3.41
   2   6  -8   67.83    6.25
   2   6  -8   65.67    7.66
   2   6  -8   63.57    7.27
   2   6  -8   69.85    8.33
  -2   6   8   71.69    6.79
  -2   6   8   70.47    7.78
   2   6  -8   63.95    7.58
  -2   6   8   71.77    7.82
  -2   6   8   71.20    8.22
   2   6  -8   62.72    7.12
  -2   6   7   30.61    4.52
   2   6  -7   25.96    5.02
  -2   6   7   28.77    4.56
  -2   6   7   28.12    5.24
   2   6  -7   33.40    6.41
  -2   6   7   32.15    5.62
   2   6  -7   24.21    4.48
   2   6  -7   24.80    4.86
  -2   6   7   34.65    5.44
   2   6  -7   39.45    6.11
  -2   6   7   28.63    5.10
   2   6  -7   26.04    5.25
  -2   6   7   45.93    6.62
   2   6  -7   31.38    5.10
   2   6  -7   31.42    5.31
  -2   6   6  105.54    8.77
   2   6  -6  110.19   10.39
  -2   6   6  101.54    8.83
  -2   6   6   90.11    9.69
  -2   6   6  109.17   10.65
   2   6  -6   95.74    8.68
   2   6  -6   97.82    9.80
   2   6  -6  104.47    9.13
   2   6  -6  103.33    9.90
  -2   6   6  108.10    9.85
   2   6  -6  105.25    9.13
   2   6  -6   89.27    8.44
  -2   6   6  112.96   10.57
   2   6  -6   95.00   10.17
  -2   6   6  105.36    8.62
   2   6  -6  100.14    9.49
  -2   6   6   99.82    9.79
   2   6  -5  346.69   17.35
  -2   6   5  328.60   18.83
   2   6  -5  337.01   19.41
  -2   6   5  325.73   17.37
  -2   6   5  334.19   19.32
  -2   6   5  342.22   19.83
  -2   6   5  323.96   16.17
   2   6  -5  343.80   17.00
   2   6  -5  355.68   19.57
  -2   6   5  325.07   16.82
   2   6  -5  352.15   19.31
   2   6  -5  328.86   19.58
   2   6  -5  335.38   17.95
   2   6  -5  303.32   16.60
  -2   6   5  307.70   18.54
   2   6  -5  347.03   18.25
  -2   6   5  354.23   18.97
   2   6  -4  161.87   11.55
  -2   6   4  140.42    9.42
   2   6  -4  150.63   10.98
  -2   6   4  149.46   12.26
  -2   6   4  172.52   13.40
   2   6  -4  164.96   12.55
   2   6  -4  159.75   10.88
  -2   6   4  149.84   10.72
   2   6  -4  162.17   11.85
  -2   6   4  162.92   11.18
  -2   6   4  145.91   11.48
  -2   6   4  148.48   10.92
   2   6  -4  164.25   13.44
   2   6  -4  131.45   10.94
   2   6  -4  131.02    9.94
  -2   6   4  148.33   12.20
   2   6  -4  158.60   12.18
   2   6  -4  157.01   11.38
   2   6  -4  150.11   10.11
  -2   6   3  339.38   16.48
   2   6  -3  350.03   19.62
  -2   6   3  370.49   20.09
   2   6  -3  322.02   17.61
   2   6  -3  367.44   19.26
  -2   6   3  384.95   20.48
   2   6  -3  379.99   18.10
  -2   6   3  367.77   18.06
  -2   6   3  337.75   16.73
   2   6  -3  356.24   18.84
   2   6  -3  324.52   18.21
  -2   6   3  341.73   17.81
   2   6  -3  330.28   17.45
  -2   6   3  341.51   18.05
   2   6  -3  347.78   20.03
   2   6  -3  348.59   18.72
   2   6  -3  334.06   16.34
   2   6  -3  342.70   17.32
   2   6  -2   52.65    6.64
  -2   6   2   66.84    6.75
  -2   6   2   64.01    7.00
   2   6  -2   63.66    6.57
   2   6  -2   59.30    7.50
   2   6  -2   52.82    6.48
   2   6  -2   54.78    6.86
  -2   6   2   77.71    8.66
   2   6  -2   54.59    6.49
  -2   6   2   61.81    6.94
  -2   6   2   54.60    5.79
   2   6  -2   57.43    6.99
   2   6  -2   58.67    7.01
   2   6  -2   58.98    6.79
  -2   6   2   49.46    6.43
   2   6  -2   63.51    8.10
   2   6  -2   54.19    6.93
   2   6  -2   64.32    7.88
   2   6  -2   58.92    6.31
  -2   6   1   47.59    6.08
   2   6  -1   55.57    6.32
   2   6  -1   56.47    7.33
  -2   6   1   44.66    5.51
   2   6  -1   52.61    6.63
   2   6  -1   49.97    6.24
  -2   6   1   66.00    7.93
  -2   6   1   40.91    4.74
   2   6  -1   55.00    6.79
   2   6  -1   53.82    6.57
   2   6  -1   53.63    7.23
   2   6  -1   62.24    7.35
   2   6  -1   46.75    6.88
   2   6  -1   50.62    5.50
   2   6  -1   58.20    7.04
  -2   6   0  745.35   26.35
   2   6   0  772.11   29.86
   2   6   0  789.10   32.47
  -2   6   0  783.56   29.23
   2   6   0  786.75   30.12
  -2   6   0  839.25   33.62
   2   6   0  721.54   29.82
  -2   6   0  722.64   30.07
   2   6   0  836.40   31.84
   2   6   0  773.20   29.76
   2   6   0  734.57   29.34
  -2   6   0  797.02   29.20
   2   6   0  754.40   31.69
   2   6   0  782.95   31.21
   2   6   0  816.21   32.77
   2   6   0  763.30   26.55
   2   6   0  807.47   31.36
  -2   6  -1  308.92   17.47
   2   6   1  332.47   17.76
  -2   6  -1  346.64   16.14
  -2   6  -1  340.80   18.57
   2   6   1  346.19   19.49
  -2   6  -1  321.43   17.32
   2   6   1  322.86   17.22
  -2   6  -1  331.33   19.47
   2   6   1  346.47   18.46
   2   6   1  342.74   18.39
   2   6   1  343.17   17.21
  -2   6  -1  340.33   16.30
   2   6   1  339.37   19.18
   2   6   1  339.65   18.54
   2   6   1  338.70   19.21
   2   6   1  356.55   18.93
   2   6   2   29.65    5.17
  -2   6  -2   28.41    4.97
   2   6   2   26.34    4.77
   2   6   2   29.35    5.44
  -2   6  -2   27.22    4.82
  -2   6  -2   38.60    5.14
   2   6   2   28.52    4.82
  -2   6  -2   32.21    5.58
   2   6   2   29.26    5.16
   2   6   2   33.88    4.85
   2   6   2   29.26    5.12
   2   6   2   26.17    4.96
  -2   6  -2   34.55    4.55
   2   6   2   26.45    5.00
   2   6   2   37.03    6.02
   2   6   2   37.39    6.15
   2   6   2   27.60    4.93
  -2   6  -3  390.44   20.56
   2   6   3  418.86   21.21
   2   6   3  398.47   21.61
  -2   6  -3  405.29   20.85
   2   6   3  399.69   21.10
   2   6   3  395.89   19.94
  -2   6  -3  429.61   19.74
  -2   6  -3  410.81   21.19
   2   6   3  411.74   21.21
   2   6   3  422.57   20.68
   2   6   3  386.17   20.40
   2   6   3  381.36   17.81
   2   6   3  424.03   21.24
   2   6   3  393.00   21.09
  -2   6  -3  403.46   16.77
   2   6   3  445.40   21.44
   2   6   3  447.04   22.61
   2   6   3  395.01   20.66
  -2   6  -4  625.86   27.49
   2   6   4  591.84   26.87
  -2   6  -4  611.84   27.90
   2   6   4  580.45   27.03
   2   6   4  582.61   25.90
   2   6   4  641.09   27.93
  -2   6  -4  642.85   27.65
   2   6   4  597.34   26.10
   2   6   4  617.23   27.23
   2   6   4  625.63   27.65
   2   6   4  610.91   27.29
   2   6   4  636.23   26.82
   2   6   4  611.61   28.18
   2   6   4  600.85   27.01
  -2   6  -5  140.41   11.66
   2   6   5  133.25   11.40
  -2   6  -5  111.14   10.91
   2   6   5  127.61   11.41
   2   6   5  124.83   10.59
  -2   6  -5  129.84   10.59
   2   6   5  140.22   11.84
  -2   6  -5  126.42   10.98
   2   6   5  109.85   10.64
   2   6   5  130.09   11.27
   2   6   5  128.30   11.71
   2   6   5  121.80   10.64
   2   6   5  129.56   11.30
  -2   6  -6   82.55    8.92
   2   6   6   79.94    8.84
  -2   6  -6   74.73    8.99
   2   6   6   82.22    9.23
   2   6   6   78.18    8.39
  -2   6  -6   76.30    8.11
   2   6   6   61.04    7.30
   2   6   6   78.81    8.85
  -2   6  -6   86.10    8.89
   2   6   6   69.93    7.51
   2   6   6   72.23    8.54
   2   6   6   84.84    9.29
   2   6   6   82.35    8.82
   2   6   6   80.29    8.10
   2   6   6   78.50    9.06
  -2   6  -7  182.07   13.11
   2   6   7  171.42   13.18
  -2   6  -7  174.46   14.25
   2   6   7  166.70   13.35
  -2   6  -7  203.13   13.60
   2   6   7  183.36   13.28
   2   6   7  182.61   13.66
  -2   6  -7  193.14   13.51
   2   6   7  164.37   11.46
  -2   6  -7  184.28   13.58
   2   6   7  158.25   12.75
   2   6   7  206.72   14.64
   2   6   7  200.41   12.20
   2   6   7  156.77   13.06
  -2   6  -7  165.16   13.35
  -2   6  -8  770.23   31.14
   2   6   8  848.39   32.85
  -2   6  -8  866.23   32.42
   2   6   8  833.83   33.09
   2   6   8  793.15   32.40
  -2   6  -8  817.27   31.81
   2   6   8  722.77   27.82
  -2   6  -8  790.77   32.34
   2   6   8  829.73   33.52
   2   6   8  882.78   33.19
   2   6   8  808.94   28.19
   2   6   8  820.67   33.19
  -2   6  -8  754.69   26.81
  -2   6  -9   60.86    7.29
  -2   6  -9   54.13    6.56
   2   6   9   69.36    7.68
   2   6   9   70.68    7.89
   2   6   9   64.28    7.43
   2   6   9   57.46    5.26
   2   6   9   77.57    8.39
   2   6   9   73.97    7.80
  -2   6  -9   66.29    6.92
   2   6   9   81.26    8.62
  -2   6  -9   61.78    5.64
   2   6  10    5.27    2.05
   2   6  10    6.72    2.51
   2   6  10    4.81    2.44
  -2   6 -10    7.74    2.57
   2   6  10    5.44    2.41
   2   6  10    6.18    2.56
  -2   6 -10    4.94    2.18
  -2   6 -10    6.90    1.95
   2   6  11   21.17    3.58
   2   6  11   19.90    3.73
   2   6  11   19.76    3.75
   2   6  11   15.17    3.20
  -2   6 -11   15.26    2.31
   2   6  12  102.88    7.33
  -2   6 -12  103.46    6.71
  -2   6 -12   81.61    6.08
   2   6  13   39.31    3.50
  -2   6 -13   43.73    3.23
  -2   7  11   32.27    3.42
  -2   7  11   39.89    4.18
   2   7 -11   38.98    3.63
  -2   7  10   87.55    6.72
   2   7 -10   97.06    7.04
   2   7 -10   95.80    7.16
   2   7 -10   73.49    5.18
  -2   7   9  115.57    8.61
   2   7  -9  110.99    8.49
   2   7  -9  100.34    8.41
   2   7  -9   97.41    6.84
   2   7  -8   12.96    3.27
  -2   7   8    9.07    2.62
   2   7  -8   11.53    3.32
  -2   7   8    9.86    3.07
   2   7  -8    8.20    2.32
  -2   7   7   18.46    3.36
  -2   7   7   19.03    3.34
  -2   7   7   22.52    4.05
   2   7  -7   18.21    4.06
  -2   7   7   21.85    4.28
   2   7  -7   19.67    4.29
  -2   7   7   19.78    4.18
   2   7  -7   18.46    3.29
  -2   7   6  117.48    8.91
  -2   7   6  103.14    8.50
   2   7  -6  103.02    9.85
   2   7  -6  122.17    9.48
  -2   7   6  114.51    9.21
  -2   7   6  102.09    8.14
   2   7  -6  117.97   10.16
  -2   7   6   98.03    9.38
   2   7  -6  115.40   10.57
   2   7  -6   96.92    7.60
  -2   7   6  112.79   10.23
  -2   7   6  101.29    9.30
  -2   7   5    2.22    1.43
  -2   7   5    1.19    1.79
  -2   7   5    4.03    2.15
   2   7  -5    4.43    2.50
   2   7  -5    4.71    2.15
   2   7  -5    4.78    2.55
   2   7  -5    3.28    2.25
  -2   7   5    2.36    1.78
   2   7  -5    0.69    1.76
   2   7  -5    1.93    2.08
  -2   7   5    2.63    1.98
  -2   7   5    4.83    2.13
   2   7  -5    1.10    1.26
  -2   7   5    1.48    1.49
  -2   7   4  212.59   14.15
   2   7  -4  202.88   14.60
  -2   7   4  181.32   12.66
  -2   7   4  173.97   13.82
   2   7  -4  189.69   13.83
  -2   7   4  203.15   14.83
  -2   7   4  207.35   12.85
  -2   7   4  206.28   12.42
   2   7  -4  206.95   13.82
  -2   7   4  222.05   13.60
   2   7  -4  194.43   13.55
  -2   7   4  189.73   13.31
   2   7  -4  221.30   15.59
   2   7  -4  215.77   15.05
  -2   7   4  216.61   14.91
   2   7  -4  197.77   13.17
  -2   7   3  463.78   20.06
  -2   7   3  415.88   22.73
   2   7  -3  450.47   22.54
  -2   7   3  480.36   24.05
  -2   7   3  433.09   20.84
   2   7  -3  468.84   22.39
  -2   7   3  443.46   19.22
   2   7  -3  435.26   21.51
  -2   7   3  448.93   21.28
  -2   7   3  435.07   21.38
   2   7  -3  467.09   23.81
   2   7  -3  444.45   21.91
   2   7  -3  449.89   23.12
  -2   7   3  474.65   23.47
   2   7  -2   27.68    5.10
  -2   7   2   30.10    4.77
   2   7  -2   32.35    5.78
   2   7  -2   27.03    5.09
  -2   7   2   25.77    5.39
  -2   7   2   27.35    5.36
  -2   7   2   28.20    4.91
   2   7  -2   22.97    4.63
  -2   7   2   31.32    5.17
  -2   7   2   19.51    3.50
  -2   7   2   31.11    5.12
   2   7  -2   33.81    5.99
   2   7  -2   29.48    5.05
   2   7  -2   26.69    5.23
   2   7  -2   29.30    5.26
   2   7  -2   29.90    5.36
  -2   7   1   50.42    6.38
   2   7  -1   49.84    6.22
   2   7  -1   54.32    7.72
  -2   7   1   45.64    6.98
  -2   7   1   46.90    6.95
   2   7  -1   51.66    6.75
   2   7  -1   58.36    7.27
   2   7  -1   51.95    6.45
   2   7  -1   59.68    7.19
  -2   7   1   49.92    6.71
   2   7  -1   57.19    7.57
   2   7  -1   52.24    7.12
  -2   7   1   56.46    6.12
   2   7  -1   55.96    7.56
  -2   7   1   55.07    6.61
   2   7  -1   64.37    7.85
   2   7   0  182.56   12.51
   2   7   0  163.81   13.45
  -2   7   0  174.64   13.98
  -2   7   0  172.55   13.12
  -2   7   0  174.71   13.72
   2   7   0  206.29   13.91
   2   7   0  170.65   11.76
  -2   7   0  163.23   11.37
   2   7   0  184.27   13.48
   2   7   0  165.46   13.33
  -2   7   0  190.69   12.19
   2   7   0  171.21   13.46
   2   7   0  178.09   13.25
  -2   7  -1  140.42   11.25
   2   7   1  115.40   11.32
  -2   7  -1  128.27   10.38
  -2   7  -1  126.05   11.02
  -2   7  -1  142.71   12.30
   2   7   1  139.84   11.46
  -2   7  -1  126.36   11.09
   2   7   1  125.84   10.83
   2   7   1  119.87   10.05
   2   7   1  118.04    9.28
   2   7   1  145.83   12.20
  -2   7  -1  129.70    9.61
   2   7   1  125.10   11.12
   2   7   1  139.37   12.14
   2   7   1  130.24   11.28
  -2   7  -2  353.01   16.91
  -2   7  -2  348.04   20.23
  -2   7  -2  360.08   19.23
   2   7   2  337.46   18.62
   2   7   2  349.90   20.46
  -2   7  -2  344.74   18.57
  -2   7  -2  337.95   19.14
   2   7   2  334.19   19.10
  -2   7  -2  337.92   19.29
   2   7   2  352.06   19.02
   2   7   2  333.91   18.18
   2   7   2  334.74   16.05
   2   7   2  318.15   18.92
  -2   7  -2  317.74   15.53
   2   7   2  326.40   18.90
   2   7   2  341.90   20.00
   2   7   2  350.32   19.41
   2   7   2  379.66   20.07
   2   7   3   25.63    5.04
   2   7   3   30.51    5.31
  -2   7  -3   17.15    4.07
   2   7   3   27.15    5.11
  -2   7  -3   21.53    4.08
  -2   7  -3   27.61    5.09
   2   7   3   34.22    5.74
  -2   7  -3   20.62    4.69
  -2   7  -3   24.69    4.84
   2   7   3   22.25    4.70
  -2   7  -3   24.34    5.03
  -2   7  -3   21.91    3.68
   2   7   3   22.97    4.64
   2   7   3   29.50    5.37
   2   7   3   27.85    5.14
   2   7   3   20.41    4.72
  -2   7  -4  193.41   14.23
  -2   7  -4  184.11   12.41
  -2   7  -4  197.14   13.81
   2   7   4  199.74   13.80
  -2   7  -4  206.95   14.27
   2   7   4  203.02   14.34
   2   7   4  204.40   14.32
  -2   7  -4  197.50   13.87
   2   7   4  163.26   12.15
   2   7   4  200.36   13.78
   2   7   4  177.50   13.65
   2   7   4  200.06   13.92
   2   7   4  185.73   13.29
  -2   7  -4  172.02   11.05
   2   7   4  173.71   13.68
   2   7   4  204.34   13.94
  -2   7  -5  146.52   11.66
  -2   7  -5  122.37   10.03
   2   7   5  117.55   10.42
   2   7   5  117.00   10.65
   2   7   5  136.69   11.37
  -2   7  -5  129.37   10.95
   2   7   5  120.92   10.66
   2   7   5  100.38   10.02
   2   7   5  113.41   10.03
  -2   7  -5  120.53    9.25
   2   7   5  134.21   11.60
   2   7   5  142.13   11.25
  -2   7  -6   20.78    4.36
   2   7   6   24.99    4.73
   2   7   6   29.75    5.45
  -2   7  -6   26.18    4.78
   2   7   6   24.82    4.72
  -2   7  -6   24.76    4.82
   2   7   6   19.87    4.32
   2   7   6   17.11    3.69
   2   7   6   17.70    4.17
   2   7   6   16.23    3.65
  -2   7  -6   21.71    4.13
   2   7   6   24.92    4.97
  -2   7  -7   71.25    7.53
   2   7   7   53.95    6.72
   2   7   7   69.80    7.79
   2   7   7   60.83    7.18
  -2   7  -7   47.10    6.27
   2   7   7   53.35    5.61
  -2   7  -7   54.60    6.85
   2   7   7   50.17    6.74
   2   7   7   63.92    7.42
   2   7   7   53.13    5.79
  -2   7  -7   52.62    5.87
   2   7   7   50.92    6.78
   2   7   8   74.95    7.59
   2   7   8   83.74    8.16
   2   7   8   69.66    7.49
   2   7   8   58.71    5.08
  -2   7  -8   79.88    8.04
  -2   7  -8   65.82    7.11
   2   7   8   73.21    7.70
   2   7   8   70.97    7.27
  -2   7  -8   67.41    6.47
   2   7   8   69.43    7.36
  -2   7  -8   67.30    6.72
  -2   7  -8   74.12    6.84
   2   7   9   61.29    6.30
   2   7   9   52.75    6.07
   2   7   9   53.99    6.40
  -2   7  -9   64.02    5.93
  -2   7  -9   58.88    5.62
   2   7   9   59.66    6.33
   2   7  10   12.59    2.69
   2   7  10   13.94    2.95
  -2   7 -10   15.74    2.77
   2   7  10   14.82    3.02
  -2   7 -10   13.14    2.36
   2   7  10   13.99    2.83
   2   7  11   54.47    4.45
   2   7  11   65.64    5.31
  -2   8  10   38.79    2.97
   2   8 -10   40.02    3.04
  -2   8   9   10.95    2.08
   2   8  -9   13.05    2.21
   2   8  -9   10.47    2.09
  -2   8   8    1.97    1.40
   2   8  -8    1.29    1.22
   2   8  -8    2.85    1.58
  -2   8   7   12.28    2.11
   2   8  -7   11.48    2.71
   2   8  -7   17.37    3.55
  -2   8   6   31.49    3.90
  -2   8   6   33.64    3.72
   2   8  -6   34.14    4.74
   2   8  -6   35.22    5.18
  -2   8   5  125.50    8.89
  -2   8   5  132.77    9.80
  -2   8   5  134.25    8.76
   2   8  -5  132.10    9.45
  -2   8   5  127.55    8.49
   2   8  -5  131.66    9.61
   2   8  -5  126.34   10.23
   2   8  -5  131.34   10.11
  -2   8   5  124.85    9.98
  -2   8   4  519.06   21.08
  -2   8   4  506.93   20.59
   2   8  -4  547.44   22.71
  -2   8   4  499.64   20.84
   2   8  -4  490.15   21.49
  -2   8   4  519.26   22.33
   2   8  -4  525.67   23.73
   2   8  -4  546.56   23.73
  -2   8   4  496.26   22.76
   2   8  -4  488.50   21.55
   2   8  -3  228.41   13.77
  -2   8   3  214.72   12.87
  -2   8   3  221.85   12.95
   2   8  -3  205.71   13.33
  -2   8   3  214.13   12.92
   2   8  -3  236.56   14.90
   2   8  -3  225.56   14.49
  -2   8   3  225.78   14.23
   2   8  -3  212.38   13.38
  -2   8   2   25.42    4.49
  -2   8   2   28.67    4.70
  -2   8   2   24.46    3.36
  -2   8   2   29.75    4.69
   2   8  -2   23.42    4.06
   2   8  -2   29.05    4.88
  -2   8   2   20.26    3.92
   2   8  -2   32.32    5.12
   2   8  -2   30.18    5.19
   2   8  -2   25.14    4.89
  -2   8   2   42.32    5.88
   2   8  -1    2.87    1.85
  -2   8   1    3.88    2.00
  -2   8   1    4.45    1.98
  -2   8   1    4.47    2.21
   2   8  -1    3.16    2.00
  -2   8   1    3.22    2.03
   2   8  -1    1.69    1.53
   2   8  -1    6.69    2.85
  -2   8   1    1.63    1.96
  -2   8   1    3.79    2.09
   2   8  -1    4.00    2.16
   2   8  -1    3.01    2.28
   2   8  -1    3.14    2.26
  -2   8   1    2.38    1.80
   2   8   0   12.86    3.48
  -2   8   0   17.62    3.66
   2   8   0   22.04    4.23
   2   8   0   15.24    3.03
   2   8   0   15.06    3.67
   2   8   0   16.39    3.76
  -2   8   0   10.46    2.72
  -2   8   0   20.16    3.59
   2   8   0   12.25    3.41
   2   8   0   13.64    3.72
   2   8   0   15.82    4.10
  -2   8   0   16.40    3.10
   2   8   1   91.27    6.85
  -2   8  -1   98.47    9.16
   2   8   1  115.72    9.69
   2   8   1  106.12    9.61
  -2   8  -1  108.98    8.06
   2   8   1  107.33    9.69
  -2   8  -1  101.57    9.36
   2   8   1  128.32   10.81
  -2   8  -1  107.64    8.34
   2   8   1  107.57    9.78
  -2   8  -2   26.28    4.62
   2   8   2   34.38    5.44
   2   8   2   34.21    5.47
  -2   8  -2   38.43    5.53
   2   8   2   38.84    5.39
  -2   8  -2   34.34    5.54
   2   8   2   38.93    5.78
  -2   8  -2   38.79    5.79
   2   8   2   37.00    5.66
   2   8   2   31.75    5.21
  -2   8  -2   42.90    5.29
   2   8   2   34.64    5.75
   2   8   2   33.30    5.35
  -2   8  -3   65.09    7.22
   2   8   3   64.08    7.06
   2   8   3   55.36    6.91
   2   8   3   59.24    7.09
  -2   8  -3   59.70    6.98
  -2   8  -3   61.72    7.25
   2   8   3   53.60    6.40
   2   8   3   58.94    6.57
   2   8   3   55.52    6.85
   2   8   3   53.50    6.50
   2   8   3   62.60    7.22
   2   8   3   53.35    6.97
   2   8   3   54.05    6.65
   2   8   4   26.86    4.43
   2   8   4   22.95    4.24
  -2   8  -4   16.78    3.75
   2   8   4   16.95    3.77
   2   8   4   19.29    3.84
   2   8   4   18.01    3.92
   2   8   4   21.60    4.18
   2   8   4   21.10    4.39
   2   8   5   17.41    3.64
   2   8   5   22.11    4.07
   2   8   5   12.92    3.25
  -2   8  -5   11.09    3.10
  -2   8  -5   21.56    4.03
  -2   8  -5   20.47    2.96
   2   8   5   22.31    3.72
   2   8   5   15.50    3.56
   2   8   5   21.72    4.21
   2   8   6    1.34    1.35
   2   8   6    0.46    1.66
   2   8   6    3.31    1.94
  -2   8  -6    0.96    1.23
   2   8   6    2.43    1.55
  -2   8  -6    2.24    1.39
   2   8   6    0.48    1.44
   2   8   6    0.95    1.80
   2   8   7  140.26    9.21
   2   8   7  120.00    8.71
   2   8   7  125.45    9.07
  -2   8  -7  131.80    7.42
   2   8   7  126.69    9.01
   2   8   8   96.12    6.90
   2   8   8   91.43    6.90
   2   8   8   80.26    6.66
  -2   8  -8   74.75    5.23
   2   8   8   92.52    6.88
   2   8   9    4.06    1.34
   2   8   9    5.97    1.68
  -2   8  -9    3.97    1.08
  -2   8  -9    4.30    1.34
   2   8   9    2.28    1.22
  -2   9   7   68.08    4.49
   2   9  -7   72.56    4.70
  -2   9   6   56.57    4.56
   2   9  -6   52.94    4.62
  -2   9   5   90.07    5.52
   2   9  -5   75.91    5.27
   2   9  -5   90.05    6.59
  -2   9   4   26.73    2.63
   2   9  -4   39.79    4.27
   2   9  -4   29.02    3.32
   2   9  -4   33.91    4.25
   2   9  -4   37.94    4.44
  -2   9   3  308.47   13.64
  -2   9   3  289.43   11.95
   2   9  -3  302.60   13.92
   2   9  -3  261.79   11.49
   2   9  -3  312.60   14.48
   2   9  -3  314.43   14.65
  -2   9   2    7.19    2.29
  -2   9   2    4.37    1.66
   2   9  -2    3.47    1.19
   2   9  -2    4.87    2.14
   2   9  -2    9.05    2.46
   2   9  -2    2.90    1.77
  -2   9   1   19.57    3.14
   2   9  -1   27.13    3.96
  -2   9   1   19.17    3.26
   2   9  -1   22.54    3.65
   2   9  -1   28.58    4.28
  -2   9   0   23.00    2.84
   2   9   0   25.49    3.85
   2   9   0   23.63    3.91
  -2   9   0   22.27    3.53
   2   9   0   14.93    3.25
   2   9   1   70.43    6.32
  -2   9  -1   65.70    5.22
  -2   9  -1   69.79    6.39
   2   9   1   71.48    6.33
   2   9   1   68.33    6.67
   2   9   2  201.46   10.90
  -2   9  -2  184.64    9.77
   2   9   2  202.27   11.94
   2   9   3   29.45    3.67
   2   9   3   36.71    4.70
  -2   9  -3   32.49    3.06
   2   9   4   32.49    3.89
   2   9   4   35.65    3.65
  -2   9  -4   31.50    3.70
  -2   9  -4   39.43    4.47
   2   9   4   30.73    4.10
  -2   9  -4   24.64    2.69
   2   9   5  112.64    7.06
   2   9   5  109.11    7.04
  -2   9  -5  121.50    7.07
   2   9   5  113.71    7.42
   2   9   6   36.06    3.62
   2   9   6   37.58    3.58
  -2   9  -6   42.87    3.78
   2   9   6   42.71    4.01
   2   9   7   33.26    2.97
   2   9   7   27.84    2.58
  -2   9  -7   32.37    2.78
   2   9   7   27.92    2.62
   2  10  -2   40.38    2.90
  -2  10   1    5.03    1.12
   2  10  -1    3.79    1.04
   2  10  -1    3.66    1.05
  -2  10   0   13.45    1.81
   2  10   0   13.61    1.77
   2  10   0   15.71    2.01
  -2  10  -1   32.04    2.73
   2  10   1   37.68    3.05
   3  -9  -4   44.75    3.38
  -3  -9   4   39.82    3.33
   3  -9  -3   10.82    1.87
  -3  -9   3    7.36    1.79
   3  -9  -2    3.09    1.21
  -3  -9   2    1.47    1.15
   3  -9  -1    0.23    0.85
  -3  -9   1   -0.26    0.88
   3  -9   0   51.85    4.16
  -3  -9   0   55.67    4.66
  -3  -9   0   46.12    4.05
  -3  -9  -1   79.92    5.46
  -3  -9  -1   73.95    5.29
   3  -9   1   70.61    5.49
   3  -9   1   74.07    5.52
  -3  -9  -2   15.52    2.40
   3  -9   2   18.79    2.67
   3  -9   2   16.40    2.51
  -3  -9  -3   82.33    5.26
   3  -9   3   86.08    5.48
   3  -9   3   82.92    5.44
  -3  -9  -4   18.98    2.28
   3  -9   4   18.23    2.22
  -3  -9  -4   15.51    1.85
   3  -9   4   18.42    2.29
   3  -8  -8   12.52    1.77
   3  -8  -7   50.52    4.10
   3  -8  -7   43.08    3.26
   3  -8  -6   89.12    6.09
   3  -8  -6   90.28    5.87
  -3  -8   6   77.38    6.32
  -3  -8   6   72.24    5.59
   3  -8  -5   53.02    4.89
   3  -8  -5   57.08    5.25
  -3  -8   5   58.50    5.75
  -3  -8   5   62.06    5.60
  -3  -8   5   47.58    4.80
   3  -8  -4   48.36    5.07
  -3  -8   4   56.98    5.74
  -3  -8   4   41.90    4.65
   3  -8  -3   18.42    3.33
   3  -8  -3   12.27    2.26
  -3  -8   3   15.20    3.39
  -3  -8   3   14.15    2.99
   3  -8  -2   66.58    6.30
   3  -8  -2   50.09    4.82
  -3  -8   2   44.06    5.16
  -3  -8   2   55.99    6.15
  -3  -8   2   57.41    5.93
   3  -8  -2   56.84    6.43
   3  -8  -2   54.85    5.95
   3  -8  -1   41.21    5.02
   3  -8  -1   35.66    4.23
  -3  -8   1   32.94    4.28
  -3  -8   1   22.65    4.09
  -3  -8   1   39.87    5.07
   3  -8  -1   40.06    5.43
   3  -8  -1   38.22    5.10
   3  -8   0  116.99    8.57
   3  -8   0  110.81    7.89
  -3  -8   0   89.27    6.72
  -3  -8   0  103.91    8.56
  -3  -8   0  116.97    8.79
  -3  -8   0  120.32    8.98
   3  -8   0   98.19    8.90
   3  -8   0  113.44    9.01
   3  -8   1  193.83   11.01
   3  -8   1  175.45   10.67
  -3  -8  -1  203.11   11.94
  -3  -8  -1  187.45   11.62
  -3  -8  -1  197.17   11.96
   3  -8   1  188.65   12.33
   3  -8   1  210.03   12.65
  -3  -8  -2  251.79   13.28
  -3  -8  -2  251.29   13.68
  -3  -8  -2  254.56   13.80
   3  -8   2  262.65   14.57
   3  -8   2  262.57   14.33
  -3  -8  -2  236.78   12.55
   3  -8   3  211.07   11.69
  -3  -8  -3  233.93   12.65
   3  -8   3  214.01   12.79
  -3  -8  -3  228.19   11.94
   3  -8   3  205.09   12.38
   3  -8   4   35.41    4.43
  -3  -8  -4   36.52    4.03
  -3  -8  -4   35.78    4.54
   3  -8   4   28.54    4.37
  -3  -8  -4   36.49    4.38
   3  -8   4   31.34    4.47
   3  -8   5   36.77    4.23
  -3  -8  -5   32.11    3.15
  -3  -8  -5   41.45    4.62
   3  -8   5   36.76    4.51
  -3  -8  -5   39.78    4.43
   3  -8   5   42.85    4.83
   3  -8   6    8.86    2.05
  -3  -8  -6    8.96    2.06
   3  -8   6    9.88    2.35
   3  -8   6    9.76    2.27
  -3  -8  -6   10.79    2.26
   3  -8   7    4.33    1.38
  -3  -8  -7    5.96    1.51
   3  -8   7    4.64    1.45
  -3  -8  -7    6.62    1.64
   3  -8   8   81.34    4.59
  -3  -8  -8   90.22    4.69
   3  -7 -10   29.12    2.78
   3  -7  -9   67.07    5.19
  -3  -7   9   56.84    5.29
   3  -7  -9   58.72    5.15
   3  -7  -8    0.34    1.11
   3  -7  -8    0.23    0.79
  -3  -7   8    0.40    1.20
   3  -7  -8   -0.35    1.12
   3  -7  -7   38.85    4.86
  -3  -7   7   43.01    5.50
  -3  -7   7   32.20    4.79
   3  -7  -7   37.19    4.72
   3  -7  -6   40.47    5.13
   3  -7  -6   31.96    4.34
  -3  -7   6   25.48    4.23
  -3  -7   6   26.52    4.56
  -3  -7   6   36.21    5.27
  -3  -7   6   29.53    4.42
   3  -7  -5   23.87    4.18
   3  -7  -5   23.12    4.12
   3  -7  -5   18.37    3.37
   3  -7  -5   23.79    4.42
  -3  -7   5   17.45    3.81
  -3  -7   5   26.73    3.77
  -3  -7   5   25.89    4.64
  -3  -7   5   25.58    4.26
  -3  -7   5   24.49    4.48
   3  -7  -4  326.32   16.57
   3  -7  -4  358.28   17.48
   3  -7  -4  299.66   15.27
  -3  -7   4  303.86   17.11
   3  -7  -4  343.98   17.77
  -3  -7   4  320.35   17.37
  -3  -7   4  316.20   14.63
  -3  -7   4  290.69   16.59
  -3  -7   4  318.11   16.62
   3  -7  -3  234.97   13.57
   3  -7  -3  232.26   14.08
   3  -7  -3  216.60   12.91
   3  -7  -3  240.78   14.50
  -3  -7   3  244.31   15.05
  -3  -7   3  207.82   11.36
  -3  -7   3  241.60   14.29
  -3  -7   3  221.23   13.70
  -3  -7   3  225.99   13.71
   3  -7  -3  211.57   14.65
   3  -7  -2  134.18   10.58
   3  -7  -2  139.11   10.33
  -3  -7   2  128.56   10.33
   3  -7  -2  145.02   10.84
  -3  -7   2  147.34   11.55
  -3  -7   2  127.08    9.97
  -3  -7   2  143.70   10.70
  -3  -7   2  129.08   10.37
  -3  -7   2  113.17    9.74
  -3  -7   2  153.55   11.44
   3  -7  -2  146.08   11.99
   3  -7  -2  142.00   11.07
   3  -7  -1  105.09    9.21
  -3  -7   1   89.61    8.23
   3  -7  -1   94.81    8.63
  -3  -7   1  100.10    9.30
  -3  -7   1   69.30    7.23
  -3  -7   1   87.90    8.21
  -3  -7   1   77.46    8.18
  -3  -7   1  104.24    9.25
  -3  -7   1   87.54    8.79
   3  -7  -1  102.77   10.00
   3  -7  -1   96.01    9.09
  -3  -7   1   82.42    7.71
   3  -7   0   67.66    7.32
   3  -7   0   61.73    7.03
  -3  -7   0   62.01    6.55
  -3  -7   0   66.50    7.68
  -3  -7   0   74.79    8.14
  -3  -7   0   58.63    6.99
  -3  -7   0   75.31    8.08
   3  -7   0   68.26    8.26
   3  -7   0   71.98    8.16
  -3  -7   0   68.50    7.06
   3  -7   1  611.48   24.77
   3  -7   1  585.23   25.09
  -3  -7  -1  499.63   21.41
  -3  -7  -1  584.44   25.21
  -3  -7  -1  563.80   23.54
  -3  -7  -1  617.70   25.77
  -3  -7  -1  600.93   25.78
   3  -7   1  596.22   27.01
   3  -7   1  596.48   26.17
  -3  -7  -1  540.91   23.81
   3  -7   2   95.84    9.10
  -3  -7  -2   95.65    8.85
  -3  -7  -2   87.35    7.82
  -3  -7  -2   86.15    8.94
  -3  -7  -2  108.31    9.60
  -3  -7  -2  102.68    9.33
   3  -7   2  114.35   10.43
   3  -7   2  104.76    9.85
  -3  -7  -2   98.01    8.71
   3  -7   3  151.62   11.60
  -3  -7  -3  158.69   11.10
  -3  -7  -3  144.06    9.80
  -3  -7  -3  171.30   12.77
  -3  -7  -3  169.09   11.91
  -3  -7  -3  191.36   12.68
   3  -7   3  184.66   13.38
   3  -7   3  177.65   12.88
  -3  -7  -3  167.21   11.52
   3  -7   4   13.94    3.72
  -3  -7  -4   10.34    2.71
  -3  -7  -4   11.51    3.40
  -3  -7  -4   18.44    3.80
  -3  -7  -4    7.89    2.89
   3  -7   4   15.25    3.88
   3  -7   4   15.48    3.79
  -3  -7  -4    9.90    2.95
   3  -7   5  116.05    9.60
  -3  -7  -5  107.54    7.79
  -3  -7  -5   91.46    9.06
  -3  -7  -5  119.30    9.35
   3  -7   5   99.74    9.37
  -3  -7  -5  101.91    8.59
   3  -7   5  106.23    9.40
   3  -7   6   39.80    5.47
  -3  -7  -6   31.58    3.43
  -3  -7  -6   30.54    4.99
  -3  -7  -6   32.16    4.74
   3  -7   6   30.90    5.05
  -3  -7  -6   33.98    4.70
   3  -7   6   43.00    5.71
   3  -7   7    8.00    2.55
  -3  -7  -7   11.37    2.79
   3  -7   7   13.91    3.22
  -3  -7  -7    9.80    2.63
   3  -7   8    0.75    1.35
  -3  -7  -8    2.25    1.25
   3  -7   8    0.69    1.18
  -3  -7  -8    4.32    1.61
   3  -7   9   68.24    5.44
  -3  -7  -9   67.85    4.82
   3  -7  10   18.61    2.33
  -3  -6  12   14.74    2.13
  -3  -6  11   55.30    5.32
   3  -6 -10   15.14    2.76
  -3  -6  10   14.22    3.00
  -3  -6  10   11.07    3.01
   3  -6 -10   10.93    2.70
   3  -6  -9  164.09   10.13
   3  -6  -9  130.13    7.58
  -3  -6   9  143.93   10.35
   3  -6  -9  149.73   10.35
   3  -6  -8    8.59    2.62
   3  -6  -8    9.12    2.36
  -3  -6   8   10.27    2.60
  -3  -6   8    8.67    3.04
   3  -6  -8    7.16    2.62
   3  -6  -7   21.77    4.19
  -3  -6   7   24.95    4.88
  -3  -6   7   31.47    4.79
   3  -6  -7   23.03    4.42
   3  -6  -6  149.93   11.48
   3  -6  -6  159.86   11.11
   3  -6  -6  131.95   10.00
  -3  -6   6  162.31   12.46
   3  -6  -6  144.04   11.63
  -3  -6   6  137.38   11.07
  -3  -6   6  152.92   12.24
  -3  -6   6  157.50   11.28
   3  -6  -6  142.23   10.93
   3  -6  -6  150.10   11.36
   3  -6  -5   79.70    8.70
   3  -6  -5   73.39    7.90
   3  -6  -5   93.41    8.58
   3  -6  -5   72.60    7.54
  -3  -6   5   59.26    7.81
   3  -6  -5   75.58    8.43
  -3  -6   5   69.80    8.06
  -3  -6   5   72.25    7.27
  -3  -6   5   73.16    8.39
  -3  -6   5   56.25    6.78
  -3  -6   5   73.95    7.47
   3  -6  -4   65.83    7.89
   3  -6  -4   64.59    7.43
   3  -6  -4   59.55    7.11
  -3  -6   4   45.90    6.64
   3  -6  -4   62.33    7.73
  -3  -6   4   58.30    7.41
  -3  -6   4   55.61    6.32
  -3  -6   4   63.65    7.83
  -3  -6   4   52.44    6.58
   3  -6  -4   63.22    7.16
  -3  -6   4   55.47    7.58
   3  -6  -4   56.49    7.58
   3  -6  -4   56.09    6.71
   3  -6  -3  348.80   19.62
  -3  -6   3  349.14   19.68
   3  -6  -3  378.47   19.33
   3  -6  -3  399.16   20.15
  -3  -6   3  403.13   19.45
  -3  -6   3  345.57   19.39
   3  -6  -3  390.62   20.46
  -3  -6   3  369.04   18.59
  -3  -6   3  392.85   18.18
  -3  -6   3  337.71   19.00
  -3  -6   3  398.97   19.69
  -3  -6   3  362.98   19.08
   3  -6  -3  385.13   18.58
  -3  -6   3  406.72   21.17
   3  -6  -3  381.20   21.19
   3  -6  -3  361.58   19.26
   3  -6  -2  405.73   20.50
   3  -6  -2  374.74   18.98
   3  -6  -2  373.99   19.48
   3  -6  -2  378.16   19.57
  -3  -6   2  360.77   18.88
   3  -6  -2  348.15   19.18
  -3  -6   2  369.97   19.98
  -3  -6   2  341.63   16.95
  -3  -6   2  361.42   18.98
  -3  -6   2  369.54   19.06
  -3  -6   2  377.69   19.26
  -3  -6   2  374.96   19.40
  -3  -6   2  379.92   19.90
   3  -6  -2  359.88   20.50
   3  -6  -1   94.62    9.12
   3  -6  -1   88.73    8.99
  -3  -6   1   92.79    8.97
  -3  -6   1   88.09    8.51
  -3  -6   1   88.54    9.16
  -3  -6   1   95.43    7.90
  -3  -6   1   93.31    8.66
  -3  -6   1   91.24    8.80
  -3  -6   1   96.61    9.19
  -3  -6   1   95.60    9.28
  -3  -6   1   93.23    8.92
   3  -6  -1  103.61   10.34
   3  -6  -1   96.86    9.54
   3  -6   0   93.66    8.80
   3  -6   0   82.76    7.82
   3  -6   0   78.21    8.28
   3  -6   0   95.94    9.34
  -3  -6   0   83.50    8.44
  -3  -6   0   89.08    8.12
   3  -6   0   96.85    8.84
  -3  -6   0   95.25    9.37
  -3  -6   0   88.89    7.36
  -3  -6   0   72.67    7.43
  -3  -6   0   84.87    8.31
  -3  -6   0   89.16    8.99
  -3  -6   0  106.42    9.94
   3  -6   0   83.53    9.40
   3  -6   0   86.95    9.22
   3  -6   1   61.61    6.37
   3  -6   1   69.94    7.49
   3  -6   1   54.14    7.11
  -3  -6  -1   57.55    6.25
  -3  -6  -1   62.81    7.62
  -3  -6  -1   57.08    5.62
  -3  -6  -1   55.89    6.69
  -3  -6  -1   66.62    7.92
  -3  -6  -1   63.44    7.64
   3  -6   1   53.30    7.47
   3  -6   1   45.97    6.82
   3  -6   2  661.69   28.41
  -3  -6  -2  615.51   26.89
  -3  -6  -2  593.54   24.54
  -3  -6  -2  628.98   27.96
  -3  -6  -2  643.86   27.45
  -3  -6  -2  597.76   27.83
  -3  -6  -2  640.76   27.71
   3  -6   2  634.32   28.94
   3  -6   2  605.21   28.27
   3  -6   3  144.87   10.34
   3  -6   3  161.28   12.71
  -3  -6  -3  144.64   11.48
  -3  -6  -3  139.57   10.36
  -3  -6  -3  135.34   10.70
  -3  -6  -3  136.39   10.36
  -3  -6  -3  156.61   12.67
  -3  -6  -3  142.76   11.35
  -3  -6  -3  141.56   12.34
  -3  -6  -3  158.45   12.09
   3  -6   3  152.63   12.80
   3  -6   3  137.75   12.02
  -3  -6  -3  136.63   11.04
   3  -6   4  190.92   13.87
  -3  -6  -4  179.38   12.87
  -3  -6  -4  166.70   11.63
  -3  -6  -4  161.62   11.28
  -3  -6  -4  152.08   10.56
  -3  -6  -4  179.66   13.62
  -3  -6  -4  184.70   12.73
  -3  -6  -4  186.17   14.14
  -3  -6  -4  173.85   12.59
   3  -6   4  156.81   12.92
  -3  -6  -4  176.39   12.60
  -3  -6  -5    8.21    2.57
   3  -6   5   11.30    3.56
  -3  -6  -5   12.01    3.22
  -3  -6  -5   11.39    2.75
  -3  -6  -5    9.56    3.31
  -3  -6  -5   11.35    3.53
  -3  -6  -5   11.30    3.42
   3  -6   5    6.76    3.00
  -3  -6  -5    7.18    2.83
  -3  -6  -6   27.59    4.40
   3  -6   6   36.64    6.00
  -3  -6  -6   26.26    3.68
  -3  -6  -6   29.12    5.39
  -3  -6  -6   31.99    5.13
  -3  -6  -6   30.70    4.81
   3  -6   6   38.71    6.11
  -3  -6  -6   30.45    4.99
  -3  -6  -7   36.07    4.90
   3  -6   7   35.66    5.72
  -3  -6  -7   44.66    5.34
  -3  -6  -7   32.94    5.62
  -3  -6  -7   44.36    5.66
   3  -6   7   56.06    7.07
  -3  -6  -8  155.39   10.13
   3  -6   8  174.09   12.09
  -3  -6  -8  149.15   11.54
  -3  -6  -8  182.45   10.80
  -3  -6  -8  162.16   10.44
   3  -6   8  169.24   11.72
  -3  -6  -9   28.10    3.89
   3  -6   9   36.47    5.04
  -3  -6  -9   29.03    3.64
   3  -6   9   24.29    3.98
  -3  -6 -10   24.16    3.31
   3  -6  10   27.51    3.89
  -3  -6 -10   23.75    2.95
  -3  -6 -11   33.87    3.35
   3  -6  11   26.79    2.61
   3  -5 -13   65.37    4.14
  -3  -5  13   69.95    5.00
   3  -5 -12   71.27    4.32
  -3  -5  12   75.05    6.61
   3  -5 -11   91.82    6.56
  -3  -5  11   80.48    7.77
   3  -5 -11   86.53    7.41
  -3  -5  10  321.87   16.73
  -3  -5  10  336.99   16.29
  -3  -5  10  327.33   18.00
   3  -5 -10  351.23   17.37
   3  -5  -9    8.33    2.69
   3  -5  -9   11.95    2.55
  -3  -5   9    8.14    2.63
  -3  -5   9   12.17    3.23
  -3  -5   9   14.38    3.60
  -3  -5   9    9.57    2.35
  -3  -5   9    9.01    2.51
  -3  -5   9   17.66    4.48
   3  -5  -9   12.56    3.52
   3  -5  -8  368.16   18.37
   3  -5  -8  396.58   19.25
   3  -5  -8  344.95   16.87
  -3  -5   8  336.90   17.69
  -3  -5   8  361.69   19.71
  -3  -5   8  370.60   18.71
  -3  -5   8  368.14   16.64
  -3  -5   8  381.10   18.33
   3  -5  -8  379.68   20.05
   3  -5  -7  205.21   14.97
   3  -5  -7  233.58   14.54
   3  -5  -7  211.14   13.23
  -3  -5   7  196.91   12.83
  -3  -5   7  230.57   15.42
  -3  -5   7  233.47   14.24
  -3  -5   7  203.62   11.88
  -3  -5   7  225.89   15.76
   3  -5  -7  212.81   14.53
  -3  -5   7  217.19   12.44
   3  -5  -7  209.01   14.58
  -3  -5   7  231.03   16.28
   3  -5  -6  132.42   11.75
   3  -5  -6  128.75   10.88
   3  -5  -6  140.61   10.77
  -3  -5   6  126.68   10.38
   3  -5  -6  144.03   11.74
  -3  -5   6  122.46   11.24
  -3  -5   6  120.57   10.00
  -3  -5   6  117.07    8.73
  -3  -5   6  136.22   11.93
  -3  -5   6  132.02   10.43
  -3  -5   6  123.59    9.81
  -3  -5   6  117.77    8.84
   3  -5  -6  111.24   10.48
  -3  -5   6  137.77   12.19
   3  -5  -5  338.78   19.39
   3  -5  -5  311.18   17.82
   3  -5  -5  346.81   18.21
   3  -5  -5  275.61   16.45
  -3  -5   5  318.45   17.60
   3  -5  -5  330.54   18.73
  -3  -5   5  322.68   18.85
  -3  -5   5  333.48   17.35
  -3  -5   5  312.12   15.18
  -3  -5   5  339.71   19.30
  -3  -5   5  314.52   17.07
   3  -5  -5  329.92   18.05
  -3  -5   5  298.12   15.06
   3  -5  -5  289.75   17.54
  -3  -5   5  400.88   21.12
   3  -5  -4    7.33    2.85
   3  -5  -4    3.56    2.25
   3  -5  -4    4.62    2.47
   3  -5  -4    7.99    2.76
  -3  -5   4    2.85    2.16
  -3  -5   4    2.50    2.25
   3  -5  -4    6.40    2.83
  -3  -5   4    3.60    2.04
  -3  -5   4    2.75    1.62
  -3  -5   4    2.20    1.98
  -3  -5   4    7.62    2.99
  -3  -5   4    3.57    1.97
  -3  -5   4    6.83    2.15
   3  -5  -4    6.49    2.55
  -3  -5   4    7.18    2.89
   3  -5  -4    3.37    2.31
   3  -5  -4    5.68    2.28
   3  -5  -3 1597.23   51.12
   3  -5  -3 1526.16   49.18
   3  -5  -3 1607.02   49.81
   3  -5  -3 1432.31   48.61
  -3  -5   3 1408.83   44.67
   3  -5  -3 1586.62   50.67
  -3  -5   3 1580.23   50.27
  -3  -5   3 1471.95   47.08
  -3  -5   3 1366.35   44.07
   3  -5  -3 1413.85   44.18
  -3  -5   3 1525.77   49.63
  -3  -5   3 1467.17   48.39
  -3  -5   3 1401.86   46.23
   3  -5  -3 1448.78   46.95
  -3  -5   3 1512.90   48.88
  -3  -5   3 1404.47   44.45
   3  -5  -3 1474.81   48.25
   3  -5  -3 1478.96   50.74
  -3  -5   3 1619.91   51.35
   3  -5  -3 1539.01   48.65
   3  -5  -2   56.12    7.11
   3  -5  -2   59.88    6.90
   3  -5  -2   67.82    7.50
   3  -5  -2   66.37    7.54
  -3  -5   2   55.29    5.95
  -3  -5   2   60.85    6.70
   3  -5  -2   54.63    7.18
  -3  -5   2   54.71    6.70
  -3  -5   2   60.86    7.02
  -3  -5   2   70.08    7.62
  -3  -5   2   53.17    6.40
  -3  -5   2   63.27    6.01
   3  -5  -2   58.68    6.56
   3  -5  -2   61.78    7.67
  -3  -5   2   74.83    8.05
   3  -5  -2   57.12    6.95
   3  -5  -1   30.86    5.20
  -3  -5   1   23.96    4.48
  -3  -5   1   25.71    4.15
   3  -5  -1   31.98    5.09
   3  -5  -1   31.72    5.18
   3  -5  -1   44.75    6.29
  -3  -5   1   34.94    5.43
  -3  -5   1   34.31    4.76
  -3  -5   1   32.80    5.05
   3  -5  -1   30.42    5.19
  -3  -5   1   29.34    4.88
  -3  -5   1   28.49    4.66
  -3  -5   1   33.27    5.10
  -3  -5   1   26.40    4.71
  -3  -5   1   32.45    4.29
  -3  -5   1   24.92    4.71
   3  -5  -1   29.51    4.42
   3  -5   0  173.14   12.50
   3  -5   0  165.80   12.24
   3  -5   0  186.42   13.18
  -3  -5   0  173.96   12.54
  -3  -5   0  184.02   11.64
  -3  -5   0  191.68   12.11
   3  -5   0  173.44   11.96
  -3  -5   0  181.24   12.74
  -3  -5   0  178.32   11.29
  -3  -5   0  169.97   12.07
  -3  -5   0  191.10   13.03
  -3  -5   0  177.06   12.77
  -3  -5   0  176.59   10.64
  -3  -5   0  188.33   11.77
   3  -5   0  179.87   13.01
   3  -5   1  510.28   23.54
   3  -5   1  555.66   23.38
   3  -5   1  535.40   22.61
   3  -5   1  540.57   23.63
   3  -5   1  603.15   26.34
  -3  -5  -1  559.96   24.80
  -3  -5  -1  523.43   22.59
  -3  -5  -1  526.07   21.98
   3  -5   1  563.35   23.08
  -3  -5  -1  541.55   22.18
  -3  -5  -1  519.31   23.51
  -3  -5  -1  571.97   24.65
   3  -5   1  597.62   26.19
   3  -5   2  256.25   14.59
   3  -5   2  229.68   13.02
   3  -5   2  233.68   13.89
   3  -5   2  254.12   16.08
   3  -5   2  209.38   12.31
  -3  -5  -2  238.87   14.94
  -3  -5  -2  235.99   13.88
  -3  -5  -2  208.38   11.79
   3  -5   2  243.75   12.96
  -3  -5  -2  221.03   14.07
  -3  -5  -2  206.14   12.17
  -3  -5  -2  240.37   14.16
  -3  -5  -2  257.61   15.68
  -3  -5  -2  249.57   14.91
  -3  -5  -2  221.87   14.87
   3  -5   2  226.35   15.47
   3  -5   2  222.79   15.30
   3  -5   3  180.06   12.18
   3  -5   3  145.65    9.86
   3  -5   3  181.58   11.58
   3  -5   3  194.12   14.22
   3  -5   3  167.01   10.77
  -3  -5  -3  148.76   11.84
  -3  -5  -3  161.54   11.59
  -3  -5  -3  154.23   11.21
  -3  -5  -3  183.22   13.51
  -3  -5  -3  166.10   12.06
  -3  -5  -3  160.54   12.77
  -3  -5  -3  183.86   12.91
   3  -5   3  208.41   14.59
   3  -5   3  181.65   13.82
   3  -5   4   10.46    3.21
   3  -5   4    9.71    2.60
   3  -5   4   12.44    4.02
   3  -5   4    9.02    2.73
  -3  -5  -4   10.49    3.45
  -3  -5  -4    8.21    2.53
  -3  -5  -4    6.99    2.55
  -3  -5  -4    8.80    3.28
  -3  -5  -4    6.86    2.83
  -3  -5  -4    5.50    2.44
  -3  -5  -4    9.29    3.04
   3  -5   4    9.02    3.36
   3  -5   4    7.04    3.01
   3  -5   5  164.06   11.64
   3  -5   5  150.29   12.65
   3  -5   5  137.06    9.87
  -3  -5  -5  163.00   12.18
   3  -5   5  135.69   12.51
  -3  -5  -5  139.35   11.03
  -3  -5  -5  121.31    9.24
  -3  -5  -5  138.82   10.18
  -3  -5  -5  139.54   12.17
  -3  -5  -5  133.32   12.11
   3  -5   5  157.59   12.88
  -3  -5  -5  139.65   11.18
   3  -5   6  262.28   17.06
   3  -5   6  248.89   13.91
  -3  -5  -6  246.26   15.79
   3  -5   6  248.24   17.22
  -3  -5  -6  262.08   15.69
  -3  -5  -6  249.40   13.76
  -3  -5  -6  266.75   17.22
  -3  -5  -6  280.29   15.17
  -3  -5  -6  263.77   17.27
  -3  -5  -6  242.20   14.96
  -3  -5  -6  266.85   15.61
   3  -5   6  272.87   17.61
   3  -5   7   95.47    9.84
   3  -5   7   92.56    7.79
  -3  -5  -7  102.48    9.64
   3  -5   7   90.77    9.94
  -3  -5  -7  112.76    9.79
  -3  -5  -7   81.22    6.99
  -3  -5  -7  100.85   10.48
  -3  -5  -7   99.46    8.34
  -3  -5  -7   92.56   10.05
  -3  -5  -7  108.56    9.00
  -3  -5  -7  101.21    8.85
   3  -5   7  110.75   10.60
  -3  -5  -8  181.82   12.12
   3  -5   8  184.43   13.63
   3  -5   8  178.85   13.90
  -3  -5  -8  170.19   13.24
  -3  -5  -8  190.76   11.71
   3  -5   8  193.43   13.76
  -3  -5  -9   64.98    6.76
   3  -5   9   63.86    7.50
   3  -5   9   73.52    8.36
  -3  -5  -9   59.13    7.34
  -3  -5  -9   59.37    5.76
  -3  -5  -9   63.89    6.35
   3  -5   9   65.41    7.52
  -3  -5 -10   31.61    4.39
   3  -5  10   26.85    4.47
   3  -5  10   30.09    5.05
  -3  -5 -10   23.41    4.45
  -3  -5 -10   26.41    3.61
   3  -5  10   27.13    4.51
  -3  -5 -11    9.18    2.27
   3  -5  11    6.74    2.31
   3  -5  11    8.49    2.56
  -3  -5 -11    7.76    2.10
  -3  -5 -11   10.02    1.70
   3  -5  11    9.97    2.46
  -3  -5 -12   52.54    4.43
  -3  -5 -12   47.90    4.08
  -3  -5 -13   41.12    3.03
   3  -4 -14   22.04    2.52
  -3  -4  14   22.38    2.77
   3  -4 -13   30.67    3.82
  -3  -4  13   34.54    4.48
   3  -4 -12    0.42    1.44
   3  -4 -12    1.85    1.00
  -3  -4  12    1.94    1.59
  -3  -4  12    0.51    1.54
   3  -4 -11  100.41    8.67
   3  -4 -11  101.65    7.27
  -3  -4  11   78.70    7.86
  -3  -4  11   80.75    7.55
  -3  -4  11   86.35    7.39
  -3  -4  11   79.44    8.82
   3  -4 -11   80.43    7.84
   3  -4 -10  495.40   22.31
   3  -4 -10  501.46   20.42
  -3  -4  10  424.66   20.95
  -3  -4  10  422.74   21.05
  -3  -4  10  484.23   21.34
  -3  -4  10  476.05   20.25
  -3  -4  10  484.00   23.87
  -3  -4  10  447.21   18.29
   3  -4 -10  477.40   22.26
   3  -4  -9  125.30   10.62
   3  -4  -9  127.33    9.07
  -3  -4   9  115.68   10.34
  -3  -4   9  138.12   11.64
  -3  -4   9  148.91   11.10
  -3  -4   9  136.65   10.11
  -3  -4   9  130.26   11.98
  -3  -4   9  138.89    9.67
  -3  -4   9  141.38   10.52
   3  -4  -9  128.81   11.16
  -3  -4   9  126.51   11.87
   3  -4  -8  117.79   10.86
   3  -4  -8  101.86    9.59
   3  -4  -8  103.74    9.29
   3  -4  -8   92.91    8.15
  -3  -4   8   87.24    8.73
  -3  -4   8   97.36    9.88
  -3  -4   8   94.58    8.90
  -3  -4   8   97.29    8.50
  -3  -4   8   89.83    8.06
  -3  -4   8  105.08    8.97
   3  -4  -8   90.31    9.46
  -3  -4   8  105.69   10.64
   3  -4  -7  160.84   12.97
   3  -4  -7  169.78   12.22
   3  -4  -7  151.40   10.91
   3  -4  -7  154.80   11.61
  -3  -4   7  164.08   11.79
  -3  -4   7  161.32   12.94
  -3  -4   7  135.09   10.90
  -3  -4   7  155.12   10.84
  -3  -4   7  129.85   10.10
  -3  -4   7  178.02   13.78
   3  -4  -7  140.66   12.06
  -3  -4   7  128.74   10.20
  -3  -4   7  159.21   11.02
   3  -4  -7  154.72   12.62
  -3  -4   7  171.62   13.46
   3  -4  -6   68.13    8.13
   3  -4  -6   50.05    6.54
   3  -4  -6   66.64    7.54
   3  -4  -6   64.04    7.36
  -3  -4   6   59.17    6.71
  -3  -4   6   65.04    7.87
  -3  -4   6   62.64    6.98
  -3  -4   6   66.73    6.70
  -3  -4   6   48.77    6.08
  -3  -4   6   63.70    8.09
   3  -4  -6   63.65    6.46
   3  -4  -6   65.42    7.82
  -3  -4   6   66.10    7.04
  -3  -4   6   55.30    6.32
   3  -4  -6   70.28    8.11
  -3  -4   6   65.21    8.11
   3  -4  -5  160.83   12.65
   3  -4  -5  148.75   10.94
   3  -4  -5  159.78   11.70
   3  -4  -5  161.84   11.57
   3  -4  -5  140.59   11.04
   3  -4  -5  156.88   12.11
  -3  -4   5  138.90   11.57
  -3  -4   5  174.52   11.78
  -3  -4   5  150.62   10.30
  -3  -4   5  150.35   10.94
  -3  -4   5  162.14   12.49
   3  -4  -5  162.75   10.57
   3  -4  -5  162.77   12.06
  -3  -4   5  148.89   10.35
  -3  -4   5  136.18   10.62
   3  -4  -5  169.85   12.32
  -3  -4   5  167.77   12.70
   3  -4  -4  342.26   18.78
   3  -4  -4  328.72   16.57
   3  -4  -4  341.78   17.89
   3  -4  -4  367.66   18.36
   3  -4  -4  325.65   17.74
  -3  -4   4  370.94   18.81
  -3  -4   4  355.08   16.90
   3  -4  -4  353.45   18.93
  -3  -4   4  380.35   19.20
  -3  -4   4  321.49   16.78
  -3  -4   4  352.64   17.38
  -3  -4   4  347.70   18.54
   3  -4  -4  331.68   16.15
  -3  -4   4  348.96   15.40
   3  -4  -4  332.48   17.69
  -3  -4   4  325.27   16.19
  -3  -4   4  362.59   18.03
   3  -4  -4  332.51   18.16
   3  -4  -4  330.49   16.26
  -3  -4   4  351.81   18.85
   3  -4  -3  699.72   25.67
   3  -4  -3  684.44   28.26
   3  -4  -3  669.80   23.71
   3  -4  -3  672.48   27.31
   3  -4  -3  700.46   27.55
   3  -4  -3  679.80   27.65
  -3  -4   3  733.49   28.53
  -3  -4   3  713.72   26.26
   3  -4  -3  668.87   28.15
  -3  -4   3  718.91   28.08
  -3  -4   3  677.34   26.45
  -3  -4   3  681.28   26.55
  -3  -4   3  689.11   27.63
   3  -4  -3  663.57   25.47
  -3  -4   3  696.67   25.28
   3  -4  -3  685.40   26.70
  -3  -4   3  640.92   25.15
  -3  -4   3  704.49   27.53
   3  -4  -3  697.00   27.47
   3  -4  -3  685.20   28.46
   3  -4  -3  655.59   26.06
   3  -4  -2   23.89    4.50
  -3  -4   2   20.98    4.01
   3  -4  -2   18.86    3.22
   3  -4  -2   21.94    3.79
   3  -4  -2   19.63    3.84
   3  -4  -2   23.10    4.29
   3  -4  -2   16.93    3.82
  -3  -4   2   16.12    3.71
  -3  -4   2   17.48    3.41
   3  -4  -2   18.18    3.98
  -3  -4   2   17.41    3.61
  -3  -4   2   20.15    3.78
  -3  -4   2   22.82    3.79
  -3  -4   2   17.50    3.37
  -3  -4   2   20.13    3.58
   3  -4  -2   17.35    3.36
  -3  -4   2   26.96    4.48
   3  -4  -2   22.03    4.49
   3  -4  -2   18.68    3.76
   3  -4  -2   19.65    3.75
   3  -4  -1  245.98   14.89
   3  -4  -1  246.46   12.09
   3  -4  -1  262.08   13.39
   3  -4  -1  269.45   14.59
   3  -4  -1  279.51   15.01
   3  -4  -1  241.67   14.78
  -3  -4   1  272.38   15.24
   3  -4  -1  249.47   14.55
  -3  -4   1  240.87   13.85
  -3  -4   1  260.38   13.98
   3  -4  -1  257.38   13.61
  -3  -4   1  235.85   13.79
  -3  -4   1  271.21   14.32
  -3  -4   1  258.26   14.03
  -3  -4   1  236.89   14.21
   3  -4  -1  243.46   13.38
   3  -4  -1  291.71   16.20
  -3  -4   1  270.49   14.22
   3  -4  -1  261.34   14.75
   3  -4   0  170.92   11.77
   3  -4   0  158.44    9.71
   3  -4   0  163.64   11.00
   3  -4   0  184.65   11.79
   3  -4   0  198.30   13.08
  -3  -4   0  176.89   12.02
   3  -4   0  158.68   10.92
  -3  -4   0  173.60   10.93
   3  -4   0  168.72   10.68
  -3  -4   0  191.24   11.90
  -3  -4   0  159.80   10.97
  -3  -4   0  173.98   11.35
  -3  -4   0  172.35   11.61
   3  -4   0  182.40   12.57
  -3  -4   0  174.50   10.67
   3  -4   1   66.66    7.08
   3  -4   1   76.52    6.59
   3  -4   1   78.10    7.15
   3  -4   1   79.91    8.35
  -3  -4  -1   79.47    7.81
  -3  -4  -1   72.92    7.11
   3  -4   1   62.80    6.33
  -3  -4  -1   59.69    5.91
  -3  -4  -1   55.72    6.33
  -3  -4  -1   70.06    7.36
  -3  -4  -1   62.38    5.78
   3  -4   1   76.53    7.82
   3  -4   1   62.09    7.26
   3  -4   2  120.66    9.30
   3  -4   2  129.25    9.18
   3  -4   2  133.16    9.55
   3  -4   2  118.81   10.32
  -3  -4  -2  121.25    9.97
  -3  -4  -2  124.18    9.53
  -3  -4  -2  111.77    9.28
  -3  -4  -2  117.80    9.80
  -3  -4  -2  132.02   10.24
  -3  -4  -2  132.18    9.88
   3  -4   2  128.52   10.74
   3  -4   2  117.22   10.40
   3  -4   3   18.26    3.61
   3  -4   3   19.86    3.77
   3  -4   3   16.48    3.29
   3  -4   3   17.68    3.34
   3  -4   3   13.57    3.74
  -3  -4  -3   17.09    3.73
  -3  -4  -3   11.16    3.02
   3  -4   3   15.53    3.99
  -3  -4  -3   12.61    3.14
  -3  -4  -3   17.20    3.73
  -3  -4  -3   11.53    3.17
  -3  -4  -3   15.54    3.73
  -3  -4  -3    7.83    2.70
   3  -4   3   13.70    3.61
   3  -4   3   11.89    3.65
   3  -4   4   42.45    5.48
   3  -4   4   46.80    5.87
   3  -4   4   36.05    4.57
   3  -4   4   47.91    5.15
   3  -4   4   57.11    7.17
   3  -4   4   51.14    6.03
  -3  -4  -4   46.57    6.27
   3  -4   4   48.16    6.82
  -3  -4  -4   42.76    5.84
  -3  -4  -4   37.43    4.96
  -3  -4  -4   52.08    6.13
  -3  -4  -4   36.87    5.83
  -3  -4  -4   39.41    6.05
  -3  -4  -4   43.61    5.77
   3  -4   4   45.45    6.92
   3  -4   5   81.71    7.70
   3  -4   5   85.37    8.03
   3  -4   5   64.70    5.92
   3  -4   5   83.10    8.01
   3  -4   5   75.28    8.73
  -3  -4  -5   76.86    8.07
   3  -4   5   87.28    9.51
  -3  -4  -5   74.28    8.00
  -3  -4  -5   85.30    9.04
  -3  -4  -5   74.13    7.33
  -3  -4  -5   73.36    8.45
  -3  -4  -5   82.01    7.89
   3  -4   5   83.85    9.23
   3  -4   6  418.67   19.54
   3  -4   6  351.31   18.45
   3  -4   6  376.89   21.01
  -3  -4  -6  347.95   16.85
  -3  -4  -6  399.95   20.05
   3  -4   6  367.76   21.04
  -3  -4  -6  381.21   19.52
  -3  -4  -6  314.20   16.37
  -3  -4  -6  366.72   18.04
  -3  -4  -6  375.27   20.87
  -3  -4  -6  395.56   18.00
  -3  -4  -6  356.53   20.24
  -3  -4  -6  382.87   18.55
   3  -4   6  411.20   22.05
   3  -4   7  191.16   12.59
   3  -4   7  204.57   13.48
   3  -4   7  203.55   14.70
  -3  -4  -7  215.58   14.08
   3  -4   7  184.90   14.53
  -3  -4  -7  195.53   13.56
  -3  -4  -7  177.63   11.99
  -3  -4  -7  194.40   12.06
  -3  -4  -7  193.43   14.58
  -3  -4  -7  205.50   11.94
  -3  -4  -7  190.40   14.64
  -3  -4  -7  193.63   14.63
  -3  -4  -7  195.43   12.41
  -3  -4  -7  220.72   13.27
   3  -4   7  226.15   15.84
   3  -4   8   -0.68    2.19
   3  -4   8    3.35    2.01
  -3  -4  -8    1.20    1.37
  -3  -4  -8    1.80    1.53
   3  -4   8    0.75    2.27
  -3  -4  -8    3.10    1.96
  -3  -4  -8    1.96    1.48
  -3  -4  -8    2.05    1.40
  -3  -4  -8    0.70    1.38
  -3  -4  -8    0.72    2.02
  -3  -4  -8    1.42    1.62
  -3  -4  -8    2.21    1.67
   3  -4   8    2.11    2.27
  -3  -4  -8    1.93    1.74
  -3  -4  -9  250.04   14.98
   3  -4   9  273.92   15.37
   3  -4   9  291.39   17.11
   3  -4   9  266.52   17.45
  -3  -4  -9  250.35   14.79
  -3  -4  -9  225.10   13.84
  -3  -4  -9  230.31   15.92
  -3  -4  -9  267.01   13.14
  -3  -4  -9  247.10   13.62
   3  -4   9  296.14   17.65
  -3  -4 -10  409.81   18.90
   3  -4  10  394.66   18.51
   3  -4  10  382.93   19.49
   3  -4  10  403.53   21.13
  -3  -4 -10  360.51   18.22
  -3  -4 -10  385.40   20.22
  -3  -4 -10  377.71   16.20
   3  -4  10  376.59   19.81
  -3  -4 -11  219.25   12.30
   3  -4  11  214.84   13.90
  -3  -4 -11  221.03   12.52
  -3  -4 -11  197.31   13.08
  -3  -4 -12   51.17    5.12
   3  -4  12   52.31    5.94
  -3  -4 -12   56.10    5.44
   3  -4  12   39.10    4.65
  -3  -4 -13  186.67    8.41
   3  -4  13  171.36    9.10
  -3  -4 -13  176.07    8.46
  -3  -4 -14  147.28    6.20
   3  -3 -14    6.23    1.86
  -3  -3  14    8.89    2.35
   3  -3 -13    8.57    2.60
  -3  -3  13    4.76    2.03
  -3  -3  13    6.32    2.49
   3  -3 -12    7.19    2.69
  -3  -3  12    4.11    2.27
  -3  -3  12    4.89    2.10
  -3  -3  12    7.87    3.01
   3  -3 -11  258.67   15.65
   3  -3 -11  255.41   12.42
  -3  -3  11  217.93   14.60
  -3  -3  11  245.60   14.22
  -3  -3  11  228.23   13.81
  -3  -3  11  242.67   16.26
   3  -3 -10   88.93    9.05
   3  -3 -10   85.03    8.96
   3  -3 -10   86.49    7.56
   3  -3 -10   72.65    6.14
  -3  -3  10   89.29    9.11
  -3  -3  10   78.68    6.83
  -3  -3  10   86.29    8.81
  -3  -3  10   80.40    8.00
  -3  -3  10   81.73    8.02
  -3  -3  10   83.47    9.73
   3  -3 -10   96.96    9.27
  -3  -3  10   66.46    8.46
   3  -3  -9  678.67   29.41
   3  -3  -9  658.53   29.35
   3  -3  -9  697.03   27.10
   3  -3  -9  664.21   25.25
  -3  -3   9  656.79   28.76
  -3  -3   9  651.05   25.24
  -3  -3   9  630.83   28.65
  -3  -3   9  728.32   28.37
  -3  -3   9  699.85   27.86
  -3  -3   9  686.10   25.04
   3  -3  -9  697.96   27.37
   3  -3  -9  684.66   26.75
  -3  -3   9  679.15   27.81
   3  -3  -9  683.30   29.31
  -3  -3   9  700.74   30.37
   3  -3  -8  116.75   10.48
   3  -3  -8  112.40    9.51
   3  -3  -8   95.05    8.30
  -3  -3   8  116.81   10.28
  -3  -3   8  106.90    8.51
   3  -3  -8  116.60    9.24
  -3  -3   8  115.72   10.55
  -3  -3   8  120.40    9.93
  -3  -3   8  121.91    9.74
  -3  -3   8  106.61    8.35
   3  -3  -8  116.18    9.46
   3  -3  -8   99.53    8.86
  -3  -3   8  118.85    9.78
  -3  -3   8  114.88    9.15
   3  -3  -8  111.49   10.32
  -3  -3   8  121.91   11.26
   3  -3  -7  192.07   13.54
   3  -3  -7  175.49   12.86
   3  -3  -7  192.74   12.16
   3  -3  -7  166.42   12.28
  -3  -3   7  167.17   11.96
   3  -3  -7  181.74   11.27
  -3  -3   7  176.60   13.32
  -3  -3   7  171.98   12.01
  -3  -3   7  189.70   12.15
  -3  -3   7  167.77   10.83
  -3  -3   7  188.90   14.04
   3  -3  -7  177.54   11.63
   3  -3  -7  164.24   11.54
  -3  -3   7  162.45   11.45
  -3  -3   7  185.69   12.09
   3  -3  -7  169.64   12.88
  -3  -3   7  181.80   13.50
   3  -3  -6  189.98   13.13
   3  -3  -6  163.81   11.89
   3  -3  -6  160.45   11.48
   3  -3  -6  163.38   11.68
  -3  -3   6  162.29   11.08
  -3  -3   6  150.84   12.02
  -3  -3   6  166.00   11.40
  -3  -3   6  162.47   10.99
  -3  -3   6  154.71   10.28
  -3  -3   6  166.53   12.69
   3  -3  -6  172.43   10.92
   3  -3  -6  160.70   12.19
   3  -3  -6  150.53   10.86
  -3  -3   6  146.08   10.66
   3  -3  -6  158.96   12.13
  -3  -3   6  172.51   12.64
   3  -3  -5  114.61    9.69
   3  -3  -5   98.52    8.64
   3  -3  -5   91.35    8.14
   3  -3  -5   93.61    8.63
  -3  -3   5   94.11    8.88
  -3  -3   5  103.83    8.59
  -3  -3   5   98.52    9.14
   3  -3  -5  101.95    7.86
   3  -3  -5  100.60    8.43
  -3  -3   5   95.37    8.04
  -3  -3   5  106.07    9.06
   3  -3  -5  101.10    9.20
  -3  -3   5   91.60    8.75
   3  -3  -4  119.24    9.83
   3  -3  -4  118.09    9.29
   3  -3  -4  114.70    9.34
   3  -3  -4  115.98    9.33
   3  -3  -4  124.04    9.73
   3  -3  -4  132.05   10.34
  -3  -3   4  146.13   10.76
  -3  -3   4  139.66    9.92
  -3  -3   4  135.90    9.30
   3  -3  -4  125.53    9.33
   3  -3  -4  121.79    9.67
  -3  -3   4  128.28    9.26
  -3  -3   4  123.30    9.55
   3  -3  -4  124.84    9.94
   3  -3  -4  115.10    9.57
  -3  -3   4  127.78   10.00
   3  -3  -3 1115.83   37.47
   3  -3  -3 1086.86   36.39
   3  -3  -3 1129.67   36.83
   3  -3  -3 1066.46   36.86
   3  -3  -3 1069.08   37.37
  -3  -3   3 1128.25   37.05
  -3  -3   3 1110.80   36.05
  -3  -3   3 1134.68   35.83
  -3  -3   3 1003.39   32.37
   3  -3  -3 1058.67   35.65
  -3  -3   3  991.94   32.24
  -3  -3   3 1047.35   35.31
  -3  -3   3 1077.07   36.70
  -3  -3   3 1142.55   37.14
   3  -3  -2   32.13    4.77
   3  -3  -2   27.12    4.43
   3  -3  -2   33.14    4.77
   3  -3  -2   32.79    4.79
   3  -3  -2   36.16    5.03
  -3  -3   2   39.41    4.86
  -3  -3   2   33.10    4.03
  -3  -3   2   27.63    3.68
  -3  -3   2   40.00    5.11
   3  -3  -1  200.56   12.27
   3  -3  -1  195.13   11.56
   3  -3  -1  184.85   11.39
   3  -3  -1  181.84   11.87
   3  -3  -1  196.81   11.43
  -3  -3   1  202.02   12.28
  -3  -3   1  194.75   11.34
  -3  -3   1  185.93   11.24
  -3  -3   1  189.02   10.60
  -3  -3   1  178.74   10.33
  -3  -3   1  187.08   11.69
  -3  -3   1  196.53   10.97
   3  -3   0  307.15   15.65
   3  -3   0  296.75   15.91
   3  -3   0  316.35   15.49
  -3  -3   0  325.00   16.15
  -3  -3   0  320.91   15.49
  -3  -3   0  305.14   14.41
  -3  -3   0  319.98   15.50
  -3  -3   0  310.46   14.72
  -3  -3   0  304.29   14.55
  -3  -3   0  310.72   15.45
  -3  -3   0  333.30   14.43
   3  -3   1  153.57   10.35
   3  -3   1  159.31   11.06
   3  -3   1  153.85   10.12
  -3  -3  -1  156.31   10.49
  -3  -3  -1  170.56   10.64
  -3  -3  -1  140.71    8.85
  -3  -3  -1  159.20   10.39
  -3  -3  -1  150.49   10.13
  -3  -3  -1  150.85    8.46
   3  -3   2  327.15   15.05
   3  -3   2  326.40   15.69
   3  -3   2  318.27   16.70
   3  -3   2  309.88   15.75
  -3  -3  -2  319.67   16.08
  -3  -3  -2  333.91   16.00
   3  -3   2  322.91   15.52
  -3  -3  -2  323.78   16.15
  -3  -3  -2  318.79   15.94
  -3  -3  -2  303.47   15.20
  -3  -3  -2  288.06   11.85
   3  -3   2  330.27   17.20
   3  -3   3   76.88    6.90
   3  -3   3   71.56    6.87
   3  -3   3   65.74    6.41
   3  -3   3   72.75    7.17
   3  -3   3   68.75    7.42
  -3  -3  -3   72.10    7.14
  -3  -3  -3   75.44    7.17
  -3  -3  -3   78.06    7.53
  -3  -3  -3   74.00    7.32
  -3  -3  -3   74.86    6.90
   3  -3   3   67.67    7.60
   3  -3   4  112.31    8.65
   3  -3   4  121.13    9.14
   3  -3   4  111.18    9.86
   3  -3   4  102.62    7.77
   3  -3   4  124.17    9.57
   3  -3   4  107.71    9.66
  -3  -3  -4  111.78    9.12
  -3  -3  -4  114.31    9.13
  -3  -3  -4   93.65    6.92
  -3  -3  -4  110.45    9.48
  -3  -3  -4  102.05    8.43
  -3  -3  -4  100.90    9.00
  -3  -3  -4   98.13    7.84
   3  -3   4  110.51    9.91
   3  -3   5   43.52    5.34
   3  -3   5   35.91    5.17
   3  -3   5   37.68    4.51
   3  -3   5   24.52    4.89
   3  -3   5   32.83    5.24
   3  -3   5   29.66    5.22
  -3  -3  -5   38.37    5.45
   3  -3   5   39.48    6.13
  -3  -3  -5   25.45    4.54
  -3  -3  -5   42.47    4.85
  -3  -3  -5   30.81    4.09
  -3  -3  -5   35.28    5.55
  -3  -3  -5   35.78    5.23
  -3  -3  -5   35.94    4.68
  -3  -3  -5   30.39    5.10
  -3  -3  -5   34.67    4.79
   3  -3   5   35.61    5.90
   3  -3   6   52.47    6.15
   3  -3   6   64.18    6.93
   3  -3   6   75.79    8.61
   3  -3   6   53.01    5.36
   3  -3   6   54.52    6.79
  -3  -3  -6   60.35    6.51
  -3  -3  -6   61.44    6.93
   3  -3   6   63.09    7.79
  -3  -3  -6   61.85    7.12
  -3  -3  -6   53.88    6.04
  -3  -3  -6   61.98    6.23
  -3  -3  -6   58.74    7.48
  -3  -3  -6   60.77    7.23
  -3  -3  -6   64.12    6.13
  -3  -3  -6   49.24    6.74
  -3  -3  -6   61.46    6.32
   3  -3   6   56.73    7.52
   3  -3   7  383.63   18.48
   3  -3   7  373.98   21.16
   3  -3   7  392.18   19.95
  -3  -3  -7  419.36   18.78
  -3  -3  -7  375.04   19.14
   3  -3   7  363.91   21.13
  -3  -3  -7  424.00   20.41
  -3  -3  -7  347.92   17.80
  -3  -3  -7  377.50   18.08
  -3  -3  -7  388.27   20.80
  -3  -3  -7  340.18   15.72
  -3  -3  -7  381.53   20.46
  -3  -3  -7  372.57   20.57
  -3  -3  -7  369.85   17.09
  -3  -3  -7  374.30   17.85
   3  -3   7  387.83   21.44
   3  -3   8  715.89   26.96
   3  -3   8  698.01   31.42
   3  -3   8  645.42   28.47
  -3  -3  -8  688.66   26.78
   3  -3   8  697.37   31.12
  -3  -3  -8  734.64   29.25
  -3  -3  -8  645.95   27.21
  -3  -3  -8  640.48   26.84
  -3  -3  -8  667.35   30.19
  -3  -3  -8  689.18   30.15
  -3  -3  -8  628.01   29.38
  -3  -3  -8  681.47   26.08
   3  -3   8  743.64   31.66
   3  -3   9   23.98    4.05
   3  -3   9   29.94    6.02
  -3  -3  -9   39.28    5.62
  -3  -3  -9   34.92    5.44
   3  -3   9   30.36    6.01
  -3  -3  -9   25.69    4.83
  -3  -3  -9   27.69    4.82
  -3  -3  -9   23.57    5.05
  -3  -3  -9   33.20    5.92
  -3  -3  -9   29.57    5.72
  -3  -3  -9   26.03    4.01
   3  -3   9   33.02    5.82
  -3  -3 -10   42.47    5.73
   3  -3  10   43.30    6.91
   3  -3  10   49.90    6.66
   3  -3  10   54.12    7.47
  -3  -3 -10   47.16    6.41
  -3  -3 -10   43.51    6.00
  -3  -3 -10   49.10    6.86
   3  -3  10   49.53    6.98
  -3  -3 -11   54.66    6.12
   3  -3  11   61.15    7.71
   3  -3  11   67.59    7.32
   3  -3  11   53.53    7.13
  -3  -3 -11   58.70    6.83
  -3  -3 -11   51.94    6.33
  -3  -3 -11   63.23    7.48
   3  -3  11   53.97    6.93
  -3  -3 -12  178.05   10.37
   3  -3  12  139.34   11.07
   3  -3  12  160.49   11.51
  -3  -3 -12  159.99   10.34
  -3  -3 -12  176.84   10.50
   3  -3  13  148.99    9.76
  -3  -3 -13  175.84    9.64
  -3  -3 -13  173.45    9.23
   3  -3  13  135.11    8.42
  -3  -3 -14  115.00    6.39
  -3  -3 -14  117.44    6.06
  -3  -2  15   18.88    2.81
   3  -2 -14  249.70   12.01
  -3  -2  14  204.65   11.34
  -3  -2  14  228.09   12.71
   3  -2 -13   46.94    5.72
  -3  -2  13   35.14    5.23
  -3  -2  13   44.67    5.43
  -3  -2  13   49.47    6.45
  -3  -2  12   11.76    2.83
   3  -2 -12   12.92    3.47
  -3  -2  12   14.11    3.87
  -3  -2  12   13.56    2.84
  -3  -2  12   16.68    3.62
  -3  -2  12   21.16    4.72
   3  -2 -11  141.31   11.76
  -3  -2  11  150.34   12.29
  -3  -2  11  145.35   10.10
  -3  -2  11  167.69   11.33
  -3  -2  11  161.40   11.56
  -3  -2  11  142.32   12.58
   3  -2 -10  717.31   28.80
   3  -2 -10  661.35   29.49
   3  -2 -10  662.34   24.67
  -3  -2  10  671.68   29.34
  -3  -2  10  630.15   26.82
  -3  -2  10  716.52   26.88
   3  -2 -10  689.92   28.60
  -3  -2  10  594.55   27.64
  -3  -2  10  701.00   28.23
  -3  -2  10  736.13   32.32
  -3  -2  10  696.09   28.53
   3  -2 -10  704.20   28.13
   3  -2 -10  651.29   28.41
  -3  -2  10  697.79   29.97
   3  -2  -9   37.21    5.79
   3  -2  -9   40.06    6.43
  -3  -2   9   33.69    5.87
   3  -2  -9   45.77    5.36
   3  -2  -9   34.14    4.63
   3  -2  -9   35.34    5.62
  -3  -2   9   48.43    6.80
  -3  -2   9   34.21    5.11
  -3  -2   9   33.12    4.98
   3  -2  -9   43.93    6.08
  -3  -2   9   38.79    5.55
  -3  -2   9   36.54    5.59
  -3  -2   9   29.97    4.95
   3  -2  -9   40.00    6.11
   3  -2  -8   96.03    9.13
   3  -2  -8  106.30   10.06
   3  -2  -8   93.14    8.13
   3  -2  -8  109.68    8.58
  -3  -2   8   99.16    9.27
  -3  -2   8  111.16    8.76
   3  -2  -8   98.26    9.16
  -3  -2   8   95.94    8.70
  -3  -2   8  105.75    9.10
  -3  -2   8  105.83    7.48
  -3  -2   8  109.87   10.64
   3  -2  -8   84.14    8.63
  -3  -2   8  100.26    8.92
   3  -2  -8   95.80    9.42
  -3  -2   8  103.29    9.95
   3  -2  -7  107.58    9.35
   3  -2  -7   92.66    9.17
   3  -2  -7  107.31    8.63
   3  -2  -7   83.84    7.81
  -3  -2   7   94.80    8.62
  -3  -2   7  100.68    7.75
   3  -2  -7  104.70    8.90
  -3  -2   7   98.19    8.37
  -3  -2   7   83.66    7.94
  -3  -2   7   79.37    6.69
  -3  -2   7   93.64    9.57
   3  -2  -7  103.74    9.16
  -3  -2   7   89.28    8.22
   3  -2  -7   90.73    8.94
  -3  -2   7   98.79    9.49
  -3  -2   6  216.91   13.90
   3  -2  -6  196.38   13.24
   3  -2  -6  212.69   12.51
   3  -2  -6  188.44   12.63
  -3  -2   6  204.82   12.32
  -3  -2   6  200.87   10.62
   3  -2  -6  185.80   11.87
  -3  -2   6  207.64   12.41
  -3  -2   6  234.42   13.16
  -3  -2   6  197.70   11.00
  -3  -2   6  215.19   13.97
   3  -2  -6  224.95   13.18
  -3  -2   6  208.14   12.51
   3  -2  -6  218.90   13.86
  -3  -2   5  251.45   14.62
   3  -2  -5  270.44   14.63
   3  -2  -5  243.89   14.37
   3  -2  -5  266.61   14.13
   3  -2  -5  250.62   14.24
  -3  -2   5  254.03   11.26
  -3  -2   5  270.56   14.00
  -3  -2   5  267.40   12.96
  -3  -2   5  262.85   13.95
   3  -2  -5  249.95   10.86
   3  -2  -5  281.01   15.54
  -3  -2   4  329.78   16.25
   3  -2  -4  332.42   16.01
   3  -2  -4  321.87   15.62
   3  -2  -4  307.12   15.67
  -3  -2   4  317.21   15.33
  -3  -2   4  301.44   15.12
   3  -2  -4  303.12   12.40
   3  -2  -4  310.57   16.20
  -3  -2   3  230.00   12.59
   3  -2  -3  226.77   12.57
  -3  -2   3  217.81   11.50
  -3  -2   3  215.95    9.12
  -3  -2   3  253.49   12.87
   3  -2  -3  218.42    9.94
   3  -2  -2  372.37   16.44
  -3  -2   2  313.42   14.67
  -3  -2   2  318.45   12.91
  -3  -2   2  350.15   13.21
   3  -2  -2  341.63   13.35
  -3  -2   1  205.43   10.73
   3  -2  -1  212.20   11.75
   3  -2  -1  204.96   11.65
  -3  -2   1  200.14    9.90
  -3  -2   1  204.71    9.88
   3  -2  -1  191.41    9.47
   3  -2   0  128.39    8.89
   3  -2   0  140.47    9.20
  -3  -2   0  138.85    9.48
  -3  -2   0  129.97    8.05
  -3  -2   0  121.52    7.74
   3  -2   0  147.42    8.03
  -3  -2   0  134.79    7.85
   3  -2   1   21.21    3.54
   3  -2   1   28.22    4.13
  -3  -2  -1   24.69    3.82
  -3  -2  -1   31.05    4.22
  -3  -2  -1   18.30    2.86
  -3  -2  -1   24.59    3.62
  -3  -2  -1   27.77    3.81
  -3  -2  -1   23.16    3.60
  -3  -2  -1   25.27    2.96
   3  -2   2   12.71    2.88
  -3  -2  -2   17.63    3.34
  -3  -2  -2   17.21    3.31
  -3  -2  -2   16.92    3.11
  -3  -2  -2   13.60    1.92
   3  -2   3  732.71   27.22
  -3  -2  -3  747.90   26.62
  -3  -2  -3  755.28   26.85
  -3  -2  -3  735.92   23.33
  -3  -2  -3  694.09   22.52
  -3  -2  -3  782.88   27.30
  -3  -2  -3  682.54   24.51
  -3  -2  -3  727.22   26.61
   3  -2   4  313.20   14.75
   3  -2   4  292.50   14.73
   3  -2   4  263.59   15.42
   3  -2   4  319.80   16.00
   3  -2   4  257.41   15.15
  -3  -2  -4  288.90   14.58
  -3  -2  -4  287.31   14.73
  -3  -2  -4  288.01   13.05
  -3  -2  -4  291.00   12.69
  -3  -2  -4  318.13   15.95
  -3  -2  -4  293.19   14.12
  -3  -2  -4  274.27   14.98
  -3  -2  -4  237.86   12.48
   3  -2   4  292.10   16.33
   3  -2   5   26.95    4.92
   3  -2   5   31.09    4.51
   3  -2   5   33.93    4.69
   3  -2   5   32.70    4.29
   3  -2   5   26.38    4.87
   3  -2   5   23.41    4.25
   3  -2   5   28.29    4.83
   3  -2   5   30.02    4.90
  -3  -2  -5   33.64    4.60
   3  -2   5   35.53    5.38
  -3  -2  -5   28.61    4.44
  -3  -2  -5   38.05    4.56
  -3  -2  -5   30.52    3.99
  -3  -2  -5   31.70    5.06
  -3  -2  -5   35.26    4.86
  -3  -2  -5   30.22    4.84
  -3  -2  -5   24.32    3.47
   3  -2   6    8.25    3.07
   3  -2   6    4.50    2.05
   3  -2   6    5.09    2.24
   3  -2   6    3.51    1.70
   3  -2   6    5.11    2.63
   3  -2   6    5.39    2.73
   3  -2   6    4.58    2.44
  -3  -2  -6    7.52    2.56
   3  -2   6    3.62    2.07
  -3  -2  -6    4.34    1.85
  -3  -2  -6    2.51    1.51
  -3  -2  -6    8.69    3.24
  -3  -2  -6    4.70    2.06
  -3  -2  -6    3.45    2.27
  -3  -2  -6    2.78    1.32
   3  -2   7  111.65    8.81
   3  -2   7   96.40    8.45
   3  -2   7  123.15   11.08
   3  -2   7  117.50   10.29
   3  -2   7   83.56    9.14
  -3  -2  -7   95.27    8.39
   3  -2   7   94.05    9.58
  -3  -2  -7  109.46    9.35
  -3  -2  -7  109.41    9.02
  -3  -2  -7   95.36    8.37
  -3  -2  -7  123.40   10.70
  -3  -2  -7  101.23    9.57
  -3  -2  -7   95.63    9.49
  -3  -2  -7   85.44    7.29
   3  -2   7  113.21   10.68
   3  -2   8 1326.58   42.77
   3  -2   8 1306.64   42.52
   3  -2   8 1317.79   47.91
   3  -2   8 1389.26   46.98
  -3  -2  -8 1280.46   43.40
  -3  -2  -8 1370.61   43.59
  -3  -2  -8 1383.37   45.03
  -3  -2  -8 1270.42   43.72
  -3  -2  -8 1273.84   43.44
  -3  -2  -8 1355.51   46.97
  -3  -2  -8 1279.83   45.87
  -3  -2  -8 1215.32   45.59
  -3  -2  -8 1264.02   40.21
   3  -2   8 1418.07   48.50
   3  -2   9  159.65   10.63
   3  -2   9  163.18   13.59
   3  -2   9  160.60   12.95
  -3  -2  -9  175.07   11.90
  -3  -2  -9  162.47   11.30
  -3  -2  -9  157.98   12.02
  -3  -2  -9  169.11   12.32
  -3  -2  -9  163.69   13.19
  -3  -2  -9  159.73   13.22
  -3  -2  -9  146.91   12.64
   3  -2   9  214.74   15.10
   3  -2  10    4.24    1.81
   3  -2  10    3.72    2.82
  -3  -2 -10    4.58    2.09
   3  -2  10    4.04    2.43
  -3  -2 -10    7.35    2.50
  -3  -2 -10    4.96    2.35
  -3  -2 -10    2.41    2.06
  -3  -2 -10    5.89    2.60
  -3  -2 -10    9.52    3.20
  -3  -2 -10    2.14    2.00
  -3  -2 -10    1.38    1.58
   3  -2  10    5.52    2.73
   3  -2  11   15.91    4.19
   3  -2  11   20.83    4.45
  -3  -2 -11   16.60    3.93
  -3  -2 -11    9.55    3.27
   3  -2  11   18.78    4.24
  -3  -2 -12   20.87    3.53
   3  -2  12   19.30    4.43
   3  -2  12   21.49    4.20
  -3  -2 -12   22.60    3.95
  -3  -2 -12   20.67    4.13
  -3  -2 -12   21.75    4.12
  -3  -2 -12   14.40    3.55
  -3  -2 -13    2.31    1.23
   3  -2  13    4.80    2.26
  -3  -2 -13    0.74    1.19
  -3  -2 -13    1.48    1.33
   3  -2  13    1.54    1.32
  -3  -2 -14   13.48    1.81
  -3  -2 -14   15.30    2.54
  -3  -2 -14   18.41    2.77
   3  -2  14   12.75    2.03
  -3  -2 -15   13.89    1.77
   3  -1 -15   67.76    4.90
  -3  -1  15   63.46    5.53
   3  -1 -15   59.03    4.63
   3  -1 -14   38.11    4.46
  -3  -1  14   33.05    4.61
   3  -1 -14   37.96    4.64
  -3  -1  14   43.44    5.62
   3  -1 -14   36.77    4.59
   3  -1 -13   28.16    4.54
  -3  -1  13   26.12    3.69
  -3  -1  13   32.27    5.18
   3  -1 -13   25.95    4.56
  -3  -1  13   37.67    5.08
  -3  -1  13   31.96    5.36
   3  -1 -13   35.28    5.05
   3  -1 -12   21.63    4.33
  -3  -1  12   24.50    4.08
  -3  -1  12   21.16    3.80
  -3  -1  12   17.47    4.18
   3  -1 -12   21.98    4.30
  -3  -1  12   20.82    3.54
  -3  -1  12   20.19    4.00
  -3  -1  12   21.94    4.85
   3  -1 -12   17.42    3.95
  -3  -1  11   17.02    4.21
   3  -1 -11   19.64    4.53
  -3  -1  11   19.42    4.16
   3  -1 -11   16.29    3.95
  -3  -1  11   17.96    4.51
  -3  -1  11   14.70    3.36
   3  -1 -11   12.01    3.63
  -3  -1  11   15.00    3.22
  -3  -1  11   18.23    3.97
   3  -1 -11   15.94    4.07
  -3  -1  11   21.30    4.44
   3  -1 -10  225.55   15.15
  -3  -1  10  189.20   12.29
  -3  -1  10  218.02   14.76
  -3  -1  10  183.55   12.45
  -3  -1  10  179.26   12.91
   3  -1 -10  197.51   14.04
  -3  -1  10  188.35   12.04
  -3  -1  10  223.14   14.05
   3  -1 -10  197.55   14.14
  -3  -1  10  210.18   13.90
   3  -1 -10  186.09   13.37
  -3  -1  10  187.13   13.91
  -3  -1   9   42.99    6.48
   3  -1  -9   42.49    5.58
   3  -1  -9   46.58    6.70
   3  -1  -9   39.31    4.89
  -3  -1   9   38.06    5.24
  -3  -1   9   42.12    6.26
   3  -1  -9   54.65    7.18
  -3  -1   9   41.80    5.84
  -3  -1   9   47.56    5.74
  -3  -1   9   51.99    6.53
   3  -1  -9   45.37    5.35
   3  -1  -9   52.45    6.97
  -3  -1   9   47.22    6.05
  -3  -1   9   57.17    6.86
   3  -1  -9   50.39    6.74
   3  -1  -8   11.86    3.05
  -3  -1   8   26.63    4.95
   3  -1  -8   12.54    3.66
   3  -1  -8   13.28    2.87
   3  -1  -8    8.37    2.50
  -3  -1   8   16.12    3.62
   3  -1  -8   14.80    3.71
  -3  -1   8   17.76    3.99
  -3  -1   8   12.58    3.45
   3  -1  -8   14.66    3.77
   3  -1  -8   12.15    2.86
  -3  -1   8   15.45    3.56
   3  -1  -8   14.91    2.87
   3  -1  -7   18.18    3.56
  -3  -1   7   25.16    4.73
   3  -1  -7   19.80    4.17
   3  -1  -7   21.97    3.65
   3  -1  -7   17.34    3.41
  -3  -1   7   17.91    3.40
   3  -1  -7   19.43    4.13
  -3  -1   7   25.29    4.30
  -3  -1   7   24.31    4.21
  -3  -1   7   19.62    2.84
   3  -1  -7   17.42    3.77
   3  -1  -7   19.12    3.48
  -3  -1   7   25.01    4.25
   3  -1  -7   17.02    3.04
   3  -1  -7   22.77    4.32
   3  -1  -6    9.53    2.52
  -3  -1   6    4.69    2.31
   3  -1  -6    5.87    2.51
   3  -1  -6    3.95    1.75
   3  -1  -6    5.81    2.07
   3  -1  -6    2.57    1.86
  -3  -1   6    4.73    1.77
  -3  -1   6    3.90    1.86
   3  -1  -6    4.42    2.10
  -3  -1   6    5.70    2.03
  -3  -1   6    5.85    2.30
  -3  -1   6    5.69    1.63
   3  -1  -6    6.65    2.61
  -3  -1   6    7.22    2.36
   3  -1  -6    5.14    1.79
   3  -1  -6    5.22    2.38
   3  -1  -5   21.21    3.51
  -3  -1   5   19.87    3.88
   3  -1  -5   19.45    3.75
   3  -1  -5   16.57    3.37
   3  -1  -5   19.41    3.73
  -3  -1   5   22.38    3.57
  -3  -1   5   21.33    3.09
  -3  -1   5   20.62    2.96
  -3  -1   5   16.54    3.14
  -3  -1   5   20.57    3.55
   3  -1  -5   20.61    3.17
   3  -1  -5   16.93    3.52
  -3  -1   4  495.72   20.40
  -3  -1   4  455.84   19.04
  -3  -1   4  492.76   17.36
  -3  -1   4  506.58   18.46
  -3  -1   4  494.64   19.86
   3  -1  -4  482.65   18.32
   3  -1  -3  134.08    8.67
  -3  -1   3  167.09    9.93
  -3  -1   3  141.78    8.40
  -3  -1   3  140.74    7.07
   3  -1  -3  143.03    8.30
   3  -1  -2  330.14   14.31
  -3  -1   2  314.49   14.18
   3  -1  -2  291.94   13.88
  -3  -1   2  322.24   11.00
  -3  -1   2  288.79   10.55
   3  -1  -1   44.71    4.65
   3  -1  -1   44.16    4.75
  -3  -1   1   41.52    3.64
  -3  -1   1   38.26    2.65
  -3  -1   1   41.02    3.55
   3  -1  -1   44.75    4.35
   3  -1   0  295.80   13.40
  -3  -1   0  296.11   12.39
   3  -1   0  281.30   13.89
  -3  -1   0  281.50   12.02
  -3  -1   0  275.38   11.71
   3  -1   0  305.93   12.91
  -3  -1  -1  981.55   29.29
   3  -1   1 1018.36   32.85
  -3  -1  -1 1019.37   32.30
  -3  -1  -1 1052.63   31.41
  -3  -1  -1  963.74   30.62
   3  -1   1  997.44   31.12
  -3  -1  -1  988.12   28.00
  -3  -1  -2 1739.78   47.95
   3  -1   2 1935.93   54.17
  -3  -1  -2 1885.57   52.46
  -3  -1  -2 1985.90   53.66
  -3  -1  -2 1940.12   49.77
  -3  -1  -2 1847.78   48.72
  -3  -1  -2 1743.89   48.45
   3  -1   2 1785.43   51.84
   3  -1   3  133.81    9.28
  -3  -1  -3  128.26    8.60
  -3  -1  -3  118.68    7.16
  -3  -1  -3  126.08    7.04
  -3  -1  -3   99.84    6.59
  -3  -1  -3  111.06    8.01
  -3  -1  -3  104.91    7.05
   3  -1   3  112.54    7.78
   3  -1   4  208.55   12.36
  -3  -1  -4  207.13   11.37
  -3  -1  -4  199.32   10.38
  -3  -1  -4  199.45   10.09
  -3  -1  -4  175.90    9.95
  -3  -1  -4  171.36   11.00
  -3  -1  -4  162.58    9.10
   3  -1   5  115.92    8.41
   3  -1   5  106.33    8.30
   3  -1   5  116.38    9.50
   3  -1   5  105.82    9.24
  -3  -1  -5  120.54    8.25
  -3  -1  -5  123.22    8.83
  -3  -1  -5  110.83    8.13
  -3  -1  -5  120.51    8.15
  -3  -1  -5  120.37    8.59
  -3  -1  -5  125.42    9.57
  -3  -1  -5   98.37    6.48
   3  -1   6   52.33    5.68
   3  -1   6   54.13    6.81
   3  -1   6   59.25    6.99
   3  -1   6   44.99    6.27
  -3  -1  -6   61.62    6.63
  -3  -1  -6   54.92    5.60
   3  -1   6   47.00    6.04
   3  -1   6   57.54    6.64
  -3  -1  -6   57.16    6.12
  -3  -1  -6   59.03    6.18
  -3  -1  -6   52.48    5.75
  -3  -1  -6   64.19    6.73
  -3  -1  -6   60.16    6.84
   3  -1   7  370.82   17.50
   3  -1   7  358.51   20.06
   3  -1   7  387.58   19.88
   3  -1   7  339.69   19.12
   3  -1   7  382.38   17.97
  -3  -1  -7  368.15   18.47
  -3  -1  -7  356.60   16.60
   3  -1   7  352.52   19.05
   3  -1   7  401.53   20.08
  -3  -1  -7  371.11   18.00
  -3  -1  -7  375.93   18.90
  -3  -1  -7  364.29   19.28
   3  -1   8   59.98    6.23
   3  -1   8   47.63    5.68
   3  -1   8   48.88    7.20
   3  -1   8   50.86    7.14
   3  -1   8   52.72    7.26
  -3  -1  -8   50.03    6.32
  -3  -1  -8   50.66    5.71
   3  -1   8   53.72    7.26
   3  -1   8   60.63    7.48
  -3  -1  -8   57.72    6.52
  -3  -1  -8   42.44    5.02
  -3  -1  -8   57.61    6.75
  -3  -1  -8   63.58    7.52
  -3  -1  -8   47.63    6.92
   3  -1   9  266.59   13.87
   3  -1   9  251.98   13.45
   3  -1   9  257.11   17.09
   3  -1   9  252.25   16.54
   3  -1   9  227.25   15.90
  -3  -1  -9  268.46   15.45
  -3  -1  -9  225.88   12.95
   3  -1   9  258.79   16.49
  -3  -1  -9  253.38   14.61
  -3  -1  -9  222.69   15.30
  -3  -1  -9  215.50   12.79
  -3  -1  -9  228.63   14.79
  -3  -1  -9  282.59   17.20
  -3  -1  -9  242.00   16.04
  -3  -1 -10   47.74    5.90
   3  -1  10   46.39    5.15
   3  -1  10   55.35    7.92
   3  -1  10   60.59    7.85
   3  -1  10   55.86    7.57
   3  -1  10   65.69    7.97
  -3  -1 -10   54.53    6.36
  -3  -1 -10   51.59    7.30
  -3  -1 -10   69.04    7.81
  -3  -1 -10   51.21    7.33
  -3  -1 -10   54.71    7.78
  -3  -1 -10   53.70    7.39
  -3  -1 -11   69.18    6.69
   3  -1  11   85.76    9.49
   3  -1  11   68.22    8.38
   3  -1  11   68.03    8.00
  -3  -1 -11   81.48    7.79
  -3  -1 -11   80.53    8.51
  -3  -1 -11   69.85    8.31
   3  -1  11   79.71    8.81
  -3  -1 -12  132.07    8.68
   3  -1  12  142.71   11.84
   3  -1  12  139.57   11.23
  -3  -1 -12  139.06    9.77
  -3  -1 -12  108.00    9.78
  -3  -1 -12  120.62   10.61
   3  -1  12  139.54   11.08
  -3  -1 -13  196.65    9.62
   3  -1  13  226.07   13.89
   3  -1  13  223.43   13.45
  -3  -1 -13  219.41   12.19
   3  -1  14   62.84    6.11
  -3  -1 -14   68.95    5.66
  -3  -1 -15   45.92    3.66
   3   0 -15    6.75    1.78
  -3   0  15    8.32    2.37
   3   0 -15    9.12    2.01
   3   0 -14    5.62    1.92
  -3   0  14    5.02    1.75
   3   0 -14    7.77    2.56
  -3   0  14    5.68    2.48
   3   0 -14    4.07    1.80
   3   0 -13   12.82    3.13
  -3   0  13   11.83    2.89
  -3   0  13   13.89    3.05
   3   0 -13   15.81    3.62
   3   0 -13   14.70    3.61
  -3   0  12   21.52    4.44
   3   0 -12   14.78    3.64
  -3   0  12   20.10    4.06
  -3   0  12   25.55    4.35
   3   0 -12   20.94    4.58
  -3   0  12   17.90    3.37
  -3   0  12   26.85    4.44
   3   0 -12   18.43    4.29
  -3   0  11    2.47    1.99
   3   0 -11    2.42    2.07
  -3   0  11    2.50    1.89
   3   0 -11    7.53    2.95
  -3   0  11    2.65    1.81
  -3   0  11    5.54    2.53
   3   0 -11    2.01    2.16
  -3   0  11    1.43    1.44
  -3   0  11    2.29    1.37
  -3   0  11    3.93    2.31
   3   0 -11    0.67    1.87
  -3   0  11    2.91    1.99
   3   0 -10  101.47    9.77
  -3   0  10   94.49    8.76
  -3   0  10   88.72    9.36
  -3   0  10   82.86    8.43
   3   0 -10   95.80    9.75
   3   0 -10   88.66    8.51
  -3   0  10   90.87    9.18
  -3   0  10  100.27    7.86
  -3   0  10   85.16    8.50
   3   0 -10   94.34    8.59
   3   0 -10   96.73    9.86
  -3   0  10   99.78    9.19
   3   0 -10   92.23    9.45
   3   0  -9   57.37    7.31
  -3   0   9   46.02    6.49
  -3   0   9   48.82    6.08
  -3   0   9   44.98    6.55
  -3   0   9   38.46    5.65
   3   0  -9   50.01    7.06
   3   0  -9   53.59    6.28
  -3   0   9   54.13    6.79
  -3   0   9   42.98    5.16
  -3   0   9   44.01    5.92
   3   0  -9   47.72    6.12
   3   0  -9   44.97    6.77
  -3   0   9   46.64    6.18
   3   0  -9   46.44    5.74
   3   0  -9   54.43    7.28
   3   0  -8    7.51    2.23
  -3   0   8   16.19    4.11
   3   0  -8    4.83    2.67
   3   0  -8    1.22    1.61
  -3   0   8    9.93    2.86
   3   0  -8   12.80    3.75
  -3   0   8    4.54    2.25
   3   0  -8   10.57    2.83
   3   0  -8    9.99    3.34
  -3   0   8   14.44    3.01
  -3   0   8   14.71    3.38
   3   0  -8   10.72    3.38
   3   0  -8    8.24    2.63
  -3   0   8    5.14    2.28
   3   0  -8   10.92    2.92
   3   0  -7  209.47   11.41
   3   0  -7  213.08   13.98
  -3   0   7  224.40   14.03
   3   0  -7  200.79   11.98
  -3   0   7  226.95   13.58
   3   0  -7  208.18   13.75
   3   0  -7  230.15   12.39
  -3   0   7  206.23   11.56
  -3   0   7  244.46   13.54
  -3   0   7  237.74   13.30
   3   0  -7  222.23   13.19
   3   0  -7  219.58   14.07
  -3   0   7  223.02   13.06
   3   0  -7  224.56   12.81
   3   0  -7  228.21   14.49
   3   0  -6    7.43    2.01
   3   0  -6    6.73    2.44
  -3   0   6    5.62    2.34
   3   0  -6    7.59    2.28
   3   0  -6    5.17    2.21
  -3   0   6    7.72    2.23
  -3   0   6   10.81    2.66
   3   0  -6    8.29    2.58
  -3   0   6    7.53    2.17
  -3   0   6   13.33    2.99
   3   0  -6    8.44    2.76
   3   0  -6    4.05    1.79
  -3   0   6   12.48    2.91
   3   0  -6    9.91    2.63
   3   0  -5  523.17   19.82
  -3   0   5  618.15   23.67
  -3   0   5  540.66   21.08
  -3   0   5  519.66   18.10
  -3   0   5  569.62   21.09
  -3   0   5  609.15   22.27
   3   0  -4   55.02    4.95
  -3   0   4   65.01    6.39
  -3   0   4   55.26    4.53
  -3   0   4   61.36    5.84
  -3   0   4   57.03    5.17
   3   0  -4   55.79    5.44
   3   0  -3  963.22   30.80
  -3   0   3 1038.73   33.42
  -3   0   3  990.40   30.32
   3   0  -3 1038.33   32.26
  -3   0   3 1034.33   30.88
   3   0  -2  108.27    6.82
  -3   0   2  122.09    8.00
  -3   0   2   89.97    4.62
  -3   0   2   95.92    6.08
   3   0  -2   95.84    6.93
   3   0  -2  109.46    7.30
   3   0  -1   64.75    5.74
  -3   0   1   62.03    4.08
  -3   0   1   72.55    4.27
   3   0  -1   71.86    5.82
  -3   0   0   11.26    2.21
   3   0   0   15.41    2.95
  -3   0   0   14.83    2.18
   3   0   0   12.62    2.49
  -3   0  -1   78.78    5.46
   3   0   1   72.78    6.23
  -3   0  -1   79.20    5.68
   3   0   1   78.40    6.17
  -3   0  -2  548.23   17.81
   3   0   2  562.29   21.24
  -3   0  -2  555.43   19.46
  -3   0  -2  524.73   16.85
   3   0   2  562.78   20.50
  -3   0  -3    0.98    0.64
   3   0   3    0.81    1.31
  -3   0  -3    1.13    1.11
  -3   0  -3    1.35    1.50
  -3   0  -3    2.16    1.06
  -3   0  -3    1.80    1.36
   3   0   3    1.06    0.99
   3   0   4  205.95   12.08
  -3   0  -4  183.09    9.51
  -3   0  -4  167.17   10.00
  -3   0  -4  191.22    8.84
  -3   0  -4  209.67   10.96
  -3   0  -4  188.65   10.25
  -3   0  -4  208.54   10.46
  -3   0  -4  213.48   11.76
  -3   0  -4  169.83    8.55
   3   0   4  186.19   10.82
   3   0   5  196.70   12.40
   3   0   5  198.10   12.62
  -3   0  -5  187.04    9.85
   3   0   5  199.14   12.06
  -3   0  -5  197.00    9.79
  -3   0  -5  209.46   11.42
  -3   0  -5  204.04   11.45
  -3   0  -5  199.98   12.34
   3   0   6    6.25    2.05
   3   0   6    8.11    2.54
  -3   0  -6    9.63    2.75
   3   0   6    5.99    2.71
   3   0   6    4.99    2.29
  -3   0  -6    4.60    1.65
  -3   0  -6    9.85    2.59
  -3   0  -6    9.21    2.16
   3   0   6    7.77    2.48
   3   0   6    4.73    2.25
  -3   0  -6   10.49    2.90
  -3   0  -6   12.07    3.17
   3   0   7  659.36   24.31
   3   0   7  628.61   24.59
   3   0   7  633.64   27.64
   3   0   7  649.65   27.30
   3   0   7  648.72   27.57
  -3   0  -7  651.76   26.35
  -3   0  -7  623.19   22.23
   3   0   7  629.14   26.69
   3   0   7  567.24   24.84
  -3   0  -7  605.07   23.96
  -3   0  -7  617.12   25.63
   3   0   7  652.48   26.22
  -3   0  -7  652.74   23.83
  -3   0  -7  645.32   25.96
  -3   0  -7  652.87   26.42
  -3   0  -7  697.54   27.89
   3   0   8  665.17   24.56
   3   0   8  654.15   24.94
   3   0   8  656.96   28.97
   3   0   8  653.68   28.72
   3   0   8  667.12   28.49
  -3   0  -8  682.72   27.40
   3   0   8  655.71   28.29
   3   0   8  626.08   26.62
  -3   0  -8  661.39   25.10
  -3   0  -8  639.83   27.29
  -3   0  -8  641.83   26.73
  -3   0  -8  606.78   24.48
  -3   0  -8  640.04   27.43
  -3   0  -8  569.27   27.40
   3   0   9 1031.35   34.17
   3   0   9 1017.03   34.42
   3   0   9 1078.92   41.00
   3   0   9 1142.13   41.05
   3   0   9 1036.67   39.55
  -3   0  -9 1088.47   38.50
   3   0   9 1055.67   38.32
  -3   0  -9 1040.78   35.24
  -3   0  -9  973.40   38.16
  -3   0  -9 1029.72   35.75
  -3   0  -9 1073.73   38.78
  -3   0  -9 1072.27   38.31
  -3   0  -9 1058.95   39.63
  -3   0  -9 1018.98   39.43
  -3   0 -10    5.09    2.32
  -3   0 -10    3.57    1.75
   3   0  10    0.74    1.88
  -3   0 -10    1.18    1.65
   3   0  10    0.71    1.98
   3   0  10    0.66    2.39
  -3   0 -10    3.48    1.79
  -3   0 -10    3.36    2.42
  -3   0 -10    2.00    1.71
  -3   0 -10    1.89    1.90
  -3   0 -10    2.48    2.00
  -3   0 -10    1.39    2.09
  -3   0 -10    2.76    2.08
  -3   0 -11   17.27    3.14
   3   0  11   17.09    4.54
  -3   0 -11   18.31    4.04
   3   0  11   16.76    4.15
   3   0  11   15.75    4.15
   3   0  11   21.21    4.83
  -3   0 -11   15.15    3.55
  -3   0 -11   23.77    4.11
  -3   0 -11   19.28    4.39
  -3   0 -11   20.95    4.57
  -3   0 -11   14.06    4.06
   3   0  12   11.65    3.77
   3   0  12    5.60    2.46
   3   0  12    5.65    2.87
  -3   0 -12    6.27    2.39
  -3   0 -12    4.05    2.19
  -3   0 -12    0.57    2.70
  -3   0 -12    6.52    2.53
   3   0  13    1.08    1.96
   3   0  13    0.52    1.19
  -3   0 -13    1.01    1.28
  -3   0 -13    0.50    1.51
  -3   0 -13   -0.99    1.79
  -3   0 -13    0.49    1.37
  -3   0 -13    0.40    1.50
  -3   0 -14    1.55    0.95
   3   0  14    2.44    1.67
  -3   0 -14    2.42    1.42
   3   0  14    4.02    1.62
   3   0  15    0.99    1.05
  -3   0 -15    0.18    0.75
   3   1 -15   70.32    5.25
  -3   1  15   62.28    5.49
   3   1 -15   60.77    4.92
   3   1 -15   64.90    4.82
  -3   1  14   29.93    3.98
   3   1 -14   34.88    4.60
   3   1 -14   33.55    4.48
   3   1 -14   37.65    4.63
  -3   1  13   26.40    4.44
  -3   1  13   27.60    4.48
   3   1 -13   37.12    5.38
  -3   1  13   32.87    4.52
   3   1 -13   31.97    4.94
   3   1 -13   33.54    5.02
   3   1 -12   16.49    3.67
  -3   1  12   20.20    4.33
   3   1 -12   18.15    4.09
  -3   1  12   14.55    3.63
  -3   1  12   23.37    4.31
   3   1 -12   22.22    4.53
  -3   1  12   16.95    3.55
   3   1 -12   20.11    4.42
  -3   1  11   14.28    3.62
   3   1 -11   22.43    4.43
   3   1 -11   21.23    4.83
  -3   1  11   15.17    3.71
   3   1 -11   16.23    4.25
  -3   1  11   15.05    3.67
   3   1 -11   22.71    4.90
  -3   1  11   22.89    4.40
  -3   1  11   19.88    4.01
   3   1 -10  179.58   12.97
  -3   1  10  197.68   13.31
  -3   1  10  192.62   13.30
   3   1 -10  203.06   15.01
   3   1 -10  224.21   15.30
   3   1 -10  218.37   13.90
   3   1 -10  212.27   14.74
  -3   1   9   42.54    6.35
  -3   1   9   42.99    6.45
  -3   1   9   44.09    6.17
   3   1  -9   47.97    6.89
   3   1  -9   36.68    4.94
  -3   1   9   50.58    6.18
   3   1  -9   51.58    7.13
   3   1  -9   50.96    6.48
   3   1  -9   39.97    6.25
  -3   1   8   11.43    3.44
   3   1  -8   13.71    3.84
   3   1  -8   14.12    3.07
  -3   1   8   14.52    3.58
  -3   1   8   10.67    3.17
   3   1  -8    9.66    2.47
   3   1  -8    7.12    3.06
  -3   1   8   11.39    2.42
  -3   1   8   13.08    3.04
  -3   1   8   12.30    2.64
   3   1  -8   14.11    4.02
   3   1  -8   14.45    3.62
  -3   1   7   15.33    3.64
   3   1  -7   20.13    4.28
   3   1  -7   19.06    3.36
   3   1  -7   22.71    4.34
  -3   1   7   25.27    3.47
  -3   1   7   19.61    3.66
  -3   1   7   21.44    3.37
   3   1  -7   20.75    4.36
   3   1  -7   17.34    3.79
  -3   1   7   23.76    4.09
   3   1  -7   24.24    4.27
   3   1  -6    5.54    2.30
  -3   1   6    6.32    2.48
   3   1  -6    7.60    2.42
   3   1  -6    4.72    2.32
   3   1  -6    6.99    2.04
   3   1  -6   11.48    3.30
  -3   1   6    6.98    1.87
  -3   1   6    5.72    2.03
  -3   1   6    3.17    1.40
   3   1  -6    4.34    2.06
   3   1  -6    2.01    1.62
  -3   1   6    7.76    2.28
   3   1  -6    3.33    1.80
   3   1  -5   16.88    2.28
   3   1  -5   15.41    3.44
  -3   1   5   25.26    4.28
   3   1  -5   20.44    3.90
   3   1  -5   14.97    2.62
  -3   1   5   18.79    2.47
   3   1  -5   21.44    4.01
  -3   1   5   19.03    2.91
  -3   1   5   24.28    3.16
   3   1  -5   24.82    4.26
  -3   1   5   17.25    3.15
   3   1  -5   21.02    3.70
   3   1  -4  454.39   15.81
  -3   1   4  501.59   16.55
  -3   1   4  475.45   17.63
  -3   1   4  485.46   17.21
  -3   1   4  434.78   15.29
  -3   1   4  506.27   19.15
   3   1  -4  486.20   19.97
  -3   1   3  144.53    7.60
  -3   1   3  160.21    9.26
   3   1  -3  156.84    9.73
  -3   1   2  313.29   12.51
   3   1  -2  283.95   13.77
  -3   1   1   40.52    3.02
   3   1  -1   40.60    4.55
   3   1   0  311.77   14.15
  -3   1  -1  870.46   23.71
   3   1   1  949.42   29.89
   3   1   2 1849.35   52.53
  -3   1  -2 1836.38   49.46
  -3   1  -2 1703.73   46.65
   3   1   2 1827.78   50.76
  -3   1  -2 1974.25   48.86
   3   1   2 1907.36   52.71
   3   1   3  128.25    8.76
  -3   1  -3  111.39    6.32
  -3   1  -3  113.39    7.43
  -3   1  -3  103.82    6.14
   3   1   3  121.22    8.04
  -3   1  -3  125.53    7.25
   3   1   3  112.61    7.98
   3   1   4  200.03   11.82
  -3   1  -4  183.69    8.45
  -3   1  -4  204.20   10.42
  -3   1  -4  186.49    9.57
  -3   1  -4  195.22    9.35
  -3   1  -4  206.56   10.34
   3   1   4  193.58   11.24
  -3   1  -4  195.44   10.46
   3   1   4  182.32   10.88
   3   1   5  110.64    8.96
   3   1   5  111.39    9.31
  -3   1  -5  115.82    8.79
  -3   1  -5  113.16    6.12
  -3   1  -5  123.33    7.83
  -3   1  -5  111.98    7.82
   3   1   5  104.18    8.60
  -3   1  -5  110.20    6.62
  -3   1  -5  116.50    7.87
   3   1   5  129.19    8.59
  -3   1  -5  113.78    8.35
   3   1   5  106.03    8.29
   3   1   6   47.34    5.14
   3   1   6   65.23    6.41
   3   1   6   57.73    6.82
   3   1   6   61.54    6.82
   3   1   6   50.19    6.53
  -3   1  -6   60.28    6.56
   3   1   6   50.06    6.13
  -3   1  -6   61.02    5.54
  -3   1  -6   53.25    5.78
   3   1   6   55.82    6.47
  -3   1  -6   57.42    5.84
   3   1   6   48.40    6.21
   3   1   6   59.82    5.77
  -3   1  -6   70.02    7.04
  -3   1  -6   61.12    6.53
   3   1   7  377.66   16.33
   3   1   7  363.40   17.20
   3   1   7  349.91   18.81
   3   1   7  364.13   19.52
  -3   1  -7  404.31   19.06
   3   1   7  383.99   19.17
  -3   1  -7  367.06   15.82
  -3   1  -7  330.84   17.26
   3   1   7  381.00   18.59
  -3   1  -7  359.89   17.05
   3   1   7  360.95   19.28
  -3   1  -7  377.14   18.67
   3   1   7  329.43   19.03
  -3   1  -7  350.35   18.02
  -3   1  -7  377.65   18.74
   3   1   8   57.09    5.57
   3   1   8   54.88    5.92
   3   1   8   60.38    7.71
   3   1   8   50.54    7.00
  -3   1  -8   53.83    6.75
   3   1   8   55.59    7.22
  -3   1  -8   43.55    6.08
   3   1   8   59.09    7.31
  -3   1  -8   48.24    5.05
  -3   1  -8   53.21    6.70
   3   1   8   63.02    7.27
   3   1   8   47.89    6.71
  -3   1  -8   62.38    6.67
  -3   1  -8   51.53    6.76
   3   1   8   37.14    6.03
   3   1   8   52.59    7.22
  -3   1  -8   58.64    7.21
   3   1   9  240.88   12.90
   3   1   9  244.10   16.69
   3   1   9  264.78   16.92
   3   1   9  259.49   16.64
  -3   1  -9  266.48   15.97
  -3   1  -9  251.74   15.85
  -3   1  -9  258.50   14.74
  -3   1  -9  242.01   15.65
  -3   1  -9  251.28   15.60
  -3   1  -9  270.21   16.68
  -3   1  -9  234.53   15.92
   3   1  10   64.59    8.37
   3   1  10   62.57    7.95
   3   1  10   54.60    7.36
  -3   1 -10   65.26    7.54
   3   1  10   57.74    7.71
  -3   1 -10   44.78    6.67
  -3   1 -10   63.73    7.11
  -3   1 -10   54.49    5.96
  -3   1 -10   61.99    7.62
  -3   1 -10   47.90    6.72
  -3   1 -10   41.25    6.60
  -3   1 -10   58.36    6.99
  -3   1 -10   54.15    7.54
   3   1  11   66.43    8.19
   3   1  11   74.20    8.45
   3   1  11   67.78    8.07
   3   1  11   58.26    7.56
  -3   1 -11   63.14    6.96
  -3   1 -11   59.94    6.81
  -3   1 -11   58.95    6.05
  -3   1 -11   56.13    7.34
  -3   1 -11   73.77    8.23
   3   1  12  150.67   11.92
   3   1  12  131.67   10.83
   3   1  12  121.62   10.15
   3   1  12  129.69   10.92
  -3   1 -12  121.32    9.37
  -3   1 -12  124.19    8.32
  -3   1 -12  103.02    9.78
  -3   1 -12  128.75   10.60
   3   1  13  241.30   14.26
   3   1  13  215.68   13.14
   3   1  13  195.87   12.87
  -3   1 -13  206.07    9.72
  -3   1 -13  219.19   13.20
  -3   1 -13  185.72   12.40
   3   1  14   65.82    6.31
  -3   1 -14   56.96    5.15
   3   1  15   35.67    3.70
  -3   1 -15   41.32    3.33
  -3   2  15   19.11    2.82
   3   2 -15   14.23    2.06
   3   2 -15   17.38    2.37
  -3   2  14  206.93   11.97
   3   2 -14  252.40   12.30
   3   2 -14  244.06   12.00
   3   2 -14  239.44   12.10
  -3   2  13   48.78    6.18
  -3   2  13   54.77    6.00
   3   2 -13   47.60    5.74
   3   2 -13   45.40    5.33
   3   2 -13   56.18    6.17
   3   2 -13   52.71    6.02
   3   2 -12   16.42    3.94
  -3   2  12   14.52    3.92
  -3   2  12   18.21    3.86
   3   2 -12   13.34    3.51
  -3   2  12   13.93    3.36
  -3   2  12    9.36    2.50
   3   2 -12   14.61    3.81
   3   2 -12   19.67    3.93
  -3   2  11  151.73   12.31
  -3   2  11  154.20   11.56
   3   2 -11  169.09   12.88
  -3   2  11  132.29   10.58
  -3   2  11  155.23   12.43
  -3   2  11  133.85   10.09
   3   2 -11  154.08   11.81
   3   2 -11  191.79   13.34
   3   2 -11  144.86   11.82
  -3   2  10  646.04   28.72
  -3   2  10  726.40   29.24
   3   2 -10  681.22   30.25
  -3   2  10  711.01   28.99
  -3   2  10  668.50   29.97
  -3   2  10  710.29   27.37
  -3   2  10  722.63   27.57
   3   2 -10  708.80   29.95
   3   2 -10  736.75   30.75
  -3   2  10  664.65   27.16
   3   2 -10  756.63   30.50
   3   2 -10  749.82   30.93
   3   2  -9   39.26    5.69
  -3   2   9   33.27    5.78
   3   2  -9   37.47    5.97
  -3   2   9   31.50    5.46
   3   2  -9   39.16    6.29
   3   2  -9   39.25    6.34
  -3   2   9   32.42    4.88
  -3   2   9   44.73    5.65
   3   2  -9   46.75    6.70
   3   2  -9   36.86    5.96
  -3   2   9   30.50    4.71
   3   2  -9   38.20    6.05
   3   2  -8  102.49    9.12
   3   2  -8   99.04    9.70
  -3   2   8  106.10    9.89
   3   2  -8  100.71    9.03
   3   2  -8   87.39    9.07
  -3   2   8  105.79    9.19
   3   2  -8  107.93   10.38
   3   2  -8   90.79    7.95
  -3   2   8   94.61    8.11
  -3   2   8   99.17    8.38
   3   2  -8   88.69    9.15
   3   2  -8  110.94   10.25
  -3   2   8  117.49   10.30
  -3   2   8   96.80    8.25
   3   2  -8  101.01    9.59
   3   2  -7   82.30    8.06
   3   2  -7  101.05    9.31
  -3   2   7   93.78    9.14
   3   2  -7   97.15    8.58
  -3   2   7   76.97    6.66
  -3   2   7   88.81    8.18
   3   2  -7   86.98    8.91
   3   2  -7   97.10    8.13
  -3   2   7   87.37    7.44
  -3   2   7   89.36    7.72
   3   2  -7   95.73    9.15
   3   2  -7   87.11    8.77
  -3   2   7   91.31    8.76
  -3   2   7   91.25    7.59
   3   2  -7  110.05    9.73
   3   2  -6  210.75   12.63
  -3   2   6  219.51   11.51
   3   2  -6  205.00   13.73
   3   2  -6  196.03   12.16
  -3   2   6  205.08   11.53
  -3   2   6  214.84   12.06
   3   2  -6  213.57   13.62
   3   2  -6  221.67   13.99
  -3   2   6  223.99   11.93
   3   2  -6  213.71   13.63
  -3   2   6  208.19   13.19
   3   2  -6  215.14   13.57
  -3   2   5  249.04   14.48
   3   2  -5  240.08   13.40
  -3   2   5  269.55   12.89
   3   2  -5  270.96   14.13
   3   2  -5  268.05   15.42
   3   2  -5  278.96   14.47
  -3   2   5  278.21   11.16
  -3   2   5  279.76   13.27
   3   2  -5  261.88   14.97
  -3   2   5  267.45   13.30
   3   2  -5  276.78   15.30
  -3   2   5  253.14   12.72
   3   2  -5  276.97   15.04
  -3   2   4  329.86   16.14
   3   2  -4  320.04   15.05
  -3   2   4  314.36   14.13
   3   2  -4  302.48   14.38
   3   2  -4  310.52   16.30
  -3   2   4  332.58   12.77
   3   2  -4  319.51   16.24
  -3   2   4  344.32   15.15
   3   2  -4  307.01   16.03
  -3   2   4  325.98   14.19
   3   2  -4  323.40   16.12
   3   2  -3  233.38    9.53
  -3   2   3  225.05   11.59
  -3   2   3  238.39   11.46
   3   2  -3  250.63   13.34
   3   2  -2  320.87   12.61
  -3   2   2  344.38   15.00
   3   2  -2  368.47   16.37
   3   2  -1  199.26    9.57
  -3   2   1  191.98    7.39
   3   2  -1  195.01    8.86
   3   2  -1  200.42   11.19
   3   2  -1  206.30   11.48
   3   2   0  137.82    7.87
  -3   2   0  126.90    5.95
   3   2   0  133.90    7.69
   3   2   0  147.42    9.21
   3   2   0  139.47    9.09
   3   2   1   25.23    3.39
  -3   2  -1   23.06    2.56
  -3   2  -1   23.98    2.74
   3   2   1   30.49    3.73
   3   2   1   21.34    2.91
   3   2   1   27.93    3.84
  -3   2  -1   23.97    2.60
   3   2   1   21.63    3.46
   3   2   2   11.89    2.46
  -3   2  -2    9.22    1.45
   3   2   2   17.29    3.03
   3   2   2   12.76    3.00
   3   2   2   14.63    2.68
  -3   2  -2   13.81    2.27
   3   2   2   17.59    3.16
   3   2   3  729.65   25.80
   3   2   3  740.53   26.93
  -3   2  -3  743.52   23.78
   3   2   3  692.09   25.56
   3   2   3  756.99   25.16
  -3   2  -3  758.56   24.87
   3   2   3  686.85   25.73
   3   2   4  310.26   14.85
   3   2   4  274.98   15.20
  -3   2  -4  297.96   14.48
  -3   2  -4  283.72   12.06
  -3   2  -4  266.67   11.70
   3   2   4  280.92   14.76
  -3   2  -4  297.59   13.68
   3   2   4  292.50   15.27
   3   2   4  303.37   14.95
   3   2   4  308.68   15.11
   3   2   4  293.84   14.80
   3   2   4  279.86   15.18
   3   2   4  294.61   12.91
  -3   2  -4  291.77   13.92
   3   2   4  274.17   14.06
   3   2   5   31.28    4.59
  -3   2  -5   30.19    4.44
   3   2   5   21.24    4.16
  -3   2  -5   26.66    3.19
  -3   2  -5   28.84    3.76
  -3   2  -5   28.80    3.81
   3   2   5   26.49    4.47
  -3   2  -5   28.07    4.19
   3   2   5   35.91    4.85
   3   2   5   27.50    4.57
   3   2   5   29.30    4.16
   3   2   5   26.84    4.61
  -3   2  -5   33.32    4.63
   3   2   5   29.58    4.34
   3   2   6    5.68    1.86
   3   2   6    3.61    2.12
   3   2   6    2.15    1.95
  -3   2  -6    7.81    2.55
   3   2   6    6.66    2.48
   3   2   6    5.80    2.65
   3   2   6    7.77    2.64
  -3   2  -6    5.28    1.86
  -3   2  -6    6.75    1.99
  -3   2  -6    5.52    2.10
   3   2   6    8.84    2.55
   3   2   6    7.77    2.64
   3   2   6    2.20    1.66
   3   2   6    6.35    2.63
   3   2   6    5.98    2.29
  -3   2  -6    7.49    2.55
   3   2   7  109.92    8.63
   3   2   7  110.03    9.86
   3   2   7   90.51    9.31
  -3   2  -7  101.40    8.97
   3   2   7  110.39    9.71
  -3   2  -7   95.80    8.38
   3   2   7  100.66    9.17
  -3   2  -7  107.50    7.68
   3   2   7  104.50    9.79
  -3   2  -7   85.81    8.16
   3   2   7   98.75    9.47
   3   2   7  116.39    9.11
   3   2   7   84.78    8.50
   3   2   7  102.84    9.89
  -3   2  -7   93.53    8.95
  -3   2  -7   92.50    8.88
   3   2   8 1294.53   41.99
   3   2   8 1355.53   47.11
  -3   2  -8 1337.52   45.58
  -3   2  -8 1389.28   45.80
   3   2   8 1291.82   45.99
  -3   2  -8 1244.06   43.96
   3   2   8 1408.72   47.83
  -3   2  -8 1368.94   44.76
   3   2   8 1333.81   47.17
   3   2   8 1359.24   43.19
  -3   2  -8 1383.83   46.79
   3   2   8 1341.74   45.99
   3   2   8 1327.33   47.21
  -3   2  -8 1318.78   45.83
  -3   2  -8 1401.40   46.85
   3   2   9  154.11    9.85
   3   2   9  164.91   13.29
   3   2   9  169.72   13.28
  -3   2  -9  166.61   12.24
  -3   2  -9  141.05   11.58
   3   2   9  155.70   11.56
   3   2   9  183.24   13.70
  -3   2  -9  172.01   12.18
   3   2   9  151.52   12.90
   3   2   9  161.07   10.55
  -3   2  -9  182.89   13.47
   3   2   9  166.33   12.96
   3   2   9  184.12   13.93
  -3   2  -9  164.42   12.67
  -3   2  -9  175.56   12.49
  -3   2  -9  170.55   13.28
   3   2  10    6.86    3.03
  -3   2 -10    1.20    1.68
   3   2  10    4.63    2.92
   3   2  10    3.36    2.54
  -3   2 -10    5.54    2.33
  -3   2 -10    5.07    2.40
  -3   2 -10    2.57    2.07
   3   2  10    3.55    2.29
  -3   2 -10   -0.64    1.78
  -3   2 -10    3.42    2.21
  -3   2 -10    3.46    2.09
   3   2  11   16.29    4.28
   3   2  11   12.76    3.68
   3   2  11   12.20    3.53
  -3   2 -11   16.57    3.72
  -3   2 -11   17.70    4.07
  -3   2 -11   10.36    3.27
  -3   2 -11   11.75    2.85
   3   2  12   12.78    3.53
   3   2  12   23.78    4.47
   3   2  12   21.37    4.15
   3   2  12   20.10    4.32
  -3   2 -12   14.64    3.30
  -3   2 -12   19.63    3.96
  -3   2 -12   20.29    4.31
  -3   2 -12   16.73    3.10
   3   2  13    0.47    1.63
   3   2  13    0.47    1.42
  -3   2 -13    2.22    1.19
   3   2  14   18.47    3.37
  -3   2 -14   12.69    1.84
  -3   2 -14   16.35    2.68
   3   2  15   10.61    1.79
  -3   2 -15    9.91    1.59
   3   3 -15   25.49    2.30
   3   3 -14    5.40    1.66
  -3   3  14    6.77    2.02
  -3   3  14    5.77    1.75
   3   3 -14    4.31    1.37
   3   3 -14    4.57    1.45
   3   3 -13    3.65    1.91
  -3   3  13    4.52    2.00
  -3   3  13    4.78    2.03
   3   3 -13    5.73    2.05
   3   3 -13    5.04    2.08
   3   3 -12    8.60    2.78
  -3   3  12    8.33    2.91
  -3   3  12   12.38    3.15
  -3   3  12    9.52    2.67
   3   3 -12    6.46    2.60
   3   3 -12    8.51    2.62
  -3   3  11  247.91   15.79
  -3   3  11  242.78   14.65
   3   3 -11  251.16   15.40
  -3   3  11  239.92   14.53
  -3   3  11  249.08   15.99
  -3   3  11  256.37   14.28
   3   3 -11  231.17   14.95
   3   3 -11  282.42   16.10
  -3   3  10   73.31    8.08
  -3   3  10  105.37    9.33
   3   3 -10   95.39    9.42
  -3   3  10   84.31    8.47
  -3   3  10   82.13    7.10
  -3   3  10   80.71    8.16
  -3   3  10   86.73    9.38
   3   3 -10  104.87    9.85
   3   3 -10   96.41    9.61
   3   3 -10  100.89    9.73
   3   3  -9  690.05   29.65
  -3   3   9  716.31   29.76
  -3   3   9  698.68   25.96
   3   3  -9  704.46   29.94
  -3   3   9  633.07   27.54
   3   3  -9  663.82   29.40
  -3   3   9  688.61   28.90
   3   3  -9  715.83   27.48
  -3   3   9  677.78   25.44
  -3   3   9  713.59   28.46
   3   3  -9  753.93   30.87
  -3   3   9  676.71   30.10
   3   3  -9  749.91   31.14
   3   3  -8  118.93   10.45
  -3   3   8  113.69   10.48
   3   3  -8  103.66   10.03
  -3   3   8  103.64    8.76
  -3   3   8  108.26    9.37
   3   3  -8  109.16   10.45
  -3   3   8  139.33   11.01
   3   3  -8  103.64    9.19
  -3   3   8  120.74    8.56
  -3   3   8  119.93    9.89
   3   3  -8  118.89   10.76
  -3   3   8  107.94   10.30
  -3   3   8  113.69    8.42
   3   3  -8  131.25   11.27
   3   3  -7  206.40   13.87
  -3   3   7  169.85   11.33
   3   3  -7  157.32   11.95
  -3   3   7  170.35   11.73
   3   3  -7  165.83   12.86
   3   3  -7  176.48   12.22
   3   3  -7  187.61   12.08
  -3   3   7  175.54   10.35
  -3   3   7  177.52   12.19
   3   3  -7  175.96   13.07
  -3   3   7  161.12   10.05
  -3   3   7  196.66   13.76
   3   3  -7  194.01   13.78
  -3   3   6  165.85   10.38
   3   3  -6  159.59   12.03
  -3   3   6  169.89   11.22
   3   3  -6  164.28   11.48
   3   3  -6  163.43   12.28
   3   3  -6  169.77   11.43
  -3   3   6  157.35    9.51
   3   3  -6  156.80   12.15
  -3   3   6  172.66   11.51
   3   3  -6  156.89   11.66
  -3   3   6  160.06    9.67
   3   3  -6  188.70   13.07
  -3   3   6  187.35   13.00
   3   3  -6  174.84   12.12
  -3   3   5  100.27    9.11
  -3   3   5  101.11    7.48
   3   3  -5  109.78    9.28
  -3   3   5  101.68    8.29
   3   3  -5   96.89    7.99
   3   3  -5   92.19    8.86
   3   3  -5   98.59    8.73
   3   3  -5   96.75    8.34
  -3   3   5   98.97    6.95
   3   3  -5   91.65    8.77
  -3   3   5   93.25    8.15
   3   3  -5  107.04    9.13
  -3   3   5   98.37    6.91
   3   3  -5   92.85    8.78
   3   3  -5   89.21    8.07
   3   3  -4  122.79    7.73
  -3   3   4  123.41    7.93
  -3   3   4  125.08    9.20
   3   3  -4  118.62    8.23
   3   3  -4  126.09    9.82
   3   3  -4  131.60    9.64
  -3   3   4  127.86    7.63
   3   3  -4  125.37    9.98
   3   3  -4  123.50    9.64
  -3   3   4  126.11    7.60
   3   3  -4  122.34    7.52
   3   3  -4  117.08    9.66
   3   3  -4  125.58    9.23
  -3   3   3  962.37   30.49
   3   3  -3 1085.82   32.84
  -3   3   3 1040.62   31.97
  -3   3   3 1140.14   36.03
   3   3  -3  999.01   31.83
   3   3  -3 1013.13   35.81
   3   3  -3 1093.39   36.83
  -3   3   3 1067.73   31.60
   3   3  -3 1080.55   36.58
   3   3  -3 1031.51   35.41
  -3   3   3 1048.91   31.44
   3   3  -3 1065.41   32.94
   3   3  -3 1057.27   36.32
  -3   3   2   34.42    3.42
   3   3  -2   34.52    4.10
  -3   3   2   34.24    3.69
  -3   3   2   29.80    3.39
   3   3  -2   35.20    4.97
   3   3  -2   24.80    4.27
   3   3  -2   33.00    4.72
  -3   3   2   37.92    3.75
   3   3  -2   39.32    5.18
   3   3  -2   37.52    4.40
   3   3  -1  190.09   10.45
  -3   3   1  185.57    9.38
   3   3  -1  187.47    9.57
   3   3  -1  177.00   11.44
   3   3  -1  177.15   11.43
  -3   3   1  189.39    9.21
   3   3  -1  196.25   11.79
   3   3   0  276.35   11.44
   3   3   0  303.75   14.25
  -3   3   0  295.69   12.90
   3   3   0  302.23   13.66
   3   3   0  319.13   13.21
   3   3   0  307.18   15.49
   3   3   0  314.14   15.40
   3   3   0  294.82   14.87
   3   3   0  309.54   14.94
   3   3   1  136.18    7.68
  -3   3  -1  154.88    8.67
  -3   3  -1  152.29    8.07
   3   3   1  150.45    9.53
   3   3   1  165.40   10.79
   3   3   1  172.49   11.10
   3   3   1  153.10    9.10
   3   3   1  141.42   10.08
   3   3   1  171.28   10.55
   3   3   1  168.25   10.46
   3   3   1  141.64    9.77
   3   3   2  322.10   13.41
  -3   3  -2  317.97   14.07
  -3   3  -2  324.64   14.19
  -3   3  -2  294.53   12.01
   3   3   2  328.76   16.20
   3   3   2  308.04   14.64
   3   3   2  344.05   16.53
   3   3   2  289.98   15.27
   3   3   2  311.18   16.21
   3   3   2  306.39   15.14
   3   3   3   77.38    6.20
   3   3   3   74.73    7.27
  -3   3  -3   72.08    6.29
  -3   3  -3   66.27    6.31
   3   3   3   70.89    6.96
   3   3   3   70.79    7.15
   3   3   3   68.48    6.58
   3   3   3   64.50    6.84
   3   3   3   65.20    6.64
   3   3   3   60.78    6.89
   3   3   3   73.20    6.55
   3   3   3   76.09    7.36
  -3   3  -3   65.14    6.08
   3   3   4  105.93    7.83
   3   3   4   89.58    7.29
   3   3   4  110.73    9.37
  -3   3  -4   92.85    7.68
  -3   3  -4  102.56    8.62
   3   3   4  126.70    9.71
  -3   3  -4  115.36    8.76
   3   3   4  108.90    9.26
   3   3   4  109.58    8.95
   3   3   4  104.11    8.94
   3   3   4   97.40    9.05
   3   3   4  128.35    8.57
  -3   3  -4  121.25    8.89
   3   3   5   30.44    4.04
   3   3   5   36.59    5.09
   3   3   5   33.33    4.59
   3   3   5   36.58    5.59
  -3   3  -5   39.94    5.13
   3   3   5   41.31    5.42
   3   3   5   32.81    4.09
   3   3   5   34.65    5.31
  -3   3  -5   34.19    4.71
   3   3   5   40.00    5.60
   3   3   5   34.61    5.52
   3   3   5   38.96    5.11
   3   3   5   40.85    5.85
   3   3   5   25.12    3.76
   3   3   5   36.43    4.40
   3   3   5   30.14    5.18
  -3   3  -5   32.05    4.90
   3   3   5   30.48    4.34
  -3   3  -6   65.31    7.32
   3   3   6   55.85    6.68
   3   3   6   67.34    6.83
   3   3   6   65.25    7.65
   3   3   6   59.57    7.06
   3   3   6   51.03    5.67
   3   3   6   62.84    7.38
  -3   3  -6   50.94    5.86
   3   3   6   55.67    6.70
   3   3   6   60.14    7.15
   3   3   6   60.49    6.98
   3   3   6   50.02    6.77
   3   3   6   54.81    6.00
   3   3   6   55.10    7.27
  -3   3  -6   54.03    6.67
   3   3   7  362.01   17.56
   3   3   7  387.60   19.79
   3   3   7  393.84   19.00
   3   3   7  393.02   20.83
   3   3   7  374.68   19.72
   3   3   7  382.38   20.37
  -3   3  -7  416.82   18.38
   3   3   7  383.47   19.48
   3   3   7  391.21   20.44
   3   3   7  310.75   17.21
   3   3   7  372.62   20.52
  -3   3  -7  383.29   19.86
  -3   3  -7  367.39   19.28
   3   3   8  659.40   25.31
   3   3   8  649.08   28.64
   3   3   8  680.91   27.91
   3   3   8  757.93   30.94
   3   3   8  663.11   29.00
  -3   3  -8  700.27   26.31
  -3   3  -8  653.76   28.09
   3   3   8  661.25   29.63
   3   3   8  692.98   28.03
  -3   3  -8  677.87   29.22
  -3   3  -8  731.75   29.48
   3   3   8  674.88   30.11
  -3   3  -8  655.13   28.93
  -3   3  -8  714.90   29.88
   3   3   9   33.78    5.43
   3   3   9   29.61    5.63
  -3   3  -9   48.96    6.50
  -3   3  -9   30.32    5.12
   3   3   9   32.91    5.08
  -3   3  -9   34.40    5.78
   3   3   9   22.94    4.30
   3   3   9   25.82    5.38
   3   3   9   26.77    5.38
  -3   3  -9   27.86    5.32
  -3   3  -9   24.29    4.92
  -3   3 -10   43.54    6.01
   3   3  10   40.45    6.17
   3   3  10   52.74    6.52
   3   3  10   44.12    6.53
   3   3  10   44.89    6.67
   3   3  10   45.86    5.64
  -3   3 -10   42.37    6.01
   3   3  10   49.28    7.19
   3   3  10   47.00    5.57
  -3   3 -10   55.14    7.19
  -3   3 -10   47.60    6.60
   3   3  10   42.97    6.69
  -3   3 -10   46.17    4.95
   3   3  11   49.80    6.75
   3   3  11   53.94    6.39
   3   3  11   57.75    7.03
   3   3  11   67.12    7.78
  -3   3 -11   56.55    6.74
   3   3  11   59.54    7.66
  -3   3 -11   60.17    7.29
  -3   3 -11   58.74    7.26
  -3   3 -11   57.39    5.18
   3   3  12  152.69   11.06
   3   3  12  140.28   10.41
   3   3  12  167.10   11.54
  -3   3 -12  142.51   10.48
  -3   3 -12  157.00   11.06
  -3   3 -12  147.88    7.62
   3   3  13  155.21   10.27
  -3   3 -13  171.16    9.67
   3   3  14   99.73    6.73
  -3   3 -14  120.00    6.50
  -3   4  14   20.61    2.50
   3   4 -14   19.23    2.32
   3   4 -14   18.87    2.19
  -3   4  13   34.95    4.16
  -3   4  13   39.28    4.69
   3   4 -13   31.80    3.89
   3   4 -13   24.97    2.59
   3   4 -13   33.00    3.85
   3   4 -12    2.39    1.50
  -3   4  12    3.80    2.23
  -3   4  12    0.43    1.48
   3   4 -12    0.61    1.04
   3   4 -12    3.91    1.98
  -3   4  11   78.04    8.21
  -3   4  11   83.73    7.85
  -3   4  11   73.00    7.00
  -3   4  11   81.31    7.58
   3   4 -11   94.06    8.64
   3   4 -11   87.80    7.36
  -3   4  10  451.59   19.08
   3   4 -10  410.21   21.20
  -3   4  10  462.47   21.63
  -3   4  10  507.40   22.23
  -3   4  10  459.02   22.97
   3   4 -10  477.72   22.58
   3   4 -10  457.04   20.55
  -3   4   9  137.50   11.28
  -3   4   9  131.85    9.77
   3   4  -9  124.61   11.32
   3   4  -9  128.13   10.85
  -3   4   9  137.52   10.46
  -3   4   9  151.43   11.52
   3   4  -9  134.39   10.57
  -3   4   9  132.11   11.00
   3   4  -9  136.72   11.49
  -3   4   9  131.42   11.67
   3   4  -9  126.70   10.21
   3   4  -9  155.37   12.51
   3   4  -9  140.83   11.04
   3   4  -8  102.75   10.35
  -3   4   8   87.95    8.56
   3   4  -8   92.14    9.18
  -3   4   8   99.66    8.78
  -3   4   8  107.07    9.78
  -3   4   8   83.45    8.69
   3   4  -8  109.47   10.35
   3   4  -8  100.03    9.09
  -3   4   8   97.36    9.95
   3   4  -8   93.43    9.78
   3   4  -8   97.70    9.13
   3   4  -7  155.79   11.58
   3   4  -7  153.94   12.81
  -3   4   7  147.57   11.51
   3   4  -7  139.00   11.05
  -3   4   7  148.00   10.77
  -3   4   7  160.99   12.17
   3   4  -7  163.39   12.20
   3   4  -7  153.85   11.75
  -3   4   7  145.40   11.57
   3   4  -7  182.88   13.32
   3   4  -7  141.75   11.00
  -3   4   7  160.04   12.83
   3   4  -7  155.77   12.68
   3   4  -7  149.65   11.27
   3   4  -6   86.79    9.16
  -3   4   6   65.17    7.40
   3   4  -6   56.94    6.66
  -3   4   6   66.27    6.77
  -3   4   6   65.03    7.44
   3   4  -6   63.31    7.49
   3   4  -6   63.97    7.47
   3   4  -6   80.74    8.66
   3   4  -6   63.70    7.06
   3   4  -6   70.67    8.19
   3   4  -6   64.82    7.13
  -3   4   6   73.29    8.37
  -3   4   5  166.01   12.53
   3   4  -5  142.19    9.70
   3   4  -5  134.02   10.92
  -3   4   5  133.34    9.77
  -3   4   5  168.40   11.89
   3   4  -5  148.40   10.15
  -3   4   5  139.18    9.66
   3   4  -5  164.22   10.45
   3   4  -5  142.65   11.50
   3   4  -5  159.37   11.86
   3   4  -5  153.76   11.78
   3   4  -5  138.49   10.42
   3   4  -5  176.80   12.86
   3   4  -5  152.81   10.61
   3   4  -4  344.40   16.35
   3   4  -4  347.33   18.21
  -3   4   4  328.10   16.00
  -3   4   4  367.64   18.45
   3   4  -4  312.19   14.84
  -3   4   4  336.70   15.49
   3   4  -4  338.60   16.58
   3   4  -4  376.89   19.02
   3   4  -4  344.83   18.47
   3   4  -4  349.13   18.50
   3   4  -4  348.19   18.26
   3   4  -4  312.95   16.43
   3   4  -4  320.36   17.86
   3   4  -4  352.27   15.55
   3   4  -4  334.28   16.06
  -3   4   3  689.80   23.64
   3   4  -3  674.45   26.00
  -3   4   3  690.01   25.66
  -3   4   3  711.57   24.59
   3   4  -3  707.14   27.13
   3   4  -3  694.74   28.40
   3   4  -3  747.80   29.02
   3   4  -3  711.69   28.56
   3   4  -3  693.25   26.60
   3   4  -3  727.33   28.54
   3   4  -3  694.82   25.92
   3   4  -2   15.89    3.29
  -3   4   2   19.49    3.21
   3   4  -2   17.40    3.37
  -3   4   2   17.17    3.15
   3   4  -2   20.63    3.13
  -3   4   2   22.29    4.33
  -3   4   2   17.73    2.84
  -3   4   2   16.63    2.94
   3   4  -2   23.86    4.48
   3   4  -2   22.47    4.04
   3   4  -2   22.55    4.31
   3   4  -2   20.44    3.77
   3   4  -2   20.15    3.98
  -3   4   1  250.48   13.20
  -3   4   1  261.53   11.82
   3   4  -1  243.67   13.78
  -3   4   1  248.71   13.20
   3   4  -1  275.95   13.30
  -3   4   1  254.98   15.33
   3   4  -1  247.31   14.28
   3   4  -1  262.13   15.06
   3   4  -1  242.32   14.85
   3   4  -1  263.48   14.41
   3   4  -1  290.24   15.05
   3   4  -1  259.56   14.59
   3   4   0  174.83   11.34
  -3   4   0  174.45   10.71
   3   4   0  163.79   10.38
  -3   4   0  173.60    9.87
   3   4   0  160.29   11.37
   3   4   0  164.16    9.99
   3   4   0  181.47   12.07
   3   4   0  172.78   12.20
   3   4   0  171.85   12.01
   3   4   0  155.13   10.67
   3   4   0  170.56   11.51
   3   4   0  171.30   11.39
   3   4   1   67.87    6.74
   3   4   1   70.47    6.82
   3   4   1   80.42    7.78
   3   4   1   63.67    7.17
   3   4   1   62.14    6.25
   3   4   1   66.84    7.13
   3   4   1   74.98    7.86
   3   4   1   76.88    7.55
   3   4   1   63.85    6.55
  -3   4  -1   75.62    6.65
   3   4   1   68.15    7.21
   3   4   1   74.54    7.41
   3   4   2  116.51    9.44
  -3   4  -2  118.90    7.41
  -3   4  -2  104.57    8.01
   3   4   2  124.86    9.06
   3   4   2  120.31    9.82
   3   4   2  128.88   10.39
   3   4   2  114.12    8.89
   3   4   2  120.28    9.54
  -3   4  -2  113.77    7.42
   3   4   2   98.49    9.36
   3   4   2  129.47   10.02
   3   4   2  121.69    9.92
  -3   4  -2  101.14    8.35
   3   4   2  104.15    8.43
   3   4   2  123.42    9.82
   3   4   3   13.98    2.93
   3   4   3   11.52    3.27
  -3   4  -3   11.88    2.50
  -3   4  -3   16.87    3.38
   3   4   3   15.16    3.30
   3   4   3   10.50    3.07
   3   4   3   11.93    3.38
   3   4   3   14.38    3.58
   3   4   3   12.45    3.18
   3   4   3   10.63    3.31
   3   4   3   16.86    3.40
   3   4   4   40.54    4.72
   3   4   4   45.22    6.15
  -3   4  -4   44.74    5.14
   3   4   4   48.51    6.12
  -3   4  -4   46.86    6.07
   3   4   4   40.30    5.81
   3   4   4   44.91    6.10
   3   4   4   45.48    6.33
   3   4   4   52.21    6.32
   3   4   4   42.97    5.67
   3   4   4   47.13    6.45
  -3   4  -4   41.41    5.64
   3   4   4   38.44    5.37
   3   4   4   53.06    6.93
  -3   4  -4   48.56    6.04
   3   4   4   37.91    4.92
   3   4   5   66.43    6.93
   3   4   5   78.36    8.49
  -3   4  -5   80.80    7.20
   3   4   5   80.89    8.17
  -3   4  -5   86.32    8.79
   3   4   5   84.50    8.82
  -3   4  -5   73.02    7.59
   3   4   5   74.01    7.90
   3   4   5   82.38    8.77
  -3   4  -5   79.22    8.12
   3   4   5   62.09    6.82
   3   4   5   84.39    8.90
   3   4   5   73.34    6.97
   3   4   5   76.14    8.52
  -3   4  -5   76.49    7.98
   3   4   5   71.18    6.70
   3   4   6  337.41   17.81
   3   4   6  395.57   20.72
  -3   4  -6  368.28   17.73
   3   4   6  377.26   19.63
  -3   4  -6  354.08   20.11
  -3   4  -6  358.20   19.07
   3   4   6  334.77   19.33
  -3   4  -6  350.61   18.24
   3   4   6  368.17   19.20
  -3   4  -6  371.26   19.50
   3   4   6  359.38   19.56
   3   4   6  398.29   20.36
   3   4   6  370.83   20.25
   3   4   6  376.53   16.73
   3   4   6  381.52   20.70
  -3   4  -6  392.20   19.94
   3   4   7  185.75   11.85
   3   4   7  197.07   13.22
   3   4   7  209.11   14.78
  -3   4  -7  205.10   12.84
  -3   4  -7  199.88   13.86
   3   4   7  194.19   13.67
  -3   4  -7  189.43   14.53
   3   4   7  180.53   13.83
  -3   4  -7  214.68   13.45
   3   4   7  222.77   15.21
   3   4   7  208.29   14.09
   3   4   7  200.22   14.71
  -3   4  -7  211.29   14.54
   3   4   8    1.59    1.51
   3   4   8    0.59    1.77
  -3   4  -8    1.06    1.48
   3   4   8    3.35    2.16
  -3   4  -8    4.39    2.36
  -3   4  -8   -0.51    1.54
  -3   4  -8    0.61    1.55
   3   4   8    1.35    1.54
   3   4   8    0.54    1.23
   3   4   8    2.04    1.90
   3   4   8    3.50    2.40
  -3   4  -8    1.31    1.83
  -3   4  -8    2.64    1.99
   3   4   9  265.00   16.07
   3   4   9  289.08   17.37
   3   4   9  245.85   14.55
  -3   4  -9  274.68   14.81
   3   4   9  274.01   17.23
   3   4   9  272.66   15.67
  -3   4  -9  296.64   17.16
   3   4   9  294.97   17.91
  -3   4  -9  287.39   17.21
  -3   4  -9  293.95   16.69
   3   4  10  378.06   19.53
   3   4  10  394.31   19.86
   3   4  10  324.70   15.98
   3   4  10  342.80   19.29
   3   4  10  382.74   17.88
  -3   4 -10  376.97   19.38
   3   4  10  395.47   20.62
  -3   4 -10  381.22   19.49
   3   4  11  217.43   13.29
   3   4  11  205.58   13.09
  -3   4 -11  209.23   12.72
   3   4  11  193.03   13.23
  -3   4 -11  193.78   12.67
   3   4  11  211.61   13.65
  -3   4 -11  208.38   13.09
   3   4  12   48.19    5.50
   3   4  12   40.06    5.17
  -3   4 -12   44.98    4.66
   3   4  13  169.46    9.42
  -3   4 -13  187.27    8.73
  -3   5  13   83.47    5.32
   3   5 -13   74.54    4.89
  -3   5  12   77.27    6.36
  -3   5  12   76.70    6.54
   3   5 -12   77.02    6.16
   3   5 -12   70.38    5.10
  -3   5  11   75.34    5.43
  -3   5  11   90.77    8.04
   3   5 -11   87.82    7.47
   3   5 -11   87.36    6.59
  -3   5  10  361.82   15.60
  -3   5  10  333.19   17.01
  -3   5  10  347.05   17.40
   3   5 -10  340.93   17.33
   3   5 -10  314.76   15.36
  -3   5   9    8.94    2.66
   3   5  -9   14.97    3.23
  -3   5   9   14.28    3.69
  -3   5   9   10.27    2.77
  -3   5   9   11.86    3.20
   3   5  -9   13.86    3.37
  -3   5   9   12.00    3.27
  -3   5   9    6.73    2.73
   3   5  -9    8.57    2.26
   3   5  -9   11.91    3.61
   3   5  -8  319.27   17.68
  -3   5   8  394.51   17.80
  -3   5   8  379.87   19.46
   3   5  -8  391.66   19.75
  -3   5   8  376.83   19.30
   3   5  -8  379.55   19.81
   3   5  -8  361.89   16.58
  -3   5   8  447.62   21.97
   3   5  -8  359.98   17.44
  -3   5   7  239.85   15.09
   3   5  -7  205.78   13.08
  -3   5   7  214.99   12.52
  -3   5   7  224.41   14.32
   3   5  -7  219.91   14.76
   3   5  -7  241.70   15.39
   3   5  -7  212.73   14.46
  -3   5   7  227.90   15.62
   3   5  -7  227.37   15.50
   3   5  -7  212.53   12.75
   3   5  -6  140.38   11.38
  -3   5   6  135.93   11.30
   3   5  -6  111.85    9.00
  -3   5   6  114.59    8.63
  -3   5   6  127.45   10.49
   3   5  -6  121.01   10.88
   3   5  -6  136.39   11.50
   3   5  -6  128.77   10.93
  -3   5   6  152.84   12.00
   3   5  -6  127.05   11.21
   3   5  -6  114.86    8.81
  -3   5   6  133.11   11.66
  -3   5   5  345.20   19.87
   3   5  -5  321.70   18.68
  -3   5   5  331.04   17.49
  -3   5   5  340.58   18.94
  -3   5   5  319.82   15.04
   3   5  -5  326.68   16.74
   3   5  -5  379.50   19.93
  -3   5   5  334.54   18.86
   3   5  -5  342.27   19.10
   3   5  -4    4.52    1.86
   3   5  -4    6.94    2.66
  -3   5   4    6.80    2.46
  -3   5   4    3.57    2.02
   3   5  -4    7.00    3.08
   3   5  -4    5.26    2.25
   3   5  -4    2.43    2.08
   3   5  -4    7.99    2.79
  -3   5   4    5.82    2.56
   3   5  -4    4.57    2.44
   3   5  -3 1490.84   48.58
  -3   5   3 1499.53   48.04
  -3   5   3 1477.40   50.81
   3   5  -3 1557.88   49.35
  -3   5   3 1494.83   47.18
   3   5  -3 1604.73   51.06
   3   5  -3 1534.56   51.23
   3   5  -3 1491.43   50.89
   3   5  -3 1359.92   47.74
   3   5  -3 1553.70   49.16
   3   5  -3 1462.22   47.36
  -3   5   2   63.66    6.24
   3   5  -2   61.96    7.10
  -3   5   2   64.05    6.90
   3   5  -2   64.95    6.23
  -3   5   2   64.59    7.81
  -3   5   2   60.50    6.21
   3   5  -2   58.28    7.05
  -3   5   2   69.84    6.61
   3   5  -2   59.21    7.28
  -3   5   2   64.36    6.25
   3   5  -2   60.11    7.70
   3   5  -2   47.43    6.74
   3   5  -2   59.87    6.80
   3   5  -2   66.82    7.42
   3   5  -2   61.28    7.14
   3   5  -2   73.15    7.45
  -3   5   1   26.78    4.27
   3   5  -1   25.62    4.74
  -3   5   1   31.53    4.84
   3   5  -1   33.25    4.70
  -3   5   1   30.84    5.56
  -3   5   1   30.53    4.63
   3   5  -1   36.33    5.55
  -3   5   1   27.10    4.00
   3   5  -1   28.84    4.19
   3   5  -1   27.59    4.88
  -3   5   1   39.12    5.30
   3   5  -1   35.69    5.65
   3   5  -1   28.28    5.28
   3   5  -1   37.36    5.53
   3   5  -1   26.82    4.44
   3   5  -1   26.14    4.52
  -3   5   0  201.69   12.54
   3   5   0  177.59   11.53
   3   5   0  190.00   13.19
  -3   5   0  185.22   12.47
   3   5   0  167.93   11.53
  -3   5   0  202.08   14.35
   3   5   0  189.12   13.15
   3   5   0  187.59   11.65
   3   5   0  181.73   12.77
  -3   5   0  180.36   11.41
   3   5   0  202.40   14.00
   3   5   0  176.15   13.09
   3   5   0  175.17   11.39
  -3   5   0  172.89   10.19
   3   5   0  203.50   13.59
   3   5   0  181.15   11.95
   3   5   0  190.29   12.97
   3   5   1  538.98   23.16
   3   5   1  561.44   22.88
  -3   5  -1  564.42   24.17
   3   5   1  511.87   22.97
   3   5   1  543.25   24.48
   3   5   1  538.28   24.56
   3   5   1  550.10   22.94
  -3   5  -1  501.13   20.77
   3   5   1  554.51   25.36
   3   5   1  481.70   21.11
   3   5   1  595.84   25.37
   3   5   1  530.32   24.33
  -3   5  -1  515.97   21.24
   3   5   1  513.15   22.17
   3   5   1  559.13   24.65
  -3   5  -2  234.84   14.79
   3   5   2  258.27   15.10
   3   5   2  239.59   14.03
   3   5   2  238.44   15.22
   3   5   2  228.80   14.90
   3   5   2  232.82   14.16
   3   5   2  251.45   15.97
  -3   5  -2  214.69   11.47
   3   5   2  251.02   15.20
   3   5   2  234.87   13.15
   3   5   2  256.16   15.59
  -3   5  -2  202.94   12.75
  -3   5  -3  186.45   12.07
   3   5   3  148.50    9.71
  -3   5  -3  153.57   12.12
  -3   5  -3  170.64   11.61
   3   5   3  170.68   11.91
   3   5   3  149.93   11.71
  -3   5  -3  161.74   12.27
   3   5   3  180.66   12.90
   3   5   3  170.73   12.76
   3   5   3  174.96   12.41
   3   5   3  167.96   11.73
   3   5   3  145.63   12.19
   3   5   3  180.81   13.32
   3   5   3  165.82   10.56
   3   5   3  153.06   12.13
   3   5   4    9.29    3.24
  -3   5  -4   11.26    3.28
   3   5   4    9.65    3.04
  -3   5  -4    5.47    2.41
   3   5   4    7.48    3.11
   3   5   4    0.65    2.98
   3   5   4    8.37    2.70
   3   5   4   11.59    3.41
   3   5   4    8.37    2.98
   3   5   4   12.66    3.65
   3   5   4    7.06    2.63
   3   5   4   10.05    3.33
   3   5   4    7.00    2.18
  -3   5  -5  156.58   11.65
   3   5   5  145.54   11.85
   3   5   5  152.15   11.72
  -3   5  -5  145.42   11.77
   3   5   5  151.18   12.14
   3   5   5  138.93   11.41
   3   5   5  158.25   12.66
   3   5   5  119.10    9.45
   3   5   5  154.66   12.40
   3   5   5  159.95   11.18
   3   5   5  147.04   12.28
  -3   5  -5  143.13   11.54
   3   5   6  268.81   16.79
   3   5   6  282.30   16.57
  -3   5  -6  277.76   17.09
   3   5   6  263.34   16.99
   3   5   6  270.50   16.23
  -3   5  -6  257.83   16.26
   3   5   6  248.79   16.44
   3   5   6  256.11   16.60
   3   5   6  247.93   16.40
   3   5   6  247.86   13.94
   3   5   6  271.44   17.32
  -3   5  -6  271.46   16.56
  -3   5  -6  270.80   16.02
  -3   5  -7   89.43    9.32
   3   5   7   85.98    9.29
   3   5   7   98.48    9.58
  -3   5  -7  119.67   10.89
   3   5   7  111.17   10.43
  -3   5  -7  107.93    9.50
  -3   5  -7   93.91    9.48
   3   5   7  103.32    9.96
   3   5   7  104.92    9.99
   3   5   7  100.86   10.06
  -3   5  -7  107.98    9.82
  -3   5  -7   90.33    9.32
   3   5   8  163.36    9.70
  -3   5  -8  173.08   12.75
   3   5   8  206.48   14.13
   3   5   8  163.59   12.80
   3   5   8  171.97   11.76
  -3   5  -8  194.50   12.57
  -3   5  -8  183.50   13.13
   3   5   8  183.34   13.60
   3   5   8  192.85   13.35
  -3   5  -8  192.91   13.08
   3   5   8  170.09   13.31
  -3   5  -8  198.97   13.67
  -3   5  -9   67.19    7.27
   3   5   9   64.02    7.44
   3   5   9   58.40    6.12
  -3   5  -9   58.67    6.98
   3   5   9   57.47    7.15
  -3   5  -9   66.79    7.49
   3   5   9   61.45    7.49
  -3   5  -9   62.52    7.28
  -3   5  -9   61.25    5.82
   3   5  10   26.58    4.75
   3   5  10   23.83    4.23
   3   5  10   20.31    3.13
  -3   5 -10   22.77    4.10
   3   5  10   27.14    4.66
   3   5  10   24.54    4.63
  -3   5 -10   27.29    4.46
  -3   5 -10   25.00    3.48
   3   5  11    8.04    2.35
   3   5  11    7.17    2.37
   3   5  11    8.85    2.63
   3   5  11    6.11    2.29
  -3   5 -11   12.09    2.32
   3   5  12   45.72    4.58
  -3   5 -12   44.02    3.46
  -3   5 -13   30.10    2.63
  -3   6  12   17.24    2.28
  -3   6  11   61.34    5.51
   3   6 -11   54.74    4.63
  -3   6  10   10.13    2.18
   3   6 -10   16.85    2.96
   3   6 -10   13.00    2.66
  -3   6   9  150.97    9.60
   3   6  -9  156.24   10.29
  -3   6   9  141.34    9.88
   3   6  -8    9.72    3.09
  -3   6   8    9.02    2.92
  -3   6   7   26.69    4.99
   3   6  -7   24.05    4.66
  -3   6   7   31.74    5.14
  -3   6   7   19.66    4.29
   3   6  -7   29.64    4.76
  -3   6   6  146.82   10.82
   3   6  -6  140.07   11.59
  -3   6   6  143.70   11.31
   3   6  -6  158.93   12.23
   3   6  -6  148.58   10.86
  -3   6   6  139.68   11.66
  -3   6   6  156.24   12.39
  -3   6   5   87.27    9.33
  -3   6   5   94.18    9.61
  -3   6   5   80.55    7.70
   3   6  -5   69.54    8.18
  -3   6   5   86.04    8.57
   3   6  -5   77.95    8.69
   3   6  -5   67.94    7.34
  -3   6   5   74.25    8.49
   3   6  -5   83.19    8.51
  -3   6   4   60.90    7.87
   3   6  -4   69.87    7.55
  -3   6   4   51.71    6.09
   3   6  -4   68.87    7.96
  -3   6   4   54.58    6.80
   3   6  -4   65.50    7.94
   3   6  -4   51.13    6.99
   3   6  -4   58.84    6.69
  -3   6   4   58.62    7.58
   3   6  -4   57.08    6.95
   3   6  -3  353.38   19.44
  -3   6   3  387.13   19.67
  -3   6   3  407.39   21.62
  -3   6   3  396.96   17.91
   3   6  -3  379.28   20.27
  -3   6   3  386.53   19.59
   3   6  -3  387.22   21.13
   3   6  -3  382.09   20.72
   3   6  -3  354.81   17.85
   3   6  -3  398.58   20.10
   3   6  -3  383.86   19.43
   3   6  -3  381.69   19.00
  -3   6   2  392.34   17.74
   3   6  -2  384.15   20.16
  -3   6   2  370.79   19.24
  -3   6   2  395.91   21.43
  -3   6   2  373.09   17.72
   3   6  -2  367.21   19.56
  -3   6   2  356.36   16.17
   3   6  -2  355.36   19.41
  -3   6   2  398.90   17.81
   3   6  -2  362.40   20.45
   3   6  -2  386.38   20.53
   3   6  -2  322.45   16.71
   3   6  -2  372.32   19.69
   3   6  -2  336.81   17.91
   3   6  -2  356.19   19.11
  -3   6   1  102.50    8.72
   3   6  -1  103.56    9.94
  -3   6   1   91.71    8.96
  -3   6   1   88.83    9.73
  -3   6   1   92.56    8.52
   3   6  -1   97.86    9.46
   3   6  -1   97.60    9.24
  -3   6   1   89.34    8.10
  -3   6   1  100.67    8.70
   3   6  -1   83.68    9.31
   3   6  -1   91.26    7.71
   3   6  -1  118.32   10.63
   3   6  -1   94.92    9.35
   3   6  -1   90.84    8.22
  -3   6   0   97.55    8.78
   3   6   0   72.19    8.45
  -3   6   0   89.36    8.86
   3   6   0   84.56    8.17
  -3   6   0   95.51   10.09
  -3   6   0   86.51    8.37
   3   6   0   88.70    9.07
  -3   6   0   75.31    7.32
   3   6   0   91.16    9.57
   3   6   0   84.31    9.29
   3   6   0   83.81    7.57
   3   6   0   86.21    8.98
  -3   6  -1   61.26    7.13
   3   6   1   62.08    6.98
  -3   6  -1   66.14    7.74
   3   6   1   69.98    7.61
  -3   6  -1   69.32    8.68
  -3   6  -1   63.64    7.42
   3   6   1   58.13    7.50
   3   6   1   61.43    7.08
   3   6   1   67.46    8.19
  -3   6  -1   61.11    6.15
   3   6   1   61.84    7.68
   3   6   1   65.05    7.83
   3   6   1   64.75    7.74
   3   6   2  593.71   22.90
   3   6   2  644.26   26.72
  -3   6  -2  618.63   27.51
  -3   6  -2  591.25   24.26
   3   6   2  641.96   27.38
  -3   6  -2  655.88   28.49
  -3   6  -2  583.23   29.19
   3   6   2  657.59   28.08
   3   6   2  642.26   27.87
   3   6   2  617.49   26.18
   3   6   2  576.67   25.10
   3   6   2  651.44   28.64
   3   6   2  645.21   27.77
   3   6   2  664.79   28.59
   3   6   2  618.70   27.68
  -3   6  -3  139.84   11.59
  -3   6  -3  147.59   11.87
  -3   6  -3  128.86   10.15
  -3   6  -3  158.57   12.39
   3   6   3  140.32   11.54
   3   6   3  168.01   12.72
   3   6   3  136.58   11.09
   3   6   3  130.58   10.09
   3   6   3  163.46   12.77
   3   6   3  131.91   11.21
   3   6   3  165.18   12.84
   3   6   3  151.04   12.09
  -3   6  -4  179.19   13.24
   3   6   4  173.47   12.91
   3   6   4  191.96   13.69
  -3   6  -4  175.95   12.93
  -3   6  -4  173.07   12.01
   3   6   4  186.87   13.16
   3   6   4  175.91   13.26
   3   6   4  160.06   12.34
   3   6   4  160.20   10.75
   3   6   4  152.75   12.54
   3   6   4  161.22   12.13
   3   6   4  188.14   13.98
  -3   6  -5    4.42    2.50
   3   6   5    9.22    3.29
  -3   6  -5    9.67    3.09
   3   6   5   10.15    3.16
   3   6   5   14.28    3.78
   3   6   5    6.65    2.28
   3   6   5   12.66    3.42
   3   6   5    5.14    2.85
   3   6   5    9.79    2.95
  -3   6  -5   12.06    3.20
   3   6   5   12.72    3.82
  -3   6  -6   33.07    5.51
   3   6   6   30.84    5.36
  -3   6  -6   40.12    5.73
   3   6   6   34.24    5.69
  -3   6  -6   31.55    5.43
   3   6   6   39.43    6.11
   3   6   6   27.58    4.75
   3   6   6   31.36    4.55
   3   6   6   34.15    5.62
   3   6   6   40.97    6.21
   3   6   7   37.53    4.46
  -3   6  -7   48.11    6.34
   3   6   7   41.43    5.99
   3   6   7   40.90    6.20
  -3   6  -7   46.70    6.04
  -3   6  -7   39.28    5.79
   3   6   7   45.37    6.20
   3   6   7   33.64    5.54
  -3   6  -7   41.89    4.85
   3   6   7   50.97    6.79
   3   6   8  190.32   12.41
   3   6   8  143.56   11.24
   3   6   8  160.19   10.15
  -3   6  -8  156.72   11.37
   3   6   8  148.11   11.21
   3   6   8  188.83   12.29
  -3   6  -8  161.33   11.33
   3   6   8  172.58   12.31
  -3   6  -8  152.92   11.22
   3   6   9   30.72    4.68
   3   6   9   22.89    3.16
   3   6   9   23.67    4.08
  -3   6  -9   21.51    3.16
   3   6   9   29.05    4.62
   3   6  10   14.82    3.04
   3   6  10   18.01    3.42
  -3   6 -10   16.05    2.34
   3   6  10   17.30    3.35
   3   6  11   33.42    3.74
  -3   6 -11   39.23    3.77
  -3   6 -12    5.00    1.06
   3   7 -10   24.89    2.68
  -3   7   9   55.07    4.59
   3   7  -9   62.39    5.24
   3   7  -9   51.15    3.80
   3   7  -8   -0.38    1.13
   3   7  -8   -0.24    1.05
   3   7  -7   39.19    5.11
   3   7  -7   35.08    4.86
   3   7  -7   37.50    4.13
   3   7  -6   42.29    5.58
  -3   7   6   33.89    4.96
   3   7  -6   34.41    5.09
   3   7  -6   25.43    3.59
  -3   7   6   31.51    5.08
  -3   7   5   19.75    3.28
  -3   7   5   19.40    3.34
   3   7  -5   16.47    3.81
  -3   7   5   23.67    4.21
   3   7  -5   23.17    4.49
  -3   7   5   17.28    3.97
   3   7  -5   21.01    3.38
  -3   7   4  328.85   18.01
   3   7  -4  347.06   17.85
  -3   7   4  297.07   16.36
   3   7  -4  332.16   18.26
   3   7  -4  285.20   13.49
  -3   7   4  328.18   18.12
  -3   7   3  254.62   15.87
   3   7  -3  252.58   14.71
   3   7  -3  227.31   14.46
  -3   7   3  230.73   13.93
   3   7  -3  209.99   14.65
   3   7  -3  244.16   15.33
  -3   7   3  241.64   15.55
  -3   7   2  131.95    9.47
   3   7  -2  159.28   11.64
   3   7  -2  151.94   11.34
  -3   7   2  144.17   10.55
   3   7  -2  153.02   12.20
   3   7  -2  149.54   11.90
   3   7  -2  154.41   11.67
   3   7  -2  150.40   11.23
  -3   7   1   69.62    7.11
  -3   7   1   93.62    8.15
   3   7  -1  104.94    9.53
  -3   7   1   89.98    7.88
  -3   7   1   96.97    8.23
   3   7  -1  101.50    9.83
   3   7  -1  100.33    9.67
  -3   7   0   60.94    6.75
  -3   7   0   68.25    7.95
  -3   7   0   53.53    6.51
   3   7   0   76.16    8.03
   3   7   0   69.15    7.14
  -3   7   0   72.46    7.29
   3   7   0   66.52    7.91
  -3   7   0   60.74    6.23
   3   7   0   61.80    7.58
   3   7   0   65.28    7.71
   3   7   0   54.69    7.08
  -3   7  -1  583.15   25.04
  -3   7  -1  628.85   27.29
  -3   7  -1  587.05   25.37
   3   7   1  588.05   26.08
   3   7   1  562.18   23.83
  -3   7  -1  600.98   25.20
   3   7   1  602.86   27.04
   3   7   1  643.60   27.42
   3   7   1  627.53   27.20
   3   7   1  597.92   26.61
  -3   7  -2   88.85    8.67
   3   7   2   95.33    8.96
  -3   7  -2  100.92    9.57
  -3   7  -2   99.48    9.23
   3   7   2   91.84    8.99
   3   7   2   78.72    7.19
   3   7   2  107.22    9.92
   3   7   2   94.70    9.36
   3   7   2   97.28    9.42
   3   7   2   92.32    9.16
   3   7   3  148.28   11.02
   3   7   3  156.31   11.69
  -3   7  -3  162.30   12.24
   3   7   3  157.42   11.67
   3   7   3  156.31    9.67
   3   7   3  167.39   12.48
   3   7   3  156.52   11.96
   3   7   3  172.94   12.73
  -3   7  -4   17.28    3.83
   3   7   4   13.49    3.41
  -3   7  -4    9.06    3.04
  -3   7  -4   18.35    4.09
   3   7   4   10.45    3.11
  -3   7  -4   10.58    2.28
   3   7   4   14.30    3.58
   3   7   4   15.95    3.63
   3   7   4   10.15    3.35
   3   7   5  101.07    8.94
   3   7   5   99.74    9.02
   3   7   5   83.42    7.86
  -3   7  -5  100.69    9.27
   3   7   5   85.75    8.49
   3   7   5  102.00    9.00
   3   7   5  102.65    8.41
   3   7   5  116.47    9.93
   3   7   6   39.75    5.36
  -3   7  -6   41.30    5.75
   3   7   6   31.22    4.91
  -3   7  -6   35.20    5.11
   3   7   6   32.85    4.99
   3   7   6   32.06    5.05
   3   7   7   13.47    3.10
   3   7   7   10.02    2.76
  -3   7  -7   11.79    3.14
   3   7   7    6.22    2.13
   3   7   7   10.78    2.89
   3   7   8    2.61    1.41
   3   7   8    0.65    0.92
  -3   7  -8    3.47    1.52
   3   7   8    1.59    1.43
   3   7   9   71.28    5.83
   3   7   9   63.74    5.62
   3   7  10   11.80    2.06
   3   8  -8   11.74    1.90
  -3   8   7   55.52    4.56
   3   8  -7   51.17    4.52
   3   8  -7   48.19    4.35
   3   8  -6   92.51    6.70
   3   8  -6   91.82    6.91
  -3   8   5   58.59    3.97
   3   8  -5   56.45    5.51
   3   8  -5   61.30    6.05
  -3   8   4   45.93    4.46
   3   8  -4   46.68    5.16
   3   8  -4   51.41    5.76
   3   8  -3   19.08    3.45
   3   8  -3   12.30    2.89
   3   8  -3   18.71    3.68
   3   8  -2   61.07    6.30
   3   8  -2   66.00    6.85
  -3   8   2   48.02    6.00
   3   8  -1   30.30    3.18
   3   8  -1   34.49    4.83
   3   8  -1   27.66    3.94
   3   8  -1   32.86    5.04
   3   8  -1   37.98    5.32
  -3   8   1   34.36    5.12
   3   8   0  124.39    9.27
  -3   8   0   98.52    6.11
   3   8   0   95.08    7.05
  -3   8   0   94.80    7.17
   3   8   0  106.48    8.92
   3   8   0  101.56    8.85
   3   8   0  106.29    8.72
   3   8   1  201.59   12.15
   3   8   1  164.98    9.14
  -3   8  -1  182.44    9.62
  -3   8  -1  199.15   11.04
   3   8   1  197.87   12.40
   3   8   1  179.99   12.08
   3   8   1  200.92   12.38
   3   8   2  266.72   14.11
  -3   8  -2  261.18   13.31
   3   8   2  246.68   14.02
   3   8   2  262.38   14.41
   3   8   3  212.71   12.11
  -3   8  -3  208.85   11.81
   3   8   3  218.15   12.57
   3   8   3  220.63   12.88
   3   8   4   30.03    4.10
  -3   8  -4   41.01    4.81
   3   8   4   33.28    4.52
   3   8   4   35.92    4.92
   3   8   5   32.21    3.95
  -3   8  -5   35.56    4.34
   3   8   5   43.38    5.07
   3   8   6   10.42    2.24
   3   8   6    5.75    1.60
   3   8   6    5.02    1.99
   3   8   7    5.46    1.56
   3   8   7    5.37    1.71
   3   8   8   84.47    4.83
   3   8   8   77.69    4.99
  -3   9   5   57.94    3.68
   3   9  -5   60.21    3.79
   3   9  -4   46.26    3.79
   3   9  -3    9.71    1.76
   3   9  -3    7.52    1.74
  -3   9   2    4.46    1.29
   3   9  -2    3.49    1.28
   3   9  -2    1.59    1.29
   3   9  -1    0.26    0.92
   3   9  -1    0.83    1.00
   3   9   0   50.12    4.49
   3   9   0   51.80    4.76
   3   9   1   79.12    5.63
   3   9   1   71.87    5.45
   3   9   1   81.60    5.69
   3   9   2   14.40    2.41
   3   9   2   15.77    2.49
   3   9   2   14.38    2.39
   3   9   3   80.69    5.16
   3   9   3   90.81    5.74
   3   9   4   18.81    2.36
   4  -8  -5   33.12    2.46
   4  -8  -5   28.32    2.54
  -4  -8   5   30.13    2.81
   4  -8  -4   97.84    5.56
  -4  -8   4   89.66    5.66
   4  -8  -3   17.31    2.45
  -4  -8   3   14.23    2.36
  -4  -8   3   13.98    2.26
   4  -8  -2   52.34    4.29
   4  -8  -2   36.06    3.21
  -4  -8   2   37.33    3.98
  -4  -8   2   47.58    4.29
   4  -8  -1   49.01    4.14
  -4  -8   1   42.66    4.35
  -4  -8   1   43.41    4.35
  -4  -8   0   -0.51    1.00
  -4  -8   0    0.56    1.11
   4  -8   1   82.48    5.46
  -4  -8  -1   80.16    5.87
   4  -8   1   63.43    5.12
   4  -8   2   45.33    4.00
  -4  -8  -2   52.40    4.49
   4  -8   2   41.94    4.01
  -4  -8  -2   41.85    3.78
   4  -8   3   34.89    3.39
  -4  -8  -3   34.57    3.49
  -4  -8  -3   34.16    3.43
   4  -8   3   35.14    3.54
   4  -8   4    2.74    1.02
  -4  -8  -4    1.43    0.79
   4  -8   4    2.71    1.16
  -4  -8  -4    2.01    0.95
   4  -8   5    5.99    1.17
   4  -8   5    8.66    1.46
  -4  -8  -5    6.39    1.23
   4  -7  -8   44.94    3.38
   4  -7  -7   63.30    4.77
   4  -7  -6   10.19    2.27
   4  -7  -6   14.31    2.51
  -4  -7   6    8.07    2.22
   4  -7  -5   48.73    4.82
   4  -7  -5   47.81    4.89
  -4  -7   5   47.99    5.28
  -4  -7   5   48.36    5.02
   4  -7  -4   42.12    4.63
   4  -7  -4   38.36    4.60
  -4  -7   4   33.61    4.34
  -4  -7   4   39.26    4.96
  -4  -7   4   42.11    4.96
   4  -7  -3   73.36    6.23
   4  -7  -3   75.50    6.70
   4  -7  -3   74.99    6.43
  -4  -7   3   67.22    6.13
  -4  -7   3   77.39    7.17
  -4  -7   3   77.97    6.98
   4  -7  -2    2.84    1.79
   4  -7  -2    5.89    2.00
  -4  -7   2    2.64    1.81
  -4  -7   2    2.60    1.39
  -4  -7   2    3.97    2.02
   4  -7  -1   34.82    4.63
   4  -7  -1   35.35    4.78
  -4  -7   1   35.48    4.90
  -4  -7   1   33.53    4.59
  -4  -7   1   44.36    5.45
  -4  -7   1   40.40    5.30
  -4  -7   1   35.72    4.45
   4  -7   0   68.46    6.29
   4  -7   0   77.04    7.05
  -4  -7   0   54.52    6.03
  -4  -7   0   59.00    6.34
  -4  -7   0   61.44    6.59
  -4  -7   0   58.73    5.97
   4  -7   1   69.73    6.80
  -4  -7  -1   76.71    7.19
  -4  -7  -1   74.37    7.03
   4  -7   1   79.19    7.22
  -4  -7  -1   82.29    6.95
   4  -7   2   34.11    4.75
  -4  -7  -2   26.86    3.80
  -4  -7  -2   28.45    4.34
   4  -7   2   35.80    4.92
  -4  -7  -2   31.15    4.40
   4  -7   3   77.48    7.01
  -4  -7  -3   71.72    5.78
  -4  -7  -3   83.27    7.06
   4  -7   3   81.16    7.23
  -4  -7  -3   72.57    6.55
   4  -7   4   12.10    2.96
  -4  -7  -4    5.63    1.39
  -4  -7  -4   11.87    2.68
   4  -7   4   11.44    2.76
  -4  -7  -4    9.53    2.42
   4  -7   5   16.89    3.08
  -4  -7  -5   20.11    3.09
   4  -7   5   14.82    3.02
   4  -7   6   10.19    2.42
  -4  -7  -6    6.46    1.57
   4  -7   6    9.51    2.26
  -4  -7  -6    7.34    1.85
   4  -7   7   32.22    3.35
  -4  -7  -7   35.16    3.21
   4  -7   7   30.77    3.46
   4  -7   8  120.01    5.57
   4  -7   8  109.40    5.49
   4  -6  -9  232.50    9.88
  -4  -6   9  197.59   10.39
   4  -6  -8  224.29   10.93
   4  -6  -8  193.09    9.47
  -4  -6   8  220.89   11.84
   4  -6  -7  129.59    8.38
  -4  -6   7  141.81    9.85
  -4  -6   7  130.72    9.09
  -4  -6   7  119.67    7.31
   4  -6  -6   97.07    7.92
   4  -6  -6   88.57    7.47
  -4  -6   6   87.68    8.03
  -4  -6   6   81.46    7.53
   4  -6  -5   21.58    3.95
   4  -6  -5   19.03    3.64
   4  -6  -5   14.05    3.19
  -4  -6   5   19.21    4.06
  -4  -6   5   16.18    3.25
  -4  -6   5   17.57    3.73
  -4  -6   5   17.29    3.54
  -4  -6   5   16.68    3.42
   4  -6  -4  126.58    9.61
   4  -6  -4  104.91    9.02
   4  -6  -4  112.09    9.17
  -4  -6   4  119.17   10.11
  -4  -6   4  116.64    8.91
  -4  -6   4  118.49    9.37
   4  -6  -3  108.20    8.87
   4  -6  -3   94.01    8.51
   4  -6  -3   84.35    8.17
  -4  -6   3   92.29    8.49
  -4  -6   3  108.06    9.58
  -4  -6   3   93.83    7.92
  -4  -6   3   92.52    8.43
  -4  -6   3   93.52    8.73
   4  -6  -2  100.38    8.46
   4  -6  -2   91.22    8.52
   4  -6  -2  102.21    8.98
  -4  -6   2   77.13    7.62
  -4  -6   2   94.85    9.17
  -4  -6   2   93.60    7.83
  -4  -6   2   91.20    8.46
  -4  -6   2   80.06    8.18
   4  -6  -1    8.91    2.62
   4  -6  -1    4.72    2.24
   4  -6  -1    8.98    2.94
  -4  -6   1    4.43    2.61
  -4  -6   1    8.08    2.48
  -4  -6   1    9.80    2.53
  -4  -6   1    4.80    2.20
  -4  -6   1    6.78    2.25
  -4  -6   1    7.90    2.88
   4  -6   0    1.01    1.41
   4  -6   0    1.15    1.73
  -4  -6   0    1.07    1.72
  -4  -6   0    1.22    1.39
  -4  -6   0    0.53    1.21
  -4  -6   0    1.99    1.88
  -4  -6   0    0.56    1.44
   4  -6   1   16.85    3.87
  -4  -6  -1    7.20    2.13
  -4  -6  -1   15.07    3.41
  -4  -6  -1    9.02    2.78
  -4  -6  -1   10.58    3.25
  -4  -6  -1   13.50    3.64
   4  -6   1   10.67    3.15
   4  -6   2    1.74    1.98
  -4  -6  -2    3.23    1.82
  -4  -6  -2    1.99    1.50
  -4  -6  -2    1.10    1.26
  -4  -6  -2    2.15    1.94
  -4  -6  -2    1.62    1.85
   4  -6   2    6.31    2.62
   4  -6   3  158.16   11.73
  -4  -6  -3  132.25    9.41
  -4  -6  -3  134.06    9.89
  -4  -6  -3  137.11   10.94
  -4  -6  -3  139.01   10.53
  -4  -6  -3  136.52   10.51
   4  -6   3  148.43   11.39
  -4  -6  -3  153.88   10.95
   4  -6   4   65.70    7.30
  -4  -6  -4   58.75    5.41
  -4  -6  -4   66.34    6.51
  -4  -6  -4   57.98    6.48
   4  -6   4   72.61    7.90
  -4  -6  -4   61.20    6.66
   4  -6   5    6.66    2.62
  -4  -6  -5    5.72    2.04
  -4  -6  -5    4.11    2.10
   4  -6   5    4.27    2.51
  -4  -6  -5    3.94    2.00
  -4  -6  -6   68.26    6.01
   4  -6   6   73.25    7.10
  -4  -6  -6   57.34    5.52
  -4  -6  -6   58.78    6.00
   4  -6   6   70.38    7.13
  -4  -6  -7   13.37    2.72
   4  -6   7   14.33    2.99
  -4  -6  -7   11.12    2.22
   4  -6   7   13.65    3.01
  -4  -6  -7   11.55    2.61
  -4  -6  -8    6.83    1.86
   4  -6   8    7.25    2.04
   4  -6   8    8.69    2.29
  -4  -6  -8   10.69    2.07
  -4  -6  -9   40.38    3.58
   4  -6   9   33.19    3.40
   4  -6   9   41.35    3.97
  -4  -6 -10   37.03    2.67
   4  -5 -10   63.61    4.72
  -4  -5  10   54.53    4.66
   4  -5  -9  216.62   10.19
  -4  -5   9  230.22   12.93
  -4  -5   9  218.80   11.41
   4  -5  -8  104.96    8.04
   4  -5  -8   84.42    6.93
  -4  -5   8   93.72    8.52
  -4  -5   8   88.72    7.66
  -4  -5   8   77.44    7.05
   4  -5  -7    8.65    2.86
   4  -5  -7   11.70    2.90
  -4  -5   7   10.64    2.88
  -4  -5   7   17.94    4.05
  -4  -5   7   11.74    2.63
  -4  -5   7   14.87    3.08
  -4  -5   7   13.96    3.16
   4  -5  -6    5.83    2.49
   4  -5  -6    6.43    2.53
   4  -5  -6    3.07    2.18
  -4  -5   6    4.61    2.26
  -4  -5   6    5.91    2.52
  -4  -5   6    3.98    1.87
  -4  -5   6    1.79    1.61
  -4  -5   6    4.92    2.18
   4  -5  -5  160.77   11.66
   4  -5  -5  139.94   10.71
   4  -5  -5  126.72   10.51
  -4  -5   5  143.44   11.55
  -4  -5   5  154.00   11.09
  -4  -5   5  138.04    9.55
  -4  -5   5  143.04   10.80
   4  -5  -4   72.56    8.32
   4  -5  -4   64.82    7.50
   4  -5  -4   73.84    7.87
   4  -5  -4   69.38    7.73
  -4  -5   4   60.43    7.54
  -4  -5   4   63.95    7.13
  -4  -5   4   66.67    6.58
  -4  -5   4   58.74    6.97
  -4  -5   4   57.59    7.19
   4  -5  -3  600.08   27.22
   4  -5  -3  610.77   26.11
   4  -5  -3  635.65   26.47
   4  -5  -3  593.92   26.27
  -4  -5   3  554.90   25.37
  -4  -5   3  608.48   25.44
  -4  -5   3  604.02   23.87
  -4  -5   3  607.14   25.81
  -4  -5   3  577.11   25.97
  -4  -5   3  602.75   24.03
  -4  -5   3  587.75   26.54
   4  -5  -2  104.21   10.12
   4  -5  -2  107.81    9.64
   4  -5  -2  107.44    9.87
   4  -5  -2  118.85   10.49
  -4  -5   2  111.80   10.36
  -4  -5   2   97.73    8.60
  -4  -5   2  101.61    9.13
  -4  -5   2  105.11    9.21
  -4  -5   2  106.69    9.71
  -4  -5   2  113.68   10.32
  -4  -5   2  103.27    8.51
   4  -5  -1   32.86    5.16
   4  -5  -1   42.36    6.00
   4  -5  -1   44.96    6.42
  -4  -5   1   35.66    5.91
  -4  -5   1   35.57    5.18
  -4  -5   1   24.68    4.38
  -4  -5   1   27.43    4.94
  -4  -5   1   32.23    4.81
  -4  -5   1   23.08    4.12
  -4  -5   1   31.46    5.63
   4  -5  -1   23.50    4.42
   4  -5   0   86.24    7.82
   4  -5   0   86.41    8.21
   4  -5   0   95.59    8.89
   4  -5   0   93.97    9.48
  -4  -5   0   95.68    9.53
  -4  -5   0   87.25    8.41
  -4  -5   0   89.71    7.66
  -4  -5   0   74.86    7.66
  -4  -5   0   84.47    8.58
  -4  -5   0   94.74    8.62
  -4  -5   0   88.66    8.98
  -4  -5   0   84.03    8.29
  -4  -5   0   90.55    8.11
   4  -5   0   73.15    8.02
   4  -5   1  318.39   16.53
   4  -5   1  312.19   18.26
  -4  -5  -1  312.53   18.25
  -4  -5  -1  320.29   17.23
  -4  -5  -1  292.39   17.05
  -4  -5  -1  316.19   16.56
  -4  -5  -1  305.13   17.32
  -4  -5  -1  291.39   16.88
  -4  -5  -1  290.89   17.13
  -4  -5  -1  335.16   18.10
  -4  -5  -1  344.10   16.88
   4  -5   2   64.89    7.30
   4  -5   2   70.95    6.91
   4  -5   2   77.76    7.47
   4  -5   2   77.10    8.64
  -4  -5  -2   70.77    8.16
  -4  -5  -2   65.98    7.42
  -4  -5  -2   57.55    6.73
  -4  -5  -2   53.51    6.38
  -4  -5  -2   69.50    7.69
  -4  -5  -2   67.28    7.73
  -4  -5  -2   73.38    7.96
  -4  -5  -2   67.68    7.83
   4  -5   2   60.59    7.62
   4  -5   3   90.72    8.37
   4  -5   3   86.34    9.05
  -4  -5  -3   93.30    9.28
  -4  -5  -3   72.91    7.99
  -4  -5  -3   65.68    6.95
  -4  -5  -3   73.04    7.18
  -4  -5  -3   75.40    7.89
  -4  -5  -3   80.47    8.59
  -4  -5  -3   81.00    8.88
   4  -5   3   74.44    8.50
   4  -5   4  177.35   11.83
   4  -5   4  167.40   12.62
   4  -5   4  144.53   10.32
  -4  -5  -4  135.64    9.33
  -4  -5  -4  143.60   10.00
  -4  -5  -4  135.08   10.51
  -4  -5  -4  160.60   11.35
   4  -5   4  170.68   13.03
   4  -5   5   59.06    6.57
   4  -5   5   71.60    8.06
   4  -5   5   72.86    6.92
  -4  -5  -5   53.68    6.41
  -4  -5  -5   60.38    7.64
  -4  -5  -5   54.11    6.26
  -4  -5  -5   58.60    6.52
   4  -5   5   72.72    8.30
  -4  -5  -5   56.84    6.68
   4  -5   6   20.06    4.27
   4  -5   6   28.53    4.26
  -4  -5  -6   21.06    3.74
  -4  -5  -6   22.20    4.64
  -4  -5  -6   24.89    3.89
  -4  -5  -6   19.23    3.59
   4  -5   6   25.26    4.74
  -4  -5  -6   18.98    3.81
   4  -5   7   53.08    6.37
  -4  -5  -7   57.17    6.99
  -4  -5  -7   51.88    5.05
   4  -5   7   51.06    6.62
  -4  -5  -8   24.23    3.83
   4  -5   8   20.46    3.74
  -4  -5  -8   17.11    3.77
   4  -5   8   20.88    3.99
  -4  -5  -8   15.90    2.99
  -4  -5  -9   59.38    5.38
  -4  -5  -9   50.57    4.18
   4  -5   9   49.90    5.64
  -4  -5 -10   39.18    3.85
  -4  -5 -10   37.64    3.76
   4  -5  10   30.86    3.92
  -4  -5 -11    0.51    0.61
  -4  -5 -11    0.98    0.70
   4  -5  11    0.17    0.60
   4  -4 -11   88.35    4.64
  -4  -4  11   89.98    7.16
  -4  -4  11   94.52    6.81
   4  -4 -10  109.43    8.14
   4  -4 -10  110.55    6.93
  -4  -4  10  105.10    8.58
  -4  -4  10   91.38    7.69
   4  -4  -9   75.18    7.26
   4  -4  -9   84.11    7.04
   4  -4  -9   69.35    6.15
  -4  -4   9   81.07    8.17
  -4  -4   9   82.38    7.55
  -4  -4   9   87.23    7.35
  -4  -4   9   70.65    7.34
   4  -4  -8  112.92    8.73
  -4  -4   8  135.81   10.98
  -4  -4   8  121.97    9.64
  -4  -4   8  111.32    8.91
  -4  -4   8  106.64    9.29
  -4  -4   8  110.96    8.14
   4  -4  -7  135.12   10.52
   4  -4  -7  145.39   10.74
   4  -4  -7  139.83   10.46
  -4  -4   7  146.48   11.98
  -4  -4   7  144.27   10.95
  -4  -4   7  135.76   10.14
  -4  -4   7  125.51   10.28
  -4  -4   7  143.67    9.98
  -4  -4   7  129.48   10.16
   4  -4  -6  105.59    9.17
   4  -4  -6  107.06   10.10
   4  -4  -6   96.99    9.11
   4  -4  -6  104.21    9.31
   4  -4  -6   90.82    9.01
  -4  -4   6  107.42   10.36
  -4  -4   6  102.28    9.23
  -4  -4   6   97.57    8.82
  -4  -4   6   88.82    8.12
  -4  -4   6   89.78    8.43
   4  -4  -5   24.88    5.01
  -4  -4   5   18.17    4.58
   4  -4  -5   29.37    4.69
   4  -4  -5   24.26    4.76
   4  -4  -5   23.96    4.22
   4  -4  -5   25.80    4.80
   4  -4  -5   20.97    4.36
  -4  -4   5   36.60    6.16
  -4  -4   5   29.70    4.76
  -4  -4   5   29.82    4.97
  -4  -4   5   26.24    5.14
  -4  -4   5   20.21    4.11
  -4  -4   5   24.03    4.68
   4  -4  -4  211.67   14.62
   4  -4  -4  197.38   13.48
   4  -4  -4  189.98   13.32
   4  -4  -4  206.44   13.92
  -4  -4   4  184.87   13.96
  -4  -4   4  210.56   13.43
  -4  -4   4  184.54   13.40
  -4  -4   4  174.61   12.54
  -4  -4   4  212.97   13.46
   4  -4  -4  191.20   12.44
  -4  -4   4  182.20   12.47
  -4  -4   4  185.30   13.45
  -4  -4   4  192.97   14.03
   4  -4  -3 1041.95   38.63
   4  -4  -3 1045.27   37.44
   4  -4  -3 1036.54   37.48
   4  -4  -3  963.75   37.32
  -4  -4   3 1003.06   38.59
  -4  -4   3  987.61   36.39
  -4  -4   3  996.88   36.54
   4  -4  -3  976.74   35.44
  -4  -4   3  986.47   36.42
  -4  -4   3 1031.84   36.48
  -4  -4   3 1022.96   37.74
  -4  -4   3  968.46   37.04
   4  -4  -2   47.40    6.81
   4  -4  -2   56.63    5.81
   4  -4  -2   46.37    6.42
   4  -4  -2   54.87    6.93
   4  -4  -2   53.33    6.97
  -4  -4   2   61.48    7.71
  -4  -4   2   58.03    7.03
  -4  -4   2   48.70    6.38
  -4  -4   2   45.97    6.19
  -4  -4   2   45.59    6.25
  -4  -4   2   41.49    5.83
  -4  -4   2   51.47    6.92
   4  -4  -2   60.04    6.83
  -4  -4   2   41.18    6.03
   4  -4  -1   29.29    5.17
   4  -4  -1   26.03    3.89
  -4  -4   1   22.59    4.20
   4  -4  -1   24.84    4.10
   4  -4  -1   22.00    4.36
   4  -4  -1   26.60    4.84
   4  -4  -1   28.56    5.35
  -4  -4   1   27.80    5.32
  -4  -4   1   24.83    4.68
  -4  -4   1   24.01    4.31
  -4  -4   1   23.75    4.52
  -4  -4   1   26.88    4.23
  -4  -4   1   29.41    4.86
  -4  -4   1   31.87    5.45
   4  -4  -1   28.56    4.70
   4  -4  -1   26.96    4.67
   4  -4   0   36.92    4.80
   4  -4   0   28.88    4.87
   4  -4   0   33.35    5.28
   4  -4   0   31.41    5.47
  -4  -4   0   34.79    5.80
  -4  -4   0   22.66    4.60
  -4  -4   0   22.64    3.96
   4  -4   0   34.04    5.08
  -4  -4   0   28.71    5.14
  -4  -4   0   39.61    5.38
  -4  -4   0   34.08    5.05
  -4  -4   0   35.53    5.67
   4  -4   0   31.91    5.21
   4  -4   1    5.89    2.32
   4  -4   1   11.83    3.17
   4  -4   1   10.46    2.93
   4  -4   1   10.36    3.39
   4  -4   1    5.53    2.37
  -4  -4  -1   17.51    4.12
  -4  -4  -1   12.38    3.56
  -4  -4  -1   11.26    3.25
  -4  -4  -1    6.02    2.51
  -4  -4  -1    5.61    2.31
  -4  -4  -1   14.12    3.74
   4  -4   1    6.68    2.86
   4  -4   2  137.91   10.56
   4  -4   2  131.62    9.95
   4  -4   2  131.93   11.49
   4  -4   2  129.63   10.68
  -4  -4  -2  153.50   11.99
  -4  -4  -2  133.43   11.04
  -4  -4  -2  128.42   10.14
  -4  -4  -2  126.31   10.93
  -4  -4  -2  138.29   11.05
  -4  -4  -2  135.56   11.06
  -4  -4  -2  125.98   10.48
   4  -4   3  256.73   14.60
   4  -4   3  284.06   15.89
   4  -4   3  262.69   14.40
   4  -4   3  269.37   14.15
   4  -4   3  281.65   17.10
   4  -4   3  248.92   15.36
  -4  -4  -3  299.60   17.36
  -4  -4  -3  251.98   15.74
  -4  -4  -3  253.92   14.19
  -4  -4  -3  267.03   16.14
  -4  -4  -3  251.91   16.05
  -4  -4  -3  233.93   15.61
   4  -4   3  283.43   17.37
   4  -4   4  163.49   11.28
   4  -4   4  145.90   11.13
   4  -4   4  153.70   10.21
   4  -4   4  175.21   13.00
  -4  -4  -4  158.10   12.28
  -4  -4  -4  171.09   12.62
  -4  -4  -4  145.52   11.57
  -4  -4  -4  144.13   10.87
  -4  -4  -4  151.78   12.66
  -4  -4  -4  160.78   11.47
   4  -4   4  171.03   13.41
   4  -4   5   94.69    8.55
   4  -4   5  112.06    9.55
   4  -4   5  113.60   10.41
  -4  -4  -5  118.97   10.39
  -4  -4  -5  111.58   10.02
  -4  -4  -5  102.96    9.39
  -4  -4  -5   99.90    9.95
  -4  -4  -5  101.95    8.60
  -4  -4  -5   97.64    8.53
   4  -4   5   95.48   10.04
  -4  -4  -6    2.93    2.09
   4  -4   6    4.19    2.07
   4  -4   6    0.62    1.86
   4  -4   6    5.68    2.59
  -4  -4  -6    8.43    2.91
  -4  -4  -6    3.70    1.91
  -4  -4  -6    2.02    2.31
  -4  -4  -6    2.48    1.77
  -4  -4  -6    2.09    1.72
   4  -4   6    2.76    2.23
   4  -4   7  138.98   10.14
   4  -4   7  147.67   10.87
  -4  -4  -7  131.87    9.87
  -4  -4  -7  109.50   10.51
  -4  -4  -7  117.67    8.03
  -4  -4  -7  128.37    9.46
   4  -4   7  132.86   11.61
   4  -4   8   64.80    6.39
   4  -4   8   61.77    6.76
  -4  -4  -8   37.58    5.22
  -4  -4  -8   52.20    6.87
  -4  -4  -8   54.76    5.57
   4  -4   8   61.46    7.61
  -4  -4  -9  516.59   20.48
  -4  -4  -9  462.50   21.96
  -4  -4  -9  453.79   17.10
   4  -4   9  539.41   23.07
  -4  -4 -10   17.67    3.13
   4  -4  10   19.88    3.68
  -4  -4 -11   30.64    3.42
  -4  -4 -11   30.31    3.53
   4  -4  11   20.11    3.23
  -4  -4 -12   78.02    4.53
  -4  -4 -12   86.21    4.99
  -4  -3  12   21.34    3.31
   4  -3 -11   -0.43    1.40
  -4  -3  11    0.43    1.29
  -4  -3  11    0.42    1.28
   4  -3 -10    1.55    1.66
   4  -3 -10    2.99    1.45
   4  -3 -10    2.79    1.27
  -4  -3  10    1.58    1.70
  -4  -3  10    1.83    1.48
  -4  -3  10    2.56    2.02
   4  -3  -9  158.70   11.78
   4  -3  -9  160.56   10.08
   4  -3  -9  118.41    8.84
  -4  -3   9  138.89    9.55
  -4  -3   9  147.11   11.73
  -4  -3   9  163.72   11.15
  -4  -3   9  153.44   10.88
  -4  -3   9  137.05   11.10
   4  -3  -8   75.63    8.28
   4  -3  -8   66.49    6.91
   4  -3  -8   68.57    6.93
  -4  -3   8   71.08    8.31
  -4  -3   8   72.48    7.51
  -4  -3   8   77.65    7.91
  -4  -3   8   73.47    8.02
   4  -3  -8   62.96    6.91
  -4  -3   8   77.63    7.72
  -4  -3   8   63.37    8.31
   4  -3  -7   18.99    4.23
  -4  -3   7   23.25    5.03
   4  -3  -7   11.72    3.68
   4  -3  -7   21.66    4.25
  -4  -3   7   13.50    3.76
  -4  -3   7   18.61    4.63
  -4  -3   7   15.51    3.70
  -4  -3   7   16.59    3.31
  -4  -3   7   15.07    3.82
  -4  -3   7   15.42    3.59
   4  -3  -6  172.66   12.95
   4  -3  -6  160.86   11.79
   4  -3  -6  176.17   12.48
   4  -3  -6  176.98   12.84
  -4  -3   6  191.78   14.03
  -4  -3   6  149.68   11.52
  -4  -3   6  159.21   11.68
  -4  -3   6  159.42   10.86
  -4  -3   6  171.48   12.08
  -4  -3   6  152.53   11.63
  -4  -3   6  183.31   13.09
  -4  -3   6  188.73   14.01
   4  -3  -5  411.19   19.83
   4  -3  -5  358.37   18.80
   4  -3  -5  334.01   18.79
  -4  -3   5  389.05   20.63
  -4  -3   5  354.35   18.76
  -4  -3   5  334.92   17.30
  -4  -3   5  369.61   19.16
  -4  -3   5  351.47   19.55
   4  -3  -4   24.44    4.77
  -4  -3   4   21.59    4.59
   4  -3  -4   26.62    4.63
   4  -3  -4   22.36    4.37
   4  -3  -4   16.78    3.92
   4  -3  -4   28.80    4.95
   4  -3  -4   22.14    4.56
  -4  -3   4   25.55    4.66
  -4  -3   4   22.48    4.68
  -4  -3   4   21.62    4.24
  -4  -3   4   23.52    4.66
   4  -3  -3  214.23   14.39
   4  -3  -3  200.25   11.14
   4  -3  -3  216.28   11.56
   4  -3  -3  235.88   14.63
   4  -3  -3  218.75   14.26
   4  -3  -3  227.72   14.70
  -4  -3   3  254.08   16.12
  -4  -3   3  217.64   14.14
  -4  -3   3  224.32   13.59
   4  -3  -3  202.46   13.55
  -4  -3   3  213.66   13.85
  -4  -3   3  211.62   14.34
  -4  -3   3  223.98   14.23
   4  -3  -2 1610.69   51.84
   4  -3  -2 1524.71   46.83
   4  -3  -2 1510.36   47.10
   4  -3  -2 1543.24   50.44
   4  -3  -2 1612.90   50.99
   4  -3  -2 1541.53   51.06
  -4  -3   2 1704.39   53.49
  -4  -3   2 1697.68   52.43
  -4  -3   2 1473.89   49.29
  -4  -3   2 1573.56   50.18
   4  -3  -2 1570.09   50.33
  -4  -3   2 1568.27   50.81
  -4  -3   2 1614.83   52.02
  -4  -3   2 1476.10   49.22
   4  -3  -1  191.88   13.07
   4  -3  -1  153.87   10.23
   4  -3  -1  183.18   11.42
   4  -3  -1  172.29   11.99
   4  -3  -1  191.04   12.71
   4  -3  -1  170.75   12.46
  -4  -3   1  189.14   13.39
  -4  -3   1  185.72   12.93
  -4  -3   1  157.32   11.01
  -4  -3   1  170.82   12.08
   4  -3  -1  160.76   11.56
  -4  -3   1  155.02    9.91
  -4  -3   1  149.80    9.85
  -4  -3   1  178.28   12.69
  -4  -3   1  151.97   10.56
   4  -3  -1  170.34   11.38
   4  -3   0  189.60   11.75
   4  -3   0  203.59   13.03
   4  -3   0  220.34   13.61
   4  -3   0  227.59   14.34
   4  -3   0  209.21   13.51
  -4  -3   0  198.69   13.97
  -4  -3   0  200.76   13.56
  -4  -3   0  192.78   11.74
   4  -3   0  192.70   12.70
  -4  -3   0  194.98   13.23
  -4  -3   0  185.12   11.66
  -4  -3   0  198.92   12.03
  -4  -3   0  225.78   14.09
  -4  -3   0  195.12   11.37
   4  -3   0  203.90   13.05
   4  -3   1  182.32   11.90
   4  -3   1  174.06   11.88
   4  -3   1  160.18   11.21
   4  -3   1  191.01   13.17
   4  -3   1  178.49   12.47
  -4  -3  -1  175.12   12.68
  -4  -3  -1  177.16   12.51
   4  -3   1  170.10   11.82
  -4  -3  -1  161.60   12.11
  -4  -3  -1  158.38   11.13
  -4  -3  -1  151.27   10.94
  -4  -3  -1  149.86   11.40
   4  -3   1  170.17   12.27
   4  -3   2  441.63   20.10
   4  -3   2  487.06   21.51
   4  -3   2  433.95   20.24
   4  -3   2  467.26   20.35
   4  -3   2  477.62   22.48
   4  -3   2  472.98   22.23
  -4  -3  -2  488.55   22.59
  -4  -3  -2  449.58   21.80
  -4  -3  -2  443.03   21.76
  -4  -3  -2  409.09   20.45
  -4  -3  -2  422.62   20.73
   4  -3   2  450.84   22.19
   4  -3   3   73.63    7.39
   4  -3   3   91.05    8.57
   4  -3   3   74.16    6.86
   4  -3   3   77.55    8.17
  -4  -3  -3   82.24    8.44
  -4  -3  -3   67.02    7.75
  -4  -3  -3   56.22    6.11
  -4  -3  -3   59.04    7.19
  -4  -3  -3   79.76    8.28
  -4  -3  -3   59.92    6.96
   4  -3   4   46.34    5.93
   4  -3   4   46.61    6.32
   4  -3   4   44.86    5.60
   4  -3   4   53.16    6.99
  -4  -3  -4   52.44    6.77
  -4  -3  -4   47.37    6.54
  -4  -3  -4   53.19    6.96
  -4  -3  -4   36.41    5.25
  -4  -3  -4   30.31    4.80
   4  -3   4   38.69    6.47
   4  -3   5  255.04   14.55
   4  -3   5  251.35   14.99
   4  -3   5  219.90   12.81
   4  -3   5  274.45   16.38
   4  -3   5  246.10   15.85
  -4  -3  -5  227.95   15.12
  -4  -3  -5  231.70   15.53
  -4  -3  -5  221.09   12.86
  -4  -3  -5  208.22   12.57
   4  -3   5  281.00   17.43
   4  -3   6  295.82   16.03
   4  -3   6  288.84   16.26
   4  -3   6  296.04   16.91
   4  -3   6  303.62   17.75
  -4  -3  -6  282.75   16.18
  -4  -3  -6  275.08   16.14
   4  -3   6  246.51   16.35
  -4  -3  -6  310.99   17.46
  -4  -3  -6  260.39   17.08
  -4  -3  -6  258.90   17.10
   4  -3   6  296.48   18.33
   4  -3   7   73.50    7.40
   4  -3   7   71.11    7.43
   4  -3   7   81.97    8.67
   4  -3   7   72.83    7.90
  -4  -3  -7   63.90    7.17
  -4  -3  -7   63.08    7.22
   4  -3   7   75.56    8.35
  -4  -3  -7   77.16    8.18
  -4  -3  -7   76.46    8.76
  -4  -3  -7   61.69    8.16
  -4  -3  -7   54.38    6.14
   4  -3   7   80.29    9.21
   4  -3   8  168.70   11.14
   4  -3   8  166.96   12.61
  -4  -3  -8  160.40   12.81
  -4  -3  -8  154.05    9.69
   4  -3   8  192.24   14.02
   4  -3   9   23.02    3.73
   4  -3   9   24.14    4.61
  -4  -3  -9   30.96    4.42
  -4  -3  -9   27.30    5.14
   4  -3   9   29.65    5.36
  -4  -3 -10  293.11   14.27
  -4  -3 -10  271.43   16.05
   4  -3  10  296.06   16.26
  -4  -3 -11  128.32    8.04
  -4  -3 -11  132.47    8.52
   4  -3  11  131.64    9.49
  -4  -3 -12   64.09    4.97
   4  -3  12   66.35    5.60
  -4  -3 -13   30.70    2.52
  -4  -3 -13   26.08    2.28
  -4  -2  13   43.64    4.32
   4  -2 -12   43.90    5.22
  -4  -2  12   29.96    4.37
   4  -2 -11   22.53    4.27
  -4  -2  11   20.67    3.99
  -4  -2  11   25.01    4.12
  -4  -2  11   21.43    4.21
   4  -2 -10   12.18    3.63
   4  -2 -10    8.23    2.15
  -4  -2  10   11.97    3.00
  -4  -2  10   13.86    3.11
  -4  -2  10    9.15    3.14
  -4  -2  10   11.33    3.06
  -4  -2  10    9.71    3.13
   4  -2  -9  121.56   10.74
   4  -2  -9  113.78    8.18
   4  -2  -9  111.55    8.56
  -4  -2   9  123.00    9.73
  -4  -2   9  104.43   10.11
  -4  -2   9  121.77   10.16
  -4  -2   9  107.34   10.11
   4  -2  -9  118.43    9.83
   4  -2  -9  139.92   10.72
  -4  -2   9  130.53   10.06
   4  -2  -8   15.42    3.68
  -4  -2   8   19.07    4.57
   4  -2  -8   14.54    4.01
   4  -2  -8   18.36    3.45
   4  -2  -8   17.78    3.69
   4  -2  -8   16.66    3.98
  -4  -2   8   11.07    3.26
  -4  -2   8   16.07    3.83
  -4  -2   8   14.14    3.86
   4  -2  -8   14.78    3.63
  -4  -2   8   18.35    4.01
   4  -2  -7   53.45    6.75
   4  -2  -7   65.81    8.01
   4  -2  -7   69.73    7.10
  -4  -2   7   58.11    6.83
  -4  -2   7   62.38    7.15
  -4  -2   7   53.42    5.48
  -4  -2   7   60.70    7.32
   4  -2  -7   72.34    7.74
   4  -2  -7   53.87    6.96
  -4  -2   7   72.26    7.72
  -4  -2   7   68.06    8.44
   4  -2  -6   31.21    5.23
  -4  -2   6   25.76    5.22
   4  -2  -6   26.77    5.12
   4  -2  -6   29.12    4.89
   4  -2  -6   18.48    4.06
   4  -2  -6   34.78    5.60
   4  -2  -6   22.99    4.06
  -4  -2   6   28.91    4.86
  -4  -2   6   33.79    5.30
  -4  -2   6   19.97    3.53
  -4  -2   6   26.54    4.58
   4  -2  -6   19.99    4.15
  -4  -2   6   30.42    5.12
   4  -2  -5   10.82    3.19
  -4  -2   5   11.53    3.51
   4  -2  -5    6.67    2.78
   4  -2  -5    7.15    2.75
   4  -2  -5   11.35    3.28
   4  -2  -5    8.62    3.01
  -4  -2   5   15.18    3.61
  -4  -2   5   13.47    2.90
   4  -2  -5   13.30    3.33
  -4  -2   5   11.52    3.36
   4  -2  -4  244.01   15.11
   4  -2  -4  251.52   15.31
   4  -2  -4  246.65   12.85
   4  -2  -4  274.15   15.37
   4  -2  -4  261.92   15.43
   4  -2  -4  254.20   15.37
  -4  -2   4  289.60   15.81
  -4  -2   4  272.99   14.47
   4  -2  -4  275.23   15.17
   4  -2  -4  287.67   16.35
  -4  -2   4  285.44   16.04
   4  -2  -4  236.06   11.94
   4  -2  -3  571.90   22.32
   4  -2  -3  564.48   21.65
   4  -2  -3  575.81   24.34
   4  -2  -3  604.92   25.10
   4  -2  -3  559.69   24.56
   4  -2  -3  630.61   25.80
  -4  -2   3  616.26   25.62
   4  -2  -3  523.95   20.70
  -4  -2   3  581.27   24.81
   4  -2  -2  220.51   13.96
   4  -2  -2  225.55   12.69
   4  -2  -2  238.81   12.79
   4  -2  -2  240.15   14.14
   4  -2  -2  262.74   14.76
   4  -2  -2  228.89   14.22
  -4  -2   2  238.39   13.75
   4  -2  -2  239.81   14.51
   4  -2  -2  223.32   11.82
  -4  -2   2  222.89   13.52
   4  -2  -1  391.89   19.76
   4  -2  -1  379.83   17.93
   4  -2  -1  414.94   18.37
   4  -2  -1  388.38   18.93
   4  -2  -1  413.47   19.62
   4  -2  -1  401.48   19.55
   4  -2  -1  413.80   19.96
  -4  -2   1  436.11   20.89
  -4  -2   1  434.28   19.83
   4  -2  -1  399.80   19.69
  -4  -2   1  406.26   20.06
   4  -2  -1  385.97   16.95
  -4  -2   1  399.81   18.07
   4  -2   0  110.06    8.74
   4  -2   0  124.71    9.72
   4  -2   0  117.77    9.36
   4  -2   0  130.85   10.38
  -4  -2   0  129.88   10.49
  -4  -2   0  130.32   10.55
  -4  -2   0  111.41    8.48
   4  -2   0  128.91   10.06
  -4  -2   0  112.21    8.16
  -4  -2   0  111.88    8.07
  -4  -2   0  131.06   10.19
   4  -2   0  118.69    8.41
   4  -2   0  120.59    9.32
  -4  -2   0  119.68    8.37
   4  -2   1   93.02    8.25
   4  -2   1   97.03    8.50
   4  -2   1   96.03    8.39
   4  -2   1   96.46    8.23
   4  -2   1  111.80    9.32
   4  -2   1  102.94    9.12
  -4  -2  -1   96.83    8.89
  -4  -2  -1   89.91    8.73
   4  -2   1   92.86    8.50
  -4  -2  -1   87.52    7.62
  -4  -2  -1   92.12    7.74
  -4  -2  -1   94.09    8.52
   4  -2   1   88.46    7.44
   4  -2   1  101.44    8.86
   4  -2   2  804.52   30.16
   4  -2   2  828.73   31.11
   4  -2   2  812.72   30.45
   4  -2   2  795.82   29.13
   4  -2   2  854.16   31.58
   4  -2   2  821.45   32.16
  -4  -2  -2  849.47   31.71
  -4  -2  -2  866.79   32.27
   4  -2   2  830.12   31.01
  -4  -2  -2  819.74   30.45
  -4  -2  -2  753.27   29.51
   4  -2   2  866.42   32.27
   4  -2   3  295.61   15.52
   4  -2   3  280.08   15.67
   4  -2   3  271.00   14.96
   4  -2   3  269.90   13.68
   4  -2   3  281.17   15.75
   4  -2   3  272.93   16.43
  -4  -2  -3  280.71   16.17
  -4  -2  -3  266.44   15.48
  -4  -2  -3  268.09   15.60
  -4  -2  -3  245.20   13.97
   4  -2   4  154.42   10.99
   4  -2   4  170.97   12.10
   4  -2   4  142.77   10.41
   4  -2   4  159.49   11.52
   4  -2   4  157.45   12.27
  -4  -2  -4  172.76   11.78
  -4  -2  -4  160.38   11.99
  -4  -2  -4  166.29   12.21
  -4  -2  -4  137.63    9.87
   4  -2   4  159.80   12.66
   4  -2   5   31.45    4.83
   4  -2   5   34.60    5.43
   4  -2   5   28.56    4.93
   4  -2   5   29.60    5.35
  -4  -2  -5   27.72    4.68
  -4  -2  -5   28.80    5.19
   4  -2   5   26.00    4.79
  -4  -2  -5   26.93    3.98
   4  -2   5   31.71    5.82
   4  -2   6  203.45   13.02
   4  -2   6  234.32   14.12
   4  -2   6  202.18   14.77
   4  -2   6  213.61   15.11
   4  -2   6  203.51   13.14
  -4  -2  -6  215.57   14.29
  -4  -2  -6  226.60   13.68
   4  -2   6  184.73   13.13
  -4  -2  -6  196.19   13.56
  -4  -2  -6  196.50   14.38
   4  -2   6  212.51   15.54
   4  -2   7   72.01    7.27
   4  -2   7   77.10    7.72
   4  -2   7   71.29    8.57
   4  -2   7   68.24    8.30
  -4  -2  -7   67.37    7.10
  -4  -2  -7   74.20    8.00
  -4  -2  -7   59.28    6.41
  -4  -2  -7   71.62    8.65
  -4  -2  -7   81.61    9.22
  -4  -2  -7   62.24    6.01
   4  -2   7   70.67    8.71
   4  -2   8  177.58   11.45
   4  -2   8  155.69   13.12
   4  -2   8  179.02   13.52
  -4  -2  -8  164.88   11.95
  -4  -2  -8  167.64   12.12
  -4  -2  -8  153.51   10.78
  -4  -2  -8  152.73   12.81
  -4  -2  -8  167.79   13.46
   4  -2   8  159.18   13.15
   4  -2   9   95.24    7.84
   4  -2   9   96.11    9.89
   4  -2   9   97.31    9.67
  -4  -2  -9   85.16    7.79
  -4  -2  -9   85.56    9.30
   4  -2   9  106.33   10.38
   4  -2  10   67.02    5.81
   4  -2  10   65.95    7.86
   4  -2  10   75.57    7.96
  -4  -2 -10   69.91    6.81
  -4  -2 -10   59.85    7.38
   4  -2  10   81.60    8.61
  -4  -2 -11   40.75    4.49
   4  -2  11   40.78    5.63
  -4  -2 -11   40.40    4.80
   4  -2  11   37.45    5.30
  -4  -2 -12   21.92    2.72
  -4  -2 -12   26.34    3.41
  -4  -2 -12   29.82    3.72
   4  -2  12   29.40    4.24
  -4  -2 -13   17.86    2.44
   4  -2  13   13.83    2.22
  -4  -1  13    8.14    2.21
   4  -1 -13   11.68    2.37
   4  -1 -12   15.61    3.10
  -4  -1  12   18.91    3.61
   4  -1 -12   18.84    3.46
   4  -1 -11   85.62    8.23
  -4  -1  11   78.98    7.86
  -4  -1  11   73.52    7.32
  -4  -1  11   61.58    7.26
   4  -1 -11   89.80    8.17
   4  -1 -11   86.95    7.94
   4  -1 -10  118.74   10.49
  -4  -1  10  123.31    9.82
  -4  -1  10  122.93    8.93
  -4  -1  10  140.86   10.72
  -4  -1  10  131.53   11.02
   4  -1 -10  147.44   11.38
   4  -1 -10  126.23   10.44
   4  -1  -9  230.33   15.28
   4  -1  -9  175.18   11.31
  -4  -1   9  207.32   13.50
  -4  -1   9  212.11   12.69
  -4  -1   9  198.03   13.35
  -4  -1   9  206.80   14.28
   4  -1  -9  218.01   14.56
   4  -1  -9  208.91   14.21
  -4  -1   9  227.37   14.38
  -4  -1   9  185.53   14.73
  -4  -1   8  220.35   15.45
   4  -1  -8  219.77   15.06
   4  -1  -8  217.20   11.77
   4  -1  -8  190.44   12.26
   4  -1  -8  200.95   13.78
  -4  -1   8  215.33   13.02
  -4  -1   8  200.68   13.56
  -4  -1   8  175.33   13.28
   4  -1  -8  205.30   14.32
  -4  -1   8  241.64   14.80
   4  -1  -8  229.08   15.18
   4  -1  -7   33.88    5.09
   4  -1  -7   42.06    6.58
  -4  -1   7   38.21    6.32
   4  -1  -7   42.13    5.17
   4  -1  -7   44.62    6.15
  -4  -1   7   51.59    6.10
  -4  -1   7   37.36    5.65
  -4  -1   7   39.73    5.89
   4  -1  -7   40.53    6.08
  -4  -1   7   49.95    6.51
   4  -1  -7   53.81    7.20
   4  -1  -6  165.77   11.22
   4  -1  -6  159.27   12.62
  -4  -1   6  157.98   12.64
   4  -1  -6  138.99    9.34
   4  -1  -6  161.75   10.86
   4  -1  -6  169.18   11.88
   4  -1  -6  157.95   11.75
  -4  -1   6  158.48   11.75
   4  -1  -6  154.87   10.58
  -4  -1   6  139.85    8.80
   4  -1  -6  168.66   12.50
   4  -1  -6  184.16   13.24
  -4  -1   6  185.64   12.65
   4  -1  -6  172.21   10.58
   4  -1  -5  151.44   11.93
   4  -1  -5  148.33   10.49
  -4  -1   5  138.13   11.45
   4  -1  -5  135.19    9.38
   4  -1  -5  144.12   10.29
   4  -1  -5  150.09   11.12
   4  -1  -5  143.66   11.03
   4  -1  -5  130.98   10.35
  -4  -1   5  160.91   10.98
   4  -1  -5  146.26   10.18
  -4  -1   5  139.32    9.06
   4  -1  -5  140.18   11.13
   4  -1  -5  140.73   11.44
  -4  -1   5  160.57   11.53
   4  -1  -5  139.61    9.62
   4  -1  -4  129.29    9.53
  -4  -1   4  109.13    9.75
   4  -1  -4  117.37    8.70
   4  -1  -4  116.33    9.21
   4  -1  -4   97.11    8.97
   4  -1  -4  105.47    9.08
  -4  -1   4  118.33    9.35
   4  -1  -4   96.95    8.18
  -4  -1   4  111.09    8.30
   4  -1  -4  127.06   10.55
  -4  -1   4  118.02    9.82
   4  -1  -4  105.53    8.26
   4  -1  -3  289.74   15.16
   4  -1  -3  299.09   14.99
   4  -1  -3  282.44   13.81
   4  -1  -3  304.23   16.32
   4  -1  -3  290.16   14.84
  -4  -1   3  276.10   14.34
   4  -1  -3  292.64   16.36
  -4  -1   3  300.11   16.34
   4  -1  -3  251.21   13.80
  -4  -1   2  168.95   11.33
   4  -1  -2  177.00   10.65
   4  -1  -2  162.59   11.02
   4  -1  -2  152.43   10.92
   4  -1  -2  184.96   11.63
   4  -1  -2  149.40   10.41
  -4  -1   2  160.41   10.60
   4  -1  -2  173.87   11.92
   4  -1  -2  151.14   10.11
  -4  -1   1  175.10   10.94
   4  -1  -1  174.71   11.18
   4  -1  -1  174.28   11.00
   4  -1  -1  165.33   11.10
   4  -1  -1  166.15   11.26
   4  -1  -1  177.09   11.27
   4  -1  -1  151.15   10.97
   4  -1  -1  173.12   11.70
   4  -1  -1  136.82    9.74
  -4  -1   0   25.66    3.84
   4  -1   0   28.85    4.47
   4  -1   0   24.15    4.22
   4  -1   0   26.16    4.52
   4  -1   0   36.01    4.91
   4  -1   0   27.93    4.61
  -4  -1   0   39.70    5.42
  -4  -1   0   22.64    3.31
  -4  -1   0   19.16    3.06
   4  -1   1    9.78    2.76
  -4  -1  -1    6.16    1.80
   4  -1   1    7.24    2.47
   4  -1   1    5.10    2.19
   4  -1   1    5.43    2.52
   4  -1   1    7.75    2.46
   4  -1   1    2.22    1.61
   4  -1   1    6.96    2.59
  -4  -1  -1    4.81    2.20
  -4  -1  -1    8.86    2.33
  -4  -1  -1    6.83    2.08
   4  -1   1    5.32    2.03
   4  -1   1    6.05    2.26
   4  -1   2   95.97    8.38
   4  -1   2  121.04    9.45
   4  -1   2   96.06    8.31
   4  -1   2  103.65    8.04
   4  -1   2  100.81    8.19
   4  -1   2   97.88    8.99
  -4  -1  -2  113.52    8.98
  -4  -1  -2   99.45    8.81
   4  -1   2  106.43    8.76
  -4  -1  -2   93.69    8.03
  -4  -1  -2  104.70    8.34
  -4  -1  -2   94.37    8.08
   4  -1   2  102.10    8.36
   4  -1   2  125.60    9.80
   4  -1   3    8.56    3.07
   4  -1   3   14.07    3.33
   4  -1   3   16.09    3.56
   4  -1   3   10.69    2.90
   4  -1   3   13.01    3.10
   4  -1   3   12.45    3.20
   4  -1   3   13.24    2.80
   4  -1   3   12.79    2.99
   4  -1   3   13.16    3.49
   4  -1   3   17.07    3.98
  -4  -1  -3   15.51    3.45
  -4  -1  -3   14.31    3.54
  -4  -1  -3   13.00    3.24
  -4  -1  -3   13.40    3.17
  -4  -1  -3   11.01    2.73
   4  -1   3   12.96    3.11
   4  -1   4   28.22    4.57
   4  -1   4   34.08    5.20
   4  -1   4   34.23    5.38
   4  -1   4   25.52    4.33
   4  -1   4   40.25    5.99
   4  -1   4   28.99    4.31
  -4  -1  -4   36.52    4.97
  -4  -1  -4   33.30    5.10
  -4  -1  -4   29.85    4.04
  -4  -1  -4   32.70    5.19
  -4  -1  -4   24.30    4.51
  -4  -1  -4   28.87    4.07
   4  -1   5   38.81    6.15
   4  -1   5   36.62    5.14
   4  -1   5   32.98    5.14
   4  -1   5   37.22    5.84
   4  -1   5   28.53    4.54
   4  -1   5   24.69    3.99
   4  -1   5   21.10    4.78
   4  -1   5   30.57    5.60
  -4  -1  -5   36.53    4.91
  -4  -1  -5   26.59    4.73
  -4  -1  -5   34.40    4.57
   4  -1   6   26.20    5.25
   4  -1   6   17.08    3.60
   4  -1   6   19.95    4.01
   4  -1   6   18.57    4.50
  -4  -1  -6   20.66    4.40
   4  -1   6   14.82    4.01
   4  -1   6   17.05    4.21
  -4  -1  -6   23.09    3.88
  -4  -1  -6   18.50    3.56
  -4  -1  -6   12.27    2.84
  -4  -1  -6   18.13    4.20
   4  -1   7  105.89    8.91
   4  -1   7  103.08    9.12
   4  -1   7  118.24   11.03
   4  -1   7   98.84   10.25
  -4  -1  -7  119.59   10.35
  -4  -1  -7   99.87    9.11
  -4  -1  -7   97.75    8.94
  -4  -1  -7   94.08    8.60
  -4  -1  -7  103.61    8.55
  -4  -1  -7  122.01   10.95
  -4  -1  -7  103.73   10.34
   4  -1   7  117.55   11.17
   4  -1   8  658.24   26.02
   4  -1   8  629.54   28.95
   4  -1   8  693.92   29.94
   4  -1   8  629.71   28.82
  -4  -1  -8  668.27   27.90
  -4  -1  -8  678.83   26.90
  -4  -1  -8  614.09   25.86
  -4  -1  -8  597.51   25.15
  -4  -1  -8  654.68   29.12
  -4  -1  -8  615.53   28.75
   4  -1   8  674.17   30.26
   4  -1   9  965.53   32.39
   4  -1   9  926.14   32.42
   4  -1   9  916.78   36.92
   4  -1   9 1045.61   38.19
  -4  -1  -9  913.50   34.05
  -4  -1  -9  892.52   33.21
  -4  -1  -9  931.59   36.88
   4  -1   9 1044.88   38.57
  -4  -1 -10   76.46    6.64
   4  -1  10   76.57    6.35
   4  -1  10   75.89    8.61
   4  -1  10   76.26    8.46
  -4  -1 -10   77.90    7.68
  -4  -1 -10   76.65    7.37
  -4  -1 -10   88.44    9.01
   4  -1  10   95.40    9.50
  -4  -1 -11    3.36    1.43
   4  -1  11    4.33    2.23
   4  -1  11    2.15    1.74
  -4  -1 -11    2.87    1.59
  -4  -1 -11    2.72    1.87
   4  -1  11    3.23    1.94
   4  -1  12   12.04    3.08
  -4  -1 -12   14.44    2.51
   4  -1  12   14.20    3.32
  -4  -1 -13    7.69    1.46
   4  -1  13    8.76    2.11
   4   0 -14  177.05    8.13
   4   0 -14  175.09    7.59
   4   0 -13   57.95    5.36
   4   0 -13   49.85    4.86
   4   0 -12    1.29    1.48
   4   0 -12    0.44    1.23
  -4   0  12    0.45    1.55
   4   0 -12    0.91    1.55
   4   0 -11   -0.53    1.71
  -4   0  11    0.48    1.23
   4   0 -11    2.15    2.45
  -4   0  11    0.43    1.09
  -4   0  11   -0.47    1.20
  -4   0  11    1.09    1.39
   4   0 -11    0.55    1.99
   4   0 -10   62.89    7.48
  -4   0  10   66.40    7.02
  -4   0  10   72.31    7.63
   4   0 -10   63.01    7.61
  -4   0  10   75.40    7.60
   4   0 -10   69.86    8.08
   4   0 -10   58.10    7.28
   4   0  -9  111.87   10.41
  -4   0   9  109.38   10.73
  -4   0   9  106.57    9.11
  -4   0   9  119.61   10.12
   4   0  -9  107.37   10.24
  -4   0   9  110.97    9.34
  -4   0   9  108.32    8.19
  -4   0   9  125.20   10.08
   4   0  -9  111.70   10.56
  -4   0   9  124.83   10.33
   4   0  -9  129.20   11.22
   4   0  -8    3.31    2.00
  -4   0   8    2.10    2.12
   4   0  -8    2.84    1.87
   4   0  -8    2.69    2.17
  -4   0   8    2.01    1.62
   4   0  -8    4.59    2.36
  -4   0   8    4.27    1.95
  -4   0   8    3.92    1.92
   4   0  -8    2.72    2.19
   4   0  -8    2.64    2.09
  -4   0   8    5.76    2.37
   4   0  -7   -0.83    0.95
   4   0  -7   -0.66    1.99
  -4   0   7   -0.69    1.92
   4   0  -7    0.66    1.69
  -4   0   7    0.48    1.21
   4   0  -7    1.92    2.07
  -4   0   7   -0.44    0.87
  -4   0   7   -0.55    1.67
   4   0  -7    0.67    2.29
   4   0  -7   -0.54    1.51
  -4   0   7    1.70    1.71
   4   0  -7    1.54    1.44
   4   0  -6   34.18    4.83
   4   0  -6   28.09    5.34
  -4   0   6   20.47    4.63
   4   0  -6   27.94    4.05
   4   0  -6   36.57    5.27
   4   0  -6   28.18    5.31
   4   0  -6   20.22    4.36
  -4   0   6   31.85    4.63
   4   0  -6   32.75    5.20
  -4   0   6   38.17    4.87
  -4   0   6   23.26    4.50
   4   0  -6   32.18    5.49
  -4   0   6   24.23    4.58
   4   0  -6   30.88    4.96
  -4   0   5   70.81    8.03
   4   0  -5   66.31    6.79
   4   0  -5   57.38    5.97
   4   0  -5   62.83    6.96
  -4   0   5   60.91    6.33
   4   0  -5   57.72    6.75
  -4   0   5   59.22    5.94
   4   0  -5   65.54    7.60
  -4   0   5   70.17    7.40
   4   0  -5   65.28    7.76
   4   0  -5   57.48    6.52
   4   0  -4    9.94    2.81
  -4   0   4   12.75    3.51
   4   0  -4   12.07    2.57
   4   0  -4   14.07    3.12
   4   0  -4    9.64    3.13
   4   0  -4    8.67    2.96
  -4   0   4    7.14    2.01
   4   0  -4    9.56    2.48
  -4   0   4    9.54    2.70
  -4   0   4   10.72    2.34
   4   0  -4    8.13    2.90
   4   0  -4    9.16    3.08
  -4   0   4   11.02    3.12
   4   0  -4   19.62    3.80
   4   0  -3   90.54    7.37
   4   0  -3   78.81    7.20
   4   0  -3   87.45    8.02
   4   0  -3   99.74    8.05
   4   0  -3   77.19    6.96
  -4   0   3   84.64    6.87
   4   0  -3   79.91    8.03
  -4   0   3   76.78    6.20
   4   0  -3   90.98    8.58
  -4   0   3   93.23    8.43
  -4   0   2  375.98   17.97
   4   0  -2  358.55   17.46
   4   0  -2  367.42   16.80
   4   0  -2  310.45   16.61
   4   0  -2  361.03   16.53
   4   0  -2  338.67   16.34
   4   0  -2  339.71   17.80
   4   0  -2  375.38   18.47
  -4   0   2  351.89   14.36
   4   0  -2  365.61   17.31
  -4   0   1   38.63    5.08
   4   0  -1   44.70    5.61
   4   0  -1   51.69    5.86
   4   0  -1   45.11    5.55
   4   0  -1   42.63    5.39
   4   0  -1   47.02    5.23
   4   0  -1   48.38    5.82
   4   0  -1   46.48    5.45
   4   0  -1   40.74    5.38
   4   0  -1   61.85    6.60
   4   0  -1   51.39    5.89
   4   0   0    5.18    2.09
  -4   0   0    8.28    2.34
   4   0   0    9.41    2.63
   4   0   0   10.95    2.83
   4   0   0    8.65    2.69
   4   0   0    5.33    2.07
  -4   0   0    5.48    2.02
   4   0   0    6.62    2.17
  -4   0   0    6.48    1.67
   4   0   0    8.43    2.68
  -4   0  -1  175.14    9.89
   4   0   1  186.31   11.85
   4   0   1  167.74   11.35
   4   0   1  159.55   10.79
   4   0   1  169.00   10.70
   4   0   1  175.30   11.68
  -4   0  -1  167.17   10.67
   4   0   1  178.75   11.29
   4   0   1  149.54   10.57
  -4   0  -1  169.50    9.91
  -4   0  -1  168.70    9.78
   4   0   1  150.46   10.68
   4   0   2  179.72   11.96
   4   0   2  207.12   12.98
   4   0   2  188.65   11.92
   4   0   2  200.66   11.41
   4   0   2  185.86   12.14
   4   0   2  200.92   13.29
  -4   0  -2  218.88   11.98
  -4   0  -2  206.32   12.71
  -4   0  -2  216.22   10.81
  -4   0  -2  179.11   11.09
   4   0   2  210.18   12.67
   4   0   3  172.91   11.17
   4   0   3  160.08   11.32
   4   0   3  116.33    9.33
   4   0   3  151.95   10.49
   4   0   3  138.88    9.00
   4   0   3  168.49   11.86
   4   0   3  141.07   10.90
  -4   0  -3  139.71    9.38
   4   0   3  152.93   11.00
  -4   0  -3  150.28    9.43
   4   0   3  150.42   10.38
  -4   0  -3  147.60    8.86
  -4   0  -3  164.91   10.98
  -4   0  -3  143.51    9.32
   4   0   3  140.11   10.34
   4   0   4   31.11    4.79
   4   0   4   33.50    5.23
   4   0   4   31.63    5.00
   4   0   4   25.94    4.41
   4   0   4   30.96    5.26
  -4   0  -4   33.81    4.30
  -4   0  -4   22.12    4.10
  -4   0  -4   32.22    4.48
   4   0   4   32.38    5.13
  -4   0  -4   33.05    4.28
  -4   0  -4   29.92    4.81
  -4   0  -4   25.70    3.55
   4   0   4   26.44    4.60
   4   0   5   63.87    7.01
   4   0   5   94.82    8.75
   4   0   5   76.01    8.10
   4   0   5   96.64    9.58
   4   0   5   79.31    8.61
  -4   0  -5   90.43    6.93
  -4   0  -5   90.17    8.12
   4   0   5   82.83    8.41
  -4   0  -5   93.85    8.04
  -4   0  -5   81.96    7.23
  -4   0  -5   87.87    8.77
   4   0   6  305.21   16.72
   4   0   6  300.40   17.71
   4   0   6  323.42   18.60
   4   0   6  314.60   18.43
  -4   0  -6  331.54   18.07
  -4   0  -6  317.96   16.44
  -4   0  -6  310.95   16.45
  -4   0  -6  304.83   15.80
   4   0   7  187.55   11.88
   4   0   7  154.71   12.83
   4   0   7  193.80   14.23
   4   0   7  171.32   13.66
  -4   0  -7  166.59   12.57
  -4   0  -7  183.56   11.90
  -4   0  -7  173.77   12.11
  -4   0  -7  183.69   12.24
  -4   0  -7  191.68   13.96
   4   0   8    1.32    1.42
   4   0   8    0.48    1.11
  -4   0  -8    1.84    1.71
   4   0   8    0.69    2.36
   4   0   8   -0.70    1.79
  -4   0  -8    0.46    1.49
  -4   0  -8    1.12    1.69
  -4   0  -8    0.53    1.21
  -4   0  -8    3.44    2.36
   4   0   9  317.44   14.82
  -4   0  -9  273.79   13.82
   4   0   9  289.35   14.74
   4   0   9  291.34   17.93
   4   0   9  326.28   19.03
   4   0   9  319.37   18.66
  -4   0  -9  335.65   17.86
  -4   0  -9  290.86   16.60
  -4   0  -9  298.17   16.54
  -4   0 -10   26.77    3.55
   4   0  10   22.83    3.51
   4   0  10   31.52    5.59
   4   0  10   27.80    5.15
   4   0  10   24.53    4.80
  -4   0 -10   26.59    4.02
  -4   0 -10   35.33    5.21
  -4   0 -10   24.20    4.42
  -4   0 -10   28.21    5.19
   4   0  11  159.99   11.75
   4   0  11  176.96   12.24
  -4   0 -11  162.41    9.19
  -4   0 -11  139.28   10.33
  -4   0 -11  141.85   11.28
   4   0  11  168.23   12.04
   4   0  12   89.41    7.83
  -4   0 -12   85.55    5.47
  -4   0 -12   95.59    7.03
   4   0  12   95.48    8.14
   4   0  13    1.51    1.15
  -4   0 -13    1.36    0.86
   4   0  13    0.30    0.83
   4   1 -14   30.27    3.02
   4   1 -14   27.71    2.85
   4   1 -13   13.19    2.66
   4   1 -13   18.57    3.15
   4   1 -12   24.53    4.14
  -4   1  12   13.46    2.83
   4   1 -12   16.64    3.54
   4   1 -12   21.14    3.79
  -4   1  11   70.35    6.09
  -4   1  11   68.52    6.91
  -4   1  11   80.34    7.57
   4   1 -11   92.26    8.60
  -4   1  11   95.76    8.03
  -4   1  11   75.20    6.99
   4   1 -11   90.19    8.52
   4   1 -11   66.46    7.46
  -4   1  10  114.62    8.60
  -4   1  10  123.02    9.86
  -4   1  10  113.59    9.73
   4   1 -10  119.65   10.61
  -4   1  10  124.32    9.71
   4   1 -10  137.76   10.29
   4   1 -10  131.32   11.16
   4   1 -10  128.53   10.82
  -4   1   9  217.87   15.17
  -4   1   9  196.65   12.00
  -4   1   9  190.36   12.74
  -4   1   9  220.83   14.11
   4   1  -9  199.96   14.33
  -4   1   9  200.79   13.53
  -4   1   9  194.54   12.71
   4   1  -9  209.26   14.65
  -4   1   9  215.50   13.49
   4   1  -9  211.57   14.61
   4   1  -9  188.54   12.91
  -4   1   8  224.43   15.52
  -4   1   8  181.15   12.49
  -4   1   8  224.52   14.30
   4   1  -8  220.60   15.30
  -4   1   8  198.72   13.43
   4   1  -8  212.14   15.01
  -4   1   8  207.02   13.41
   4   1  -8  223.94   14.36
   4   1  -8  211.19   14.86
  -4   1   7   48.56    7.06
  -4   1   7   44.15    5.57
   4   1  -7   42.47    6.51
  -4   1   7   40.69    4.65
   4   1  -7   41.84    6.07
  -4   1   7   39.96    5.68
   4   1  -7   36.13    6.30
  -4   1   7   47.79    6.05
   4   1  -7   40.42    6.31
   4   1  -7   48.77    6.51
  -4   1   6  168.06   12.97
   4   1  -6  151.51   12.23
   4   1  -6  158.44   10.28
  -4   1   6  161.40    9.90
   4   1  -6  163.79   12.17
   4   1  -6  147.17   12.10
  -4   1   6  167.32   11.55
   4   1  -6  156.77   12.38
  -4   1   5  157.70   12.39
   4   1  -5  131.70    8.67
   4   1  -5  157.69   11.05
   4   1  -5  134.11    9.69
  -4   1   5  147.55    9.53
   4   1  -5  129.57   10.78
   4   1  -5  140.08   11.62
  -4   1   5  135.00   10.03
   4   1  -5  163.18   12.17
   4   1  -5  135.18   10.84
  -4   1   4  121.56   10.43
   4   1  -4  101.09    7.89
   4   1  -4   93.09    7.46
   4   1  -4  106.07    9.26
   4   1  -4  116.14    8.96
  -4   1   4  104.84    8.13
   4   1  -4  123.88   10.11
   4   1  -4   96.71    9.34
   4   1  -4  100.21    9.28
   4   1  -4  114.06    9.70
  -4   1   4  120.14    9.01
  -4   1   3  290.87   16.57
   4   1  -3  285.53   14.61
   4   1  -3  268.01   13.80
   4   1  -3  269.40   15.15
   4   1  -3  287.56   15.20
   4   1  -3  282.50   15.88
  -4   1   3  304.66   13.33
   4   1  -3  280.40   16.35
   4   1  -3  281.81   15.85
   4   1  -3  302.41   16.28
  -4   1   3  273.70   14.27
   4   1  -2  171.54   11.09
  -4   1   2  165.87   10.36
   4   1  -2  157.98   10.08
   4   1  -2  150.97   10.61
   4   1  -2  162.40   10.95
   4   1  -2  150.06   11.17
   4   1  -2  152.27   11.41
   4   1  -2  166.62   11.53
  -4   1   1  190.93   11.91
   4   1  -1  159.92   11.14
   4   1  -1  173.12   10.66
   4   1  -1  157.38   10.80
   4   1  -1  177.48   10.96
   4   1  -1  143.48    9.85
  -4   1   1  158.21    9.27
   4   1  -1  162.24   11.37
   4   1  -1  176.22   11.53
   4   1  -1  171.13   11.67
   4   1   0   38.31    5.27
  -4   1   0   30.64    4.50
   4   1   0   32.16    4.81
   4   1   0   20.50    3.85
   4   1   0   29.81    4.52
   4   1   0   24.50    4.05
   4   1   0   37.45    5.01
   4   1   0   32.68    4.81
   4   1   0   24.57    4.11
   4   1   0   37.75    5.31
   4   1   0   31.37    4.81
   4   1   1    3.90    2.09
  -4   1  -1    6.72    2.12
   4   1   1    5.60    2.33
   4   1   1    4.72    2.14
   4   1   1    8.38    2.42
   4   1   1    4.98    2.07
   4   1   1    6.27    2.14
  -4   1  -1    7.22    2.10
   4   1   1   11.02    3.00
   4   1   1    9.95    2.84
  -4   1  -1    3.68    1.44
   4   1   1    9.63    2.89
  -4   1  -2  103.96    7.37
   4   1   2   93.22    8.29
   4   1   2   99.78    8.77
   4   1   2   84.40    7.74
   4   1   2   92.01    8.22
  -4   1  -2  102.67    7.15
  -4   1  -2  113.01    8.71
   4   1   2   88.55    8.20
   4   1   2   88.60    8.29
   4   1   2   89.95    7.65
  -4   1  -2  105.16    8.06
   4   1   2   98.35    8.75
   4   1   3   11.61    3.18
   4   1   3   16.02    3.76
   4   1   3   11.60    2.81
   4   1   3   11.37    2.99
   4   1   3   14.32    3.49
  -4   1  -3   11.60    2.84
   4   1   3   13.44    3.48
   4   1   3    7.84    2.61
  -4   1  -3    8.06    2.66
   4   1   3   10.43    2.93
   4   1   4   32.67    4.87
   4   1   4   31.49    5.05
  -4   1  -4   33.71    4.69
   4   1   4   29.91    5.00
   4   1   4   33.58    4.97
  -4   1  -4   31.14    4.60
  -4   1  -4   27.94    4.77
   4   1   4   32.54    5.11
   4   1   5   31.66    5.19
   4   1   5   31.79    5.01
  -4   1  -5   28.73    4.97
   4   1   5   37.03    6.00
  -4   1  -5   29.56    4.41
   4   1   5   42.29    6.00
  -4   1  -5   29.89    4.80
   4   1   5   32.78    5.07
  -4   1  -5   37.27    5.18
  -4   1  -5   31.38    5.33
   4   1   6   22.20    3.97
   4   1   6   18.31    4.00
   4   1   6   11.10    3.36
  -4   1  -6   19.04    4.15
   4   1   6   21.92    4.81
   4   1   6   23.41    4.81
  -4   1  -6   20.50    3.66
   4   1   6   14.45    3.78
  -4   1  -6   19.25    4.04
  -4   1  -6   18.16    3.81
   4   1   7   98.51    8.13
   4   1   7   94.94    9.57
   4   1   7  102.01    9.91
   4   1   7  116.38   10.92
  -4   1  -7  111.91   10.03
   4   1   7   94.16    9.29
  -4   1  -7   97.40    9.19
  -4   1  -7  102.16    9.22
   4   1   8  579.99   23.27
   4   1   8  609.91   25.05
   4   1   8  649.03   28.28
   4   1   8  678.59   29.08
   4   1   8  669.66   29.31
  -4   1  -8  662.83   27.91
  -4   1  -8  656.95   26.98
  -4   1  -8  686.11   29.42
   4   1   9  917.80   29.98
   4   1   9  936.22   31.68
   4   1   9  958.77   36.48
   4   1   9  965.69   36.89
  -4   1  -9  990.58   35.43
  -4   1  -9  912.16   30.19
  -4   1  -9  906.54   34.32
   4   1  10   68.38    5.63
   4   1  10   75.97    8.39
  -4   1 -10   72.02    5.63
  -4   1 -10   72.76    7.59
   4   1  11    1.51    1.62
   4   1  11    2.04    1.75
  -4   1 -11    2.16    1.63
   4   1  12   17.21    3.50
   4   1  12   18.31    3.52
  -4   1 -12   20.99    3.01
   4   1  13    6.99    1.98
  -4   1 -13   10.35    1.74
   4   1  13    9.04    2.19
   4   2 -14   43.89    3.22
   4   2 -13   61.57    5.07
   4   2 -13   58.24    5.02
  -4   2  12   33.04    3.70
  -4   2  12   27.61    3.82
   4   2 -12   33.79    4.53
   4   2 -12   42.59    5.10
   4   2 -11   20.49    4.02
  -4   2  11   16.43    3.42
  -4   2  11   23.95    3.72
  -4   2  11   25.29    4.26
  -4   2  11   16.74    3.46
   4   2 -11   30.14    4.47
   4   2 -11   24.58    4.42
   4   2 -10    9.21    3.09
  -4   2  10   10.96    3.02
  -4   2  10    9.69    2.85
  -4   2  10   10.89    3.03
   4   2 -10   13.21    3.63
  -4   2  10    7.41    2.71
  -4   2  10   10.97    2.71
   4   2 -10   12.85    3.53
   4   2 -10   12.28    3.29
  -4   2   9  118.55    9.84
  -4   2   9  111.42    9.71
   4   2  -9  123.86   10.91
  -4   2   9  108.84    8.69
  -4   2   9  116.05   10.28
   4   2  -9  123.89   10.55
   4   2  -9  127.80   10.96
   4   2  -9  129.25   11.00
  -4   2   8   18.06    4.36
   4   2  -8   17.46    4.38
  -4   2   8   11.62    3.44
  -4   2   8   17.16    3.74
  -4   2   8   13.09    3.39
   4   2  -8   12.97    4.06
  -4   2   8   20.87    3.83
   4   2  -8   23.99    4.88
   4   2  -8   13.41    3.73
  -4   2   8   20.77    3.91
  -4   2   7   67.66    8.35
  -4   2   7   66.27    7.11
  -4   2   7   69.00    7.77
   4   2  -7   65.78    8.16
  -4   2   7   66.20    6.76
   4   2  -7   69.44    8.26
   4   2  -7   77.06    8.69
  -4   2   7   68.01    7.87
  -4   2   7   64.35    6.72
   4   2  -7   69.23    8.04
   4   2  -7   55.14    7.37
  -4   2   6   22.28    4.88
   4   2  -6   31.57    5.42
  -4   2   6   33.67    5.35
   4   2  -6   25.40    4.34
  -4   2   6   24.70    4.13
   4   2  -6   30.23    5.55
   4   2  -6   30.83    5.47
  -4   2   6   27.63    4.36
   4   2  -6   27.76    5.14
  -4   2   5   16.22    4.23
  -4   2   5   13.05    3.38
   4   2  -5   16.11    3.62
  -4   2   5   12.95    2.99
   4   2  -5   16.52    4.17
   4   2  -5    9.39    3.13
  -4   2   5   13.64    3.08
   4   2  -5   12.56    3.52
  -4   2   4  282.32   15.83
   4   2  -4  267.56   15.38
  -4   2   4  258.70   12.47
   4   2  -4  302.86   17.17
  -4   2   4  276.11   13.49
   4   2  -4  263.96   16.18
  -4   2   4  260.68   14.20
   4   2  -4  263.25   15.67
   4   2  -4  324.61   17.64
   4   2  -3  522.55   20.93
  -4   2   3  641.10   25.63
   4   2  -3  591.88   25.58
  -4   2   3  569.27   21.91
   4   2  -3  610.17   25.84
   4   2  -3  565.79   24.18
  -4   2   3  549.34   22.66
   4   2  -3  603.63   25.92
   4   2  -2  227.61   12.10
  -4   2   2  223.88   12.34
   4   2  -2  241.74   13.07
   4   2  -2  221.31   13.83
   4   2  -2  240.75   14.74
   4   2  -2  228.82   13.50
  -4   2   2  236.61   13.12
   4   2  -2  224.60   14.31
   4   2  -1  406.37   17.54
  -4   2   1  399.64   18.19
   4   2  -1  404.62   18.59
   4   2  -1  370.12   18.92
   4   2  -1  410.88   19.83
   4   2  -1  421.81   18.74
   4   2  -1  391.73   19.84
   4   2   0  112.41    9.47
   4   2   0  112.90    8.26
  -4   2   0  102.73    7.30
   4   2   0  127.24    9.71
   4   2   0  111.45    9.43
   4   2   0  130.06    9.17
   4   2   0  116.54    9.71
   4   2   0  120.76    8.81
   4   2   0  120.41    9.97
   4   2   1   87.39    8.16
   4   2   1   80.26    7.27
   4   2   1  102.34    8.02
   4   2   1   99.94    8.86
   4   2   1   90.31    7.94
   4   2   1   89.40    8.41
   4   2   1   76.14    6.91
  -4   2  -1   98.13    7.19
   4   2   1   84.15    8.20
   4   2   2  830.06   30.28
   4   2   2  732.83   28.92
   4   2   2  792.99   28.87
  -4   2  -2  792.12   28.08
   4   2   2  825.01   30.99
   4   2   2  780.70   30.36
   4   2   2  754.53   29.14
   4   2   2  782.87   27.28
  -4   2  -2  759.09   27.94
   4   2   2  814.12   30.78
   4   2   3  260.70   14.47
   4   2   3  236.32   14.75
  -4   2  -3  276.19   15.17
  -4   2  -3  245.45   12.93
  -4   2  -3  280.51   13.58
   4   2   3  266.05   15.69
  -4   2  -3  287.60   13.44
   4   2   3  243.91   13.01
   4   2   3  261.82   15.29
   4   2   3  250.87   14.84
   4   2   3  241.24   13.84
   4   2   3  285.02   15.74
   4   2   4  139.20   10.28
   4   2   4  149.18   11.41
   4   2   4  145.96   10.86
   4   2   4  143.49   11.59
  -4   2  -4  158.29    9.51
   4   2   4  147.67   11.61
  -4   2  -4  169.08   10.11
   4   2   4  138.04   10.08
   4   2   4  163.31   11.77
   4   2   4  166.50   11.58
   4   2   4  154.42   11.37
   4   2   5   24.36    4.14
   4   2   5   28.49    4.89
   4   2   5   32.30    5.58
   4   2   5   27.01    4.70
  -4   2  -5   25.84    3.93
   4   2   5   33.34    5.57
   4   2   5   25.58    4.50
   4   2   5   27.49    4.87
   4   2   5   22.48    4.38
   4   2   6  183.78   11.44
   4   2   6  211.68   13.82
   4   2   6  198.86   14.30
   4   2   6  196.58   13.73
  -4   2  -6  199.66   11.72
   4   2   6  189.16   13.10
   4   2   6  197.07   13.60
  -4   2  -6  181.13   13.06
  -4   2  -6  220.02   14.83
   4   2   7   66.65    6.30
   4   2   7   74.55    7.61
   4   2   7   87.62    8.77
   4   2   7   73.22    8.60
  -4   2  -7   86.35    8.51
   4   2   7   65.76    7.79
   4   2   7   61.03    7.58
  -4   2  -7   68.73    7.79
   4   2   8  147.52    8.93
  -4   2  -8  160.23   12.36
   4   2   8  146.71   10.32
   4   2   8  150.92   11.83
   4   2   8  163.78   13.08
  -4   2  -8  180.38   12.54
   4   2   8  165.06   12.18
  -4   2  -8  169.40   12.57
  -4   2  -8  159.11   11.98
   4   2   9   82.04    6.94
   4   2   9  103.70    9.35
   4   2   9   88.08    9.19
  -4   2  -9   93.94    9.13
  -4   2  -9   80.43    8.31
  -4   2  -9  102.38    9.23
   4   2  10   70.14    7.33
   4   2  10   65.02    7.45
  -4   2 -10   74.25    7.72
  -4   2 -10   61.54    7.06
   4   2  11   37.77    5.25
  -4   2 -11   37.27    4.00
   4   2  12   19.56    3.37
  -4   2 -12   21.14    2.38
  -4   2 -13   15.85    2.30
   4   2  13   14.69    2.51
   4   3 -13   10.10    1.85
   4   3 -13    6.98    1.51
  -4   3  12   23.68    3.11
   4   3 -12   29.10    3.70
   4   3 -12   22.70    3.39
   4   3 -11    0.42    1.17
  -4   3  11    0.39    1.08
  -4   3  11    0.72    1.15
   4   3 -11    0.40    1.45
   4   3 -11    1.27    1.67
   4   3 -10    0.99    1.39
  -4   3  10    4.18    1.98
  -4   3  10    5.98    2.54
   4   3 -10    0.49    1.69
   4   3 -10    3.62    2.13
  -4   3   9  146.75   10.89
  -4   3   9  156.36   11.74
   4   3  -9  172.72   12.43
  -4   3   9  143.64   11.58
   4   3  -9  162.47   11.93
   4   3  -9  148.74   11.38
  -4   3   8   73.68    8.58
  -4   3   8   70.09    7.55
  -4   3   8   77.22    8.13
   4   3  -8   70.08    8.14
  -4   3   8   66.32    7.88
   4   3  -8   72.74    8.06
  -4   3   7   21.91    4.79
   4   3  -7   17.65    4.32
   4   3  -7   18.18    3.96
   4   3  -7   21.74    4.56
   4   3  -7   22.40    4.72
   4   3  -7   22.54    4.83
  -4   3   6  166.37   13.51
  -4   3   6  185.85   12.27
   4   3  -6  178.01   12.37
  -4   3   6  175.39   10.38
   4   3  -6  177.94   13.46
  -4   3   6  172.60   11.31
   4   3  -6  173.85   12.97
   4   3  -6  164.89   12.16
   4   3  -6  185.19   13.89
  -4   3   5  355.32   17.83
  -4   3   5  381.03   16.25
   4   3  -5  380.48   20.34
  -4   3   5  359.62   17.51
   4   3  -5  337.87   19.00
   4   3  -5  352.10   18.48
   4   3  -5  376.90   20.50
   4   3  -4   19.74    4.04
  -4   3   4   22.29    3.84
   4   3  -4   20.06    4.28
  -4   3   4   20.90    3.39
  -4   3   4   13.52    3.24
   4   3  -4   14.32    3.69
   4   3  -4   20.28    4.70
  -4   3   4   15.41    3.05
   4   3  -4   18.29    4.36
  -4   3   3  214.24   12.95
   4   3  -3  212.11   12.52
   4   3  -3  215.40   14.31
   4   3  -3  214.90   12.69
  -4   3   3  211.03   11.37
   4   3  -3  234.92   14.87
   4   3  -3  211.99   12.88
  -4   3   3  215.33   11.56
   4   3  -3  251.28   15.59
  -4   3   2 1456.89   48.27
   4   3  -2 1558.23   48.51
   4   3  -2 1576.55   50.62
   4   3  -2 1573.98   48.44
   4   3  -2 1455.81   49.93
   4   3  -2 1523.48   47.31
  -4   3   2 1528.24   45.52
   4   3  -2 1623.74   51.74
  -4   3   1  172.11   12.06
   4   3  -1  150.99   11.20
   4   3  -1  161.79   12.07
   4   3  -1  179.83   11.79
   4   3  -1  170.95   12.28
   4   3  -1  172.24   10.51
  -4   3   1  154.38    9.63
   4   3  -1  152.85   11.88
  -4   3   0  213.38   11.60
   4   3   0  211.07   13.87
   4   3   0  190.51   12.74
   4   3   0  224.40   13.90
   4   3   0  220.27   14.06
   4   3   1  165.56   11.70
   4   3   1  152.00   10.36
  -4   3  -1  159.40   10.15
  -4   3  -1  150.73    9.52
   4   3   1  172.37   12.25
   4   3   1  161.92   11.99
   4   3   1  174.85   11.99
   4   3   1  161.22   11.85
   4   3   2  406.58   19.70
   4   3   2  411.63   17.40
  -4   3  -2  465.63   19.46
   4   3   2  434.32   21.40
   4   3   2  425.66   20.88
   4   3   2  449.04   21.22
   4   3   2  419.91   19.42
   4   3   2  433.79   20.83
   4   3   3   74.86    7.53
   4   3   3   57.23    7.06
   4   3   3   68.46    6.37
  -4   3  -3   87.55    7.71
  -4   3  -3   70.61    7.15
   4   3   3   85.16    8.57
   4   3   3   68.69    7.66
   4   3   3   63.61    7.08
   4   3   3   63.40    7.28
   4   3   4   35.23    5.04
   4   3   4   36.88    4.88
   4   3   4   45.94    6.44
  -4   3  -4   49.58    6.04
  -4   3  -4   50.05    5.80
   4   3   4   42.00    6.35
  -4   3  -4   44.29    5.53
   4   3   4   46.90    6.33
   4   3   4   47.02    6.24
   4   3   5  230.94   12.88
   4   3   5  249.39   15.14
   4   3   5  230.49   13.35
  -4   3  -5  223.81   13.72
  -4   3  -5  246.82   15.43
  -4   3  -5  256.00   13.40
   4   3   5  245.78   15.67
  -4   3  -5  242.08   13.88
   4   3   5  236.64   15.01
   4   3   5  208.12   13.62
   4   3   6  239.23   12.82
   4   3   6  279.32   15.05
   4   3   6  269.99   17.00
  -4   3  -6  310.05   16.31
   4   3   6  276.16   16.54
  -4   3  -6  283.76   15.20
   4   3   6  253.35   15.57
   4   3   6  277.46   16.63
  -4   3  -6  257.30   16.05
   4   3   7   74.12    7.37
   4   3   7   62.28    6.85
   4   3   7   65.77    8.18
  -4   3  -7   75.23    7.74
   4   3   7   77.28    8.25
  -4   3  -7   77.29    7.40
   4   3   7   65.99    7.61
  -4   3  -7   74.68    8.57
  -4   3  -7   70.22    7.99
   4   3   8  155.89   10.27
   4   3   8  160.74   11.02
   4   3   8  161.00   12.71
   4   3   8  169.56   11.99
  -4   3  -8  170.08   12.28
  -4   3  -8  164.59   10.96
   4   3   8  160.27   12.13
  -4   3  -8  182.25   12.91
   4   3   8  149.93   11.98
   4   3   9   20.06    3.26
   4   3   9   28.27    5.01
   4   3   9   24.70    4.27
  -4   3  -9   23.48    4.50
   4   3  10  314.64   16.62
  -4   3 -10  297.46   16.11
   4   3  11  112.19    8.73
   4   3  12   69.35    5.80
  -4   3 -13   19.57    2.04
   4   3  13   32.13    2.97
  -4   4  12   41.26    3.56
   4   4 -12   51.92    4.32
   4   4 -12   40.61    3.36
  -4   4  11  104.75    7.14
  -4   4  11   86.41    6.66
   4   4 -11  113.19    7.91
   4   4 -11  105.48    6.85
  -4   4  10  104.35    8.04
   4   4 -10  116.18    8.92
   4   4 -10  103.69    7.81
  -4   4   9   70.55    7.10
  -4   4   9   71.54    6.68
  -4   4   9   74.69    7.50
   4   4  -9   85.65    8.19
   4   4  -9   75.77    6.95
   4   4  -9   69.20    6.79
  -4   4   8  122.92    9.14
  -4   4   8  125.76   10.23
   4   4  -8  122.07   10.35
   4   4  -8  117.68    9.38
  -4   4   8  115.04   10.29
   4   4  -8  115.94    9.20
  -4   4   7  140.22    9.93
  -4   4   7  124.69   10.39
   4   4  -7  123.07   10.83
  -4   4   7  134.00   10.06
  -4   4   7  124.46   11.08
   4   4  -7  137.89   10.10
  -4   4   6   91.95    7.99
  -4   4   6  105.53    9.51
   4   4  -6  102.63    9.47
   4   4  -6  100.85    9.73
  -4   4   6   82.97    8.08
   4   4  -6   94.02    8.34
   4   4  -6  100.16    9.99
  -4   4   6   90.91    9.48
   4   4  -5   21.32    3.89
  -4   4   5   31.17    5.49
  -4   4   5   21.02    3.81
   4   4  -5   32.61    5.46
  -4   4   5   26.10    4.72
   4   4  -5   25.57    5.08
   4   4  -5   19.10    4.50
  -4   4   4  200.97   14.43
  -4   4   4  208.82   13.26
  -4   4   4  176.19   11.04
   4   4  -4  183.34   13.47
   4   4  -4  199.85   14.04
  -4   4   4  183.47   12.70
   4   4  -4  185.79   11.43
   4   4  -4  197.00   14.34
  -4   4   3  976.71   36.42
  -4   4   3  972.91   32.60
   4   4  -3  926.99   34.04
   4   4  -3 1008.41   37.50
   4   4  -3 1053.40   36.31
   4   4  -3  954.64   36.66
   4   4  -3 1014.63   38.13
  -4   4   2   52.83    6.85
   4   4  -2   44.39    6.07
   4   4  -2   59.77    7.35
   4   4  -2   46.43    6.17
   4   4  -2   47.03    6.41
   4   4  -2   58.90    7.29
  -4   4   1   22.50    3.86
  -4   4   1   28.90    5.35
   4   4  -1   23.09    4.70
   4   4  -1   27.14    4.86
   4   4  -1   27.54    4.89
   4   4  -1   24.70    4.63
   4   4  -1   26.99    4.98
  -4   4   0   35.71    5.07
  -4   4   0   28.47    4.10
  -4   4   0   30.30    5.47
   4   4   0   30.15    5.26
   4   4   0   32.35    5.38
   4   4   0   38.83    5.78
   4   4   0   27.29    4.94
   4   4   1    5.46    2.59
   4   4   1   12.12    3.53
  -4   4  -1    9.43    2.57
   4   4   2  117.63    9.53
   4   4   2  130.01   10.15
   4   4   2  115.52    9.52
   4   4   2  138.43   11.42
   4   4   2  125.23   10.57
   4   4   2  107.80    9.43
  -4   4  -2  132.97   10.07
   4   4   2  126.31   10.30
   4   4   3  236.89   13.88
   4   4   3  263.18   15.51
   4   4   3  249.08   15.07
  -4   4  -3  282.87   16.11
   4   4   3  270.74   16.69
   4   4   3  261.91   15.79
   4   4   3  282.00   16.90
  -4   4  -3  260.84   15.27
   4   4   3  251.52   15.30
   4   4   3  280.76   15.70
   4   4   4  147.08    9.92
   4   4   4  161.24   12.10
  -4   4  -4  140.04   10.67
   4   4   4  158.57   12.26
   4   4   4  136.12   10.87
  -4   4  -4  135.72   11.02
   4   4   4  140.03   11.67
   4   4   4  144.70   11.57
   4   4   4  144.68   10.77
   4   4   5   95.60    7.38
  -4   4  -5  104.37    8.81
   4   4   5  110.22   10.11
  -4   4  -5  111.55    9.54
   4   4   5  123.87   10.57
  -4   4  -6    4.65    2.30
   4   4   6    2.50    1.89
  -4   4  -6    3.13    1.77
  -4   4  -6    2.61    1.79
   4   4   6    4.75    2.35
   4   4   7  129.51    9.51
  -4   4  -7  135.45   10.78
   4   4   7  124.25   10.94
   4   4   7  142.99   11.05
  -4   4  -7  114.61    9.47
  -4   4  -7  145.22   11.41
   4   4   8   57.38    5.54
   4   4   8   51.62    6.69
   4   4   8   62.28    6.76
  -4   4  -8   63.64    6.52
  -4   4  -8   58.54    7.00
   4   4   8   58.07    7.00
  -4   4  -8   65.42    7.31
   4   4   9  478.74   21.88
  -4   4  -9  504.41   21.99
   4   4   9  460.08   21.68
  -4   4  -9  479.01   21.25
   4   4  10   15.54    3.39
   4   4  11   23.41    3.59
  -4   4 -11   30.63    3.14
   4   4  12   63.98    4.71
   4   5 -11   51.50    4.28
   4   5 -10   68.54    5.88
  -4   5   9  231.28   12.02
   4   5  -9  246.93   13.00
   4   5  -9  204.51    9.31
  -4   5   8   79.69    7.67
   4   5  -8   92.30    8.14
   4   5  -8   83.96    5.87
   4   5  -7    6.98    2.74
  -4   5   7    5.64    2.56
  -4   5   7   11.31    2.80
   4   5  -7   14.70    3.60
  -4   5   6    5.09    2.41
  -4   5   6    4.96    2.12
   4   5  -6    3.91    2.21
  -4   5   6    6.78    2.53
   4   5  -6    5.54    2.68
  -4   5   5  136.06   10.53
   4   5  -5  161.00   12.15
   4   5  -5  149.62   11.39
  -4   5   5  174.16   12.15
  -4   5   5  161.03   12.71
  -4   5   4   72.10    8.62
  -4   5   4   60.29    6.72
   4   5  -4   63.10    7.60
   4   5  -4   76.11    8.04
  -4   5   4   70.48    7.86
  -4   5   3  686.98   29.37
  -4   5   3  628.52   27.45
  -4   5   3  559.90   23.72
   4   5  -3  624.74   27.39
   4   5  -3  597.36   26.16
  -4   5   3  653.94   27.48
  -4   5   2  117.07   10.60
   4   5  -2  119.06    9.97
  -4   5   2  114.37    8.51
   4   5  -2  100.79    9.93
   4   5  -2  117.23   10.18
   4   5  -2  112.63   10.16
  -4   5   1   43.04    6.38
   4   5  -1   31.21    5.53
  -4   5   1   30.98    4.76
   4   5  -1   29.43    4.82
   4   5  -1   37.66    5.71
  -4   5   0   76.54    7.57
  -4   5   0   75.20    8.85
   4   5   0   77.94    8.38
   4   5   0   75.32    8.37
  -4   5   0   70.26    6.80
   4   5   0   86.91    8.54
   4   5   1  317.70   16.53
  -4   5  -1  327.11   17.15
  -4   5  -1  263.82   18.22
   4   5   1  317.56   18.00
   4   5   1  323.53   17.93
   4   5   1  308.24   17.83
   4   5   1  329.56   18.31
   4   5   1  287.77   16.39
   4   5   2   70.05    6.91
  -4   5  -2   77.53    8.06
  -4   5  -2   85.65    8.63
   4   5   2   78.22    8.41
   4   5   2   68.88    7.68
   4   5   2   59.53    7.57
  -4   5  -2   57.56    6.30
   4   5   2   55.80    6.48
   4   5   3   69.65    6.46
  -4   5  -3   61.92    7.46
   4   5   3   68.51    8.03
   4   5   3   79.66    8.62
   4   5   3   81.57    8.26
  -4   5  -3   81.73    7.73
   4   5   4  142.59    8.64
  -4   5  -4  114.46   10.56
   4   5   4  143.92   11.07
  -4   5  -4  150.12   11.23
   4   5   4  148.23   11.75
   4   5   4  137.20   10.27
   4   5   4  134.64   11.32
   4   5   4  159.64   11.82
  -4   5  -4  154.61   11.14
  -4   5  -5   55.86    7.17
  -4   5  -5   57.14    6.60
   4   5   5   59.82    7.18
  -4   5  -5   70.80    7.56
   4   5   5   65.30    7.72
   4   5   6   14.24    3.28
   4   5   6   18.23    4.06
  -4   5  -6   24.35    4.65
  -4   5  -6   21.65    4.05
   4   5   6   23.38    4.31
   4   5   7   50.96    5.30
   4   5   7   48.99    6.25
   4   5   7   52.75    6.19
  -4   5  -7   57.27    6.25
  -4   5  -7   61.99    7.10
   4   5   7   61.89    6.94
  -4   5  -7   49.86    6.33
   4   5   8   14.28    2.47
   4   5   8   21.21    3.98
  -4   5  -8   25.45    4.23
   4   5   8   19.56    3.54
   4   5   8   15.43    3.52
  -4   5  -8   21.69    2.66
   4   5   9   57.85    5.91
   4   5   9   56.24    5.16
   4   5   9   52.77    5.82
   4   5  10   29.83    3.97
   4   5  11    0.20    0.81
  -4   6  10  218.55    9.00
   4   6  -9  196.56    9.31
   4   6  -8  232.90   11.58
   4   6  -7  139.37    9.42
   4   6  -6   99.43    8.39
  -4   6   6   93.96    8.12
   4   6  -5   16.94    3.72
  -4   6   5   21.08    3.94
   4   6  -5   13.11    2.96
   4   6  -4  115.20    9.85
  -4   6   4  101.87    8.70
   4   6  -4  118.53    8.85
  -4   6   4  119.09    9.78
  -4   6   3   94.42    9.47
   4   6  -3  107.35    9.56
  -4   6   3   96.64    8.28
   4   6  -3  100.37    8.13
  -4   6   3   96.80    9.10
   4   6  -2   98.68    9.18
  -4   6   2   84.86    7.69
   4   6  -2   88.73    7.55
   4   6  -1    8.91    3.05
   4   6  -1    7.57    2.83
  -4   6   1    9.85    2.61
   4   6  -1    3.47    2.29
   4   6   0    2.19    1.42
   4   6   0    2.71    2.05
   4   6   0    1.68    1.81
   4   6   0    0.59    1.50
   4   6   1   11.75    2.81
  -4   6  -1   16.24    3.46
  -4   6  -1   13.13    3.48
   4   6   1   10.84    3.07
   4   6   1   14.18    3.67
   4   6   1   10.03    3.24
   4   6   2    3.28    1.40
  -4   6  -2    3.55    1.73
  -4   6  -2    3.70    1.83
   4   6   2    0.56    1.70
   4   6   2    1.17    1.63
  -4   6  -3  147.98   11.09
  -4   6  -3  172.47   11.93
   4   6   3  161.66   11.69
  -4   6  -3  155.09   11.04
   4   6   3  150.43   10.40
   4   6   3  147.93   11.51
   4   6   4   74.90    7.66
  -4   6  -4   72.15    7.38
   4   6   4   65.08    6.24
   4   6   4   68.96    7.54
  -4   6  -5    5.17    2.08
   4   6   5    6.69    2.50
   4   6   6   49.86    5.09
   4   6   6   56.34    5.99
   4   6   6   59.34    6.38
   4   6   7    7.81    1.76
   4   6   7   11.56    2.75
   4   6   7   11.78    2.66
   4   6   7   10.30    2.68
   4   6   8    4.91    1.84
   4   6   8    7.95    2.30
   4   6   9   35.18    3.82
   4   6  10   28.96    2.68
   4   7  -8   39.21    3.18
   4   7  -7   63.61    5.02
   4   7  -6   12.06    2.58
   4   7  -5   47.95    5.20
   4   7  -4   41.46    4.97
   4   7  -3   83.86    7.29
   4   7  -3   80.81    7.15
   4   7  -2    3.70    1.76
   4   7  -2    2.12    1.53
   4   7  -2    4.45    1.97
   4   7  -1   36.29    4.19
   4   7  -1   44.86    5.42
   4   7  -1   46.96    5.41
   4   7  -1   36.26    5.18
  -4   7   1   43.02    5.59
   4   7   0   55.69    4.78
   4   7   0   67.62    6.79
   4   7   0   68.09    6.89
   4   7   1   68.28    6.92
   4   7   1   60.25    5.86
   4   7   1   72.14    7.18
   4   7   2   30.71    4.68
   4   7   2   22.79    3.45
   4   7   2   28.05    4.64
   4   7   3   82.78    7.32
   4   7   3   80.90    7.38
   4   7   4    6.83    2.49
   4   7   5   12.34    2.30
   4   7   5   14.80    2.82
   4   7   6    4.77    1.14
   4   7   6    8.65    1.96
   4   8  -5   31.36    2.88
   4   8  -4   79.65    5.07
   4   8  -3   14.21    2.19
   4   8  -3   13.33    2.31
   4   8  -2   43.93    4.20
   4   8  -1   41.07    4.05
   4   8  -1   37.81    3.58
   4   8  -1   42.46    4.29
   4   8   0    0.81    1.03
   4   8   0    0.18    0.72
   4   8   0    0.88    1.06
   4   8   1   78.51    5.84
   4   8   1   73.52    5.84
   4   8   2   44.55    4.23
   4   8   2   40.90    4.15
   4   8   3   30.81    3.20
   4   8   3   35.93    3.62
   4   8   4    2.27    0.99
   5  -7  -4    3.30    0.83
   5  -7  -4    2.40    0.82
  -5  -7   4    3.05    1.06
  -5  -7   4    4.02    1.05
   5  -7  -3   12.62    1.64
   5  -7  -3   13.34    1.85
  -5  -7   3   11.64    1.95
  -5  -7   3   15.24    2.15
   5  -7  -2  128.05    6.33
  -5  -7   2  115.29    6.34
   5  -7  -1   72.99    4.83
  -5  -7   1   67.23    4.92
   5  -7   0    3.15    1.18
  -5  -7   0    2.59    1.25
  -5  -7   0    2.11    1.00
   5  -7   1    2.68    1.18
  -5  -7  -1    3.12    1.12
  -5  -7  -1    4.10    1.28
   5  -7   2   20.23    2.50
  -5  -7  -2   27.60    2.78
   5  -7   3   25.79    2.50
  -5  -7  -3   24.44    2.48
   5  -6  -7   46.01    3.18
  -5  -6   7   42.58    3.36
  -5  -6   7   36.01    3.01
   5  -6  -6   61.29    4.39
   5  -6  -6   56.23    4.24
  -5  -6   6   47.91    4.41
   5  -6  -5   14.30    2.45
   5  -6  -5   14.84    2.46
  -5  -6   5   14.29    2.62
   5  -6  -4   17.51    2.80
   5  -6  -4   14.81    2.68
  -5  -6   4   15.67    2.91
   5  -6  -3   60.02    5.25
   5  -6  -3   60.18    5.43
   5  -6  -3   61.23    5.55
  -5  -6   3   61.02    5.72
   5  -6  -2  206.51   10.54
   5  -6  -2  212.27   10.92
   5  -6  -2  205.52   11.07
  -5  -6   2  201.96   11.07
  -5  -6   2  199.13   11.38
   5  -6  -1  122.57    7.61
   5  -6  -1  115.06    7.73
   5  -6  -1  126.25    8.62
  -5  -6   1  119.77    8.57
  -5  -6   0   16.49    3.25
   5  -6   0   24.40    3.72
  -5  -6   0   11.93    2.64
  -5  -6   0   18.66    3.34
  -5  -6  -1    5.92    2.03
   5  -6   1    9.86    2.54
  -5  -6  -1    6.92    1.81
  -5  -6  -1    5.49    1.92
   5  -6   2  100.14    7.19
  -5  -6  -2   87.22    6.70
   5  -6   3   49.62    4.91
  -5  -6  -3   38.90    4.01
  -5  -6  -3   40.11    4.49
   5  -6   4  113.28    7.16
  -5  -6  -4   92.47    5.49
  -5  -6  -4  115.17    7.06
   5  -6   5    5.35    1.53
   5  -6   5    3.96    1.50
  -5  -6  -5    4.34    1.29
  -5  -6  -6    7.50    1.41
   5  -6   6    7.38    1.60
  -5  -6  -6    7.49    1.34
   5  -5  -8   25.97    2.59
  -5  -5   8   24.44    3.16
   5  -5  -7    3.62    1.35
   5  -5  -7    2.26    1.25
  -5  -5   7    2.85    1.62
   5  -5  -6   57.74    5.31
   5  -5  -6   53.73    5.24
  -5  -5   6   49.26    5.32
  -5  -5   6   47.90    5.44
   5  -5  -5   29.40    4.10
   5  -5  -5   25.30    3.82
  -5  -5   5   26.96    4.02
  -5  -5   5   23.44    4.11
   5  -5  -4   83.88    7.12
   5  -5  -4   88.60    7.40
   5  -5  -4   81.27    7.23
  -5  -5   4   54.57    5.90
  -5  -5   4   72.87    7.07
  -5  -5   4   58.97    6.47
   5  -5  -3  107.89    8.41
   5  -5  -3  120.72    8.92
   5  -5  -3  110.21    8.74
  -5  -5   3   93.95    7.46
  -5  -5   3  107.23    8.89
  -5  -5   3  116.26    8.80
  -5  -5   3  104.61    8.38
  -5  -5   3  107.90    8.99
   5  -5  -2   97.13    7.94
   5  -5  -2   94.84    8.00
   5  -5  -2   94.77    8.22
  -5  -5   2   77.30    7.53
  -5  -5   2   87.53    7.69
  -5  -5   2   98.00    8.32
  -5  -5   2   80.34    7.91
   5  -5  -1  176.49   11.09
   5  -5  -1  181.14   11.21
   5  -5  -1  169.98   11.44
  -5  -5   1  178.31   11.63
  -5  -5   1  158.24   11.45
   5  -5   0   40.73    4.97
   5  -5   0   45.24    5.71
  -5  -5   0   35.97    4.95
  -5  -5   0   40.52    5.22
  -5  -5   0   33.45    4.88
  -5  -5   0   39.53    5.48
   5  -5   1  112.88    8.24
   5  -5   1  124.92    9.50
  -5  -5  -1   85.20    7.24
  -5  -5  -1  101.56    8.22
  -5  -5  -1  120.04    9.37
  -5  -5  -1  113.49    9.14
   5  -5   2  142.44   10.07
  -5  -5  -2  123.05    7.89
  -5  -5  -2  137.55   10.05
  -5  -5  -2  134.27    9.73
  -5  -5  -2  131.26    9.33
   5  -5   3  141.88    9.95
  -5  -5  -3  150.40   10.25
  -5  -5  -3  139.67    9.05
  -5  -5  -4   14.53    3.05
   5  -5   4   16.45    3.22
  -5  -5  -4   11.37    2.40
   5  -5   5   50.91    5.57
  -5  -5  -6   66.94    5.25
   5  -5   6   72.32    6.32
  -5  -5  -7   21.73    2.98
   5  -5   7   19.24    2.95
  -5  -5  -7   12.86    1.82
  -5  -5  -8   42.27    3.50
   5  -5   8   30.26    3.30
   5  -4  -9    5.65    1.19
  -5  -4   9    7.52    2.12
   5  -4  -8   42.02    4.07
  -5  -4   8   34.99    4.67
   5  -4  -7   37.26    4.38
   5  -4  -7   27.44    3.89
  -5  -4   7   29.46    4.60
   5  -4  -6   18.51    3.40
   5  -4  -6   12.78    3.11
  -5  -4   6   21.37    3.75
   5  -4  -5   37.67    5.09
   5  -4  -5   29.95    4.72
  -5  -4   5   39.73    5.43
  -5  -4   5   41.42    5.39
  -5  -4   5   33.30    4.69
  -5  -4   5   35.01    4.60
  -5  -4   5   39.53    5.53
   5  -4  -4   99.68    8.56
   5  -4  -4  102.42    8.70
   5  -4  -4   94.98    8.51
  -5  -4   4   92.14    8.55
  -5  -4   4  102.40    8.92
  -5  -4   4  101.58    8.52
  -5  -4   4   87.05    7.77
  -5  -4   4  102.58    9.30
   5  -4  -3  103.31    8.80
   5  -4  -3  105.36    9.06
   5  -4  -3   87.31    8.41
  -5  -4   3   72.85    7.35
  -5  -4   3   95.18    8.64
   5  -4  -3   85.66    7.74
  -5  -4   3   84.26    8.56
   5  -4  -2   11.21    3.19
   5  -4  -2   10.86    3.19
   5  -4  -2   11.39    3.17
  -5  -4   2   16.77    3.76
  -5  -4   2   10.56    2.82
  -5  -4   2   10.95    3.05
  -5  -4   2   10.46    3.33
   5  -4  -1    3.03    2.00
   5  -4  -1    2.53    2.16
   5  -4  -1    2.20    1.98
  -5  -4   1    0.55    1.53
  -5  -4   1    2.18    1.86
  -5  -4   1    1.73    2.18
   5  -4   0   12.75    3.28
   5  -4   0   16.45    3.87
  -5  -4   0   18.60    3.91
  -5  -4   0   12.81    3.38
  -5  -4   0   11.81    3.29
   5  -4   1   54.67    6.23
   5  -4   1   54.18    6.61
  -5  -4  -1   44.91    5.56
  -5  -4  -1   37.84    5.70
  -5  -4  -1   52.32    6.61
   5  -4   2   23.56    4.07
   5  -4   2   15.66    3.43
   5  -4   2   23.69    4.39
  -5  -4  -2   17.89    3.28
  -5  -4  -2   16.73    3.84
  -5  -4  -2   16.56    3.65
  -5  -4  -2   19.24    3.86
   5  -4   3   85.15    7.28
   5  -4   3   95.07    8.02
  -5  -4  -3   86.09    8.39
  -5  -4  -3   71.11    7.10
  -5  -4  -3   77.31    7.33
  -5  -4  -3   74.36    6.87
   5  -4   4  116.87    8.54
   5  -4   4  115.87    8.94
  -5  -4  -4   92.85    8.57
  -5  -4  -4   95.96    8.44
  -5  -4  -4   96.10    7.73
  -5  -4  -4   93.99    7.05
  -5  -4  -5   23.28    3.78
   5  -4   5   17.76    3.44
  -5  -4  -5   19.20    3.69
   5  -4   5   22.86    4.19
   5  -4   6   12.55    2.86
   5  -4   6   12.14    3.07
  -5  -4  -6    8.73    2.32
  -5  -4  -7   45.78    3.96
   5  -4   7   62.13    6.24
  -5  -4  -8   70.38    5.53
   5  -4   8   69.19    6.11
  -5  -4  -9    8.20    1.73
   5  -4   9    7.89    1.93
  -5  -4 -10  107.80    4.96
   5  -4  10  105.03    5.36
  -5  -3  10   24.39    3.59
   5  -3  -9   29.51    2.78
  -5  -3   9   24.27    4.08
   5  -3  -8    2.59    1.40
  -5  -3   8    3.79    1.95
   5  -3  -7   99.33    7.66
   5  -3  -7   87.23    7.52
  -5  -3   7   97.63    9.05
  -5  -3   7  100.56    8.22
  -5  -3   7   95.07    8.14
   5  -3  -6   58.17    6.48
  -5  -3   6   57.12    7.05
  -5  -3   6   67.03    6.99
  -5  -3   6   62.28    6.76
   5  -3  -6   60.57    6.50
  -5  -3   6   61.80    7.04
   5  -3  -5   76.42    7.43
   5  -3  -5   66.59    7.26
  -5  -3   5   62.29    7.07
  -5  -3   5   74.69    7.66
  -5  -3   5   53.40    5.90
   5  -3  -5   64.76    7.17
  -5  -3   5   72.74    7.93
   5  -3  -4    0.52    1.57
   5  -3  -4   -0.54    1.64
   5  -3  -4    0.55    1.65
  -5  -3   4   -0.56    1.56
  -5  -3   4   -0.55    1.41
  -5  -3   4    1.41    1.42
  -5  -3   4    1.85    1.99
   5  -3  -3  145.07   11.01
   5  -3  -3  118.42   10.14
   5  -3  -3  140.46   11.01
  -5  -3   3  123.42   10.17
  -5  -3   3  149.45   11.44
   5  -3  -3  152.03   11.10
  -5  -3   3  134.64   10.35
  -5  -3   3  129.85   11.36
   5  -3  -2    0.55    1.88
   5  -3  -2    1.09    1.76
   5  -3  -2    0.56    1.55
   5  -3  -2   -0.56    1.82
  -5  -3   2    2.03    1.73
  -5  -3   2    1.28    1.78
  -5  -3   2    2.38    2.14
  -5  -3   2    0.48    1.23
  -5  -3   2    0.62    1.57
  -5  -3   2    1.87    1.89
   5  -3  -1  269.87   14.23
   5  -3  -1  273.53   16.02
   5  -3  -1  291.97   16.25
   5  -3  -1  298.07   16.59
  -5  -3   1  317.98   18.37
  -5  -3   1  345.40   18.66
  -5  -3   1  242.39   13.71
  -5  -3   1  298.74   17.14
   5  -3  -1  332.25   17.16
  -5  -3   1  267.89   15.98
  -5  -3   1  288.09   17.17
  -5  -3   1  285.84   17.06
   5  -3   0   74.36    7.74
  -5  -3   0   79.73    8.76
  -5  -3   0   95.36    9.42
   5  -3   0   88.76    8.52
  -5  -3   0   93.16    9.12
  -5  -3   0   79.15    8.44
   5  -3   1   14.47    3.39
   5  -3   1   15.97    3.53
   5  -3   1   15.55    3.67
   5  -3   1   20.31    3.75
  -5  -3  -1   18.42    4.30
  -5  -3  -1   18.67    4.20
   5  -3   2   77.33    7.42
   5  -3   2   71.71    7.48
   5  -3   2   58.32    6.79
   5  -3   2   75.96    7.71
   5  -3   2   71.19    7.86
  -5  -3  -2   70.95    7.90
  -5  -3  -2   81.44    8.64
  -5  -3  -2   56.17    5.85
  -5  -3  -2   73.08    8.11
  -5  -3  -2   60.79    7.00
   5  -3   3    6.70    2.45
   5  -3   3    7.78    2.58
   5  -3   3    6.92    2.53
   5  -3   3    8.95    2.97
  -5  -3  -3    3.63    2.39
  -5  -3  -3    4.46    2.04
  -5  -3  -3    7.11    2.54
  -5  -3  -3    5.60    2.10
   5  -3   4  312.70   15.64
   5  -3   4  313.41   16.23
   5  -3   4  267.52   14.30
   5  -3   4  316.97   17.34
  -5  -3  -4  300.08   16.96
  -5  -3  -4  260.10   15.39
  -5  -3  -4  238.03   13.41
   5  -3   5  158.39   10.60
   5  -3   5  159.83   11.05
   5  -3   5  153.02   11.49
  -5  -3  -5  149.97   11.29
  -5  -3  -5  144.82   11.05
   5  -3   5  142.05   11.32
  -5  -3  -6    3.65    1.69
   5  -3   6    5.45    2.34
   5  -3   6    3.11    2.15
   5  -3   6    3.73    2.11
  -5  -3  -6    3.55    2.00
  -5  -3  -6    1.58    1.70
   5  -3   6    2.73    1.87
   5  -3   7   30.71    4.18
   5  -3   7   32.93    4.85
  -5  -3  -7   19.21    2.70
   5  -3   7   26.25    4.57
   5  -3   8   70.81    5.91
   5  -3   8   69.61    6.89
  -5  -3  -9  495.34   17.82
   5  -3   9  513.10   19.96
  -5  -3 -10  289.24   10.99
   5  -3  10  269.56   11.96
  -5  -2  10   23.60    3.83
  -5  -2   9  165.37   11.25
   5  -2  -9  197.00   11.07
   5  -2  -8   38.04    4.08
  -5  -2   8   35.20    5.44
  -5  -2   8   35.24    4.68
  -5  -2   8   38.08    5.13
   5  -2  -8   32.92    4.80
   5  -2  -7   59.44    5.92
   5  -2  -7   69.23    6.90
  -5  -2   7   57.30    7.17
  -5  -2   7   74.88    7.16
  -5  -2   7   67.40    7.15
   5  -2  -7   77.96    7.75
  -5  -2   7   72.60    7.80
   5  -2  -6   12.29    3.01
   5  -2  -6    5.56    2.70
   5  -2  -6   10.12    2.95
  -5  -2   6    9.05    3.31
  -5  -2   6    7.69    2.74
  -5  -2   6    3.65    2.69
   5  -2  -5  176.34   12.27
  -5  -2   5  156.33   12.14
  -5  -2   5  160.59   11.66
  -5  -2   5  160.90   12.07
  -5  -2   5  156.18   10.00
   5  -2  -5  171.73   12.42
  -5  -2   5  164.76   12.87
   5  -2  -4  231.82   13.87
   5  -2  -4  195.14   13.30
   5  -2  -4  196.72   13.23
  -5  -2   4  210.13   15.06
  -5  -2   4  176.64   13.18
  -5  -2   4  199.22   13.36
  -5  -2   4  223.15   12.70
   5  -2  -4  202.05   13.79
  -5  -2   4  199.71   13.78
  -5  -2   4  191.14   14.19
  -5  -2   4  193.30   13.90
   5  -2  -3  164.01   11.75
   5  -2  -3  159.05   11.97
   5  -2  -3  130.52   10.73
  -5  -2   3  161.84   13.17
  -5  -2   3  142.91   11.22
  -5  -2   3  185.89   12.89
  -5  -2   3  170.84   11.49
   5  -2  -3  192.38   13.09
  -5  -2   3  162.26   12.47
  -5  -2   3  156.79   12.71
  -5  -2   3  130.76   11.04
   5  -2  -2  556.14   22.82
   5  -2  -2  539.00   24.12
   5  -2  -2  536.77   24.50
  -5  -2   2  553.78   26.32
  -5  -2   2  588.94   26.86
  -5  -2   2  509.82   23.31
  -5  -2   2  622.08   26.19
  -5  -2   2  539.06   23.85
   5  -2  -2  576.94   25.33
  -5  -2   2  613.90   26.93
  -5  -2   2  584.56   26.44
   5  -2  -1  196.19   12.04
   5  -2  -1  182.18   12.66
   5  -2  -1  207.24   13.28
   5  -2  -1  206.52   13.18
  -5  -2   1  213.40   14.86
  -5  -2   1  158.29   11.09
   5  -2  -1  192.79   13.39
  -5  -2   1  184.16   13.43
   5  -2   0  160.05   11.20
   5  -2   0  157.38   11.68
   5  -2   0  156.67   11.39
  -5  -2   0  165.29   12.69
  -5  -2   0  176.39   13.30
   5  -2   0  150.29   11.53
  -5  -2   0  157.00   11.96
   5  -2   1  351.18   17.64
   5  -2   1  334.53   17.76
   5  -2   1  348.48   18.08
   5  -2   1  345.87   17.28
   5  -2   1  359.69   17.84
   5  -2   1  347.29   19.10
  -5  -2  -1  321.14   18.46
  -5  -2  -1  357.48   19.80
   5  -2   1  354.09   18.45
  -5  -2  -1  374.43   19.54
  -5  -2  -1  348.23   18.31
   5  -2   2  269.15   15.11
   5  -2   2  253.83   15.09
   5  -2   2  255.72   14.83
   5  -2   2  271.37   16.67
  -5  -2  -2  240.08   15.27
  -5  -2  -2  277.79   16.74
  -5  -2  -2  261.93   16.31
  -5  -2  -2  227.22   14.18
   5  -2   3  235.92   13.97
   5  -2   3  238.84   14.38
   5  -2   3  209.82   13.26
   5  -2   3  240.84   15.41
  -5  -2  -3  225.22   14.17
  -5  -2  -3  209.02   14.26
  -5  -2  -3  211.82   13.14
  -5  -2  -3  186.79   12.17
   5  -2   4   22.29    4.17
   5  -2   4   23.41    4.38
   5  -2   4   22.46    4.24
   5  -2   4   26.22    5.03
  -5  -2  -4   29.69    5.11
  -5  -2  -4   25.85    4.59
   5  -2   4   22.87    4.62
   5  -2   5   65.77    6.90
   5  -2   5   64.76    7.00
   5  -2   5   67.32    7.98
  -5  -2  -5   68.50    7.58
   5  -2   6  112.67    8.79
   5  -2   6  114.09    9.09
   5  -2   6  114.24   10.03
  -5  -2  -6   97.43    9.19
  -5  -2  -6   84.20    6.56
   5  -2   6  128.32   10.65
   5  -2   7   71.41    6.61
   5  -2   7   72.97    6.99
   5  -2   7   66.55    7.63
  -5  -2  -7   67.05    7.46
   5  -2   7   72.94    7.83
   5  -2   8   80.06    6.67
   5  -2   8   89.89    8.23
   5  -2   8   88.54    8.23
   5  -2   9   20.37    3.01
  -5  -2  -9   19.91    2.91
   5  -2   9   24.47    4.10
  -5  -2 -10   37.73    3.29
  -5  -2 -10   52.28    4.13
   5  -2  10   44.98    4.76
  -5  -2 -11   37.48    3.21
   5  -2  11   30.17    3.31
  -5  -1  11   39.55    4.45
   5  -1 -11   48.80    4.41
   5  -1 -10   23.44    3.62
  -5  -1  10   15.41    3.39
  -5  -1   9  166.99   10.82
  -5  -1   9  165.16   11.51
  -5  -1   9  183.91   11.26
   5  -1  -9  180.55   11.42
  -5  -1   8   35.47    5.12
  -5  -1   8   30.80    4.22
  -5  -1   8   39.29    5.35
   5  -1  -8   35.19    5.05
   5  -1  -8   36.69    5.41
   5  -1  -7    4.95    1.85
   5  -1  -7    4.69    2.27
   5  -1  -7    4.02    2.27
  -5  -1   7    7.97    2.42
  -5  -1   7    3.19    1.92
   5  -1  -6   76.42    6.87
   5  -1  -6   73.51    7.68
  -5  -1   6   69.11    7.16
  -5  -1   6   78.23    7.99
   5  -1  -6   84.95    8.66
   5  -1  -5  102.36    8.58
   5  -1  -5  119.44    9.99
  -5  -1   5  117.58    9.57
  -5  -1   5  116.62   10.16
   5  -1  -5  107.50   10.10
  -5  -1   5  112.47   10.05
  -5  -1   5   95.36    9.92
   5  -1  -4   20.55    3.87
  -5  -1   4   12.68    3.57
   5  -1  -4   20.48    4.44
   5  -1  -4   17.58    4.06
  -5  -1   4   17.37    3.25
  -5  -1   4   20.56    4.40
   5  -1  -3  262.23   14.84
   5  -1  -3  268.20   15.31
   5  -1  -3  276.59   16.23
  -5  -1   3  273.01   16.04
  -5  -1   3  267.50   14.58
   5  -1  -3  315.34   17.68
  -5  -1   3  308.82   17.70
  -5  -1   3  277.37   16.43
   5  -1  -2 1070.67   35.50
   5  -1  -2 1060.08   36.93
   5  -1  -2 1065.91   37.73
   5  -1  -2 1043.79   36.16
  -5  -1   2 1029.17   38.93
  -5  -1   2  965.97   35.49
   5  -1  -2 1081.13   38.69
  -5  -1   2 1153.50   40.37
   5  -1  -2 1000.14   35.57
  -5  -1   2  955.25   36.11
   5  -1  -1  134.65   10.42
   5  -1  -1  142.49   10.43
   5  -1  -1  149.10   11.00
   5  -1  -1  145.37   11.01
   5  -1  -1  133.56    9.97
  -5  -1   1  146.83   11.87
  -5  -1   1  190.05   13.70
  -5  -1   1  141.15   10.90
   5  -1  -1  131.46   10.95
  -5  -1   1  141.76   11.55
   5  -1  -1  133.14   10.25
   5  -1   0  121.33    9.89
   5  -1   0  112.66    9.56
  -5  -1   0  129.13   10.70
  -5  -1   0  132.37   11.38
   5  -1   0  103.87    9.57
   5  -1   0  104.32    9.06
   5  -1   1  240.29   14.20
   5  -1   1  240.13   14.59
   5  -1   1  214.37   13.65
   5  -1   1  195.37   12.53
   5  -1   1  223.24   14.79
  -5  -1  -1  210.03   13.76
  -5  -1  -1  253.22   15.86
   5  -1   1  214.07   13.85
  -5  -1  -1  202.79   13.34
   5  -1   1  210.80   13.29
   5  -1   2   72.99    7.62
   5  -1   2   77.85    8.05
   5  -1   2   53.61    6.68
   5  -1   2   60.50    6.29
   5  -1   2   55.75    7.23
  -5  -1  -2   71.24    7.53
  -5  -1  -2   61.65    7.67
  -5  -1  -2   51.66    6.29
   5  -1   3   90.47    8.45
   5  -1   3   92.07    8.90
   5  -1   3   87.61    8.33
   5  -1   3   92.92    9.28
  -5  -1  -3   74.35    7.51
  -5  -1  -3   83.77    7.82
  -5  -1  -3   71.72    6.95
   5  -1   4    4.70    2.39
   5  -1   4   -0.56    1.44
   5  -1   4    2.95    2.02
   5  -1   4    1.30    1.82
  -5  -1  -4    4.11    2.32
  -5  -1  -4    2.66    1.72
   5  -1   4    5.28    2.41
   5  -1   5   97.59    8.70
   5  -1   5  110.27    9.67
   5  -1   5  111.51   10.42
  -5  -1  -5  117.36   10.41
  -5  -1  -5   98.74    9.22
   5  -1   5  108.59   10.11
   5  -1   6   69.63    7.13
   5  -1   6   86.27    8.09
   5  -1   6  101.78    9.75
  -5  -1  -6  100.60    9.36
   5  -1   7   30.29    4.38
   5  -1   7   32.31    4.70
   5  -1   7   30.54    5.29
  -5  -1  -7   26.33    4.83
   5  -1   7   29.35    5.28
   5  -1   8   42.52    4.77
   5  -1   8   44.08    5.06
   5  -1   8   37.67    5.55
  -5  -1  -8   41.79    5.74
   5  -1   8   43.09    5.88
  -5  -1  -9  179.67    8.95
   5  -1   9  179.19    9.57
   5  -1   9  190.93   12.03
  -5  -1 -10   55.93    4.06
   5  -1  10   53.98    5.64
   5  -1  11    5.62    1.68
   5   0 -12    6.00    1.36
   5   0 -11    1.21    1.20
  -5   0  11    0.64    1.03
   5   0 -10    0.80    1.21
  -5   0  10    0.43    1.38
   5   0 -10   -0.40    1.20
   5   0  -9    8.73    2.88
  -5   0   9    8.64    2.60
   5   0  -9    9.11    2.74
  -5   0   8  301.82   16.59
   5   0  -8  336.30   17.69
   5   0  -8  359.62   18.24
   5   0  -7    1.78    2.14
  -5   0   7    6.07    1.94
  -5   0   7    4.63    2.12
   5   0  -7    9.34    2.90
   5   0  -6    4.41    1.86
   5   0  -6    6.16    2.81
  -5   0   6    4.74    2.03
  -5   0   6    7.06    2.84
   5   0  -5    1.40    1.60
  -5   0   5    2.00    1.86
   5   0  -5    2.41    1.72
   5   0  -5    4.92    2.25
   5   0  -5   -0.62    1.59
  -5   0   5    0.47    1.07
  -5   0   5    1.13    1.44
   5   0  -5    1.53    1.65
  -5   0   4    1.30    1.96
   5   0  -4    0.45    1.35
   5   0  -4    1.24    2.00
   5   0  -4    2.25    2.31
  -5   0   4    2.01    1.62
   5   0  -4    3.17    2.09
  -5   0   4    2.38    1.92
   5   0  -4    2.68    1.83
  -5   0   3  679.25   28.69
   5   0  -3  679.71   27.52
   5   0  -3  618.08   25.49
   5   0  -3  638.38   27.27
  -5   0   3  688.57   27.34
  -5   0   3  659.49   24.69
   5   0  -3  755.50   29.64
  -5   0   3  686.42   28.61
   5   0  -3  650.51   27.10
  -5   0   2  575.32   25.24
   5   0  -2  570.39   24.84
   5   0  -2  554.44   23.44
   5   0  -2  568.40   24.87
  -5   0   2  593.15   26.04
  -5   0   2  562.78   23.33
   5   0  -2  620.90   26.26
  -5   0   2  613.56   26.75
   5   0  -2  587.05   25.19
  -5   0   1   33.80    5.04
   5   0  -1   31.09    5.05
   5   0  -1   39.00    5.44
   5   0  -1   32.82    5.39
   5   0  -1   30.55    5.03
  -5   0   1   26.19    4.75
  -5   0   1   36.53    5.26
   5   0   0   11.17    3.20
   5   0   0   11.00    3.21
   5   0   0   11.11    3.30
   5   0   0   16.98    3.68
  -5   0   0    7.95    2.78
  -5   0   0   14.68    3.86
   5   0   1   73.07    7.70
   5   0   1   70.85    7.72
   5   0   1   59.64    6.93
   5   0   1   65.82    6.99
   5   0   1   61.47    7.35
  -5   0  -1   69.86    7.08
  -5   0  -1   53.21    6.60
   5   0   1   57.72    6.97
   5   0   2   63.00    7.16
   5   0   2   62.37    7.51
   5   0   2   73.53    7.61
   5   0   2   70.61    7.82
  -5   0  -2   59.28    7.23
  -5   0  -2   65.94    6.77
   5   0   2   69.43    7.65
   5   0   3    2.17    1.85
   5   0   3    0.58    1.33
   5   0   3    0.51    1.85
   5   0   3    1.24    1.87
  -5   0  -3   -0.57    1.30
   5   0   4    9.44    3.01
   5   0   4   19.56    4.26
  -5   0  -4   18.97    4.28
   5   0   4   16.34    3.94
  -5   0  -4   11.95    3.12
  -5   0  -4   13.38    3.34
   5   0   5  226.36   13.51
   5   0   5  215.54   13.74
   5   0   5  248.76   15.68
  -5   0  -5  245.22   15.36
  -5   0  -5  198.42   13.46
   5   0   5  209.32   14.45
   5   0   6  157.84   10.64
   5   0   6  148.29   10.96
   5   0   6  150.79   11.90
  -5   0  -6  146.01   11.36
   5   0   7    1.84    1.82
   5   0   7    3.53    2.01
  -5   0  -7   -0.56    1.10
   5   0   7    0.59    1.65
   5   0   8   67.45    5.90
   5   0   8   71.70    7.56
  -5   0  -8   65.83    7.33
   5   0   8   70.29    7.56
   5   0   9    3.22    1.42
  -5   0  -9    3.61    1.21
   5   0   9    1.43    1.54
   5   0  10   17.74    2.17
   5   0  10   29.14    4.16
   5   0  11    5.63    1.79
   5   1 -12   18.82    2.42
  -5   1  11   41.21    4.42
   5   1 -11   50.49    4.74
   5   1 -10   25.52    3.93
  -5   1   9  180.04   11.33
   5   1  -9  188.31   12.07
   5   1  -9  181.86   11.77
  -5   1   8   45.77    5.83
  -5   1   8   39.79    5.08
   5   1  -8   34.09    5.40
   5   1  -8   35.98    5.49
   5   1  -7    4.03    2.28
  -5   1   7    4.28    2.03
  -5   1   7    2.33    1.60
   5   1  -7    7.12    2.87
   5   1  -6   66.05    6.90
   5   1  -6   83.60    8.21
  -5   1   6   76.60    7.55
   5   1  -6   88.65    8.78
   5   1  -5   89.40    7.12
  -5   1   5  111.15    8.11
   5   1  -5  126.17   10.29
  -5   1   5  115.21    9.62
   5   1  -5  131.49   10.79
  -5   1   5  130.86   10.14
   5   1  -5  116.65   10.09
   5   1  -4   18.13    3.98
  -5   1   4   16.54    4.22
   5   1  -4   16.11    3.27
   5   1  -4   15.44    3.79
  -5   1   4   18.78    3.50
   5   1  -4   18.03    4.11
  -5   1   4   14.25    3.50
   5   1  -4   14.92    3.87
  -5   1   3  273.49   16.77
   5   1  -3  257.05   15.58
   5   1  -3  252.02   13.80
   5   1  -3  250.19   14.43
  -5   1   3  275.64   14.75
   5   1  -3  302.15   16.79
   5   1  -3  274.06   16.05
  -5   1   3  265.29   15.67
  -5   1   2 1078.79   38.26
   5   1  -2 1084.79   38.11
   5   1  -2 1041.12   36.23
   5   1  -2  957.80   34.44
  -5   1   2  979.08   36.07
   5   1  -2 1012.42   36.15
   5   1  -2 1048.07   37.87
  -5   1   2  959.07   33.23
  -5   1   2 1145.68   38.67
   5   1  -2 1047.61   38.21
  -5   1   1  141.27   10.94
   5   1  -1  144.42   11.30
   5   1  -1  153.97   11.19
  -5   1   1  145.85   11.39
   5   1  -1  128.14   10.86
   5   1   0  118.38   10.02
   5   1   0  105.05    9.50
   5   1   0  108.84    9.09
  -5   1   0  113.97   10.24
   5   1   0   95.78    8.58
   5   1   0  132.15   10.40
   5   1   0  118.85    9.65
   5   1   0  117.09   10.31
   5   1   1  229.19   14.34
   5   1   1  255.80   15.36
   5   1   1  225.65   13.94
  -5   1  -1  213.29   13.94
   5   1   1  196.86   13.10
   5   1   1  223.97   13.43
   5   1   1  228.57   14.63
   5   1   2   69.40    7.51
   5   1   2   63.67    7.44
   5   1   2   55.98    6.74
  -5   1  -2   58.62    6.86
  -5   1  -2   52.61    5.82
   5   1   2   57.71    7.03
   5   1   3   88.62    8.46
   5   1   3   91.84    8.94
   5   1   3   68.92    7.76
  -5   1  -3   86.97    8.86
  -5   1  -3   87.10    8.11
   5   1   3   88.23    8.73
   5   1   3   91.58    8.95
   5   1   4    1.02    1.75
   5   1   4    0.58    1.32
   5   1   4    5.76    2.46
   5   1   4   -0.58    1.63
  -5   1  -4    2.46    1.86
   5   1   5   98.76    8.40
   5   1   5   90.48    8.78
   5   1   5   71.42    8.09
   5   1   5  100.38    9.18
  -5   1  -5   95.65    8.84
   5   1   6   90.18    8.32
   5   1   6   83.11    8.33
  -5   1  -6   81.96    8.23
   5   1   6   69.15    7.91
   5   1   7   27.35    4.01
   5   1   7   29.68    4.49
   5   1   7   28.39    5.00
   5   1   7   31.66    5.02
  -5   1  -7   24.11    4.66
   5   1   8   40.16    4.24
   5   1   8   35.32    5.35
   5   1   8   44.35    5.81
  -5   1  -8   43.11    5.83
   5   1   8   51.40    6.30
   5   1   9  170.35    9.08
   5   1   9  206.59   12.31
   5   1  10   67.45    6.26
   5   1  11    6.07    1.79
   5   2 -11    9.29    2.06
   5   2 -10   26.07    3.74
   5   2  -9  192.02   11.18
   5   2  -9  206.54   11.94
  -5   2   8   43.21    5.31
   5   2  -8   34.95    4.97
   5   2  -7   62.10    6.99
  -5   2   7   65.42    6.14
   5   2  -7   67.77    7.17
   5   2  -6    9.46    2.90
  -5   2   6   11.49    2.78
   5   2  -6    6.80    2.75
   5   2  -5  161.60   11.65
   5   2  -5  163.18   12.15
  -5   2   5  161.19   10.61
  -5   2   4  209.27   14.86
   5   2  -4  197.48   13.59
   5   2  -4  198.13   12.76
   5   2  -4  204.29   13.98
  -5   2   4  189.38   11.91
   5   2  -4  197.89   13.05
   5   2  -4  204.94   14.25
  -5   2   3  164.84   13.00
   5   2  -3  170.07   12.33
   5   2  -3  154.68   10.85
   5   2  -3  143.60   11.69
   5   2  -3  169.49   11.79
  -5   2   3  160.19   10.97
   5   2  -3  174.60   12.98
  -5   2   2  595.36   26.40
   5   2  -2  573.00   25.50
   5   2  -2  534.38   23.81
   5   2  -2  552.88   24.54
   5   2  -2  581.82   25.61
   5   2  -2  549.62   23.71
  -5   2   2  624.19   24.48
   5   2  -2  545.65   25.65
  -5   2   1  201.00   13.57
   5   2  -1  188.08   13.19
   5   2  -1  192.44   13.02
   5   2  -1  180.62   12.78
   5   2  -1  182.28   11.80
  -5   2   1  187.51   12.34
   5   2  -1  187.25   13.54
   5   2   0  161.47   12.04
   5   2   0  167.34   12.24
  -5   2   0  157.67   11.48
   5   2   0  149.19   10.96
   5   2   0  160.06   11.96
   5   2   0  144.68   10.10
  -5   2   0  172.59   11.75
   5   2   0  152.34   12.24
   5   2   1  343.16   18.08
   5   2   1  352.90   18.78
  -5   2  -1  334.11   17.30
  -5   2  -1  305.51   16.27
   5   2   1  323.40   17.37
   5   2   1  312.63   17.65
   5   2   1  319.28   15.46
   5   2   1  296.43   17.65
   5   2   2  251.31   15.08
   5   2   2  237.98   15.41
   5   2   2  266.59   14.28
  -5   2  -2  275.27   15.54
   5   2   2  253.53   15.53
   5   2   2  246.90   15.64
   5   2   3  218.41   13.58
   5   2   3  252.91   15.17
   5   2   3  226.43   13.19
  -5   2  -3  233.08   14.25
   5   2   3  208.78   14.17
  -5   2  -3  220.18   12.96
   5   2   3  208.40   14.08
   5   2   4   23.44    4.65
   5   2   4   29.29    4.56
   5   2   4   24.40    4.68
  -5   2  -4   26.11    4.24
   5   2   5   69.62    6.74
   5   2   5   68.77    7.47
   5   2   5   68.46    7.11
   5   2   5   56.87    6.96
  -5   2  -5   70.66    7.05
   5   2   6   84.53    7.15
   5   2   6   94.63    8.24
   5   2   6  108.23    9.37
  -5   2  -6   98.63    8.40
   5   2   7   58.07    5.29
   5   2   7   63.37    7.16
   5   2   7   59.09    6.20
  -5   2  -7   67.99    6.74
   5   2   8   70.69    4.76
   5   2   8   77.53    6.35
   5   2   8   71.29    7.23
   5   2   9   25.74    4.09
   5   2   9   21.15    2.67
   5   2   9   19.01    3.61
   5   2  10   48.19    4.91
   5   2  11   34.01    3.38
   5   3 -11    2.33    0.83
   5   3 -10   33.19    3.64
   5   3 -10   28.89    3.25
   5   3  -9   33.69    4.38
   5   3  -9   35.07    4.12
   5   3  -8    4.46    1.85
   5   3  -8    5.26    2.12
   5   3  -7  110.55    8.54
  -5   3   7   91.70    7.66
  -5   3   7   97.30    8.48
   5   3  -7  112.76    9.18
   5   3  -7   91.65    7.75
   5   3  -6   72.67    7.29
  -5   3   6   60.81    6.34
   5   3  -6   67.57    7.37
   5   3  -6   56.29    6.12
   5   3  -5   63.79    7.16
  -5   3   5   69.57    6.86
   5   3  -5   63.07    7.34
   5   3  -5   76.32    7.09
   5   3  -4   -0.57    1.58
   5   3  -4   -0.44    1.73
  -5   3   4    0.54    1.06
  -5   3   4    0.44    1.24
   5   3  -4    0.59    1.50
   5   3  -3  145.52   11.34
   5   3  -3  146.68   11.21
   5   3  -3  140.83   11.31
   5   3  -3  133.42    9.44
   5   3  -3  145.55   11.88
  -5   3   3  143.54   11.00
   5   3  -2    0.58    1.88
  -5   3   2    0.64    1.64
   5   3  -2    0.39    1.27
  -5   3   2    1.10    1.66
   5   3  -2   -0.58    1.86
   5   3  -2    1.78    1.79
   5   3  -2    0.64    1.45
  -5   3   1  289.60   17.07
   5   3  -1  298.57   16.67
   5   3  -1  276.91   16.29
  -5   3   1  285.86   16.40
   5   3  -1  283.73   16.58
   5   3  -1  272.46   13.40
   5   3  -1  293.66   17.33
   5   3   0   99.27    9.05
   5   3   0   83.49    8.59
   5   3   0   87.30    8.27
   5   3   0   93.32    9.02
   5   3   0   89.96    9.04
   5   3   1   14.55    3.55
   5   3   1   17.25    3.97
   5   3   1   11.15    3.50
  -5   3  -1   14.35    3.23
   5   3   1   15.15    3.74
   5   3   2   73.29    7.52
   5   3   2   78.53    8.30
  -5   3  -2   69.75    7.24
   5   3   2   57.50    7.03
   5   3   2   70.29    7.83
   5   3   2   67.53    7.63
  -5   3  -3    7.89    2.55
   5   3   3    6.89    2.78
   5   3   3    6.83    2.76
   5   3   3    6.68    2.77
  -5   3  -3    6.30    2.06
   5   3   4  283.69   14.71
   5   3   4  311.53   16.72
   5   3   4  299.90   16.75
  -5   3  -4  315.17   16.47
  -5   3  -4  286.70   15.15
   5   3   5  132.93    9.00
   5   3   5  161.89   11.14
   5   3   5  130.71   10.58
  -5   3  -5  154.86   10.80
  -5   3  -5  146.17   10.10
   5   3   6    2.02    1.32
   5   3   6    4.43    2.15
   5   3   6    0.50    1.62
  -5   3  -6    3.27    1.84
   5   3   7   27.38    4.39
   5   3   8   61.04    5.11
   5   3   8   65.82    6.44
   5   3   9  304.09   10.66
   5   3   9  433.66   16.33
   5   3  10  250.84   10.80
   5   4 -10   27.09    2.81
   5   4  -9    9.37    2.11
   5   4  -8   49.55    4.82
   5   4  -8   47.84    5.14
   5   4  -8   40.68    3.51
   5   4  -7   29.98    4.24
   5   4  -7   32.39    4.54
   5   4  -7   30.14    3.34
   5   4  -6   21.08    3.89
   5   4  -6   16.79    2.60
   5   4  -6   20.82    3.88
   5   4  -5   38.67    5.46
  -5   4   5   32.68    4.72
   5   4  -5   43.46    5.52
   5   4  -5   33.39    5.10
   5   4  -4  112.48    9.39
  -5   4   4   89.37    7.93
   5   4  -4   94.06    8.57
   5   4  -4   96.72    8.76
   5   4  -3  103.53    9.03
  -5   4   3   75.36    7.08
   5   4  -3   88.01    8.42
   5   4  -3   84.35    8.26
   5   4  -2   11.28    3.26
   5   4  -2   14.43    3.70
   5   4  -1    2.11    2.00
  -5   4   1    4.05    1.98
   5   4  -1    2.25    2.23
   5   4   0   19.30    3.95
   5   4   0   17.96    3.76
   5   4   0   17.97    3.97
   5   4   1   42.61    5.64
   5   4   1   46.09    6.39
  -5   4  -1   55.12    6.28
   5   4   1   57.34    6.82
   5   4   2   22.49    3.90
   5   4   2   24.26    4.69
  -5   4  -2   15.11    3.40
   5   4   2   23.46    4.45
   5   4   2   25.55    4.65
   5   4   3   70.69    6.56
   5   4   3   96.60    8.71
   5   4   3   91.09    8.54
   5   4   3   75.52    7.60
   5   4   4   97.11    7.17
   5   4   4  115.29    9.23
   5   4   4  104.05    9.10
  -5   4  -4  110.37    8.77
   5   4   5   17.06    2.60
   5   4   5   29.36    4.39
  -5   4  -5   31.42    4.71
   5   4   5   18.26    3.91
   5   4   6   12.56    2.81
   5   4   6    8.68    2.68
   5   4   7   51.07    4.77
   5   4   7   54.05    5.65
   5   4   8   59.21    4.04
   5   4   9    7.28    1.77
   5   5  -8   32.68    3.38
   5   5  -8   29.06    3.29
   5   5  -7    4.74    1.69
   5   5  -7    3.32    1.58
   5   5  -6   58.65    5.69
   5   5  -6   52.19    5.25
   5   5  -5   25.82    4.09
   5   5  -5   21.33    3.65
   5   5  -5   34.27    4.46
   5   5  -4   85.93    7.41
   5   5  -4   74.89    7.08
   5   5  -4   62.70    6.35
   5   5  -3  111.82    8.80
   5   5  -3  106.88    8.87
   5   5  -2   96.71    8.10
   5   5  -2  104.17    8.90
   5   5  -1  173.25   11.02
   5   5  -1  165.85   11.44
   5   5   0   38.81    5.36
   5   5   1  102.37    7.86
   5   5   1  113.27    9.34
   5   5   1  113.17    9.00
   5   5   1  115.91    9.11
   5   5   2  141.62    8.68
   5   5   2  166.21   11.01
   5   5   2  136.80   10.06
   5   5   2  127.92    9.66
   5   5   3  144.09    8.00
   5   5   3  168.90   10.85
   5   5   3  142.93   10.16
   5   5   4   13.13    2.92
   5   5   4   15.71    3.44
   5   5   5   53.08    5.22
   5   5   5   55.12    5.74
   5   5   6   71.19    6.15
   5   5   7   13.94    1.90
   5   5   7   17.78    2.85
   5   6  -7   49.38    3.58
   5   6  -6   57.88    4.48
   5   6  -6   58.00    4.39
   5   6  -5   14.46    2.49
   5   6  -5   14.60    2.53
   5   6  -4   12.65    2.53
   5   6  -4   14.57    2.72
   5   6  -3   60.87    5.36
   5   6  -3   68.68    6.04
   5   6  -2  204.94   10.85
   5   6  -2  192.82   10.98
   5   6  -1  114.68    7.32
   5   6  -1  109.59    8.03
   5   6   0   19.65    2.85
   5   6   0   19.78    3.44
   5   6   0   19.69    3.37
   5   6   1    6.53    1.48
   5   6   1    9.23    2.42
   5   6   1    6.86    2.22
   5   6   1    4.38    1.68
   5   6   2   84.37    6.74
   5   6   2   76.12    6.56
   5   6   3   41.74    4.49
   5   6   3   43.27    4.75
   5   6   4  115.21    7.10
   5   6   4  110.68    7.34
   5   6   5    5.10    1.60
   5   6   6    5.46    1.46
   5   7  -4    1.32    0.73
   5   7  -3   12.02    1.96
   5   7  -2  112.80    5.92
   5   7  -2  137.12    6.78
   5   7  -1   56.75    4.27
   5   7  -1   63.25    4.43
   5   7   0    2.58    1.13
   5   7   1    2.52    1.15
   5   7   1    1.62    0.87
   5   7   2   20.96    2.54
   5   7   2   25.19    2.69
   5   7   3   21.14    2.21
   5   7   3   26.73    2.60
   6  -5  -4    5.02    1.07
   6  -5  -4    5.98    1.21
  -6  -5   4    6.61    1.30
   6  -5  -3    7.21    1.45
   6  -5  -3    6.79    1.40
  -6  -5   3    6.17    1.42
   6  -5  -2   23.22    2.53
   6  -5  -2   24.03    2.48
   6  -5  -1  195.27    7.98
  -6  -5   1  156.81    7.02
   6  -5   0   27.07    2.59
  -6  -5   0   18.85    2.58
  -6  -5  -1    3.36    1.22
  -6  -5  -2    2.02    0.88
  -6  -4   6   27.68    2.93
   6  -4  -5    8.40    1.58
   6  -4  -5    8.49    1.82
  -6  -4   5    8.59    1.87
   6  -4  -4   11.08    2.13
   6  -4  -4   11.35    2.18
  -6  -4   4   10.22    2.14
   6  -4  -3   83.08    5.86
   6  -4  -3   81.76    5.90
   6  -4  -2   84.20    6.08
   6  -4  -2   89.72    6.20
  -6  -4   2   79.90    5.65
   6  -4  -1   85.90    6.11
  -6  -4   1   70.76    4.97
  -6  -4   1   77.36    5.55
   6  -4   0   12.12    2.37
  -6  -4   0    8.59    1.83
   6  -4   1   38.03    3.88
  -6  -4  -4   14.03    1.82
  -6  -4  -6   13.98    1.68
  -6  -3   8   15.24    1.94
   6  -3  -6    2.33    0.95
   6  -3  -5   10.83    2.36
   6  -3  -4    4.01    1.67
   6  -3  -4    7.64    2.18
   6  -3  -3   21.85    3.44
   6  -3  -3   21.56    3.37
   6  -3  -2  231.74   11.83
   6  -3  -2  219.71   11.45
   6  -3  -1  202.39   10.78
  -6  -3   1  155.28    8.92
  -6  -3   0   61.85    4.76
  -6  -3   0   74.49    5.51
   6  -3   1    4.63    1.89
   6  -3   2   25.15    3.35
   6  -3   2   21.16    3.21
   6  -3   2   19.89    3.37
   6  -3   3    2.25    1.33
   6  -3   3    1.52    1.25
  -6  -3  -4    7.63    1.62
   6  -3   4    7.99    1.93
   6  -3   5    2.78    1.35
   6  -3   6   13.56    2.09
   6  -2  -8   30.57    2.93
   6  -2  -7   16.96    2.61
   6  -2  -6   16.35    2.19
   6  -2  -6   16.95    2.90
  -6  -2   6   12.60    2.60
   6  -2  -5   66.67    5.21
  -6  -2   5   62.14    5.68
   6  -2  -5   73.02    6.29
   6  -2  -4  177.03   10.24
   6  -2  -4  192.51   10.82
   6  -2  -3   36.61    4.59
   6  -2  -3   41.03    4.99
   6  -2  -3   46.14    5.27
   6  -2  -2  320.21   15.09
   6  -2  -2  315.35   15.15
  -6  -2   2  318.60   15.91
   6  -2  -2  346.27   15.97
   6  -2  -1  183.63   10.76
   6  -2  -1  165.67   10.19
  -6  -2   1  169.40   11.25
   6  -2   0  124.98    8.40
   6  -2   0  125.69    8.85
  -6  -2   0  122.37    9.48
   6  -2   1  104.12    7.69
   6  -2   1  113.48    8.29
  -6  -2  -1  100.13    8.54
   6  -2   2    6.10    2.13
   6  -2   2    4.07    1.89
   6  -2   3   53.32    5.33
   6  -2   3   48.11    5.21
   6  -2   4   40.63    4.41
   6  -2   4   36.42    4.37
  -6  -2  -4   30.92    3.10
   6  -2   5   44.33    4.45
   6  -2   5   40.72    4.36
   6  -2   6   -1.04    1.03
   6  -2   7   20.41    2.62
  -6  -2  -7   17.34    2.07
   6  -1  -9   31.79    2.80
   6  -1  -8  104.45    6.37
   6  -1  -7   27.46    3.59
  -6  -1   6   65.97    6.32
   6  -1  -6  101.42    7.43
   6  -1  -5   83.74    5.89
  -6  -1   5   83.09    7.16
   6  -1  -4   19.05    3.67
   6  -1  -4   16.87    2.91
  -6  -1   4   18.51    3.32
  -6  -1   4   16.00    3.52
  -6  -1   3  168.92   10.07
   6  -1  -3  222.21   12.48
   6  -1  -2   39.70    4.84
  -6  -1   2   41.73    5.28
   6  -1  -2   47.02    5.71
  -6  -1   2   31.54    4.98
   6  -1  -1  222.29   12.06
   6  -1  -1  209.00   11.96
   6  -1  -1  235.68   13.02
  -6  -1   1  191.29   12.24
   6  -1   0   90.07    7.48
   6  -1   0   91.81    7.63
  -6  -1   0   96.73    8.36
  -6  -1   0   71.86    6.96
  -6  -1   0   76.08    7.22
   6  -1   1   20.44    3.62
   6  -1   1   21.00    3.72
  -6  -1  -1   20.69    3.84
   6  -1   2   22.07    3.81
   6  -1   2   22.26    3.83
  -6  -1  -2   21.72    4.05
   6  -1   3   85.87    7.17
   6  -1   3   90.94    7.47
   6  -1   4   49.38    5.17
   6  -1   4   46.07    5.23
   6  -1   5  145.51    8.73
   6  -1   5  148.07    9.06
   6  -1   6   78.92    5.75
   6  -1   6   78.07    6.01
   6  -1   7   29.02    3.26
   6   0  -9   14.08    2.05
   6   0  -8    1.53    1.16
   6   0  -7   10.85    2.48
  -6   0   6   30.02    4.38
   6   0  -6   44.80    4.96
   6   0  -5    0.40    1.45
  -6   0   5    2.80    1.71
   6   0  -4    4.23    1.99
  -6   0   4    0.99    1.69
   6   0  -3    3.90    2.10
  -6   0   3    3.72    1.75
   6   0  -2  293.60   14.68
  -6   0   2  315.94   15.18
   6   0  -2  320.44   15.66
  -6   0   2  287.24   15.71
   6   0  -1  414.45   18.36
  -6   0   1  414.65   18.59
   6   0  -1  425.46   18.38
   6   0   0    4.36    1.93
   6   0   1    3.90    1.85
   6   0   1    7.30    2.40
  -6   0  -1    5.59    2.03
   6   0   2   12.17    2.96
   6   0   2    6.95    2.28
  -6   0  -2    6.32    2.31
   6   0   3    3.56    1.75
   6   0   3    2.96    1.87
   6   0   4  262.50   13.04
   6   0   4  246.69   13.12
   6   0   5   83.57    6.42
   6   0   5   87.91    6.96
   6   0   6   27.98    3.45
   6   0   6   28.51    3.72
   6   0   7   26.95    3.26
   6   1  -9   26.35    2.52
   6   1  -8   81.10    5.49
   6   1  -7   23.32    3.26
   6   1  -6   95.04    7.06
   6   1  -5  112.39    8.04
   6   1  -4   19.87    3.43
   6   1  -3  198.07   11.51
   6   1  -2   43.64    5.32
   6   1  -2   41.82    4.95
  -6   1   2   38.31    5.19
   6   1  -1  221.10   12.81
   6   1  -1  226.97   12.09
   6   1   0   82.18    7.36
   6   1   0   73.45    6.99
   6   1   1   23.79    4.03
   6   1   1   16.12    3.51
   6   1   2   19.00    3.47
   6   1   2   23.57    3.95
   6   1   3   95.77    7.52
   6   1   3   73.34    6.88
   6   1   4   44.56    4.77
   6   1   4   40.02    4.90
   6   1   5  140.83    8.33
   6   1   5  138.99    8.86
   6   1   6   87.59    6.37
   6   1   7   30.50    2.66
   6   1   7   39.55    3.62
   6   1   8    7.79    1.22
   6   2  -8   24.43    2.31
   6   2  -7   16.84    2.34
   6   2  -6   17.56    2.68
   6   2  -5   64.54    5.65
   6   2  -5   74.23    5.67
   6   2  -4  171.90   10.19
   6   2  -4  176.43    9.39
   6   2  -3   42.03    5.02
   6   2  -3   43.66    4.41
   6   2  -2  356.71   16.40
   6   2  -2  327.43   13.90
   6   2  -1  176.62   11.11
   6   2   0  139.64    9.63
   6   2   0  134.12    9.30
   6   2   1  101.91    8.00
   6   2   1  104.42    8.23
   6   2   2    5.68    2.07
   6   2   2    4.16    2.02
   6   2   3   49.65    5.09
   6   2   3   61.20    6.00
   6   2   4   36.82    4.64
   6   2   5   35.02    3.57
   6   2   5   40.35    4.44
   6   2   6   -0.15    0.68
   6   2   6    0.77    0.92
   6   3  -6    5.21    1.49
   6   3  -5    5.05    1.73
   6   3  -4    4.91    1.76
   6   3  -3   16.05    3.09
   6   3  -2  239.16   12.48
   6   3  -1  183.56   10.71
   6   3   0   90.66    7.15
   6   3   0   82.85    6.92
   6   3   1    4.83    1.81
   6   3   1    4.52    1.87
   6   3   2   22.85    3.32
   6   3   2   21.80    3.54
   6   3   3    0.35    1.31
   6   3   4    8.68    1.74
   6   3   4   10.90    2.42
   6   3   5    3.95    1.02
   6   3   5    5.99    1.81
   6   3   6    8.86    1.76
   6   4  -6   27.92    2.59
   6   4  -5   10.20    1.91
   6   4  -4   14.31    2.41
   6   4  -3   95.53    6.56
   6   4  -2   80.43    6.11
   6   4  -1   84.66    6.23
   6   4   0    9.96    2.09
   6   4   0   12.78    2.53
   6   4   1   50.74    4.88
   6   4   2   11.31    1.99
   6   4   2   15.89    2.66
   6   4   3   11.45    1.73
   6   4   3   12.12    2.36
   6   4   4   13.77    2.33
   6   4   5   48.37    3.67
   6   5  -4    5.38    1.12
   6   5  -3    6.54    1.39
   6   5  -2   23.14    2.55
   6   5   0   20.97    2.18
   6   5   0   24.38    2.73
   6   5   1    6.11    1.46
   6   5   2    1.85    0.90
   6   5   3    4.35    1.15
   7   0   0    0.53    0.57
   7   0   1    0.53    0.55
   7   0   2    8.96    1.31
   7   1  -1   39.04    2.80
   7   1   0   10.31    1.48
   7   1   1   49.33    3.23


TITL ca121118_1_1 in P2(1)
REM P2(1) (#4 in standard setting)
CELL 1.54184   5.559615   8.225701  13.549101  90.0000  91.2759  90.0000
ZERR    2.00   0.000045   0.000049   0.000084   0.0000   0.0007   0.0000
LATT -1
SYMM -x, y+1/2,-z
SFAC C H N
UNIT 30.00 28.00 8.00
TREF
HKLF 4
END
_computing_structure_solution     'SHELXT 2014/4 (Sheldrick, 2014)'
;
_shelx_hkl_checksum              13835
_olex2_date_sample_data_collection 2018-11-12
_olex2_date_sample_submission    2018-11-12
_olex2_submission_original_sample_id ca121118_1_1
_olex2_submission_special_instructions 'No special instructions were received'
_oxdiff_exptl_absorpt_empirical_details
;
Empirical correction (ABSPACK) includes:
- Absorption correction using spherical harmonics
- Frame scaling
- Detector area scaling
;
_oxdiff_exptl_absorpt_empirical_full_max 1.236
_oxdiff_exptl_absorpt_empirical_full_min 0.814
loop_
_space_group_symop_operation_xyz
'x, y, z'
'-x, y+1/2, -z'
loop_
_atom_site_label
_atom_site_type_symbol
_atom_site_fract_x
_atom_site_fract_y
_atom_site_fract_z
_atom_site_U_iso_or_equiv
_atom_site_adp_type
_atom_site_occupancy
_atom_site_site_symmetry_order
_atom_site_calc_flag
_atom_site_refinement_flags_posn
N1 N 0.3270(3) 0.58058(17) 0.89628(10) 0.0181(3) Uani 1 1 d .
N2 N 0.1780(3) 0.44142(17) 0.89953(10) 0.0195(3) Uani 1 1 d D
H2 H 0.195(4) 0.400(2) 0.9634(13) 0.023 Uiso 1 1 d DR
N3 N 0.6236(3) 0.75354(18) 0.91577(11) 0.0238(3) Uani 1 1 d .
N4 N 0.4225(3) 0.83745(18) 0.87890(11) 0.0233(3) Uani 1 1 d .
C1 C 0.3475(3) 0.3634(2) 0.55055(12) 0.0190(3) Uani 1 1 d .
C2 C 0.2496(3) 0.7309(2) 0.86886(12) 0.0223(3) Uani 1 1 d .
H2A H 0.0912 0.7552 0.8456 0.027 Uiso 1 1 calc R
C3 C 0.1393(3) 0.45155(19) 0.51984(12) 0.0197(3) Uani 1 1 d .
C4 C 0.3841(3) 0.32913(19) 0.65259(12) 0.0188(3) Uani 1 1 d .
H4 H 0.5244 0.2718 0.6738 0.023 Uiso 1 1 calc R
C5 C 0.2206(3) 0.37745(18) 0.72098(12) 0.0183(3) Uani 1 1 d .
C6 C 0.0149(3) 0.4676(2) 0.68997(12) 0.0206(3) Uani 1 1 d .
H6 H -0.0975 0.5022 0.7374 0.025 Uiso 1 1 calc R
C7 C 0.1012(3) 0.4834(2) 0.41749(13) 0.0238(4) Uani 1 1 d .
H7 H -0.0370 0.5424 0.3958 0.029 Uiso 1 1 calc R
C8 C -0.0232(3) 0.5053(2) 0.59242(13) 0.0215(4) Uani 1 1 d .
H8 H -0.1598 0.5680 0.5731 0.026 Uiso 1 1 calc R
C9 C 0.5116(3) 0.3106(2) 0.47880(13) 0.0233(4) Uani 1 1 d .
H9 H 0.6522 0.2527 0.4988 0.028 Uiso 1 1 calc R
C10 C 0.2486(3) 0.3176(2) 0.82690(12) 0.0191(3) Uani 1 1 d .
H10 H 0.4198 0.2856 0.8400 0.023 Uiso 1 1 calc R
C11 C 0.0887(3) 0.1701(2) 0.83822(12) 0.0218(4) Uani 1 1 d .
H11 H 0.1374 0.0734 0.8059 0.026 Uiso 1 1 calc R
C12 C 0.4691(3) 0.3426(2) 0.38075(13) 0.0258(4) Uani 1 1 d .
H12 H 0.5798 0.3059 0.3332 0.031 Uiso 1 1 calc R
C13 C 0.5598(3) 0.6011(2) 0.92532(14) 0.0238(4) Uani 1 1 d .
H13 H 0.6624 0.5169 0.9493 0.029 Uiso 1 1 calc R
C14 C -0.1112(3) 0.1624(2) 0.88846(13) 0.0242(4) Uani 1 1 d .
H14A H -0.1675 0.2558 0.9221 0.029 Uiso 1 1 calc R
H14B H -0.1989 0.0635 0.8910 0.029 Uiso 1 1 calc R
C15 C 0.2630(4) 0.4293(2) 0.34990(13) 0.0260(4) Uani 1 1 d .
H15 H 0.2355 0.4506 0.2817 0.031 Uiso 1 1 calc R
loop_
_atom_site_aniso_label
_atom_site_aniso_U_11
_atom_site_aniso_U_22
_atom_site_aniso_U_33
_atom_site_aniso_U_23
_atom_site_aniso_U_13
_atom_site_aniso_U_12
N1 0.0212(7) 0.0154(6) 0.0177(6) 0.0001(5) 0.0002(5) -0.0016(6)
N2 0.0249(7) 0.0152(6) 0.0183(6) 0.0000(5) 0.0014(5) -0.0037(5)
N3 0.0247(8) 0.0202(7) 0.0263(7) -0.0002(6) -0.0028(6) -0.0013(6)
N4 0.0265(8) 0.0189(7) 0.0245(7) 0.0011(6) -0.0004(6) -0.0005(6)
C1 0.0213(8) 0.0150(7) 0.0207(8) -0.0011(6) 0.0003(6) -0.0017(6)
C2 0.0250(9) 0.0182(8) 0.0237(8) 0.0011(6) -0.0005(7) 0.0014(7)
C3 0.0207(8) 0.0173(8) 0.0211(8) 0.0002(6) -0.0001(6) -0.0022(7)
C4 0.0187(8) 0.0152(8) 0.0223(8) -0.0004(6) -0.0016(6) 0.0008(6)
C5 0.0212(8) 0.0145(7) 0.0193(8) -0.0004(6) -0.0008(6) -0.0021(6)
C6 0.0202(8) 0.0203(8) 0.0215(8) -0.0009(6) 0.0023(6) 0.0014(7)
C7 0.0270(9) 0.0215(9) 0.0226(8) 0.0026(7) -0.0027(7) -0.0017(7)
C8 0.0208(8) 0.0195(8) 0.0240(8) -0.0003(7) -0.0020(7) 0.0023(6)
C9 0.0234(9) 0.0219(8) 0.0248(9) -0.0013(7) 0.0027(7) 0.0000(7)
C10 0.0205(8) 0.0177(8) 0.0191(8) -0.0004(6) -0.0009(6) 0.0021(6)
C11 0.0309(10) 0.0147(7) 0.0198(8) 0.0007(6) -0.0029(7) 0.0000(7)
C12 0.0278(9) 0.0265(9) 0.0232(8) -0.0032(7) 0.0058(7) -0.0026(7)
C13 0.0242(9) 0.0192(8) 0.0279(9) 0.0004(7) -0.0036(7) -0.0003(7)
C14 0.0329(10) 0.0182(8) 0.0216(8) 0.0008(7) -0.0003(7) -0.0062(7)
C15 0.0321(10) 0.0259(9) 0.0200(8) 0.0028(7) 0.0003(7) -0.0049(7)
loop_
_atom_type_symbol
_atom_type_description
_atom_type_scat_dispersion_real
_atom_type_scat_dispersion_imag
_atom_type_scat_source
C C 0.0181 0.0091 'International Tables Vol C Tables 4.2.6.8 and 6.1.1.4'
H H 0.0000 0.0000 'International Tables Vol C Tables 4.2.6.8 and 6.1.1.4'
N N 0.0311 0.0180 'International Tables Vol C Tables 4.2.6.8 and 6.1.1.4'
loop_
_exptl_crystal_face_index_h
_exptl_crystal_face_index_k
_exptl_crystal_face_index_l
_exptl_crystal_face_perp_dist
3 2 0 0.0670
-1 5 0 0.0719
-2 4 0 0.0761
-4 -1 0 0.0888
0 -5 0 0.0570
0 0 -9 0.0243
0 0 9 0.0216
-3 2 -3 0.0871
2 3 -6 0.0586
0 -4 6 0.0476
3 -1 -2 0.0809
3 1 -5 0.0621
3 1 -2 0.0654
2 4 -3 0.0635
0 -4 -5 0.0470
-3 -1 -4 0.0834
0 -1 -9 0.0198
3 3 -4 0.0564
-2 4 -4 0.0645
-1 5 2 0.0664
4 0 1 0.0757
0 4 6 0.0440
loop_
_geom_angle_atom_site_label_1
_geom_angle_atom_site_label_2
_geom_angle_atom_site_label_3
_geom_angle
C2 N1 N2 124.25(14)
C13 N1 N2 130.44(14)
C13 N1 C2 105.10(14)
N1 N2 H2 106.1(13)
N1 N2 C10 111.91(13)
C10 N2 H2 110.0(13)
C13 N3 N4 106.99(14)
C2 N4 N3 106.68(14)
C3 C1 C4 118.98(15)
C9 C1 C3 119.25(15)
C9 C1 C4 121.76(16)
N1 C2 H2A 124.6
N4 C2 N1 110.76(15)
N4 C2 H2A 124.6
C1 C3 C7 118.84(15)
C1 C3 C8 118.87(14)
C8 C3 C7 122.29(16)
C1 C4 H4 119.4
C5 C4 C1 121.12(15)
C5 C4 H4 119.4
C4 C5 C6 119.57(15)
C4 C5 C10 119.20(15)
C6 C5 C10 120.89(14)
C5 C6 H6 119.6
C8 C6 C5 120.71(16)
C8 C6 H6 119.6
C3 C7 H7 119.8
C15 C7 C3 120.36(17)
C15 C7 H7 119.8
C3 C8 H8 119.7
C6 C8 C3 120.68(16)
C6 C8 H8 119.7
C1 C9 H9 119.8
C12 C9 C1 120.46(17)
C12 C9 H9 119.8
N2 C10 C5 112.48(13)
N2 C10 H10 109.3
N2 C10 C11 108.67(13)
C5 C10 H10 109.3
C11 C10 C5 107.88(13)
C11 C10 H10 109.3
C10 C11 H11 116.8
C14 C11 C10 126.49(16)
C14 C11 H11 116.8
C9 C12 H12 119.7
C9 C12 C15 120.55(17)
C15 C12 H12 119.7
N1 C13 H13 124.8
N3 C13 N1 110.46(16)
N3 C13 H13 124.8
C11 C14 H14A 120.0
C11 C14 H14B 120.0
H14A C14 H14B 120.0
C7 C15 C12 120.54(16)
C7 C15 H15 119.7
C12 C15 H15 119.7
loop_
_geom_bond_atom_site_label_1
_geom_bond_atom_site_label_2
_geom_bond_distance
N1 N2 1.4146(19)
N1 C2 1.359(2)
N1 C13 1.355(2)
N2 H2 0.934(18)
N2 C10 1.476(2)
N3 N4 1.397(2)
N3 C13 1.310(2)
N4 C2 1.306(2)
C1 C3 1.420(2)
C1 C4 1.421(2)
C1 C9 1.416(2)
C2 H2A 0.9500
C3 C7 1.422(2)
C3 C8 1.421(2)
C4 H4 0.9500
C4 C5 1.372(2)
C5 C6 1.418(2)
C5 C10 1.522(2)
C6 H6 0.9500
C6 C8 1.370(2)
C7 H7 0.9500
C7 C15 1.372(3)
C8 H8 0.9500
C9 H9 0.9500
C9 C12 1.370(3)
C10 H10 1.0000
C10 C11 1.514(2)
C11 H11 0.9500
C11 C14 1.318(3)
C12 H12 0.9500
C12 C15 1.405(3)
C13 H13 0.9500
C14 H14A 0.9500
C14 H14B 0.9500
C15 H15 0.9500
loop_
_exptl_oxdiff_crystal_face_indexfrac_h
_exptl_oxdiff_crystal_face_indexfrac_k
_exptl_oxdiff_crystal_face_indexfrac_l
_exptl_oxdiff_crystal_face_x
_exptl_oxdiff_crystal_face_y
_exptl_oxdiff_crystal_face_z
3.0000 2.0000 -0.0000 0.0248 0.6501 0.6395
-1.0000 5.0000 0.0000 -0.0024 0.7726 -0.5975
-2.0000 4.0000 0.0000 -0.0110 0.4977 -0.7880
-4.0000 -1.0000 0.0000 -0.0313 -0.5758 -0.9657
0.0000 -5.0000 -0.0000 -0.0052 -0.8729 0.3391
-0.0000 0.0000 -9.0000 1.0218 -0.0235 -0.0457
0.0000 -0.0000 9.0000 -1.0218 0.0235 0.0457
-3.0000 2.0000 -3.0000 0.3200 0.0404 -0.9260
2.0000 3.0000 -6.0000 0.6995 0.7087 0.2828
0.0000 -4.0000 6.0000 -0.6854 -0.6827 0.3017
3.0000 -1.0000 -2.0000 0.2488 0.1211 0.8328
3.0000 1.0000 -5.0000 0.5915 0.4624 0.6819
3.0000 1.0000 -2.0000 0.2508 0.4703 0.6972
2.0000 4.0000 -3.0000 0.3599 0.8911 0.2302
-0.0000 -4.0000 -5.0000 0.5635 -0.7114 0.2459
-3.0000 -1.0000 -4.0000 0.4304 -0.4859 -0.7276
-0.0000 -1.0000 -9.0000 1.0208 -0.1981 0.0221
3.0000 3.0000 -4.0000 0.4800 0.8142 0.5514
-2.0000 4.0000 -4.0000 0.4431 0.4873 -0.8083
-1.0000 5.0000 2.0000 -0.2295 0.7779 -0.5873
4.0000 0.0000 1.0000 -0.0832 0.4038 1.0386
0.0000 4.0000 6.0000 -0.6771 0.7140 -0.2408
