#------------------------------------------------------------------------------
#$Date: 2019-11-03 15:03:01 +0200 (Sun, 03 Nov 2019) $
#$Revision: 221708 $
#$URL: file:///home/coder/svn-repositories/cod/cif/4/12/86/4128627.cif $
#------------------------------------------------------------------------------
#
# This file is available in the Crystallography Open Database (COD),
# http://www.crystallography.net/
#
# All data on this site have been placed in the public domain by the
# contributors.
#
data_4128627
loop_
_publ_author_name
'Sandmeier, Tobias'
'Goetzke, F. Wieland'
'Krautwald, Simon'
'Carreira, Erick M.'
_publ_section_title
;
 Iridium-Catalyzed Enantioselective Allylic Substitution with Aqueous
 Solutions of Nucleophiles.
;
_journal_issue                   31
_journal_name_full               'Journal of the American Chemical Society'
_journal_page_first              12212
_journal_page_last               12218
_journal_paper_doi               10.1021/jacs.9b05830
_journal_volume                  141
_journal_year                    2019
_chemical_absolute_configuration ad
_chemical_formula_moiety         'C15 H14 Cl2 O'
_chemical_formula_sum            'C15 H14 Cl2 O'
_chemical_formula_weight         281.16
_space_group_crystal_system      triclinic
_space_group_IT_number           1
_space_group_name_Hall           'P 1'
_space_group_name_H-M_alt        'P 1'
_atom_sites_solution_hydrogens   geom
_atom_sites_solution_primary     dual
_audit_creation_date             2018-03-08
_audit_creation_method
;
Olex2 1.2
(compiled 2017.08.10 svn.r3458 for OlexSys, GUI svn.r5381)
;
_cell_angle_alpha                83.978(6)
_cell_angle_beta                 88.299(7)
_cell_angle_gamma                88.260(6)
_cell_formula_units_Z            2
_cell_length_a                   5.8128(4)
_cell_length_b                   8.5698(6)
_cell_length_c                   13.4075(11)
_cell_measurement_reflns_used    1668
_cell_measurement_temperature    100.0(1)
_cell_measurement_theta_max      53.7360
_cell_measurement_theta_min      5.1970
_cell_volume                     663.66(9)
_computing_cell_refinement       'CrysAlisPro 1.171.39.31d (Rigaku OD, 2017)'
_computing_data_collection       'CrysAlisPro 1.171.39.31d (Rigaku OD, 2017)'
_computing_data_reduction        'CrysAlisPro 1.171.39.31d (Rigaku OD, 2017)'
_computing_molecular_graphics    'Olex2 (Dolomanov et al., 2009)'
_computing_publication_material  'Olex2 (Dolomanov et al., 2009)'
_computing_structure_refinement  'ShelXL (Sheldrick, 2015)'
_computing_structure_solution    'ShelXT (Sheldrick, 2015)'
_diffrn_ambient_environment      N~2~
_diffrn_ambient_temperature      100.0(1)
_diffrn_detector                 'CCD plate'
_diffrn_detector_type            'Pilatus 300K'
_diffrn_measured_fraction_theta_full 0.978
_diffrn_measured_fraction_theta_max 0.978
_diffrn_measurement_details
;
List of Runs (angles in degrees, time in seconds):

  # Type    Start    End  Width  t~exp~   \w     \q     \k     \f   Frames
--------------------------------------------------------------------------
  1  \w    -14.00  74.00   0.50    3.50    --   -1.09  38.00 -90.00  176
  2  \w     59.00 127.00   0.50    3.50    --   56.14 178.00  30.00  136
  3  \w    -69.00  -3.00   0.50    3.50    --  -58.32  19.00-120.00  132
  4  \w    -82.00   8.00   0.50    3.50    --  -58.32  77.00 -90.00  180
  5  \w    -82.00   8.00   0.50    3.50    --  -58.32  77.00-150.00  180
  6  \w    -82.00   8.00   0.50    3.50    --  -58.32  77.00  60.00  180
  7  \w    -82.00   8.00   0.50    3.50    --  -58.32  77.00 120.00  180
  8  \w   -120.00 -64.00   0.50    3.50    --  -58.32 -57.00  30.00  112
  9  \w   -130.00 -43.00   0.50    3.50    --  -58.32 -57.00  90.00  174
 10  \w   -128.00 -84.00   0.50    3.50    --  -58.32 -99.00 150.00   88
 11  \w     40.00 115.00   0.50    3.50    --   56.14-143.00  46.00  150
 12  \w     32.00 106.00   0.50    3.50    --   56.14-127.00-144.00  148
 13  \w   -128.00 -84.00   0.50    3.50    --  -58.32 -99.00-180.00   88
;
_diffrn_measurement_device       'four-circle diffractometer'
_diffrn_measurement_device_type  'XtaLAB Synergy, Dualflex, Pilatus 300K'
_diffrn_measurement_method       '\w scans'
_diffrn_orient_matrix_type
'CrysAlisPro convention (1999,Acta A55,543-557)'
_diffrn_orient_matrix_UB_11      -0.1629869000
_diffrn_orient_matrix_UB_12      0.1397439000
_diffrn_orient_matrix_UB_13      -0.0331086000
_diffrn_orient_matrix_UB_21      0.0691486000
_diffrn_orient_matrix_UB_22      -0.0147355000
_diffrn_orient_matrix_UB_23      -0.1105025000
_diffrn_orient_matrix_UB_31      -0.1975083000
_diffrn_orient_matrix_UB_32      -0.1138188000
_diffrn_orient_matrix_UB_33      -0.0072271000
_diffrn_radiation_monochromator  mirror
_diffrn_radiation_probe          x-ray
_diffrn_radiation_type           CuK\a
_diffrn_radiation_wavelength     1.54184
_diffrn_reflns_av_R_equivalents  0.0530
_diffrn_reflns_av_unetI/netI     0.0696
_diffrn_reflns_Laue_measured_fraction_full 0.978
_diffrn_reflns_Laue_measured_fraction_max 0.978
_diffrn_reflns_limit_h_max       5
_diffrn_reflns_limit_h_min       -6
_diffrn_reflns_limit_k_max       8
_diffrn_reflns_limit_k_min       -8
_diffrn_reflns_limit_l_max       14
_diffrn_reflns_limit_l_min       -14
_diffrn_reflns_number            4212
_diffrn_reflns_point_group_measured_fraction_full 0.659
_diffrn_reflns_point_group_measured_fraction_max 0.659
_diffrn_reflns_theta_full        54.071
_diffrn_reflns_theta_max         54.071
_diffrn_reflns_theta_min         3.316
_diffrn_source                   'micro-focus sealed X-ray tube'
_diffrn_source_type              'PhotonJet (Cu) X-ray Source'
_exptl_absorpt_coefficient_mu    4.262
_exptl_absorpt_correction_T_max  1.000
_exptl_absorpt_correction_T_min  0.613
_exptl_absorpt_correction_type   gaussian
_exptl_absorpt_process_details
;
CrysAlisPro 1.171.39.31d (Rigaku Oxford Diffraction, 2017)
Numerical absorption correction based on gaussian integration over
			a multifaceted crystal model
Empirical absorption correction using spherical harmonics,
 implemented in SCALE3 ABSPACK scaling algorithm.
;
_exptl_crystal_colour            'clear colourless'
_exptl_crystal_colour_lustre     clear
_exptl_crystal_colour_primary    colourless
_exptl_crystal_density_diffrn    1.407
_exptl_crystal_description       plate
_exptl_crystal_F_000             292
_exptl_crystal_size_max          0.135
_exptl_crystal_size_mid          0.057
_exptl_crystal_size_min          0.011
_refine_diff_density_max         0.675
_refine_diff_density_min         -0.432
_refine_diff_density_rms         0.100
_refine_ls_abs_structure_details
;
 Classical Flack method preferred over Parsons because s.u. lower.
;
_refine_ls_abs_structure_Flack   -0.02(5)
_refine_ls_extinction_method     none
_refine_ls_goodness_of_fit_ref   1.042
_refine_ls_hydrogen_treatment    constr
_refine_ls_matrix_type           full
_refine_ls_number_parameters     327
_refine_ls_number_reflns         2102
_refine_ls_number_restraints     3
_refine_ls_restrained_S_all      1.041
_refine_ls_R_factor_all          0.0802
_refine_ls_R_factor_gt           0.0712
_refine_ls_shift/su_max          0.000
_refine_ls_shift/su_mean         0.000
_refine_ls_structure_factor_coef Fsqd
_refine_ls_weighting_details
'w=1/[\s^2^(Fo^2^)+(0.1407P)^2^] where P=(Fo^2^+2Fc^2^)/3'
_refine_ls_weighting_scheme      calc
_refine_ls_wR_factor_gt          0.1782
_refine_ls_wR_factor_ref         0.1845
_reflns_Friedel_coverage         0.348
_reflns_Friedel_fraction_full    0.341
_reflns_Friedel_fraction_max     0.341
_reflns_number_gt                1806
_reflns_number_total             2102
_reflns_threshold_expression     'I > 2\s(I)'
_cod_data_source_file            ja9b05830_si_005.cif
_cod_data_source_block           ca060318_1_1
_cod_database_code               4128627
_shelx_shelxl_version_number     2016/6
_chemical_oxdiff_formula         C15H14Cl2O
_shelx_space_group_comment
;
The symmetry employed for this shelxl refinement is uniquely defined
by the following loop, which should always be used as a source of
symmetry information in preference to the above space-group names.
They are only intended as comments.
;
_reflns_odcompleteness_completeness 100.00
_reflns_odcompleteness_iscentric 1
_reflns_odcompleteness_theta     50.38
_olex2_refinement_description
;
1. Fixed Uiso
 At 1.2 times of:
  All C(H) groups, All C(H,H) groups
 At 1.5 times of:
  All O(H) groups
2.a Ternary CH refined with riding coordinates:
 C3B(H3B), C3A(H3A)
2.b Secondary CH2 refined with riding coordinates:
 C1B(H1BA,H1BB), C1A(H1AA,H1AB)
2.c Aromatic/amide H refined with riding coordinates:
 C15B(H15B), C8A(H8A), C4B(H4B), C10A(H10A), C15A(H15A), C7B(H7B), C7A(H7A),
 C13B(H13B), C8B(H8B), C13A(H13A), C11B(H11B), C4A(H4A), C11A(H11A), C10B(H10B),
  C12B(H12B), C12A(H12A)
2.d X=CH2 refined with riding coordinates:
 C5A(H5AA,H5AB), C5B(H5BA,H5BB)
2.e Idealised tetrahedral OH refined as rotating group:
 O1A(H1A), O1B(H1B)
;
_shelx_res_file
;
TITL ca060318_1_1_a.res in P1
    ca060318_1_1.res
    created by SHELXL-2016/6 at 16:43:17 on 08-Mar-2018
REM Old TITL ca060318_1_1 in P1
REM SHELXT solution in P1
REM R1 0.124, Rweak 0.040, Alpha 0.000, Orientation as input
REM Flack x = -0.035 ( 0.064 ) from Parsons' quotients
REM Formula found by SHELXT: C29 O3 Cl4
CELL 1.54184 5.8128 8.5698 13.4075 83.978 88.299 88.26
ZERR 2 0.0004 0.0006 0.0011 0.006 0.007 0.006
LATT -1
SFAC C H Cl O
UNIT 30 28 4 2

L.S. 8
PLAN  20
BOND $H
list 4
fmap 2
ACTA
REM <olex2.extras>
REM <HklSrc "%.\\ca060318_1_1.hkl">
REM </olex2.extras>

WGHT    0.140700
FVAR       1.04819
CL2A  3    0.387912    0.460979    0.656381    11.00000    0.03159    0.02358 =
         0.04936    0.00178   -0.00469   -0.00043
CL1A  3   -0.059635    0.325690    0.653170    11.00000    0.02062    0.03598 =
         0.05889    0.00531   -0.00262    0.00289
CL1B  3    0.436648    0.766712    0.391298    11.00000    0.02513    0.04232 =
         0.05973    0.00638    0.00025    0.00326
CL2B  3    0.870545    0.761801    0.493447    11.00000    0.03643    0.04387 =
         0.04652   -0.00323   -0.00258    0.00058
O1A   4    0.233393    0.383176    0.456490    11.00000    0.04834    0.02832 =
         0.04843    0.00274   -0.00129   -0.01202
AFIX 147
H1A   2    0.338552    0.445404    0.451501    11.00000   -1.50000
AFIX   0

O1B   4    0.714959    0.458967    0.428440    11.00000    0.04364    0.04452 =
         0.05715    0.00309   -0.00467   -0.00106
AFIX 147
H1B   2    0.772294    0.473768    0.481680    11.00000   -1.50000
AFIX   0
C9B   1    0.687461    0.793455   -0.013848    11.00000    0.03132    0.02096 =
         0.02880   -0.00654   -0.00434   -0.00738

C9A   1    0.198782    0.235637    1.022142    11.00000    0.02497    0.01645 =
         0.03886   -0.00702   -0.00082    0.00668
C6A   1    0.284854    0.171941    0.819550    11.00000    0.02078    0.01750 =
         0.04526    0.00436   -0.00033    0.00114
C15B  1    0.938648    0.760504    0.130968    11.00000    0.01720    0.02830 =
         0.04358   -0.00478   -0.00365   -0.00248
AFIX  43
H15B  2    1.076317    0.723433    0.159501    11.00000   -1.20000
AFIX   0

C8A   1    0.046135    0.149321    0.972520    11.00000    0.03497    0.02259 =
         0.03504    0.00098    0.00314    0.00205
AFIX  43
H8A   2   -0.082837    0.108232    1.007355    11.00000   -1.20000
AFIX   0

C4B   1    0.785168    1.026934    0.320056    11.00000    0.02676    0.03033 =
         0.06054    0.00210   -0.00562   -0.00607
AFIX  43
H4B   2    0.632772    1.062747    0.315864    11.00000   -1.20000
AFIX   0

C14A  1    0.406548    0.285662    0.968634    11.00000    0.02187    0.01876 =
         0.05016   -0.00554    0.00267    0.00363
C14B  1    0.903306    0.732897    0.030291    11.00000    0.02442    0.02677 =
         0.03934   -0.00256    0.00857   -0.00734
C10A  1    0.162781    0.265662    1.120246    11.00000    0.02811    0.04019 =
         0.03932   -0.00127   -0.00568    0.00495
AFIX  43
H10A  2    0.028925    0.231956    1.154550    11.00000   -1.20000
AFIX   0

C3B   1    0.841382    0.864203    0.295332    11.00000    0.01420    0.02428 =
         0.06261    0.00020   -0.00309   -0.00151
AFIX  13
H3B   2    1.009178    0.852544    0.299400    11.00000   -1.20000
AFIX   0

C15A  1    0.439487    0.252721    0.870008    11.00000    0.01717    0.02620 =
         0.04027    0.00258   -0.00332    0.00897
AFIX  43
H15A  2    0.573221    0.286891    0.835798    11.00000   -1.20000
AFIX   0

C6B   1    0.788059    0.836368    0.188558    11.00000    0.02789    0.03178 =
         0.03511    0.00896   -0.00295    0.00174
C7B   1    0.575434    0.896459    0.143681    11.00000    0.01762    0.02417 =
         0.05191   -0.01478   -0.00537    0.00320
AFIX  43
H7B   2    0.468088    0.950122    0.181097    11.00000   -1.20000
AFIX   0

C7A   1    0.081200    0.123650    0.874231    11.00000    0.01948    0.01561 =
         0.06258    0.00426   -0.01028   -0.00096
AFIX  43
H7A   2   -0.030815    0.073382    0.842314    11.00000   -1.20000
AFIX   0

C13B  1    1.054693    0.653650   -0.028617    11.00000    0.02324    0.03176 =
         0.04513   -0.01211   -0.00436   -0.00447
AFIX  43
H13B  2    1.192165    0.613770   -0.001208    11.00000   -1.20000
AFIX   0
C8B   1    0.531985    0.874836    0.047199    11.00000    0.02327    0.03061 =
         0.06075    0.00288   -0.00282   -0.00502
AFIX  43
H8B   2    0.394476    0.915094    0.020019    11.00000   -1.20000
AFIX   0

C3A   1    0.326541    0.147238    0.712641    11.00000    0.02478    0.02553 =
         0.04202   -0.00553   -0.00550   -0.00032
AFIX  13
H3A   2    0.494091    0.138264    0.703294    11.00000   -1.20000
AFIX   0
C13A  1    0.560784    0.369252    1.019459    11.00000    0.01999    0.03474 =
         0.03671   -0.00278   -0.00848    0.00251
AFIX  43
H13A  2    0.694388    0.404666    0.985684    11.00000   -1.20000
AFIX   0

C11B  1    0.807854    0.689473   -0.169301    11.00000    0.03946    0.02549 =
         0.04176   -0.01108   -0.00800   -0.00907
AFIX  43
H11B  2    0.779458    0.675101   -0.235576    11.00000   -1.20000
AFIX   0

C4A   1    0.233129   -0.004487    0.683546    11.00000    0.05242    0.02799 =
         0.04353    0.00209   -0.00277   -0.00125
AFIX  43
H4A   2    0.074594   -0.016338    0.688886    11.00000   -1.20000
AFIX   0
C11A  1    0.321673    0.344848    1.168598    11.00000    0.03918    0.05549 =
         0.04484   -0.01096   -0.00691    0.00658
AFIX  43
H11A  2    0.297272    0.361846    1.235515    11.00000   -1.20000
AFIX   0

C10B  1    0.649188    0.768781   -0.112762    11.00000    0.03475    0.03355 =
         0.04611    0.00728   -0.00360    0.00378
AFIX  43
H10B  2    0.512597    0.806777   -0.141883    11.00000   -1.20000
AFIX   0

C5A   1    0.355507   -0.118706    0.651944    11.00000    0.06614    0.02848 =
         0.06679   -0.00700   -0.01554    0.00964
AFIX  93
H5AA  2    0.514684   -0.111540    0.645529    11.00000   -1.20000
H5AB  2    0.284387   -0.208057    0.635621    11.00000   -1.20000
AFIX   0

C12B  1    1.012198    0.631307   -0.124518    11.00000    0.02285    0.03499 =
         0.05455   -0.01519    0.00338    0.00572
AFIX  43
H12B  2    1.119785    0.576697   -0.161245    11.00000   -1.20000
AFIX   0

C12A  1    0.524451    0.400674    1.114982    11.00000    0.03205    0.02930 =
         0.05621   -0.01398   -0.01363   -0.00360
AFIX  43
H12A  2    0.629980    0.458045    1.145814    11.00000   -1.20000
AFIX   0
C2A   1    0.245623    0.287149    0.635680    11.00000    0.00858    0.03346 =
         0.05118    0.00285   -0.00623    0.00150

C1B   1    0.796068    0.571416    0.351520    11.00000    0.03819    0.04241 =
         0.02797    0.00483    0.00600    0.00264
AFIX  23
H1BA  2    0.723326    0.555995    0.289245    11.00000   -1.20000
H1BB  2    0.960824    0.555578    0.341826    11.00000   -1.20000
AFIX   0
C5B   1    0.935961    1.121264    0.347005    11.00000    0.08431    0.03157 =
         0.05454    0.00192   -0.00663    0.00209
AFIX  93
H5BA  2    1.089672    1.088709    0.351861    11.00000   -1.20000
H5BB  2    0.890592    1.221592    0.361512    11.00000   -1.20000
AFIX   0

C1A   1    0.292234    0.251523    0.527925    11.00000    0.04926    0.02989 =
         0.04398    0.00321   -0.00726    0.00227
AFIX  23
H1AA  2    0.454016    0.223652    0.519166    11.00000   -1.20000
H1AB  2    0.203493    0.162070    0.515011    11.00000   -1.20000
AFIX   0

C2B   1    0.745546    0.741430    0.376320    11.00000    0.02890    0.04627 =
         0.04051   -0.00121    0.00608    0.00792
HKLF 4




REM  ca060318_1_1_a.res in P1
REM R1 =  0.0712 for    1806 Fo > 4sig(Fo)  and  0.0802 for all    2102 data
REM    327 parameters refined using      3 restraints

END

WGHT      0.1407      0.0000

REM Highest difference peak  0.675,  deepest hole -0.432,  1-sigma level  0.100
Q1    1   0.4401  0.7146  0.3186  11.00000  0.05    0.67
Q2    1   0.9058  0.7606  0.4018  11.00000  0.05    0.60
Q3    1   0.4437  0.7958  0.4792  11.00000  0.05    0.58
Q4    1   0.3850  0.4266  0.5803  11.00000  0.05    0.58
Q5    1   0.3869  0.4964  0.7355  11.00000  0.05    0.58
Q6    1  -0.0910  0.3299  0.7437  11.00000  0.05    0.57
Q7    1   0.8521  0.7017  0.4222  11.00000  0.05    0.51
Q8    1   0.8742  0.8119  0.5632  11.00000  0.05    0.51
Q9    1  -0.0369  0.3198  0.5632  11.00000  0.05    0.45
Q10   1  -0.0675  0.2672  0.5806  11.00000  0.05    0.44
Q11   1   0.2562  0.1062  0.7568  11.00000  0.05    0.32
Q12   1   0.9121  0.8419  0.2105  11.00000  0.05    0.31
Q13   1   0.2362  0.1116  0.8566  11.00000  0.05    0.31
Q14   1   0.3804  0.1858  0.8232  11.00000  0.05    0.31
Q15   1   0.2575  0.2079  0.8912  11.00000  0.05    0.31
Q16   1   0.7562  1.0060  0.4186  11.00000  0.05    0.30
Q17   1   0.2611  0.2885  0.5628  11.00000  0.05    0.29
Q18   1   0.3339  0.2134  0.9990  11.00000  0.05    0.28
Q19   1   0.4070  0.3274  1.0141  11.00000  0.05    0.28
Q20   1  -0.1130 -0.1583  0.6561  11.00000  0.05    0.28
;
_shelx_res_checksum              29875
_shelx_hkl_file
;
  -6  -1  -1  383.96   30.49
  -6  -1   0   65.13   18.71
  -6   0  -1  108.86   19.49
  -6   0   0  239.94   24.80
  -5  -5  -3   67.95   20.31
  -5  -5  -2  104.61   22.53
  -5  -5  -1   19.85   19.54
  -5  -5   0  249.94   26.34
  -5  -4  -5   46.88   18.05
  -5  -4  -5   67.60   14.05
  -5  -4  -4   73.36   14.04
  -5  -4  -3   30.46   12.51
  -5  -4  -3   25.65   18.67
  -5  -4  -2   53.92   20.72
  -5  -4  -1   53.52   20.74
  -5  -4   0   41.25   18.96
  -5  -4   1   66.54   19.22
  -5  -4   1   69.02   19.31
  -5  -4   2  169.81   22.24
  -5  -4   2   95.61   19.17
  -5  -4   3  191.68   23.11
  -5  -4   3  159.05   22.64
  -5  -4   3  168.97   20.40
  -5  -4   4   14.72   15.51
  -5  -3  -7  147.89   18.27
  -5  -3  -6   47.38   14.40
  -5  -3  -6   18.59   16.32
  -5  -3  -5   10.42   13.26
  -5  -3  -5   29.60   16.99
  -5  -3  -4   59.78   15.57
  -5  -3  -3    5.03   12.72
  -5  -3  -3  -17.64   18.56
  -5  -3  -2  153.90   18.02
  -5  -3  -2  152.93   24.15
  -5  -3  -1  250.13   27.20
  -5  -3   0   85.15   19.00
  -5  -3   0   92.80   21.38
  -5  -3   1   31.00   17.74
  -5  -3   2   14.07   16.98
  -5  -3   2    2.04   15.05
  -5  -3   3   11.65   17.30
  -5  -3   3    6.81   15.10
  -5  -3   3   11.92   16.27
  -5  -3   4  101.17   19.63
  -5  -3   4   63.69   19.20
  -5  -3   4   76.43   15.95
  -5  -3   5   21.30   16.26
  -5  -3   5   14.38   16.81
  -5  -2  -8   67.18   15.89
  -5  -2  -7   61.17   15.80
  -5  -2  -6   65.90   16.13
  -5  -2  -6   56.03   16.83
  -5  -2  -5   66.39   15.99
  -5  -2  -5   55.09   18.09
  -5  -2  -4   25.74   14.62
  -5  -2  -3   -7.48   14.40
  -5  -2  -3  -13.57   18.61
  -5  -2  -2  179.05   24.18
  -5  -2  -2  171.17   20.19
  -5  -2  -1  261.89   26.82
  -5  -2  -1  190.28   22.44
  -5  -2  -1  250.93   22.85
  -5  -2   0  159.03   23.15
  -5  -2   0  112.39   19.36
  -5  -2   1  188.57   22.88
  -5  -2   2   84.19   17.92
  -5  -2   2   43.61   15.09
  -5  -2   3    8.22   16.83
  -5  -2   3    9.39   14.66
  -5  -2   4   94.53   19.57
  -5  -2   4  114.81   19.78
  -5  -2   4   59.87   15.76
  -5  -2   5   95.22   20.13
  -5  -2   5  123.30   20.27
  -5  -2   6   10.99   16.96
  -5  -2   6   13.65   15.12
  -5  -1  -8   71.69   15.89
  -5  -1  -7   24.88   13.78
  -5  -1  -6   49.68   15.99
  -5  -1  -6   56.30   15.15
  -5  -1  -5   83.90   18.53
  -5  -1  -5  107.87   17.20
  -5  -1  -4   29.22   14.42
  -5  -1  -3  237.08   25.28
  -5  -1  -3  202.70   22.04
  -5  -1  -2   86.30   16.85
  -5  -1  -2  103.50   22.15
  -5  -1  -2   70.27   14.44
  -5  -1  -1  112.68   17.48
  -5  -1  -1  182.35   24.07
  -5  -1  -1  149.69   19.14
  -5  -1   0  132.45   22.40
  -5  -1   0   58.78   16.40
  -5  -1   1  162.33   20.74
  -5  -1   1  205.48   23.99
  -5  -1   2  220.75   23.73
  -5  -1   2  204.48   22.62
  -5  -1   3    4.65   14.40
  -5  -1   4  138.53   20.85
  -5  -1   4  140.35   18.32
  -5  -1   4  103.05   19.35
  -5  -1   5   21.00   16.15
  -5  -1   5   15.90   16.68
  -5  -1   6   67.05   18.27
  -5  -1   6   63.53   17.02
  -5  -1   7    5.54   13.65
  -5  -1   7    9.81   15.53
  -5   0  -7   16.94   13.19
  -5   0  -6   11.90   14.45
  -5   0  -6   39.29   14.05
  -5   0  -5   17.17   16.39
  -5   0  -5   32.90   14.02
  -5   0  -4  116.47   17.21
  -5   0  -3  316.22   25.26
  -5   0  -3  332.89   28.75
  -5   0  -2  426.94   32.02
  -5   0  -2  349.66   27.40
  -5   0  -1    1.57   13.05
  -5   0  -1    3.93   11.65
  -5   0  -1   -4.36   19.66
  -5   0   0   31.23   19.78
  -5   0   0   17.43   13.32
  -5   0   1   26.11   14.36
  -5   0   1   33.38   19.50
  -5   0   2  955.67   49.28
  -5   0   2  815.70   47.15
  -5   0   3   43.90   14.25
  -5   0   3   63.58   16.54
  -5   0   4  143.78   18.82
  -5   0   4  131.07   18.99
  -5   0   5   -0.35   12.83
  -5   0   5   14.89   16.45
  -5   0   5    9.72   15.32
  -5   0   6   29.60   16.64
  -5   0   6   39.77   16.67
  -5   0   7    3.60   14.40
  -5   0   7   23.20   14.29
  -5   1  -7  229.06   20.06
  -5   1  -6  123.50   17.84
  -5   1  -6  139.25   16.54
  -5   1  -5   40.86   13.10
  -5   1  -5   50.72   17.02
  -5   1  -3  102.22   20.06
  -5   1  -2  229.24   25.78
  -5   1  -1  240.42   20.96
  -5   1  -1  291.38   27.79
  -5   1   0  482.63   35.56
  -5   1   1  322.90   27.81
  -5   1   1  210.67   19.81
  -5   1   2  220.62   23.48
  -5   1   2  178.52   19.33
  -5   1   3   75.44   16.24
  -5   1   4  322.78   24.28
  -5   1   4  289.26   24.53
  -5   1   5   59.19   17.21
  -5   1   5   99.22   15.80
  -5   1   6   23.03   16.38
  -5   1   7    9.03   14.94
  -5   1   7   46.59   14.40
  -5   2  -6  287.91   20.97
  -5   2  -5   48.15   12.02
  -5   2  -5   78.97   16.85
  -5   2  -4   48.45   17.85
  -5   2  -4   19.67   10.87
  -5   2  -3   60.29   12.51
  -5   2  -2  316.46   28.78
  -5   2  -1   38.15   21.45
  -5   2   0  464.43   35.43
  -5   2   1  368.26   31.40
  -5   2   2  985.03   48.83
  -5   2   2  734.58   42.29
  -5   2   3   82.39   14.84
  -5   2   4   36.63   15.56
  -5   2   4   26.42   13.15
  -5   2   5   76.83   15.07
  -5   2   5   71.26   15.72
  -5   2   5   46.04   16.63
  -5   2   6  174.91   19.50
  -5   2   6   90.56   18.47
  -5   3  -4  128.46   19.34
  -5   3  -2  224.93   24.90
  -5   3  -1  172.11   24.44
  -5   3   0   49.50   21.40
  -5   3   1   65.81   16.87
  -5   3   1   60.82   20.82
  -5   3   2  469.70   33.65
  -5   3   3  139.15   20.42
  -5   3   4   20.18   14.87
  -5   3   4   45.21   15.97
  -5   3   4   17.48   11.44
  -5   3   5   17.85   12.62
  -5   4  -3   96.14   17.75
  -5   4  -2  160.04   21.02
  -5   4  -1  132.87   21.36
  -5   4   0   97.26   15.97
  -5   4   0  163.73   23.54
  -5   4   1  108.81   17.66
  -5   4   1  140.73   22.83
  -5   4   2   37.26   16.70
  -5   4   2   59.44   18.18
  -5   4   4   84.37   16.71
  -5   4   4   88.04   16.63
  -4  -6  -6   30.82   22.08
  -4  -6  -5   51.36   20.69
  -4  -6  -5   13.24   24.20
  -4  -6  -4   90.93   20.87
  -4  -6  -3  191.96   31.39
  -4  -6  -2  165.75   31.43
  -4  -6  -1   50.12   18.00
  -4  -6  -1   39.43   28.22
  -4  -6   0  180.87   24.54
  -4  -6   0  253.54   31.85
  -4  -6   1  107.60   25.80
  -4  -6   1   89.30   22.26
  -4  -6   2   32.15   19.66
  -4  -6   3   18.02   21.37
  -4  -6   4   23.38   18.50
  -4  -5  -8   26.61   21.10
  -4  -5  -7  -14.97   22.94
  -4  -5  -7    0.40   11.61
  -4  -5  -6   -1.55   11.65
  -4  -5  -5   25.27   11.88
  -4  -5  -5   13.29   19.72
  -4  -5  -4   14.57   20.02
  -4  -5  -4    8.07   10.72
  -4  -5  -4    1.22   24.75
  -4  -5  -3    5.00   19.96
  -4  -5  -3   33.05   10.95
  -4  -5  -3   37.53   26.78
  -4  -5  -3   18.75   18.20
  -4  -5  -2   54.43   28.16
  -4  -5  -2   62.04   21.24
  -4  -5  -1  109.24   22.58
  -4  -5  -1  131.02   31.53
  -4  -5  -1  109.41   18.15
  -4  -5  -1   72.78   19.28
  -4  -5   0    4.58   13.63
  -4  -5   0    3.77   26.81
  -4  -5   0    5.30   18.14
  -4  -5   0   14.74   19.96
  -4  -5   1   67.87   21.72
  -4  -5   1   78.59   26.56
  -4  -5   1   84.56   20.34
  -4  -5   2   19.44   18.91
  -4  -5   2   -0.63   19.96
  -4  -5   3   12.75   17.08
  -4  -5   3    1.07   17.92
  -4  -5   3   48.15   23.85
  -4  -5   4   68.52   22.03
  -4  -5   4   77.13   19.08
  -4  -5   5   53.70   16.51
  -4  -5   5   18.59   19.31
  -4  -5   6   43.98   18.71
  -4  -4  -9   -3.43   20.33
  -4  -4  -9    7.22   14.95
  -4  -4  -8   33.14   22.40
  -4  -4  -8   27.48   15.97
  -4  -4  -7  705.75   41.48
  -4  -4  -7  404.17   33.06
  -4  -4  -6   11.53   25.28
  -4  -4  -6    0.44   16.74
  -4  -4  -5   61.38   23.58
  -4  -4  -5   75.85   15.70
  -4  -4  -4  115.74   16.14
  -4  -4  -4   92.09   20.45
  -4  -4  -4   79.00   28.08
  -4  -4  -3  300.60   29.12
  -4  -4  -3  406.73   37.55
  -4  -4  -3  381.16   25.14
  -4  -4  -2  421.33   33.07
  -4  -4  -2  375.47   30.76
  -4  -4  -2  357.60   27.97
  -4  -4  -1  567.20   37.23
  -4  -4  -1  566.91   31.62
  -4  -4   0  452.14   40.08
  -4  -4   0  348.22   30.39
  -4  -4   0  399.28   31.16
  -4  -4   0  391.20   30.69
  -4  -4   1   86.38   19.68
  -4  -4   1   64.89   20.68
  -4  -4   1   83.68   27.75
  -4  -4   1   76.50   20.35
  -4  -4   2  114.55   27.60
  -4  -4   2  103.48   20.71
  -4  -4   2   81.56   18.48
  -4  -4   2   82.08   21.53
  -4  -4   3   48.65   19.98
  -4  -4   4   45.94   19.01
  -4  -4   4   28.35   15.45
  -4  -4   4   48.60   20.56
  -4  -4   5  106.06   20.41
  -4  -4   5   98.03   22.52
  -4  -4   6   68.91   20.94
  -4  -4   6   67.70   17.62
  -4  -4   7   59.16   19.54
  -4  -3 -10   52.52   19.67
  -4  -3 -10   46.27   16.78
  -4  -3  -9   11.64   20.68
  -4  -3  -9   -2.40   17.69
  -4  -3  -8  237.89   26.15
  -4  -3  -8  274.04   31.17
  -4  -3  -7   55.85   25.42
  -4  -3  -7   34.80   16.13
  -4  -3  -7   66.30   17.85
  -4  -3  -6  207.26   30.17
  -4  -3  -6  167.42   20.94
  -4  -3  -6  171.66   21.00
  -4  -3  -5  338.19   25.56
  -4  -3  -5  318.76   31.82
  -4  -3  -4  344.72   30.31
  -4  -3  -4  335.47   25.05
  -4  -3  -3   -7.53   17.37
  -4  -3  -3   10.18   13.11
  -4  -3  -3    7.39   27.10
  -4  -3  -2  167.12   32.38
  -4  -3  -2  130.57   17.55
  -4  -3  -2  131.48   22.50
  -4  -3  -1 1251.18   60.41
  -4  -3  -1 1391.55   63.92
  -4  -3  -1 1247.36   63.54
  -4  -3   0  662.84   44.50
  -4  -3   0  545.05   33.44
  -4  -3   0  558.07   33.98
  -4  -3   0  419.29   28.84
  -4  -3   0  407.33   31.35
  -4  -3   1   16.77   16.05
  -4  -3   1   28.57   16.88
  -4  -3   1   29.30   17.56
  -4  -3   1    4.73   26.85
  -4  -3   2  207.21   22.18
  -4  -3   2  229.08   24.79
  -4  -3   2  210.96   23.41
  -4  -3   3  326.81   28.39
  -4  -3   4   91.97   21.55
  -4  -3   4   93.64   20.32
  -4  -3   4   54.66   15.47
  -4  -3   5  249.42   21.84
  -4  -3   5  293.49   29.43
  -4  -3   6  165.67   25.18
  -4  -3   6  169.49   22.23
  -4  -3   7  317.79   26.76
  -4  -3   7  297.10   29.68
  -4  -3   8  125.72   21.19
  -4  -2 -10  223.69   24.72
  -4  -2  -9  230.95   26.91
  -4  -2  -8  142.67   25.47
  -4  -2  -8  164.10   23.29
  -4  -2  -7  249.14   29.71
  -4  -2  -7  230.28   21.95
  -4  -2  -7  314.23   26.75
  -4  -2  -6  102.09   18.03
  -4  -2  -6  120.00   27.51
  -4  -2  -6  133.19   20.40
  -4  -2  -5   86.61   24.50
  -4  -2  -5  107.26   18.16
  -4  -2  -4  295.02   28.98
  -4  -2  -4  322.37   24.65
  -4  -2  -3  801.21   42.68
  -4  -2  -3  803.77   44.53
  -4  -2  -2  211.82   20.02
  -4  -2  -2  190.68   20.51
  -4  -2  -2  230.65   23.28
  -4  -2  -1  693.49   35.16
  -4  -2  -1  810.85   38.50
  -4  -2   0  418.11   27.66
  -4  -2   0  342.39   26.17
  -4  -2   0  374.95   24.49
  -4  -2   1  358.80   27.49
  -4  -2   1  434.74   29.45
  -4  -2   1  474.17   29.44
  -4  -2   1  400.09   26.73
  -4  -2   2   16.82   16.42
  -4  -2   2   23.01   17.02
  -4  -2   2   21.34   16.49
  -4  -2   3  374.25   28.37
  -4  -2   3  298.51   27.32
  -4  -2   4  764.44   42.46
  -4  -2   4  659.03   37.99
  -4  -2   5  189.95   18.17
  -4  -2   5  173.06   24.74
  -4  -2   5  234.74   23.80
  -4  -2   6    4.13   19.19
  -4  -2   6   -9.25   16.99
  -4  -2   7  194.73   22.46
  -4  -2   7  183.92   24.93
  -4  -2   8  249.02   23.16
  -4  -2   8  211.22   25.50
  -4  -2   9   93.58   19.07
  -4  -1 -10  210.58   23.20
  -4  -1  -9  126.54   22.26
  -4  -1  -8  192.57   23.45
  -4  -1  -7  309.05   26.72
  -4  -1  -7  265.16   22.00
  -4  -1  -6  688.16   40.67
  -4  -1  -6  825.35   44.29
  -4  -1  -5  346.09   26.99
  -4  -1  -5  372.55   27.12
  -4  -1  -4   30.03   14.88
  -4  -1  -3  477.47   27.58
  -4  -1  -3  467.97   29.80
  -4  -1  -2 1151.74   53.28
  -4  -1  -2 1131.36   51.64
  -4  -1  -1 1065.38   50.25
  -4  -1  -1  975.81   47.97
  -4  -1   0  386.01   25.83
  -4  -1   0  316.28   22.99
  -4  -1   1   27.99   16.97
  -4  -1   1   29.00   13.25
  -4  -1   1   20.19   14.62
  -4  -1   1   35.20   13.80
  -4  -1   2  197.61   20.81
  -4  -1   2  229.48   22.41
  -4  -1   2  257.37   22.59
  -4  -1   3  162.16   19.16
  -4  -1   3  161.57   20.52
  -4  -1   3  178.02   21.61
  -4  -1   4  116.55   20.27
  -4  -1   5  438.34   27.69
  -4  -1   5  400.17   33.84
  -4  -1   6  208.70   17.87
  -4  -1   6  207.85   26.09
  -4  -1   6  272.55   25.20
  -4  -1   7   78.57   17.96
  -4  -1   7   49.41   19.49
  -4  -1   8   15.43   14.70
  -4  -1   8   10.16   17.63
  -4  -1   9   34.59   14.19
  -4  -1   9   30.78   16.68
  -4  -1  10   59.85   16.42
  -4   0  -9   35.00   17.19
  -4   0  -8  234.01   24.54
  -4   0  -7   83.67   14.93
  -4   0  -7   34.05   17.33
  -4   0  -6  186.86   20.23
  -4   0  -6  191.73   22.01
  -4   0  -5  507.47   31.57
  -4   0  -5  488.31   31.87
  -4   0  -4  648.62   36.78
  -4   0  -3  198.76   21.73
  -4   0  -3  179.84   18.00
  -4   0  -2  230.93   22.87
  -4   0  -2  215.27   18.66
  -4   0  -1  367.32   25.18
  -4   0  -1  469.33   30.94
  -4   0  -1  445.82   27.56
  -4   0   0  105.05   15.83
  -4   0   0   84.48   12.00
  -4   0   0   88.37   15.09
  -4   0   1  141.76   16.26
  -4   0   1  137.24   17.59
  -4   0   2   28.15   17.50
  -4   0   2   14.20   14.39
  -4   0   2   16.56   14.95
  -4   0   3  458.45   29.69
  -4   0   3  416.10   28.40
  -4   0   3  417.28   29.44
  -4   0   4  154.88   20.59
  -4   0   4  145.72   21.17
  -4   0   5   12.31   13.20
  -4   0   5    3.53   16.53
  -4   0   6   59.15   12.75
  -4   0   6   71.21   20.51
  -4   0   6   75.00   18.58
  -4   0   7  199.10   23.11
  -4   0   7  186.93   24.68
  -4   0   8  220.00   26.15
  -4   0   8  277.88   24.29
  -4   0   9   51.53   17.94
  -4   0   9   68.40   15.88
  -4   0  10   -3.08   14.65
  -4   0  10    2.41   12.19
  -4   1 -10   98.32   15.37
  -4   1  -9   52.49   14.97
  -4   1  -8   27.55   15.35
  -4   1  -6   70.79   16.33
  -4   1  -5   68.37   17.68
  -4   1  -4  184.16   18.00
  -4   1  -3  412.11   29.75
  -4   1  -3  358.35   24.41
  -4   1  -2  390.00   28.80
  -4   1  -2  306.35   22.88
  -4   1  -1   53.02   10.85
  -4   1  -1   70.66   13.86
  -4   1  -1   82.00   20.52
  -4   1   0   14.25   11.54
  -4   1   0    5.67   11.97
  -4   1   0  -17.77   19.35
  -4   1   1    9.80   10.79
  -4   1   1    7.92   16.16
  -4   1   1   -1.75   12.30
  -4   1   1   -2.26   19.18
  -4   1   2  114.24   21.04
  -4   1   2  130.65   16.75
  -4   1   2  113.45   19.42
  -4   1   2  114.45   15.74
  -4   1   3   28.94   17.00
  -4   1   3   22.73   16.63
  -4   1   3   15.33   14.58
  -4   1   3   40.49   14.11
  -4   1   4  126.45   19.34
  -4   1   4  107.01   18.91
  -4   1   4  123.02   18.53
  -4   1   5  148.74   20.72
  -4   1   5  160.85   20.08
  -4   1   5  158.03   17.94
  -4   1   6  130.47   20.12
  -4   1   6  134.17   16.07
  -4   1   6  156.35   20.62
  -4   1   7  125.95   20.20
  -4   1   7  113.04   20.87
  -4   1   7  150.77   20.05
  -4   1   8  128.37   18.98
  -4   1   8  138.16   21.44
  -4   1   8  119.65   19.30
  -4   1   9  119.11   18.13
  -4   1   9  101.13   19.81
  -4   1   9  126.50   18.30
  -4   1  10   33.04   15.47
  -4   1  10   42.96   13.47
  -4   2  -9    1.40   10.33
  -4   2  -8   -4.19   11.62
  -4   2  -7    8.51   11.76
  -4   2  -6  103.88   17.31
  -4   2  -6   84.38   14.00
  -4   2  -5  116.90   20.08
  -4   2  -5   87.12   13.78
  -4   2  -4  389.38   24.88
  -4   2  -3  322.72   27.55
  -4   2  -3  259.99   20.47
  -4   2  -2  232.53   18.04
  -4   2  -2  171.69   17.66
  -4   2  -1  309.57   21.32
  -4   2  -1  290.86   22.91
  -4   2   0  293.88   19.43
  -4   2   1  158.60   20.07
  -4   2   1  100.66   13.79
  -4   2   1  144.17   15.04
  -4   2   2  440.01   30.39
  -4   2   2  379.92   23.49
  -4   2   2  408.62   25.59
  -4   2   2  335.10   25.19
  -4   2   3   89.09   18.63
  -4   2   3   69.11   16.53
  -4   2   3   89.94   14.44
  -4   2   3   95.86   15.61
  -4   2   4   30.42   16.90
  -4   2   4    8.86   13.22
  -4   2   4   16.46   16.06
  -4   2   5   54.16   17.50
  -4   2   5   62.72   16.68
  -4   2   5   72.62   17.66
  -4   2   5   57.11   15.89
  -4   2   5   67.86   18.57
  -4   2   6   45.69   17.34
  -4   2   6   51.91   14.40
  -4   2   6   74.45   18.27
  -4   2   7   55.19   16.50
  -4   2   7   41.14   16.44
  -4   2   7   48.16   16.22
  -4   2   7   41.80   18.41
  -4   2   8  271.45   27.54
  -4   2   8  286.42   25.09
  -4   2   8  331.45   25.18
  -4   2   9   19.57   15.34
  -4   2   9   20.87   14.66
  -4   2   9    8.77   12.98
  -4   2  10   47.70   13.70
  -4   2  10   32.86   15.21
  -4   3  -6    5.36    9.34
  -4   3  -6   15.13   14.66
  -4   3  -5  406.44   28.23
  -4   3  -5  316.65   21.82
  -4   3  -4   22.46    9.92
  -4   3  -3  208.20   16.66
  -4   3  -3  188.81   16.55
  -4   3  -2  414.63   26.60
  -4   3  -2  426.60   24.95
  -4   3  -1  355.75   25.68
  -4   3   1  160.08   20.82
  -4   3   1  120.06   13.59
  -4   3   2   93.68   19.41
  -4   3   2   97.20   13.85
  -4   3   2   76.08   11.31
  -4   3   3   19.55   11.24
  -4   3   3   29.48   17.34
  -4   3   3   15.75   12.19
  -4   3   4   59.81   15.31
  -4   3   4   54.69   18.38
  -4   3   4   49.45   13.36
  -4   3   5  227.10   22.22
  -4   3   5  211.99   20.97
  -4   3   5  236.81   23.37
  -4   3   6  246.18   22.48
  -4   3   6  243.52   21.50
  -4   3   6  287.48   24.52
  -4   3   7   83.77   17.18
  -4   3   7   63.41   16.62
  -4   3   8   79.35   16.26
  -4   3   8   83.22   16.02
  -4   3   8   77.51   18.39
  -4   3   9   50.28   15.91
  -4   3   9   25.58   13.71
  -4   3   9   57.46   14.07
  -4   4  -2   13.91   12.20
  -4   4  -1   -0.37   13.43
  -4   4   0  820.01   44.83
  -4   4   2  166.03   22.72
  -4   4   2  159.65   15.44
  -4   4   3   87.27   13.87
  -4   4   3  119.88   20.14
  -4   4   4   69.19   18.03
  -4   4   4   65.55   12.81
  -4   4   4   58.33   14.08
  -4   4   5   -0.89   16.13
  -4   4   5    8.61   12.93
  -4   4   6  170.03   18.94
  -4   4   6  204.59   21.74
  -4   4   7  148.56   17.78
  -4   4   7  198.95   20.17
  -4   4   8  223.54   20.47
  -4   4   8  214.94   19.47
  -4   5  -1    8.18   12.80
  -4   5   0  103.01   17.10
  -4   5   2  132.47   20.82
  -4   5   3  177.65   20.96
  -4   5   4   66.73   13.04
  -4   5   4  100.43   17.96
  -4   5   5   10.08   14.38
  -4   5   6   65.55   13.22
  -4   5   6   91.15   16.57
  -4   5   7   60.43   14.18
  -4   6  -1  139.51   15.71
  -4   6   0  180.15   18.89
  -4   6   1   74.20   16.42
  -4   6   3   35.07   14.74
  -4   6   4    4.21   13.30
  -4   6   5   67.60   14.86
  -3  -7  -6   89.52   23.68
  -3  -7  -5   72.08   23.56
  -3  -7  -5   98.87   22.25
  -3  -7  -4  193.20   22.97
  -3  -7  -3   54.63   25.36
  -3  -7  -2   28.68   25.33
  -3  -7  -1   81.68   27.48
  -3  -7   0  108.18   25.85
  -3  -7   0   75.19   22.92
  -3  -7   1  130.03   24.28
  -3  -7   1  157.13   23.52
  -3  -7   1  141.35   26.31
  -3  -7   2   90.90   22.19
  -3  -7   2  133.37   21.99
  -3  -7   3   73.51   21.38
  -3  -7   3  117.95   20.49
  -3  -7   3  108.89   20.92
  -3  -7   4   51.73   18.82
  -3  -6  -9   57.37   21.79
  -3  -6  -8  168.15   26.39
  -3  -6  -7   13.90   23.27
  -3  -6  -6  105.82   23.79
  -3  -6  -4  -11.99   23.28
  -3  -6  -4    2.61   19.48
  -3  -6  -3  114.41   27.07
  -3  -6  -3   77.46   19.50
  -3  -6  -2  209.02   31.07
  -3  -6  -2  152.70   20.17
  -3  -6  -1   38.83   27.15
  -3  -6   0  576.83   40.49
  -3  -6   0  677.20   43.20
  -3  -6   0  539.50   41.53
  -3  -6   1  131.70   25.87
  -3  -6   1  109.47   21.92
  -3  -6   1   83.97   24.81
  -3  -6   2  318.36   28.98
  -3  -6   2  285.40   30.69
  -3  -6   3  484.79   36.61
  -3  -6   3  594.92   38.00
  -3  -6   3  553.81   40.28
  -3  -6   4  354.80   30.17
  -3  -6   4  396.36   34.75
  -3  -6   4  455.94   32.33
  -3  -6   5  103.71   23.20
  -3  -6   5  144.48   20.46
  -3  -6   6   -1.86   17.95
  -3  -6   6   -9.21   14.79
  -3  -5 -10   60.15   21.69
  -3  -5  -9   37.64   23.24
  -3  -5  -9   18.17   15.09
  -3  -5  -8   54.14   15.62
  -3  -5  -8   73.36   25.04
  -3  -5  -7  257.17   28.47
  -3  -5  -7  256.84   22.45
  -3  -5  -6  469.46   37.79
  -3  -5  -6  489.20   35.06
  -3  -5  -6  428.76   28.23
  -3  -5  -5  129.18   14.98
  -3  -5  -5  151.54   27.13
  -3  -5  -4   81.57   11.99
  -3  -5  -4   64.76   21.15
  -3  -5  -4  106.53   23.96
  -3  -5  -3   54.36   19.63
  -3  -5  -3   56.22   20.76
  -3  -5  -3   43.87   10.35
  -3  -5  -3   76.91   24.19
  -3  -5  -2  163.38   20.82
  -3  -5  -2  206.43   23.85
  -3  -5  -2  239.97   29.06
  -3  -5  -2  172.73   22.51
  -3  -5  -2  118.91   12.93
  -3  -5  -1   85.72   16.89
  -3  -5  -1  125.83   22.63
  -3  -5  -1  126.72   28.50
  -3  -5  -1  126.67   21.00
  -3  -5   0  354.81   29.05
  -3  -5   0  350.62   30.95
  -3  -5   0  425.24   33.53
  -3  -5   0  303.24   28.49
  -3  -5   1  719.85   44.22
  -3  -5   1  668.22   44.04
  -3  -5   1  643.19   40.69
  -3  -5   1  660.43   40.48
  -3  -5   1  746.60   41.83
  -3  -5   2  424.87   32.57
  -3  -5   2  390.43   33.32
  -3  -5   2  316.61   28.54
  -3  -5   2  391.38   29.47
  -3  -5   2  400.01   28.94
  -3  -5   3   34.17   17.53
  -3  -5   3    8.30   15.00
  -3  -5   3   28.11   21.20
  -3  -5   4  265.09   24.23
  -3  -5   4  175.32   23.91
  -3  -5   4  253.74   23.95
  -3  -5   4  239.07   28.82
  -3  -5   5  298.14   26.16
  -3  -5   5  215.20   25.07
  -3  -5   5  271.77   29.55
  -3  -5   6  215.04   27.94
  -3  -5   6  215.03   21.41
  -3  -5   6  248.62   24.41
  -3  -5   7   68.85   17.49
  -3  -5   7  105.94   21.54
  -3  -5   8  107.84   20.23
  -3  -4 -11   66.14   17.97
  -3  -4 -10  145.61   24.97
  -3  -4  -9  210.03   28.24
  -3  -4  -8  183.45   27.73
  -3  -4  -7   10.83   23.22
  -3  -4  -7    7.01   20.36
  -3  -4  -6  115.55   19.74
  -3  -4  -6  183.85   27.89
  -3  -4  -6  157.13   23.92
  -3  -4  -5  584.51   40.05
  -3  -4  -5  564.54   33.47
  -3  -4  -4  331.10   22.82
  -3  -4  -4  295.40   25.82
  -3  -4  -4  382.43   29.91
  -3  -4  -4  338.33   29.03
  -3  -4  -3   25.78   21.21
  -3  -4  -3   30.88   17.05
  -3  -4  -3   21.20   10.76
  -3  -4  -2  138.99   19.92
  -3  -4  -2  190.20   26.08
  -3  -4  -2  134.90   20.12
  -3  -4  -2  161.01   14.42
  -3  -4  -2  170.43   20.69
  -3  -4  -1  270.77   23.09
  -3  -4  -1  216.14   21.59
  -3  -4  -1  351.85   30.93
  -3  -4  -1  309.46   24.82
  -3  -4  -1  246.07   23.84
  -3  -4  -1  271.69   24.03
  -3  -4  -1  259.68   18.19
  -3  -4   0   29.27   14.32
  -3  -4   0   15.72   16.59
  -3  -4   0   19.87   16.86
  -3  -4   0   21.49    9.27
  -3  -4   0   39.60   21.75
  -3  -4   1   78.43   19.26
  -3  -4   1   91.38   15.35
  -3  -4   1   59.57   21.61
  -3  -4   1   93.63   18.24
  -3  -4   1   76.54   16.96
  -3  -4   2  366.17   30.13
  -3  -4   2  427.15   27.13
  -3  -4   2  368.18   26.62
  -3  -4   2  333.00   29.57
  -3  -4   2  431.48   28.90
  -3  -4   3  584.37   34.44
  -3  -4   3  479.26   31.86
  -3  -4   3  489.69   35.53
  -3  -4   4   88.79   16.76
  -3  -4   4   99.11   18.91
  -3  -4   4   98.25   21.68
  -3  -4   4  124.47   16.60
  -3  -4   4  104.44   20.90
  -3  -4   5   20.64   13.64
  -3  -4   5   24.74   14.55
  -3  -4   5   26.94   16.29
  -3  -4   5   26.58   19.82
  -3  -4   5    6.07   18.76
  -3  -4   6   36.15   14.79
  -3  -4   6   51.48   20.78
  -3  -4   7   88.93   17.36
  -3  -4   7  110.87   16.90
  -3  -4   7  114.61   22.36
  -3  -4   8  117.23   20.73
  -3  -4   8   97.45   15.79
  -3  -4   9  131.09   20.28
  -3  -3 -11   26.73   17.17
  -3  -3 -10   33.00   20.97
  -3  -3 -10   18.44   19.17
  -3  -3  -9  111.11   23.96
  -3  -3  -9   91.02   22.84
  -3  -3  -8  298.14   28.60
  -3  -3  -8  352.88   31.22
  -3  -3  -7  877.45   46.77
  -3  -3  -7  864.51   45.12
  -3  -3  -6   79.08   16.77
  -3  -3  -6   53.05   20.65
  -3  -3  -6   47.04   15.37
  -3  -3  -6   69.92   23.90
  -3  -3  -5   35.53   14.38
  -3  -3  -5   27.85   23.32
  -3  -3  -4   84.83   14.99
  -3  -3  -4   74.22   20.73
  -3  -3  -4   81.47   21.83
  -3  -3  -4   71.70   16.25
  -3  -3  -3  392.44   29.36
  -3  -3  -3  352.28   28.30
  -3  -3  -3  369.90   23.15
  -3  -3  -3  306.75   22.85
  -3  -3  -3  332.76   25.25
  -3  -3  -2  382.43   26.77
  -3  -3  -2  383.83   26.71
  -3  -3  -2  388.21   24.15
  -3  -3  -2  370.08   26.50
  -3  -3  -2  415.85   27.21
  -3  -3  -1 1200.18   56.10
  -3  -3  -1 1125.73   55.53
  -3  -3  -1 1143.23   56.66
  -3  -3  -1 1146.11   56.71
  -3  -3  -1 1039.56   53.68
  -3  -3   0  305.17   21.05
  -3  -3   0  294.32   22.95
  -3  -3   0  312.62   23.75
  -3  -3   0  228.07   21.35
  -3  -3   0  327.58   28.61
  -3  -3   1  637.62   38.01
  -3  -3   1  672.54   36.02
  -3  -3   1  583.58   32.27
  -3  -3   1  571.47   35.14
  -3  -3   1  584.64   33.74
  -3  -3   2   65.50   16.65
  -3  -3   2   47.00   14.86
  -3  -3   2   45.57   19.28
  -3  -3   2   43.49   11.12
  -3  -3   2   51.52   17.34
  -3  -3   3  332.53   28.00
  -3  -3   3  385.34   26.48
  -3  -3   3  340.60   22.93
  -3  -3   4  850.80   45.37
  -3  -3   4  804.24   49.56
  -3  -3   4 1057.51   49.98
  -3  -3   4  996.35   47.38
  -3  -3   4  965.67   51.81
  -3  -3   5  801.77   40.01
  -3  -3   5  677.59   36.46
  -3  -3   5  521.81   38.50
  -3  -3   5  587.07   34.14
  -3  -3   5  764.06   42.99
  -3  -3   6   17.05   11.48
  -3  -3   6   40.42   19.59
  -3  -3   6   34.49   12.18
  -3  -3   6   40.05   15.90
  -3  -3   7   25.69   12.54
  -3  -3   7   27.92   19.66
  -3  -3   8   63.95   20.57
  -3  -3   8   63.99   15.45
  -3  -3   9   41.60   18.62
  -3  -3   9   40.01   13.24
  -3  -3  10   19.03   15.61
  -3  -2 -12   41.77   16.80
  -3  -2 -11   57.72   20.44
  -3  -2 -11   84.72   19.92
  -3  -2 -10    9.80   20.11
  -3  -2  -9  142.36   24.82
  -3  -2  -9  114.15   23.19
  -3  -2  -8   10.70   19.96
  -3  -2  -8   -0.79   21.43
  -3  -2  -7  364.79   28.44
  -3  -2  -7  349.12   28.71
  -3  -2  -6  292.70   24.56
  -3  -2  -6  218.02   19.31
  -3  -2  -6  275.79   27.56
  -3  -2  -5  239.27   26.50
  -3  -2  -5  260.89   22.32
  -3  -2  -4  112.49   22.10
  -3  -2  -4  121.59   21.79
  -3  -2  -4  108.64   16.82
  -3  -2  -3   73.20   22.24
  -3  -2  -3   89.87   15.79
  -3  -2  -3   68.69   14.76
  -3  -2  -3   50.08   19.76
  -3  -2  -2  254.99   21.33
  -3  -2  -2  246.40   23.87
  -3  -2  -2  223.40   19.16
  -3  -2  -2  225.41   17.74
  -3  -2  -2  269.44   19.84
  -3  -2  -1   95.07   12.51
  -3  -2  -1  124.91   23.00
  -3  -2  -1   49.46   12.99
  -3  -2  -1   92.58   17.21
  -3  -2  -1   58.78   14.64
  -3  -2  -1   67.80   15.25
  -3  -2  -1   79.05   18.47
  -3  -2   0  364.54   24.04
  -3  -2   0  318.76   20.03
  -3  -2   0  349.59   23.88
  -3  -2   0  325.93   23.16
  -3  -2   0  306.49   21.65
  -3  -2   1  500.04   32.20
  -3  -2   1  461.19   26.91
  -3  -2   1  428.81   23.48
  -3  -2   1  491.51   27.96
  -3  -2   2  389.07   24.65
  -3  -2   2  328.47   22.78
  -3  -2   2  312.12   18.80
  -3  -2   2  317.70   24.42
  -3  -2   2  324.25   28.34
  -3  -2   3  176.96   13.29
  -3  -2   3  169.35   16.55
  -3  -2   3  146.63   14.19
  -3  -2   3  166.13   20.07
  -3  -2   4  155.60   21.00
  -3  -2   4  192.79   19.81
  -3  -2   4  148.25   12.99
  -3  -2   5  624.67   34.00
  -3  -2   5  609.11   34.40
  -3  -2   5  714.37   41.38
  -3  -2   6   97.66   12.72
  -3  -2   6   73.83   12.24
  -3  -2   6  116.41   18.32
  -3  -2   6   99.58   21.68
  -3  -2   7   17.54   15.16
  -3  -2   7   24.78   19.22
  -3  -2   8    8.89   17.68
  -3  -2   9   45.92   13.92
  -3  -2   9   43.76   18.03
  -3  -2  10  201.02   18.68
  -3  -2  10  217.40   23.55
  -3  -2  11   58.88   15.61
  -3  -1 -12    9.97   15.20
  -3  -1 -11  128.99   21.24
  -3  -1 -10   84.25   20.74
  -3  -1 -10   73.90   19.12
  -3  -1  -9  104.79   23.53
  -3  -1  -8   38.24   19.94
  -3  -1  -8   31.73   20.00
  -3  -1  -7  560.70   34.61
  -3  -1  -7  575.98   35.70
  -3  -1  -6  155.83   16.06
  -3  -1  -6  182.71   20.77
  -3  -1  -6  142.66   23.29
  -3  -1  -5  366.55   24.58
  -3  -1  -5  415.66   30.02
  -3  -1  -5  420.00   27.71
  -3  -1  -4  326.58   24.17
  -3  -1  -4  335.87   27.23
  -3  -1  -3  236.11   19.61
  -3  -1  -3  243.41   20.19
  -3  -1  -3  250.43   23.05
  -3  -1  -3  176.02   16.44
  -3  -1  -2   80.42   14.27
  -3  -1  -2   51.60    9.21
  -3  -1  -2   78.13   16.32
  -3  -1  -2   55.51   12.68
  -3  -1  -2   69.27   19.50
  -3  -1  -1  580.90   30.58
  -3  -1  -1  645.24   32.18
  -3  -1   0  215.75   19.10
  -3  -1   0  204.43   18.60
  -3  -1   0  202.84   18.33
  -3  -1   1  385.21   21.42
  -3  -1   1  334.81   19.93
  -3  -1   1  412.54   21.86
  -3  -1   2  160.78   16.82
  -3  -1   2  134.61   15.57
  -3  -1   3  476.31   28.08
  -3  -1   3  420.56   24.00
  -3  -1   4  202.02   19.44
  -3  -1   4  165.71   20.94
  -3  -1   5  493.58   29.91
  -3  -1   5  468.34   31.47
  -3  -1   5  515.58   30.10
  -3  -1   6    5.30   17.06
  -3  -1   6   -9.03    9.05
  -3  -1   6   -6.16   14.94
  -3  -1   6   -5.09   16.76
  -3  -1   7    3.40   14.33
  -3  -1   7    4.29   17.71
  -3  -1   8    3.50   14.16
  -3  -1   8   12.77   18.58
  -3  -1   9  187.98   23.61
  -3  -1  10  -12.02   16.73
  -3  -1  10    8.10   12.25
  -3  -1  11  198.34   22.95
  -3  -1  11  243.93   19.90
  -3   0 -11  155.63   21.60
  -3   0 -10   13.84   16.92
  -3   0  -9  680.19   43.17
  -3   0  -8   25.15   18.55
  -3   0  -7  273.18   19.13
  -3   0  -7  267.02   24.58
  -3   0  -6  282.89   20.60
  -3   0  -6  323.83   24.36
  -3   0  -6  316.02   27.07
  -3   0  -5  637.43   35.12
  -3   0  -5  695.02   39.59
  -3   0  -5  692.68   37.03
  -3   0  -4 1064.05   52.57
  -3   0  -4 1107.99   54.46
  -3   0  -3  226.19   15.65
  -3   0  -3  257.47   21.71
  -3   0  -3  285.70   20.53
  -3   0  -2  750.46   36.50
  -3   0  -2  694.35   34.38
  -3   0  -1  581.90   30.74
  -3   0  -1  584.15   29.81
  -3   0  -1  505.89   27.47
  -3   0   0    0.75    2.44
  -3   0   0   10.09   11.65
  -3   0   0   -6.69   16.31
  -3   0   0    2.23   10.48
  -3   0   0   -7.97   12.99
  -3   0   1  709.27   33.83
  -3   0   1  701.30   32.14
  -3   0   1  617.24   32.04
  -3   0   1  676.66   32.14
  -3   0   1  694.22   33.80
  -3   0   2 1899.36   75.89
  -3   0   2 1932.88   77.43
  -3   0   2 1835.71   76.22
  -3   0   3  490.36   29.46
  -3   0   3  563.58   32.44
  -3   0   3  588.01   30.91
  -3   0   3  593.09   31.29
  -3   0   3  566.25   30.29
  -3   0   4  341.36   23.54
  -3   0   4  310.25   22.65
  -3   0   4  318.87   24.88
  -3   0   4  300.00   22.52
  -3   0   4  244.49   20.14
  -3   0   5  152.76   13.70
  -3   0   5  228.85   20.61
  -3   0   5  169.22   15.29
  -3   0   5  241.47   20.73
  -3   0   5  199.22   21.97
  -3   0   6  174.32   19.82
  -3   0   6  174.21   20.86
  -3   0   6  132.95   13.01
  -3   0   6  140.26   13.97
  -3   0   6  190.74   19.54
  -3   0   7  247.71   22.73
  -3   0   7  199.21   18.13
  -3   0   7  246.17   22.15
  -3   0   7  231.35   24.35
  -3   0   8   72.74   17.06
  -3   0   8   81.92   14.25
  -3   0   8   96.28   20.69
  -3   0   8   99.95   18.21
  -3   0   9   73.18   14.44
  -3   0   9   92.58   18.18
  -3   0   9   73.47   16.14
  -3   0   9   64.23   19.74
  -3   0  10  392.35   27.27
  -3   0  10  381.31   30.40
  -3   0  10  323.39   23.84
  -3   0  11   64.08   17.07
  -3   0  11   53.60   13.47
  -3   1 -11   86.05   15.70
  -3   1 -10   24.90   15.23
  -3   1  -7  344.36   21.89
  -3   1  -6  314.57   21.62
  -3   1  -6  294.78   22.56
  -3   1  -5  367.99   24.52
  -3   1  -5  377.82   25.15
  -3   1  -4  197.86   17.84
  -3   1  -3  291.14   18.18
  -3   1  -3  275.34   15.31
  -3   1  -2  224.69   16.69
  -3   1  -2  188.48   13.33
  -3   1  -2  191.75   10.97
  -3   1  -2  239.75   17.21
  -3   1  -1  926.76   40.03
  -3   1  -1  948.32   42.03
  -3   1   0 1461.60   63.32
  -3   1   0 1556.55   64.70
  -3   1   0 1380.34   63.11
  -3   1   0 1527.88   65.61
  -3   1   1 1417.90   62.65
  -3   1   1 1388.61   61.01
  -3   1   2  110.66   14.70
  -3   1   2   88.71   11.81
  -3   1   2  121.09   17.31
  -3   1   3  711.36   34.40
  -3   1   3  780.86   36.74
  -3   1   4  595.65   30.74
  -3   1   4  577.91   31.65
  -3   1   5  372.48   20.75
  -3   1   5  441.67   26.33
  -3   1   5  413.82   25.72
  -3   1   6   87.00   16.37
  -3   1   6   72.21   11.82
  -3   1   6   91.32   12.26
  -3   1   6   77.22   15.02
  -3   1   7  270.45   19.79
  -3   1   7  280.31   17.73
  -3   1   7  322.52   23.88
  -3   1   7  309.55   22.42
  -3   1   8  432.09   29.65
  -3   1   8  446.35   32.61
  -3   1   8  455.45   28.73
  -3   1   8  357.25   24.52
  -3   1   9   24.79   15.95
  -3   1   9   11.90   12.61
  -3   1   9   12.56   14.35
  -3   1   9   26.15   18.25
  -3   1  10   12.82   15.00
  -3   1  10   33.35   13.85
  -3   1  10   11.44   11.72
  -3   1  10   14.34   16.66
  -3   1  11  172.49   19.12
  -3   1  11  148.02   21.40
  -3   1  12  111.07   17.76
  -3   1  12  113.38   15.51
  -3   2 -11  110.95   15.00
  -3   2 -10  193.47   18.96
  -3   2  -9  137.47   17.44
  -3   2  -8   35.10   13.77
  -3   2  -7  181.60   18.09
  -3   2  -6  575.72   32.55
  -3   2  -6  549.51   31.72
  -3   2  -5  784.92   40.31
  -3   2  -4   38.39   11.96
  -3   2  -4   52.51    8.90
  -3   2  -3  194.29   16.19
  -3   2  -3  200.67   14.49
  -3   2  -3  215.24   16.25
  -3   2  -2  281.04   17.18
  -3   2  -2  325.05   20.73
  -3   2  -2  279.39   18.76
  -3   2  -1  516.44   27.49
  -3   2  -1  654.82   29.53
  -3   2   0  671.08   33.16
  -3   2   0  638.67   31.76
  -3   2   1  704.31   35.97
  -3   2   1  844.97   40.64
  -3   2   2 1486.28   65.31
  -3   2   2 1587.39   68.53
  -3   2   3  148.84   18.30
  -3   2   3  113.97   13.98
  -3   2   4   31.37   14.25
  -3   2   4   19.92   15.51
  -3   2   5  414.72   23.77
  -3   2   5  487.91   29.21
  -3   2   5  515.00   28.67
  -3   2   6  533.80   30.36
  -3   2   6  436.89   27.43
  -3   2   6  453.06   25.57
  -3   2   6  567.14   30.64
  -3   2   7  254.37   18.48
  -3   2   7  257.34   18.76
  -3   2   7  310.22   23.36
  -3   2   7  318.58   22.78
  -3   2   8  437.90   27.70
  -3   2   8  349.74   23.10
  -3   2   9  105.29   17.44
  -3   2   9  127.39   16.04
  -3   2   9   74.26   13.68
  -3   2  10  133.02   18.17
  -3   2  10  126.36   18.08
  -3   2  10  128.09   20.71
  -3   2  11   28.04   12.48
  -3   2  11    5.46   13.23
  -3   2  11   -0.49   14.74
  -3   3  -8  312.99   22.30
  -3   3  -7   47.05   11.63
  -3   3  -6   28.33   10.57
  -3   3  -5  645.64   33.25
  -3   3  -4 1068.10   50.86
  -3   3  -4 1117.27   50.50
  -3   3  -3  565.54   28.73
  -3   3  -3  534.95   29.15
  -3   3  -2  219.24   15.53
  -3   3  -2  217.99   15.91
  -3   3  -2  192.11   17.33
  -3   3  -1  446.09   23.33
  -3   3  -1  502.75   25.39
  -3   3   0  386.81   25.02
  -3   3   0  419.13   22.57
  -3   3   1   50.24   10.09
  -3   3   1   67.57   17.08
  -3   3   2  562.58   32.66
  -3   3   2  514.79   28.41
  -3   3   3  562.61   32.93
  -3   3   3  513.44   29.45
  -3   3   4  319.17   19.60
  -3   3   4  374.63   25.66
  -3   3   5   59.05   16.15
  -3   3   5   55.91   10.94
  -3   3   5   43.06   14.76
  -3   3   6  116.10   13.38
  -3   3   6  125.04   17.87
  -3   3   6  124.35   17.74
  -3   3   7   12.94   10.66
  -3   3   7   10.55   14.68
  -3   3   7   25.55   15.62
  -3   3   8  318.96   23.23
  -3   3   8  214.62   18.25
  -3   3   9   37.60   13.64
  -3   3   9   18.03   14.45
  -3   3  10  174.12   19.28
  -3   3  10  188.49   17.25
  -3   3  11   88.15   14.81
  -3   3  11   86.96   15.17
  -3   3  11   87.13   17.95
  -3   4  -3  457.26   26.62
  -3   4  -2  243.81   19.91
  -3   4  -1   23.63   14.45
  -3   4   1 1210.50   55.74
  -3   4   1 1024.03   48.96
  -3   4   2   90.42   19.25
  -3   4   2   88.43   12.94
  -3   4   3   75.82   11.02
  -3   4   3  107.08   18.77
  -3   4   3   73.86   14.31
  -3   4   4  451.99   28.35
  -3   4   4  519.87   31.55
  -3   4   4  432.84   25.07
  -3   4   5  327.27   25.32
  -3   4   5  272.76   19.62
  -3   4   6  119.17   14.40
  -3   4   6  145.13   19.16
  -3   4   6  121.18   17.49
  -3   4   7   13.37   14.79
  -3   4   7   50.71   16.40
  -3   4   8   24.01   15.21
  -3   4   9   12.81   14.10
  -3   4   9   31.65   13.11
  -3   4  10   16.27   13.07
  -3   4  10   19.89   11.38
  -3   5  -3   12.73   11.42
  -3   5  -2   55.47   14.55
  -3   5  -1   -5.84   15.60
  -3   5   1  471.14   32.94
  -3   5   2  257.84   18.27
  -3   5   2  294.13   26.14
  -3   5   3  167.29   17.32
  -3   5   3  182.48   22.59
  -3   5   4   76.44   18.89
  -3   5   4   56.93   15.31
  -3   5   5  121.60   17.30
  -3   5   5  130.73   20.01
  -3   5   6  118.94   18.89
  -3   5   6  117.70   17.34
  -3   5   7    8.93   14.64
  -3   5   8    5.37   13.58
  -3   5   9   26.37   12.58
  -3   5   9   15.18   12.52
  -3   6  -2  111.80   16.45
  -3   6  -1  149.54   19.28
  -3   6   0   66.24   18.73
  -3   6   1   82.47   21.19
  -3   6   2   25.94   18.54
  -3   6   3   33.79   11.31
  -3   6   3   23.81   17.33
  -3   6   4   45.05   17.79
  -3   6   4   61.10   14.13
  -3   6   5   42.00   13.47
  -3   6   5   57.15   17.32
  -3   6   6   46.70   13.34
  -3   6   6   27.83   15.12
  -3   6   7    8.34   13.70
  -3   6   7   26.07   12.72
  -3   6   8    6.55   11.74
  -3   7  -1  208.25   19.46
  -3   7   0   22.85   14.93
  -3   7   2   81.58   18.76
  -3   7   3  129.44   19.44
  -3   7   4  182.88   20.55
  -3   7   5   16.45   13.03
  -3   7   6   15.16   12.62
  -2  -8  -5   29.16   19.85
  -2  -8  -4   17.88   21.80
  -2  -8  -3  106.59   24.21
  -2  -8  -3   91.01   24.79
  -2  -8  -2  286.27   32.40
  -2  -8  -2  273.08   30.61
  -2  -8  -1  344.59   32.57
  -2  -8  -1  288.55   32.91
  -2  -8   0  -17.78   21.57
  -2  -8   0  -19.30   21.16
  -2  -8   1   11.78   18.93
  -2  -8   2  183.76   23.69
  -2  -8   2  274.07   27.07
  -2  -8   3   89.95   19.61
  -2  -7  -8   97.18   24.66
  -2  -7  -6  115.65   22.63
  -2  -7  -5  127.36   29.22
  -2  -7  -5  137.51   26.38
  -2  -7  -4  174.28   24.83
  -2  -7  -4  160.94   29.58
  -2  -7  -4  200.64   26.82
  -2  -7  -3   34.56   18.68
  -2  -7  -3   25.60   22.76
  -2  -7  -3   46.65   25.03
  -2  -7  -2  135.57   27.62
  -2  -7  -2  192.75   27.78
  -2  -7  -2  136.14   19.26
  -2  -7  -1  195.16   28.46
  -2  -7  -1  191.36   29.08
  -2  -7   0  156.22   26.27
  -2  -7   0  192.15   27.54
  -2  -7   1  -27.91   22.20
  -2  -7   1    9.19   20.31
  -2  -7   1  -16.36   20.58
  -2  -7   2  295.12   29.31
  -2  -7   2  270.72   29.88
  -2  -7   3  174.28   25.63
  -2  -7   3  215.04   26.36
  -2  -7   3  159.63   22.64
  -2  -7   4    3.06   16.04
  -2  -7   4   15.13   19.01
  -2  -7   4   15.81   18.07
  -2  -7   5   67.15   19.88
  -2  -7   5   55.28   18.99
  -2  -7   6   89.23   18.68
  -2  -6 -10   70.77   23.61
  -2  -6  -9  124.95   26.46
  -2  -6  -8    5.30   23.92
  -2  -6  -7  -21.33   24.46
  -2  -6  -7   26.67   18.81
  -2  -6  -6   58.57   20.77
  -2  -6  -6   65.74   24.27
  -2  -6  -5   11.58   23.86
  -2  -6  -4  401.40   35.71
  -2  -6  -4  368.13   31.73
  -2  -6  -3  151.14   22.45
  -2  -6  -3  180.89   24.74
  -2  -6  -3  165.12   26.83
  -2  -6  -2  127.60   24.51
  -2  -6  -2  116.27   24.04
  -2  -6  -2  116.61   19.59
  -2  -6  -1   15.15   20.44
  -2  -6  -1   11.73   19.79
  -2  -6  -1   19.14   22.21
  -2  -6   0  122.98   23.22
  -2  -6   0  116.35   22.45
  -2  -6   0  128.25   24.27
  -2  -6   1   86.47   21.13
  -2  -6   1   83.65   23.01
  -2  -6   1  100.01   21.58
  -2  -6   2  520.51   35.74
  -2  -6   2  564.46   38.48
  -2  -6   2  534.98   39.00
  -2  -6   3   74.49   22.22
  -2  -6   3  100.71   21.88
  -2  -6   4   69.57   18.33
  -2  -6   4   84.74   21.43
  -2  -6   4   85.72   22.29
  -2  -6   5   46.04   21.58
  -2  -6   5   47.29   19.19
  -2  -6   5   31.07   16.17
  -2  -6   6   17.96   18.00
  -2  -6   7   39.44   17.73
  -2  -6   8   80.67   17.54
  -2  -6   8  111.80   18.99
  -2  -5 -11   51.46   17.13
  -2  -5 -11  119.22   23.26
  -2  -5 -10   40.46   17.00
  -2  -5 -10   55.84   23.98
  -2  -5  -9   67.06   17.73
  -2  -5  -9  102.75   25.77
  -2  -5  -8   49.56   15.55
  -2  -5  -8   46.01   24.47
  -2  -5  -7   36.67   13.26
  -2  -5  -7   22.82   17.73
  -2  -5  -7   28.89   23.62
  -2  -5  -6   66.46   12.80
  -2  -5  -6   91.79   18.92
  -2  -5  -6   90.08   24.32
  -2  -5  -5   85.02   12.14
  -2  -5  -5  123.47   24.93
  -2  -5  -5  102.84   24.26
  -2  -5  -4  149.59   21.29
  -2  -5  -4  108.03   11.43
  -2  -5  -4  145.08   23.99
  -2  -5  -4  120.14   23.81
  -2  -5  -3   64.68    8.66
  -2  -5  -3   60.91   19.48
  -2  -5  -3   82.90   20.84
  -2  -5  -2   98.01    9.47
  -2  -5  -2  152.73   21.21
  -2  -5  -2  179.68   22.40
  -2  -5  -2  173.22   23.22
  -2  -5  -2  131.97   18.53
  -2  -5  -2  158.21   22.26
  -2  -5  -1  422.33   28.03
  -2  -5  -1  499.46   32.98
  -2  -5  -1  441.62   31.63
  -2  -5  -1  521.20   34.18
  -2  -5  -1  486.97   34.14
  -2  -5   0  229.21   24.55
  -2  -5   0  255.15   24.41
  -2  -5   0  270.61   25.87
  -2  -5   0  256.39   26.36
  -2  -5   1  415.08   30.58
  -2  -5   1  437.73   32.64
  -2  -5   1  417.06   29.61
  -2  -5   2   76.68   21.26
  -2  -5   2   64.82   15.69
  -2  -5   2   58.00   17.71
  -2  -5   2   61.04   17.69
  -2  -5   3  500.27   32.98
  -2  -5   3  430.56   28.89
  -2  -5   3  400.49   33.51
  -2  -5   4   52.80   17.03
  -2  -5   4   70.08   21.85
  -2  -5   4   96.45   19.23
  -2  -5   5   75.50   17.15
  -2  -5   5   84.70   15.62
  -2  -5   5   93.68   22.63
  -2  -5   5   87.95   19.57
  -2  -5   6  133.56   22.81
  -2  -5   6  127.43   16.27
  -2  -5   7   40.58   18.86
  -2  -5   8   54.40   18.71
  -2  -5   9  166.47   21.28
  -2  -5   9  216.03   24.17
  -2  -4 -12   29.88   17.77
  -2  -4 -12   21.35   19.05
  -2  -4 -10  137.01   25.79
  -2  -4  -9  175.86   27.29
  -2  -4  -8  304.19   29.95
  -2  -4  -7   43.59   15.32
  -2  -4  -7   48.80   22.18
  -2  -4  -6  181.22   19.82
  -2  -4  -6  185.11   19.08
  -2  -4  -6  181.56   24.64
  -2  -4  -5   33.18   12.12
  -2  -4  -5   55.28   20.00
  -2  -4  -5   39.22   21.31
  -2  -4  -4  243.60   22.78
  -2  -4  -4  314.89   26.86
  -2  -4  -4  297.35   24.14
  -2  -4  -4  306.21   27.81
  -2  -4  -4  280.54   19.42
  -2  -4  -3  338.66   24.98
  -2  -4  -3  314.07   19.57
  -2  -4  -3  315.88   26.62
  -2  -4  -3  284.33   22.96
  -2  -4  -3  321.41   25.62
  -2  -4  -2  654.51   33.88
  -2  -4  -2  795.07   41.11
  -2  -4  -2  662.94   37.94
  -2  -4  -2  792.94   39.86
  -2  -4  -2  731.87   40.22
  -2  -4  -1  179.93   22.52
  -2  -4  -1  147.30   19.51
  -2  -4  -1  170.55   19.33
  -2  -4  -1  140.91   12.11
  -2  -4  -1  166.98   20.77
  -2  -4   0  304.63   23.79
  -2  -4   0  200.47   14.26
  -2  -4   0  232.51   21.01
  -2  -4   0  278.94   22.15
  -2  -4   0  218.39   18.65
  -2  -4   0  264.49   21.44
  -2  -4   0  275.97   24.23
  -2  -4   1  916.29   42.34
  -2  -4   1  771.66   40.33
  -2  -4   1  938.88   44.46
  -2  -4   1  938.74   43.39
  -2  -4   1  895.99   41.35
  -2  -4   2  152.72   17.11
  -2  -4   2  130.60   18.76
  -2  -4   2  106.40   17.21
  -2  -4   2  144.24   20.97
  -2  -4   2  157.66   18.45
  -2  -4   2  106.12   10.89
  -2  -4   3   73.60   18.80
  -2  -4   3   74.84   16.75
  -2  -4   3   72.40   14.75
  -2  -4   4   13.27   14.71
  -2  -4   4   10.17   17.76
  -2  -4   4    2.00   13.89
  -2  -4   4   18.06   13.15
  -2  -4   5  269.07   22.79
  -2  -4   5  372.56   27.84
  -2  -4   6   61.66   14.88
  -2  -4   6   76.37   19.39
  -2  -4   6   81.08   14.50
  -2  -4   7   27.19   18.10
  -2  -4   7   20.39   11.84
  -2  -4   8   87.64   20.93
  -2  -4   8   86.41   12.97
  -2  -4   8   76.08   19.10
  -2  -4   9   57.33   17.80
  -2  -4  10   46.26   16.26
  -2  -4  10   64.91   15.81
  -2  -3 -12   58.97   20.45
  -2  -3 -12   97.30   19.78
  -2  -3 -11  399.51   30.21
  -2  -3 -11  314.44   31.35
  -2  -3 -10   61.63   21.67
  -2  -3  -9  144.79   24.72
  -2  -3  -9  143.75   24.65
  -2  -3  -8  229.59   25.72
  -2  -3  -8  237.34   26.21
  -2  -3  -7  143.23   17.10
  -2  -3  -7  195.97   22.42
  -2  -3  -7  217.48   24.13
  -2  -3  -6   65.64   16.28
  -2  -3  -6   46.72   13.50
  -2  -3  -6   60.78   14.19
  -2  -3  -6   56.83   20.45
  -2  -3  -5   99.82   21.55
  -2  -3  -5  114.42   15.89
  -2  -3  -4  166.73   19.45
  -2  -3  -4  201.74   21.59
  -2  -3  -4  190.45   23.78
  -2  -3  -4  191.82   16.87
  -2  -3  -3  875.16   44.26
  -2  -3  -3  796.36   41.06
  -2  -3  -3  884.97   44.12
  -2  -3  -3  898.45   42.94
  -2  -3  -3  819.26   40.46
  -2  -3  -3  795.87   41.79
  -2  -3  -2  149.58   18.20
  -2  -3  -2   93.71   15.77
  -2  -3  -2  118.52   16.59
  -2  -3  -2   97.57   16.75
  -2  -3  -2   93.55   16.88
  -2  -3  -1  416.51   26.70
  -2  -3  -1  408.16   26.10
  -2  -3  -1  452.69   26.81
  -2  -3  -1  456.66   28.11
  -2  -3   0  513.93   28.28
  -2  -3   0  511.22   30.24
  -2  -3   0  459.63   27.46
  -2  -3   0  471.89   27.94
  -2  -3   0  487.25   29.36
  -2  -3   1   88.16   10.01
  -2  -3   1  107.73   15.06
  -2  -3   1  106.12   18.13
  -2  -3   1   50.80    6.07
  -2  -3   1  113.27   15.44
  -2  -3   1   96.91   17.51
  -2  -3   1   67.02   12.50
  -2  -3   1  117.18   15.44
  -2  -3   2  688.92   36.07
  -2  -3   2  620.30   33.62
  -2  -3   2  667.52   35.79
  -2  -3   2  718.33   35.41
  -2  -3   2  653.81   37.33
  -2  -3   3   74.59   18.08
  -2  -3   3   50.12   12.20
  -2  -3   3   58.22   14.32
  -2  -3   4   74.17   18.34
  -2  -3   4   44.29   13.96
  -2  -3   4   58.70   12.88
  -2  -3   4   62.30   13.64
  -2  -3   5   86.80   18.72
  -2  -3   5   57.81   13.65
  -2  -3   5   71.60   12.56
  -2  -3   5   78.09   13.87
  -2  -3   6  129.19   16.56
  -2  -3   6  195.66   21.86
  -2  -3   7  301.33   21.37
  -2  -3   7  282.92   26.29
  -2  -3   7  267.72   25.67
  -2  -3   8  145.20   21.65
  -2  -3   8  132.10   20.93
  -2  -3   8  130.70   15.48
  -2  -3   9   13.61   17.00
  -2  -3   9   27.64   16.44
  -2  -3   9   16.76   10.99
  -2  -3  10   66.88   17.27
  -2  -3  11  122.96   18.58
  -2  -3  11  133.69   18.05
  -2  -2 -13   14.87   16.62
  -2  -2 -12   66.20   21.69
  -2  -2 -12   65.05   17.49
  -2  -2 -11  329.31   26.44
  -2  -2 -11  278.87   30.00
  -2  -2 -10  708.70   45.69
  -2  -2  -9   10.76   20.23
  -2  -2  -8  176.26   22.45
  -2  -2  -8  173.24   24.85
  -2  -2  -7  109.18   20.49
  -2  -2  -7  120.74   21.03
  -2  -2  -6  101.03   18.16
  -2  -2  -6   51.22   10.87
  -2  -2  -6  104.01   20.31
  -2  -2  -5  187.35   22.40
  -2  -2  -5  217.29   19.46
  -2  -2  -4 2688.92  116.03
  -2  -2  -4 2603.44  116.42
  -2  -2  -3  661.28   36.75
  -2  -2  -3  663.11   34.85
  -2  -2  -3  732.47   37.40
  -2  -2  -3  789.49   38.61
  -2  -2  -3  785.38   36.06
  -2  -2  -3  655.85   34.37
  -2  -2  -2 1566.26   70.80
  -2  -2  -2 1566.41   71.19
  -2  -2  -2 1717.59   72.59
  -2  -2  -2 1594.69   71.99
  -2  -2  -2 1532.97   70.95
  -2  -2  -2 1664.41   71.96
  -2  -2  -2 1593.61   70.85
  -2  -2  -1  404.14   20.88
  -2  -2  -1  271.99   20.35
  -2  -2  -1  276.44   19.07
  -2  -2  -1  284.91   21.43
  -2  -2  -1  438.10   23.98
  -2  -2   0  857.93   42.32
  -2  -2   0 1013.48   45.61
  -2  -2   0  900.91   43.21
  -2  -2   0  950.96   44.03
  -2  -2   0  953.72   44.87
  -2  -2   1 1540.45   67.37
  -2  -2   1 1443.66   65.70
  -2  -2   1 1582.16   66.49
  -2  -2   1 1378.57   65.02
  -2  -2   1 1505.32   67.25
  -2  -2   2  701.98   36.43
  -2  -2   2  640.30   34.16
  -2  -2   2  733.53   34.35
  -2  -2   2  742.57   35.84
  -2  -2   2  725.15   37.23
  -2  -2   3 1607.36   71.96
  -2  -2   3 1584.55   72.21
  -2  -2   3 1599.35   73.52
  -2  -2   4   84.76   15.07
  -2  -2   4   94.24   14.65
  -2  -2   4   95.01   17.94
  -2  -2   4  109.26   14.49
  -2  -2   5  128.71   17.25
  -2  -2   5  140.41   17.17
  -2  -2   5  180.95   16.65
  -2  -2   5  168.47   19.88
  -2  -2   5  150.62   12.87
  -2  -2   6   54.90   14.96
  -2  -2   6   68.03   13.38
  -2  -2   6   60.29   17.13
  -2  -2   7   56.76   16.01
  -2  -2   7   74.89   17.28
  -2  -2   8  193.67   23.33
  -2  -2   8  209.86   22.72
  -2  -2   9  708.56   42.04
  -2  -2   9  791.91   38.69
  -2  -2  10   14.39   14.15
  -2  -2  10   34.17   11.23
  -2  -2  11    4.59   13.94
  -2  -2  11   12.43   12.92
  -2  -2  12   66.57   15.28
  -2  -1 -13  194.71   23.84
  -2  -1 -12   70.95   20.27
  -2  -1 -11  199.70   20.59
  -2  -1 -11  190.32   25.36
  -2  -1 -10  224.50   22.87
  -2  -1 -10  259.11   27.56
  -2  -1  -9  280.95   28.59
  -2  -1  -8  166.81   23.98
  -2  -1  -7  162.39   12.50
  -2  -1  -7  227.06   21.71
  -2  -1  -7  233.83   24.00
  -2  -1  -6  318.43   25.04
  -2  -1  -6  336.34   25.08
  -2  -1  -5   46.48   10.39
  -2  -1  -5   59.38   15.77
  -2  -1  -5   61.94   19.61
  -2  -1  -4  817.08   40.99
  -2  -1  -4  799.32   41.68
  -2  -1  -3  585.18   35.17
  -2  -1  -3  582.56   32.65
  -2  -1  -3  780.64   35.15
  -2  -1  -3  786.60   35.60
  -2  -1  -2  801.00   38.51
  -2  -1  -2  743.94   35.49
  -2  -1  -2  746.88   36.21
  -2  -1  -2  808.68   38.11
  -2  -1  -2  706.41   34.31
  -2  -1  -2  759.63   36.51
  -2  -1  -1 1025.04   48.75
  -2  -1  -1 1109.51   49.42
  -2  -1  -1 1116.37   48.66
  -2  -1  -1 1003.36   48.33
  -2  -1  -1 1090.91   50.34
  -2  -1  -1 1045.14   49.36
  -2  -1   0  127.21   12.27
  -2  -1   0  130.26   13.20
  -2  -1   0  144.06   13.56
  -2  -1   0  136.92   13.48
  -2  -1   0  177.65   16.68
  -2  -1   0  133.95   10.38
  -2  -1   0   95.23   15.98
  -2  -1   1  776.13   37.45
  -2  -1   1  724.23   34.85
  -2  -1   1  771.73   33.12
  -2  -1   1  709.57   35.01
  -2  -1   1  741.19   36.12
  -2  -1   1  625.22   34.39
  -2  -1   2  202.17   18.46
  -2  -1   2  193.59   15.20
  -2  -1   2  212.62   16.22
  -2  -1   2  250.96   16.62
  -2  -1   2  239.15   17.29
  -2  -1   2  231.00   17.81
  -2  -1   2  235.21   13.93
  -2  -1   3 1033.86   46.48
  -2  -1   3  883.45   44.02
  -2  -1   3 1046.39   46.21
  -2  -1   3  906.94   44.31
  -2  -1   3 1040.49   47.80
  -2  -1   3 1006.00   44.83
  -2  -1   4  256.29   18.71
  -2  -1   4  264.25   18.99
  -2  -1   4  287.22   20.06
  -2  -1   4  289.12   22.27
  -2  -1   4  288.94   20.41
  -2  -1   5  217.13   14.27
  -2  -1   5  254.69   18.80
  -2  -1   5  216.40   20.92
  -2  -1   5  250.65   19.66
  -2  -1   6  416.47   22.09
  -2  -1   6  496.68   27.41
  -2  -1   6  458.39   26.84
  -2  -1   6  490.11   29.70
  -2  -1   7  271.80   21.27
  -2  -1   7  287.58   20.69
  -2  -1   7  279.78   23.62
  -2  -1   8   70.26   14.90
  -2  -1   8   88.98   17.60
  -2  -1   9  279.44   21.15
  -2  -1   9  248.00   24.79
  -2  -1   9  311.25   22.52
  -2  -1  10  774.39   40.12
  -2  -1  10  721.65   43.88
  -2  -1  11  389.48   28.28
  -2  -1  12   59.24   15.13
  -2  -1  12   72.75   16.49
  -2   0 -12  373.82   30.83
  -2   0 -11   22.52   18.02
  -2   0 -10   95.15   20.87
  -2   0 -10   83.36   17.52
  -2   0  -9   36.44   18.70
  -2   0  -9   42.04   16.49
  -2   0  -8  584.02   33.47
  -2   0  -8  607.88   38.09
  -2   0  -7  393.70   29.55
  -2   0  -6  465.26   29.97
  -2   0  -5  127.78   20.35
  -2   0  -5  154.08   17.47
  -2   0  -4  904.86   45.42
  -2   0  -4  953.24   45.72
  -2   0  -3  595.19   31.28
  -2   0  -3  695.97   33.29
  -2   0  -3  591.03   28.48
  -2   0  -3  669.66   32.52
  -2   0  -2  700.38   33.46
  -2   0  -2  802.72   37.19
  -2   0  -2  750.76   35.58
  -2   0  -1 3155.75  135.07
  -2   0  -1 3330.28  137.34
  -2   0  -1 3115.24  136.22
  -2   0  -1 3315.98  137.07
  -2   0   0 3857.52  158.42
  -2   0   0 3652.52  157.62
  -2   0   0 3626.41  157.97
  -2   0   0 3872.26  158.50
  -2   0   1 4653.70  194.60
  -2   0   1 4608.76  193.89
  -2   0   1 4475.83  194.18
  -2   0   1 4700.83  194.68
  -2   0   2   35.61   10.50
  -2   0   2   30.60   11.11
  -2   0   2   37.44    9.56
  -2   0   2   29.32   11.64
  -2   0   3  220.96   16.83
  -2   0   3  206.74   13.34
  -2   0   3  281.84   18.23
  -2   0   3  263.39   15.18
  -2   0   3  223.21   16.73
  -2   0   3  265.15   17.74
  -2   0   4  130.59   16.16
  -2   0   4  138.64   14.61
  -2   0   4  110.12   14.74
  -2   0   4  115.20   13.30
  -2   0   5  188.14   17.81
  -2   0   5  187.29   16.12
  -2   0   5  151.92   15.83
  -2   0   5  181.48   15.57
  -2   0   6  706.76   33.95
  -2   0   6  551.59   34.41
  -2   0   7  976.23   47.78
  -2   0   7  979.08   50.60
  -2   0   8  157.00   19.90
  -2   0   8  150.54   17.53
  -2   0   9  204.28   19.20
  -2   0   9  194.46   21.90
  -2   0  10   55.32   13.72
  -2   0  10   60.44   15.08
  -2   0  10   78.96   17.95
  -2   0  11  466.94   31.21
  -2   0  11  499.56   29.94
  -2   0  12   26.80   15.08
  -2   0  12   21.71   14.74
  -2   1 -12   28.01   14.97
  -2   1 -11   60.45   17.69
  -2   1  -8   14.04   15.93
  -2   1  -7   40.70   16.61
  -2   1  -7   26.05   10.27
  -2   1  -6   44.51   10.65
  -2   1  -6   43.19   10.95
  -2   1  -5    4.91    9.77
  -2   1  -5  -11.16   13.36
  -2   1  -4  232.21   15.94
  -2   1  -4  249.36   19.09
  -2   1  -3 1951.93   86.35
  -2   1  -3 2150.77   87.29
  -2   1  -3 1971.81   88.43
  -2   1  -2  564.32   26.82
  -2   1  -2  635.37   27.89
  -2   1  -2  617.12   29.72
  -2   1  -1 1509.36   67.48
  -2   1  -1 1606.27   68.23
  -2   1  -1 1625.60   69.54
  -2   1  -1 1724.53   69.80
  -2   1   0  439.41   21.35
  -2   1   0  371.13   19.81
  -2   1   0  393.87   22.25
  -2   1   1 2648.71  117.53
  -2   1   1 2895.47  118.31
  -2   1   1 2788.07  118.87
  -2   1   2 2538.59  106.23
  -2   1   2 2506.08  106.19
  -2   1   2 2426.04  104.28
  -2   1   2 2450.59  106.79
  -2   1   3 1104.67   49.04
  -2   1   3 1034.00   48.50
  -2   1   3 1045.15   46.80
  -2   1   3 1010.75   48.82
  -2   1   4  326.66   20.96
  -2   1   4  321.05   19.16
  -2   1   4  334.67   21.48
  -2   1   5  212.47   18.16
  -2   1   5  148.55   16.24
  -2   1   5  186.75   16.45
  -2   1   5  201.86   16.58
  -2   1   6   73.50   15.36
  -2   1   6   67.13   13.23
  -2   1   6   66.69   12.36
  -2   1   7   67.89   15.19
  -2   1   8  451.17   26.67
  -2   1   8  386.12   23.74
  -2   1   9  259.79   21.28
  -2   1  10  167.05   18.34
  -2   1  10  159.90   19.10
  -2   1  10  162.60   21.55
  -2   1  11   99.02   15.85
  -2   1  11   75.01   17.28
  -2   1  11  100.42   15.40
  -2   1  11   73.47   17.61
  -2   1  12   44.09   11.90
  -2   1  12   30.23   13.10
  -2   1  12   36.22   15.21
  -2   2 -12   14.11   11.55
  -2   2 -11   17.67   12.88
  -2   2 -10   43.29   14.53
  -2   2  -9  581.96   35.68
  -2   2  -8  148.24   18.27
  -2   2  -7   76.01   14.73
  -2   2  -6   33.66   11.91
  -2   2  -6   23.77   10.86
  -2   2  -5   38.02   12.06
  -2   2  -5   45.14   11.72
  -2   2  -4   83.37   12.32
  -2   2  -4   88.60    9.20
  -2   2  -4   87.39   12.03
  -2   2  -3 1700.83   70.74
  -2   2  -3 1462.58   69.24
  -2   2  -3 1624.35   69.98
  -2   2  -2  769.54   33.03
  -2   2  -2  760.61   32.60
  -2   2  -1  779.45   34.40
  -2   2   3  485.14   25.31
  -2   2   3  544.27   29.54
  -2   2   4  129.11   14.78
  -2   2   4  169.52   15.05
  -2   2   4  178.36   18.14
  -2   2   5   54.31   12.24
  -2   2   5   53.78   13.19
  -2   2   5   39.47   13.16
  -2   2   6  509.62   28.95
  -2   2   6  495.61   28.08
  -2   2   6  451.38   27.09
  -2   2   7  484.31   29.18
  -2   2   7  468.58   28.08
  -2   2   8   98.20   16.48
  -2   2   8   77.26   13.42
  -2   2   9   92.93   17.39
  -2   2   9  115.37   16.75
  -2   2   9   87.71   13.25
  -2   2  10  184.54   19.27
  -2   2  10  149.57   18.67
  -2   2  11  362.85   24.79
  -2   2  11  310.28   25.04
  -2   2  11  353.60   28.75
  -2   2  12   43.45   12.46
  -2   2  12   28.48   14.88
  -2   3  -9  171.40   16.95
  -2   3  -8   39.36   12.79
  -2   3  -7   25.49   11.09
  -2   3  -6    8.90    9.80
  -2   3  -5   14.40    8.89
  -2   3  -4  154.65   15.21
  -2   3  -4  129.32   12.02
  -2   3  -3  598.03   30.77
  -2   3  -3  548.30   27.49
  -2   3  -2  102.96    9.69
  -2   3  -2  120.58   13.23
  -2   3  -1 1354.94   59.06
  -2   3  -1 1221.16   55.51
  -2   3   4   79.37   12.94
  -2   3   5  198.28   17.16
  -2   3   5  230.45   19.93
  -2   3   6   37.92   14.60
  -2   3   6   39.73   13.71
  -2   3   7  112.23   16.78
  -2   3   8  107.08   17.53
  -2   3   8  112.33   17.81
  -2   3   8  126.83   15.26
  -2   3   9  231.79   22.07
  -2   3   9  219.62   21.33
  -2   3   9  245.51   19.15
  -2   3  10   58.56   16.22
  -2   3  10   43.30   15.83
  -2   3  10   61.22   12.02
  -2   3  11  142.21   17.54
  -2   3  11  132.56   18.22
  -2   3  12   47.25   13.02
  -2   3  12   47.14   14.25
  -2   4   5  147.04   16.79
  -2   4   6   91.57   15.61
  -2   4   6  106.37   17.09
  -2   4   7  162.02   18.94
  -2   4   7  127.17   17.50
  -2   4   8  151.09   19.75
  -2   4   8  154.01   17.44
  -2   4   9   19.00   16.02
  -2   4   9   23.84   15.87
  -2   4   9   16.58   12.26
  -2   4  10    5.50   14.69
  -2   4  10   -2.43   15.00
  -2   4  10   -0.64   10.93
  -2   4  11   30.87   14.16
  -2   4  11   23.99   14.39
  -2   4  12   48.95   12.50
  -2   5   5  314.39   23.10
  -2   5   6  151.54   18.24
  -2   5   7   12.80   15.59
  -2   5   7   20.40   16.19
  -2   5   8  358.98   27.00
  -2   5   8  341.91   25.28
  -2   5   9  358.47   26.73
  -2   5   9  350.47   27.41
  -2   5   9  376.96   25.26
  -2   5  10  223.39   20.78
  -2   5  10  204.33   18.08
  -2   5  10  195.93   20.58
  -2   5  11    7.64   12.28
  -2   6   5   29.45   15.58
  -2   6   6  152.59   18.75
  -2   6   7  197.85   21.08
  -2   6   7  181.21   21.62
  -2   6   8   -7.61   16.08
  -2   6   8    2.28   13.43
  -2   6   9   18.20   13.69
  -2   6   9   15.12   15.38
  -2   6   9   38.27   12.82
  -2   6  10  177.79   17.83
  -2   7   5   28.01   15.41
  -2   7   6  102.39   17.01
  -2   7   6   93.58   18.41
  -2   7   7   84.22   16.95
  -2   7   7  108.36   17.24
  -2   7   8  139.34   16.71
  -2   8   5   95.54   16.84
  -1  -8  -6   70.60   19.77
  -1  -8  -6   61.05   22.09
  -1  -8  -5  118.93   26.89
  -1  -8  -5  160.26   24.32
  -1  -8  -4  109.16   25.34
  -1  -8  -4  112.31   22.89
  -1  -8  -4  123.06   21.77
  -1  -8  -3    8.25   20.45
  -1  -8  -3   40.14   22.16
  -1  -8  -3   38.33   17.17
  -1  -8  -2   15.80   21.52
  -1  -8  -2    2.80   20.01
  -1  -8  -1   61.23   22.65
  -1  -8  -1   51.91   21.73
  -1  -8   0    7.87   19.38
  -1  -8   0    8.90   19.75
  -1  -8   1   -3.44   18.18
  -1  -8   1    5.77   18.65
  -1  -8   2   15.25   17.48
  -1  -8   3   46.26   16.81
  -1  -8   3   76.64   19.69
  -1  -8   4   15.04   16.74
  -1  -7  -9   44.67   22.24
  -1  -7  -8  164.15   26.49
  -1  -7  -7   61.07   24.14
  -1  -7  -6   79.78   19.61
  -1  -7  -6   72.12   23.57
  -1  -7  -5  274.52   33.74
  -1  -7  -4  117.43   23.29
  -1  -7  -4  137.41   26.84
  -1  -7  -3   16.18   20.61
  -1  -7  -3    1.50   22.93
  -1  -7  -3  -16.49   19.55
  -1  -7  -3    4.87   13.16
  -1  -7  -2    8.86   20.55
  -1  -7  -2   18.45   21.53
  -1  -7  -2    9.33   16.90
  -1  -7  -2   12.37   13.17
  -1  -7  -1  283.64   28.54
  -1  -7  -1  281.60   30.67
  -1  -7  -1  292.83   22.72
  -1  -7  -1  208.18   20.16
  -1  -7   0   53.93   21.01
  -1  -7   0   45.51   22.07
  -1  -7   0   45.42   14.15
  -1  -7   1  337.84   29.44
  -1  -7   1  357.14   32.83
  -1  -7   1  416.58   27.30
  -1  -7   2  603.16   41.37
  -1  -7   2  585.22   35.03
  -1  -7   2  526.75   39.08
  -1  -7   3  113.53   22.32
  -1  -7   3  122.47   19.54
  -1  -7   3  133.85   23.99
  -1  -7   3  130.68   17.03
  -1  -7   4   14.82   15.30
  -1  -7   4   42.54   18.61
  -1  -7   4   44.82   20.10
  -1  -7   4   26.82   13.33
  -1  -7   5   31.89   14.90
  -1  -7   5   91.50   21.26
  -1  -7   5   71.89   15.03
  -1  -7   6   81.54   17.48
  -1  -7   6   98.66   20.35
  -1  -7   7   57.54   17.42
  -1  -6 -11   46.01   20.90
  -1  -6 -10  -16.84   22.45
  -1  -6  -9  356.32   33.42
  -1  -6  -8   41.21   24.54
  -1  -6  -7  251.52   23.61
  -1  -6  -7  242.46   28.57
  -1  -6  -6    4.42   16.91
  -1  -6  -6   -9.84   23.68
  -1  -6  -6   18.09   21.51
  -1  -6  -5    7.62   22.27
  -1  -6  -5   14.82   20.78
  -1  -6  -4  178.29   22.05
  -1  -6  -4  184.15   27.63
  -1  -6  -4  128.00   18.09
  -1  -6  -3  342.71   26.67
  -1  -6  -3  311.26   30.92
  -1  -6  -3  262.74   23.18
  -1  -6  -2  107.22   15.34
  -1  -6  -2   71.01   22.31
  -1  -6  -2   98.25   20.24
  -1  -6  -2   67.72   17.93
  -1  -6  -1  277.61   27.32
  -1  -6  -1  285.31   25.75
  -1  -6  -1  268.65   20.94
  -1  -6  -1  219.45   20.14
  -1  -6   0  303.27   25.75
  -1  -6   0  278.49   27.37
  -1  -6   0  276.85   21.45
  -1  -6   0  230.04   18.74
  -1  -6   0  297.80   27.94
  -1  -6   1  -10.46   19.80
  -1  -6   1   -6.25   19.47
  -1  -6   1   13.10   11.91
  -1  -6   1    8.93   17.13
  -1  -6   2  288.09   24.46
  -1  -6   2  298.52   23.34
  -1  -6   2  306.65   28.24
  -1  -6   2  290.38   27.75
  -1  -6   3  673.10   42.19
  -1  -6   3  639.19   37.97
  -1  -6   3  598.29   40.26
  -1  -6   4  540.10   35.14
  -1  -6   4  485.86   32.89
  -1  -6   4  556.79   36.88
  -1  -6   5   45.94   19.22
  -1  -6   5   19.50   19.46
  -1  -6   5    9.89   14.25
  -1  -6   5   15.63   15.00
  -1  -6   6   21.59   19.10
  -1  -6   6    3.40   15.03
  -1  -6   7  140.78   20.36
  -1  -6   7  187.67   25.05
  -1  -6   8   87.86   16.54
  -1  -6   8   79.23   19.78
  -1  -6   9   84.21   17.46
  -1  -5 -12   82.17   21.29
  -1  -5 -11   18.35   17.02
  -1  -5 -10   53.71   18.12
  -1  -5 -10   96.78   24.40
  -1  -5  -9  463.73   33.55
  -1  -5  -9  234.86   25.35
  -1  -5  -8  598.43   37.25
  -1  -5  -8  425.54   30.79
  -1  -5  -7  801.27   39.46
  -1  -5  -7  807.31   43.98
  -1  -5  -6  829.30   38.63
  -1  -5  -6  761.03   40.98
  -1  -5  -5  154.81   23.84
  -1  -5  -5  128.77   21.12
  -1  -5  -5   93.27   11.19
  -1  -5  -4   17.91    6.85
  -1  -5  -4   15.12   14.94
  -1  -5  -4   15.60   19.61
  -1  -5  -4    6.66   19.00
  -1  -5  -4   11.15   11.67
  -1  -5  -3  776.93   40.84
  -1  -5  -3  815.04   45.60
  -1  -5  -3  741.56   39.53
  -1  -5  -3  723.09   41.62
  -1  -5  -2  329.04   25.23
  -1  -5  -2  358.53   28.86
  -1  -5  -2  322.41   22.11
  -1  -5  -1  192.89   18.73
  -1  -5  -1  215.81   23.50
  -1  -5  -1  224.87   22.10
  -1  -5  -1  219.19   17.44
  -1  -5  -1  196.15   23.93
  -1  -5   0  323.12   24.05
  -1  -5   0  355.88   27.50
  -1  -5   0  332.76   21.60
  -1  -5   0  246.32   19.54
  -1  -5   0  323.01   27.25
  -1  -5   1  218.42   20.43
  -1  -5   1  250.06   19.83
  -1  -5   1  254.85   24.66
  -1  -5   1  242.61   25.07
  -1  -5   2  764.35   42.08
  -1  -5   2  820.78   44.41
  -1  -5   2  936.51   47.50
  -1  -5   2  846.33   45.97
  -1  -5   3  133.54   20.32
  -1  -5   3  142.11   21.31
  -1  -5   4  190.45   18.55
  -1  -5   4  214.91   24.66
  -1  -5   4  192.11   22.70
  -1  -5   5  318.08   23.58
  -1  -5   5  386.86   32.12
  -1  -5   5  380.31   29.92
  -1  -5   6  163.41   17.15
  -1  -5   6  244.25   26.34
  -1  -5   7  127.48   20.30
  -1  -5   7  150.54   24.64
  -1  -5   8  324.57   30.48
  -1  -5   8  246.95   24.08
  -1  -5   9   64.89   15.90
  -1  -5   9   87.85   20.63
  -1  -5  10  107.79   19.38
  -1  -4 -12   35.59   19.47
  -1  -4 -12   36.80   20.06
  -1  -4 -11  141.53   24.30
  -1  -4  -9  811.27   46.80
  -1  -4  -8  521.86   32.75
  -1  -4  -8  360.17   30.79
  -1  -4  -7   11.68   11.60
  -1  -4  -7   -4.70   14.58
  -1  -4  -7    2.22   18.84
  -1  -4  -6  443.41   25.57
  -1  -4  -6  487.54   30.56
  -1  -4  -6  394.60   26.70
  -1  -4  -5  653.36   38.74
  -1  -4  -5  602.73   34.51
  -1  -4  -5  522.66   30.71
  -1  -4  -4  602.00   31.57
  -1  -4  -4  668.38   37.48
  -1  -4  -4  546.97   31.58
  -1  -4  -4  556.10   34.15
  -1  -4  -4  555.00   29.64
  -1  -4  -3  859.98   43.79
  -1  -4  -3  825.83   39.15
  -1  -4  -3  843.54   40.00
  -1  -4  -3  773.41   41.67
  -1  -4  -3  701.36   36.06
  -1  -4  -2 1419.26   64.51
  -1  -4  -2 1513.32   63.73
  -1  -4  -2 1543.19   67.56
  -1  -4  -2 1341.25   64.41
  -1  -4  -2 1561.40   67.50
  -1  -4  -2 1299.41   60.65
  -1  -4  -1  188.19   10.61
  -1  -4  -1  206.80   20.92
  -1  -4  -1  218.24   16.02
  -1  -4  -1  213.51   19.69
  -1  -4  -1  200.00   21.79
  -1  -4   0  106.54   19.21
  -1  -4   0   91.96   13.13
  -1  -4   0   92.49   16.51
  -1  -4   0  120.94   18.16
  -1  -4   1  181.57   18.23
  -1  -4   1  158.66   17.17
  -1  -4   1  203.21   20.82
  -1  -4   1  136.72   14.93
  -1  -4   1  175.50   21.04
  -1  -4   2 4159.03  183.05
  -1  -4   2 4665.68  187.52
  -1  -4   2 4316.02  185.96
  -1  -4   2 4251.33  183.24
  -1  -4   3  255.17   24.55
  -1  -4   3  227.67   23.27
  -1  -4   4  860.21   43.73
  -1  -4   4 1021.12   50.56
  -1  -4   4  916.08   47.68
  -1  -4   4  937.98   43.86
  -1  -4   5   60.00   12.44
  -1  -4   5   98.81   19.20
  -1  -4   5   80.61   16.68
  -1  -4   5   75.41   11.77
  -1  -4   6  525.26   34.25
  -1  -4   6  472.64   29.85
  -1  -4   6  435.44   23.98
  -1  -4   7  739.08   42.17
  -1  -4   7  562.62   30.16
  -1  -4   8  247.51   26.42
  -1  -4   8  193.99   21.07
  -1  -4   9   16.09   14.23
  -1  -4   9   44.58   18.77
  -1  -4  10  233.14   26.20
  -1  -4  10  208.57   20.82
  -1  -4  11   81.87   18.18
  -1  -3 -13   17.92   18.04
  -1  -3 -12   50.24   21.36
  -1  -3 -12   71.50   18.94
  -1  -3 -11  101.91   22.51
  -1  -3 -11  149.25   22.52
  -1  -3 -10   24.03   19.36
  -1  -3  -9  100.60   20.94
  -1  -3  -8  663.01   36.22
  -1  -3  -8  488.02   35.91
  -1  -3  -7  642.37   37.36
  -1  -3  -7  648.47   37.51
  -1  -3  -6  399.99   23.28
  -1  -3  -6  473.12   27.92
  -1  -3  -6  405.83   27.19
  -1  -3  -5  172.34   22.05
  -1  -3  -5  172.38   19.45
  -1  -3  -5  160.00   16.59
  -1  -3  -4  373.95   27.47
  -1  -3  -4  372.02   25.51
  -1  -3  -3 1025.08   46.14
  -1  -3  -3  884.87   46.88
  -1  -3  -3 1094.82   50.09
  -1  -3  -3 1002.11   46.54
  -1  -3  -3 1025.63   48.50
  -1  -3  -2 1501.51   67.08
  -1  -3  -2 1488.44   68.73
  -1  -3  -2 1590.67   67.03
  -1  -3  -2 1454.32   65.88
  -1  -3  -2 1430.35   67.64
  -1  -3  -2 1564.60   68.78
  -1  -3  -2 1514.77   65.59
  -1  -3  -1 1336.04   54.96
  -1  -3  -1 1274.64   54.73
  -1  -3  -1 1215.90   56.00
  -1  -3  -1 1149.26   52.94
  -1  -3  -1 1149.70   53.87
  -1  -3  -1 1334.05   56.27
  -1  -3  -1 1111.23   51.85
  -1  -3   0 1702.45   75.77
  -1  -3   0 1737.30   78.33
  -1  -3   0 1884.62   78.51
  -1  -3   0 1769.08   77.80
  -1  -3   0 1809.44   80.01
  -1  -3   0 1894.23   80.26
  -1  -3   0 1889.33   78.47
  -1  -3   1 1771.54   73.71
  -1  -3   1 1802.14   73.72
  -1  -3   1 1801.40   73.82
  -1  -3   1 1796.19   76.21
  -1  -3   1 1756.02   75.56
  -1  -3   2  350.45   20.96
  -1  -3   2  347.04   20.95
  -1  -3   2  353.78   22.23
  -1  -3   2  406.48   25.38
  -1  -3   2  359.05   24.05
  -1  -3   3  943.28   42.94
  -1  -3   3  956.97   46.90
  -1  -3   3  905.99   45.57
  -1  -3   3  847.34   44.46
  -1  -3   4  750.87   37.11
  -1  -3   4  882.73   43.20
  -1  -3   4  723.05   39.82
  -1  -3   4  843.21   41.35
  -1  -3   5  663.98   37.62
  -1  -3   5  966.09   46.16
  -1  -3   5  729.51   41.75
  -1  -3   5  827.91   37.75
  -1  -3   5  919.20   39.26
  -1  -3   5  923.43   43.18
  -1  -3   6  100.47   16.81
  -1  -3   6   63.34   11.08
  -1  -3   6  114.21   11.80
  -1  -3   6   81.63    9.18
  -1  -3   7  283.65   18.12
  -1  -3   7  296.71   23.48
  -1  -3   8  122.08   11.89
  -1  -3   9   47.04   15.09
  -1  -3   9   33.49   18.43
  -1  -3  10   27.31   13.59
  -1  -3  10   32.75   17.45
  -1  -3  11  240.52   21.03
  -1  -2 -13  226.50   26.90
  -1  -2 -12   57.45   22.10
  -1  -2 -12   62.44   16.89
  -1  -2 -11  124.02   23.18
  -1  -2 -11  128.39   19.59
  -1  -2 -10  280.15   23.86
  -1  -2 -10  179.38   25.00
  -1  -2  -9   40.66   18.30
  -1  -2  -8    6.79   16.57
  -1  -2  -7   33.37   17.43
  -1  -2  -7   50.85   18.41
  -1  -2  -6 1971.34   76.49
  -1  -2  -6 1898.40   77.72
  -1  -2  -5  100.57   12.85
  -1  -2  -5  127.46   17.75
  -1  -2  -5  129.53   15.44
  -1  -2  -4   33.36   11.29
  -1  -2  -4   39.77   14.95
  -1  -2  -4   36.00   14.15
  -1  -2  -3   74.72   11.38
  -1  -2  -3   46.67   10.13
  -1  -2  -3   91.54   13.80
  -1  -2  -3   60.67   10.13
  -1  -2  -3   87.09   14.58
  -1  -2  -2  734.55   34.16
  -1  -2  -2  720.69   34.05
  -1  -2  -2  732.12   35.65
  -1  -2  -2  697.95   35.02
  -1  -2  -2  701.38   34.95
  -1  -2  -2  771.06   34.04
  -1  -2  -1 1589.21   70.48
  -1  -2  -1 1483.80   68.04
  -1  -2  -1 1693.72   69.44
  -1  -2  -1 1673.19   70.62
  -1  -2  -1 1674.68   68.93
  -1  -2   0 2197.38   93.47
  -1  -2   0 2112.78   93.60
  -1  -2   0 2271.35   95.52
  -1  -2   0 2383.33   95.66
  -1  -2   1 1556.74   65.55
  -1  -2   1 1433.49   65.23
  -1  -2   1 1599.29   65.27
  -1  -2   1 1539.60   67.06
  -1  -2   1 1490.61   66.50
  -1  -2   1 1371.18   65.59
  -1  -2   2 3744.72  161.84
  -1  -2   2 3974.12  161.82
  -1  -2   2 3635.34  162.75
  -1  -2   2 3833.21  162.22
  -1  -2   2 3866.09  163.30
  -1  -2   2 4024.09  164.09
  -1  -2   3    0.69    9.27
  -1  -2   3   17.09   13.40
  -1  -2   3    2.43    5.75
  -1  -2   3    0.91    9.07
  -1  -2   3    5.63   12.15
  -1  -2   4  494.26   27.18
  -1  -2   4  561.63   27.53
  -1  -2   4  633.53   28.41
  -1  -2   4  599.80   30.82
  -1  -2   4  571.24   26.15
  -1  -2   4  504.77   28.87
  -1  -2   4  594.29   31.11
  -1  -2   5  517.94   28.86
  -1  -2   5  460.85   23.07
  -1  -2   5  559.96   29.42
  -1  -2   6   85.04   11.21
  -1  -2   6  157.45   18.67
  -1  -2   6  115.49   10.54
  -1  -2   6  102.84   14.07
  -1  -2   6  144.19   17.33
  -1  -2   6  125.69   13.27
  -1  -2   7   22.04    7.52
  -1  -2   7   32.80   10.01
  -1  -2   7   31.12   14.25
  -1  -2   8  289.84   18.62
  -1  -2   8  341.84   24.86
  -1  -2   9   22.34   17.52
  -1  -2   9    5.89    8.15
  -1  -2   9   15.55   13.06
  -1  -2  10  159.70   21.46
  -1  -2  10  137.54   18.20
  -1  -2  11   14.65   12.77
  -1  -2  11   46.36   17.85
  -1  -2  12   30.71   12.33
  -1  -1 -13   44.21   18.22
  -1  -1 -12   23.77   19.67
  -1  -1 -11   23.91   19.49
  -1  -1 -11   51.23   14.69
  -1  -1 -10   29.36   18.44
  -1  -1 -10   18.02   14.78
  -1  -1  -9  109.75   20.35
  -1  -1  -9  146.97   17.52
  -1  -1  -6 1395.42   63.12
  -1  -1  -5  286.98   15.46
  -1  -1  -5  280.69   17.79
  -1  -1  -4 1184.94   52.16
  -1  -1  -4 1107.23   52.07
  -1  -1  -3  991.06   46.41
  -1  -1  -3 1094.10   48.04
  -1  -1  -3 1103.22   47.75
  -1  -1  -2  105.26   11.09
  -1  -1  -2   92.32   10.15
  -1  -1  -2  113.76   11.76
  -1  -1  -2  100.57   12.29
  -1  -1  -2   94.61    9.27
  -1  -1  -2   93.62   10.03
  -1  -1  -2  107.18   10.94
  -1  -1  -1  189.33   12.18
  -1  -1  -1  174.66   12.04
  -1  -1  -1  194.77   13.78
  -1  -1  -1  176.99   11.90
  -1  -1  -1  184.25   12.21
  -1  -1   0 4478.82  188.20
  -1  -1   0 4448.82  187.39
  -1  -1   0 4604.69  188.45
  -1  -1   0 4373.74  187.96
  -1  -1   0 4606.63  188.06
  -1  -1   1 1238.04   52.35
  -1  -1   1 1201.33   51.73
  -1  -1   1 1165.14   51.65
  -1  -1   1 1288.54   52.55
  -1  -1   1 1100.68   51.52
  -1  -1   1 1241.37   52.78
  -1  -1   2  746.90   35.08
  -1  -1   2  782.38   35.25
  -1  -1   2  748.40   34.33
  -1  -1   2  789.34   35.31
  -1  -1   2  821.51   35.37
  -1  -1   2  749.88   35.15
  -1  -1   2  807.15   36.26
  -1  -1   3 3229.82  136.52
  -1  -1   3 3179.56  135.90
  -1  -1   3 3152.20  136.03
  -1  -1   3 3247.13  135.91
  -1  -1   3 3255.82  136.93
  -1  -1   4 1009.55   46.55
  -1  -1   4 1022.74   45.41
  -1  -1   4 1036.02   46.24
  -1  -1   4 1070.99   45.39
  -1  -1   4  908.15   43.43
  -1  -1   4 1072.45   47.17
  -1  -1   5  401.04   24.04
  -1  -1   5  398.21   20.25
  -1  -1   5  458.12   23.72
  -1  -1   5  474.35   25.73
  -1  -1   5  483.88   23.49
  -1  -1   5  401.52   21.16
  -1  -1   5  484.73   26.05
  -1  -1   6   92.96   12.90
  -1  -1   6  121.67   13.67
  -1  -1   6  120.22   17.21
  -1  -1   6   96.67   10.30
  -1  -1   6  129.37   15.52
  -1  -1   7  259.91   17.04
  -1  -1   7  278.59   21.23
  -1  -1   7  232.62   16.24
  -1  -1   7  197.94   14.71
  -1  -1   7  238.99   19.41
  -1  -1   8    8.46    8.92
  -1  -1   8   23.30   16.03
  -1  -1   8   13.13    7.53
  -1  -1   8    7.62   13.08
  -1  -1   9  126.83   14.27
  -1  -1   9  126.91   12.70
  -1  -1   9  150.55   18.98
  -1  -1  10   15.98   10.98
  -1  -1  10   -4.06   16.31
  -1  -1  10    4.95    8.32
  -1  -1  10   -3.70   13.15
  -1  -1  11    6.94   16.30
  -1  -1  11   -0.77   12.28
  -1  -1  12   14.76   11.59
  -1  -1  12   17.87   15.84
  -1  -1  13    9.38   14.62
  -1   0 -13   75.06   18.86
  -1   0 -12   23.10   17.83
  -1   0 -11   -9.93   17.38
  -1   0 -10   58.19   17.71
  -1   0 -10   44.59   13.33
  -1   0  -9   47.65   15.79
  -1   0  -9   53.11   13.60
  -1   0  -8  236.28   18.35
  -1   0  -7  210.22   17.18
  -1   0  -5  692.60   30.41
  -1   0  -4 1035.80   45.03
  -1   0  -4 1101.91   45.86
  -1   0  -3  112.24   10.39
  -1   0  -3  129.94   13.94
  -1   0  -3  125.39   12.14
  -1   0  -2 1190.26   52.35
  -1   0  -2 1232.26   54.01
  -1   0  -2 1298.39   53.96
  -1   0  -1 2404.71   98.09
  -1   0  -1 2266.78   98.76
  -1   0  -1 2417.50   99.78
  -1   0  -1 2415.45   99.89
  -1   0  -1 2233.69   98.94
  -1   0  -1 2383.90  100.44
  -1   0   0    9.32    6.36
  -1   0   0   10.86    6.52
  -1   0   0   12.88    5.87
  -1   0   0   13.43    9.98
  -1   0   0   13.10    6.68
  -1   0   1 2091.80   87.31
  -1   0   1 2060.31   87.07
  -1   0   1 2144.77   86.98
  -1   0   1 2031.95   87.35
  -1   0   1 1901.03   88.07
  -1   0   2 1089.75   47.22
  -1   0   2 1079.93   46.59
  -1   0   2 1089.48   47.43
  -1   0   2 1035.13   47.04
  -1   0   3  516.42   25.92
  -1   0   3  535.42   25.64
  -1   0   3  547.33   26.39
  -1   0   3  503.70   25.02
  -1   0   4  305.21   15.28
  -1   0   4  316.53   18.98
  -1   0   4  349.59   19.59
  -1   0   4  302.02   19.20
  -1   0   4  269.27   17.18
  -1   0   5   23.66    5.23
  -1   0   5   22.79   12.33
  -1   0   5   32.10   11.54
  -1   0   5   39.03   13.94
  -1   0   6  326.27   20.28
  -1   0   6  333.58   21.44
  -1   0   6  261.55   20.74
  -1   0   6  291.69   17.40
  -1   0   7  417.69   23.55
  -1   0   7  443.67   25.27
  -1   0   8  111.10   13.32
  -1   0   8  126.21   16.91
  -1   0   8  123.20   15.89
  -1   0   9    5.27   14.95
  -1   0  10   35.40   10.85
  -1   0  10   30.48   11.72
  -1   0  10   45.92   16.63
  -1   0  10   37.22   13.46
  -1   0  11   13.86   11.02
  -1   0  11   35.37   17.22
  -1   0  11   19.03   13.55
  -1   0  11   25.26    9.52
  -1   0  12   64.49   12.28
  -1   0  12   77.32   17.85
  -1   0  12   39.84   14.02
  -1   0  13   41.70   15.64
  -1   0  13   16.98   11.33
  -1   1 -13   36.96   15.26
  -1   1 -12  103.83   18.74
  -1   1  -9   54.96   15.03
  -1   1  -8  326.13   24.17
  -1   1  -7  194.94   18.65
  -1   1  -6  264.58   18.81
  -1   1  -4  853.83   39.63
  -1   1  -4  796.11   38.49
  -1   1  -3 1813.33   83.84
  -1   1  -3 1939.29   83.85
  -1   1  -3 2110.00   84.49
  -1   1  -2  678.20   31.23
  -1   1  -2  673.16   31.32
  -1   1  -1 1603.82   67.41
  -1   1  -1 1538.18   67.06
  -1   1   0 7921.77  329.96
  -1   1   1  207.03   12.06
  -1   1   3  738.51   31.98
  -1   1   3  612.93   30.79
  -1   1   4  841.76   38.56
  -1   1   4  778.25   37.51
  -1   1   4  783.78   36.92
  -1   1   5  256.26   18.89
  -1   1   5  255.55   18.55
  -1   1   6  606.34   27.61
  -1   1   6  717.75   33.62
  -1   1   6  618.06   33.73
  -1   1   6  665.16   30.71
  -1   1   7   43.26   12.83
  -1   1   7   49.59   14.62
  -1   1   7   23.24   11.22
  -1   1   7   53.56    9.49
  -1   1   8   44.14   13.05
  -1   1   8   31.95   14.71
  -1   1   8   51.95    8.95
  -1   1   9  100.85   14.32
  -1   1   9   93.19   16.53
  -1   1  10  151.58   18.99
  -1   1  11   51.89   12.67
  -1   1  11   50.28   16.85
  -1   1  11   52.58   14.73
  -1   1  12  114.90   14.46
  -1   1  12  145.17   19.13
  -1   1  12   83.50   15.85
  -1   1  13   32.07   10.81
  -1   1  13   19.52   15.65
  -1   1  13    4.19   11.67
  -1   2 -12   42.60   14.47
  -1   2 -11  127.13   18.22
  -1   2 -10  359.27   26.32
  -1   2  -9  149.80   17.61
  -1   2  -8   65.13   13.72
  -1   2  -7  683.23   36.03
  -1   2  -6 1001.63   49.72
  -1   2  -6  939.01   46.18
  -1   2  -5 1096.23   50.44
  -1   2  -4  744.15   35.57
  -1   2  -4  781.64   38.44
  -1   2  -3   76.05   11.18
  -1   2  -3   72.25    9.09
  -1   2  -2 5350.96  220.04
  -1   2  -2 5147.98  218.51
  -1   2  -1 4487.70  180.07
  -1   2  -1 4158.92  178.12
  -1   2   0 1765.74   74.75
  -1   2   4   85.21   12.96
  -1   2   5  806.46   38.94
  -1   2   5  740.43   37.92
  -1   2   6  560.90   31.70
  -1   2   6  588.80   31.98
  -1   2   7  418.37   26.07
  -1   2   7  383.75   22.21
  -1   2   8    6.43   15.65
  -1   2   8   -3.72    8.50
  -1   2   9   29.54   13.83
  -1   2   9   24.69   16.47
  -1   2   9   28.99    8.50
  -1   2  10   65.74   15.52
  -1   2  10   92.25   18.99
  -1   2  11  190.71   21.21
  -1   2  12  135.70   15.50
  -1   2  12  144.15   19.14
  -1   2  12   98.92   17.16
  -1   2  13   44.55   11.35
  -1   2  13   41.51   15.66
  -1   2  13   34.41   12.97
  -1   3 -10   24.72   12.09
  -1   3  -9   40.48   12.92
  -1   3  -8  146.08   15.54
  -1   3  -7   38.91   11.42
  -1   3  -6  163.54   14.71
  -1   3  -5  741.13   35.46
  -1   3  -4  779.34   36.41
  -1   3  -4  598.41   30.59
  -1   3  -3  394.27   22.51
  -1   3  -3  316.99   17.22
  -1   3  -2  888.09   36.51
  -1   3  -2  674.35   31.03
  -1   3  -1 3153.34  135.92
  -1   3   5   96.97   15.72
  -1   3   6  138.17   16.61
  -1   3   7  283.09   22.73
  -1   3   7  281.07   19.89
  -1   3   8  157.72   20.32
  -1   3   8  179.22   15.35
  -1   3   9   58.37   18.25
  -1   3   9   55.37   10.69
  -1   3  10  538.72   32.85
  -1   3  10  584.04   35.17
  -1   3  11    4.03   16.19
  -1   3  12   36.75   13.07
  -1   3  12   50.99   16.43
  -1   3  13   45.68   11.57
  -1   3  13   33.88   14.47
  -1   3  13   16.65   12.16
  -1   4  -2  890.74   44.84
  -1   4  -1 1452.60   67.75
  -1   4   0  775.04   39.75
  -1   4   6   -2.57   15.04
  -1   4   7    3.14   15.41
  -1   4   8   -0.66   17.88
  -1   4   8   -0.28   12.23
  -1   4   9  476.35   32.17
  -1   4   9  431.82   26.18
  -1   4  10   96.96   20.37
  -1   4  11   23.88   14.63
  -1   4  11   45.73   17.62
  -1   4  12  131.52   18.57
  -1   5   6  201.91   21.29
  -1   5   7  247.42   23.65
  -1   5   8  254.04   24.93
  -1   5   9   45.58   19.59
  -1   5   9   33.76   12.99
  -1   5  10  114.65   21.29
  -1   5  11   13.75   13.96
  -1   5  11   -6.83   16.19
  -1   5  12   17.94   14.18
  -1   6   6   53.18   18.47
  -1   6   7   49.76   18.69
  -1   6   8   65.74   18.83
  -1   6   9  173.91   22.45
  -1   6   9  142.71   16.80
  -1   6  10   24.15   17.95
  -1   6  11   35.22   13.13
  -1   7   6   -1.22   17.82
  -1   7   7   39.14   17.41
  -1   7   8   -0.41   17.12
  -1   8   5   40.41   17.37
   0  -8  -7  179.42   24.46
   0  -8  -6   34.75   17.49
   0  -8  -5   47.65   18.36
   0  -8  -5   26.83   20.03
   0  -8  -4   21.76   20.62
   0  -8  -4   22.02   19.14
   0  -8  -4   22.59   16.66
   0  -8  -3   42.96   19.89
   0  -8  -3   55.57   19.00
   0  -8  -3   47.79   18.57
   0  -8  -2  348.55   29.38
   0  -8  -2  359.77   30.52
   0  -8  -2  294.11   25.26
   0  -8  -1  207.84   24.99
   0  -8  -1  237.50   25.02
   0  -8   0  205.65   24.04
   0  -8   0  209.56   26.49
   0  -8   0  248.84   24.28
   0  -8   1   21.51   16.82
   0  -8   1   16.83   17.61
   0  -8   1   35.91   15.39
   0  -8   2  213.18   21.76
   0  -8   2  146.64   22.07
   0  -8   3  131.37   18.46
   0  -8   3  156.24   19.65
   0  -8   3  142.97   21.38
   0  -8   4   43.80   16.81
   0  -8   4   29.55   14.20
   0  -8   5  254.72   24.55
   0  -7  -9   46.66   21.71
   0  -7  -8  491.12   37.00
   0  -7  -7  228.04   28.30
   0  -7  -6  109.28   19.30
   0  -7  -6  126.05   24.65
   0  -7  -5  162.42   23.76
   0  -7  -5  165.28   24.91
   0  -7  -4  108.43   20.33
   0  -7  -4   86.11   20.92
   0  -7  -3   85.96   23.68
   0  -7  -3   99.41   21.27
   0  -7  -3   82.98   20.66
   0  -7  -2  291.68   29.99
   0  -7  -2  276.07   27.65
   0  -7  -2  343.09   28.48
   0  -7  -2  304.32   26.54
   0  -7  -1  407.25   31.95
   0  -7  -1  423.41   34.15
   0  -7  -1  482.43   32.83
   0  -7  -1  381.53   28.19
   0  -7   0  473.99   32.26
   0  -7   0  466.33   34.90
   0  -7   0  493.86   33.77
   0  -7   0  385.80   26.64
   0  -7   1  141.55   21.32
   0  -7   1  196.06   22.34
   0  -7   1  144.01   23.88
   0  -7   2   74.05   20.44
   0  -7   2   52.96   17.23
   0  -7   3  344.76   29.04
   0  -7   3  394.61   31.77
   0  -7   4  260.68   22.58
   0  -7   4  275.56   26.46
   0  -7   4  318.11   29.15
   0  -7   5   34.79   13.73
   0  -7   5   20.93   17.85
   0  -7   5   29.01   16.00
   0  -7   6  113.66   20.87
   0  -7   6  112.17   20.21
   0  -7   7  181.12   22.05
   0  -7   7  134.84   19.89
   0  -6 -10  232.52   27.99
   0  -6  -9  283.77   30.04
   0  -6  -8  485.84   37.03
   0  -6  -7  131.68   18.09
   0  -6  -7  122.44   25.07
   0  -6  -6  109.44   17.92
   0  -6  -6  111.78   24.21
   0  -6  -5   90.95   22.53
   0  -6  -5  115.86   22.33
   0  -6  -4  207.01   22.08
   0  -6  -4  206.83   25.76
   0  -6  -4  220.03   24.64
   0  -6  -3  421.59   29.93
   0  -6  -3  400.85   32.29
   0  -6  -2  443.30   32.97
   0  -6  -2  440.69   31.19
   0  -6  -1  214.43   23.75
   0  -6  -1  198.33   24.06
   0  -6  -1  163.98   20.38
   0  -6   0  364.01   26.95
   0  -6   0  362.53   29.04
   0  -6   0  305.64   22.67
   0  -6   1  995.42   52.01
   0  -6   1 1073.09   55.83
   0  -6   2  437.57   29.22
   0  -6   2  470.09   33.04
   0  -6   2  470.79   31.69
   0  -6   3  308.52   27.89
   0  -6   4  673.14   37.49
   0  -6   4  773.31   45.09
   0  -6   4  683.61   40.82
   0  -6   5   26.10   13.00
   0  -6   5   25.55   16.00
   0  -6   5   25.22   18.54
   0  -6   6   43.78   15.87
   0  -6   6   57.82   19.89
   0  -6   7  116.99   16.91
   0  -6   7  182.76   24.08
   0  -6   8  422.07   33.90
   0  -6   9  259.69   25.14
   0  -5 -12   20.95   18.57
   0  -5 -11   -2.03   15.08
   0  -5 -10  125.59   20.15
   0  -5 -10  220.85   25.83
   0  -5  -9  619.50   36.47
   0  -5  -9  350.31   29.49
   0  -5  -8  448.75   31.72
   0  -5  -8  255.10   23.45
   0  -5  -7   41.20   12.85
   0  -5  -7   77.12   13.67
   0  -5  -7   91.84   22.12
   0  -5  -6   26.14    9.80
   0  -5  -6   28.20   13.14
   0  -5  -6   23.85   19.86
   0  -5  -5  186.50   22.38
   0  -5  -5  177.09   20.71
   0  -5  -5  178.93   22.54
   0  -5  -4   33.72   15.39
   0  -5  -4   45.15   17.55
   0  -5  -4   59.66   19.47
   0  -5  -4   44.95   15.78
   0  -5  -3  147.61   17.87
   0  -5  -3  123.25   19.64
   0  -5  -3  133.70   21.09
   0  -5  -2  442.74   30.86
   0  -5  -2  492.01   30.06
   0  -5  -1  443.71   30.17
   0  -5  -1  445.68   28.45
   0  -5   0  103.67   18.68
   0  -5   0   61.10   17.07
   0  -5   0   91.89   16.40
   0  -5   0   72.11   15.01
   0  -5   1   40.65   16.28
   0  -5   1   48.88   16.78
   0  -5   1   49.73   15.34
   0  -5   1   27.31   13.49
   0  -5   2  463.75   30.60
   0  -5   2  411.89   30.27
   0  -5   2  433.90   28.94
   0  -5   3  577.36   36.00
   0  -5   3  524.65   33.25
   0  -5   4  182.45   16.50
   0  -5   4  187.77   23.19
   0  -5   5   85.77   12.99
   0  -5   5   89.75   15.99
   0  -5   5   58.81   19.55
   0  -5   6  176.38   15.87
   0  -5   6  193.47   25.23
   0  -5   6  200.69   20.32
   0  -5   7   59.98   15.10
   0  -5   7   76.81   20.99
   0  -5   8   32.49   13.13
   0  -5   8   37.04   19.00
   0  -5   9  177.39   23.88
   0  -5  10  278.27   26.91
   0  -4 -12   43.40   18.78
   0  -4 -12   93.67   19.82
   0  -4 -11   82.10   21.11
   0  -4 -11  160.95   22.32
   0  -4 -10  152.24   22.43
   0  -4  -9  -13.82   19.64
   0  -4  -8  428.39   31.29
   0  -4  -7  699.78   40.32
   0  -4  -6  100.93   12.72
   0  -4  -6  126.03   20.98
   0  -4  -5   46.22   17.56
   0  -4  -5   44.37   18.36
   0  -4  -5   40.86   15.24
   0  -4  -4   60.31    9.62
   0  -4  -4  107.74   16.01
   0  -4  -4   87.22   18.47
   0  -4  -4  109.82   19.40
   0  -4  -3  343.90   23.79
   0  -4  -3  376.59   22.15
   0  -4  -3  345.45   23.66
   0  -4  -2  308.17   23.09
   0  -4  -2  319.71   22.14
   0  -4  -2  289.75   22.96
   0  -4  -1 1332.00   64.73
   0  -4  -1 1407.01   64.20
   0  -4   0  225.32   20.15
   0  -4   0  212.06   20.17
   0  -4   0  213.55   20.85
   0  -4   1  173.64   19.47
   0  -4   1  185.60   19.70
   0  -4   1  177.94   18.96
   0  -4   2  192.48   20.76
   0  -4   2  193.79   18.63
   0  -4   3  140.32   19.16
   0  -4   3  134.23   14.69
   0  -4   3  148.64   17.00
   0  -4   4   23.06    9.80
   0  -4   4   28.66   16.99
   0  -4   5   55.42   10.10
   0  -4   5   73.80   14.42
   0  -4   5   77.78   19.01
   0  -4   5   74.69   13.21
   0  -4   6   21.42    8.87
   0  -4   6   29.25   13.17
   0  -4   6   20.67   17.99
   0  -4   6   24.72   11.43
   0  -4   7   11.65   13.20
   0  -4   7   47.09   19.72
   0  -4   7   36.25   11.59
   0  -4   8  196.40   25.28
   0  -4   8  181.82   16.35
   0  -4   8  159.60   17.53
   0  -4   9   95.66   14.72
   0  -4   9  111.32   21.90
   0  -4   9   88.93   12.38
   0  -4  10   19.02   17.07
   0  -4  11   86.76   18.69
   0  -3 -13    9.03   17.03
   0  -3 -12   81.35   20.75
   0  -3 -12  128.46   18.94
   0  -3 -11   96.05   19.07
   0  -3 -10   83.59   18.86
   0  -3  -7   12.95    8.37
   0  -3  -7   15.13   16.91
   0  -3  -6   20.82    8.53
   0  -3  -6   19.93   16.57
   0  -3  -5   65.43   17.62
   0  -3  -4  254.31   21.45
   0  -3  -4  246.21   19.67
   0  -3  -4  219.07   20.54
   0  -3  -3  611.98   33.12
   0  -3  -3  617.94   31.84
   0  -3  -3  620.17   32.30
   0  -3  -2 1103.37   53.22
   0  -3  -2 1195.13   52.95
   0  -3  -1 1499.84   67.65
   0  -3  -1 1450.08   68.11
   0  -3  -1 1608.25   68.80
   0  -3   0 1400.61   62.93
   0  -3   0 1337.63   62.61
   0  -3   0 1394.84   62.56
   0  -3   1  591.14   31.56
   0  -3   1  545.84   29.22
   0  -3   1  626.81   30.74
   0  -3   2  436.26   27.11
   0  -3   2  441.63   24.69
   0  -3   2  474.20   25.98
   0  -3   3  656.03   37.44
   0  -3   3  686.70   34.25
   0  -3   3  701.96   35.07
   0  -3   4  374.40   19.71
   0  -3   5   29.94    7.42
   0  -3   5   19.14    8.52
   0  -3   5   36.11   11.56
   0  -3   6   85.22    9.13
   0  -3   6   96.07   13.93
   0  -3   6  108.22   13.37
   0  -3   6   92.87    8.11
   0  -3   7  102.13   14.23
   0  -3   7  110.43   16.24
   0  -3   8   53.88   12.54
   0  -3   8   67.48   12.10
   0  -3   9   81.00   13.43
   0  -3   9   93.46   12.58
   0  -3  10  154.27   14.58
   0  -3  12   42.06   16.05
   0  -2 -13    0.59   17.80
   0  -2 -11  391.72   26.85
   0  -2 -10  293.04   23.22
   0  -2  -9  236.80   19.68
   0  -2  -6 1472.37   66.47
   0  -2  -5  209.28   17.98
   0  -2  -4 1034.27   46.33
   0  -2  -4  927.72   45.33
   0  -2  -3  899.38   44.08
   0  -2  -3  945.28   43.25
   0  -2  -2  467.78   24.65
   0  -2  -2  472.19   23.95
   0  -2  -1  414.49   22.64
   0  -2  -1  393.81   23.22
   0  -2   0 7078.01  304.15
   0  -2   0 7438.69  304.02
   0  -2   1 1365.82   61.46
   0  -2   1 1374.16   60.28
   0  -2   1 1411.25   60.78
   0  -2   1 1374.99   59.36
   0  -2   2 9730.90  412.54
   0  -2   2 9928.40  412.53
   0  -2   2 9999.00  412.90
   0  -2   2 9876.75  411.24
   0  -2   3  152.71   14.02
   0  -2   3  150.22   15.45
   0  -2   3  153.56   13.31
   0  -2   3  158.11   13.12
   0  -2   4  844.20   40.70
   0  -2   4  875.47   38.00
   0  -2   4  837.96   37.63
   0  -2   4  892.06   41.14
   0  -2   4  870.85   40.79
   0  -2   4  802.62   39.90
   0  -2   5 1180.03   52.06
   0  -2   5 1226.56   52.55
   0  -2   5 1333.96   56.33
   0  -2   5 1125.26   55.50
   0  -2   6   75.23    7.86
   0  -2   6   72.79   16.35
   0  -2   6   52.42   11.43
   0  -2   6   85.15   12.80
   0  -2   7    2.76    9.97
   0  -2   7    8.12   15.71
   0  -2   7    1.63   10.66
   0  -2   7    1.56    5.36
   0  -2   8 2894.32  121.53
   0  -2   8 2678.79  120.76
   0  -2   8 2692.56  120.16
   0  -2   9  436.73   26.82
   0  -2   9  412.21   26.23
   0  -2  10   75.47   12.54
   0  -2  10   91.80   18.78
   0  -2  10   52.86   11.34
   0  -2  11  137.52   20.44
   0  -2  12  192.65   21.79
   0  -1 -14   74.24   18.60
   0  -1 -13   53.09   19.18
   0  -1  -8  353.60   21.84
   0  -1  -7  146.56   13.92
   0  -1  -4  571.66   25.19
   0  -1  -4  604.43   28.13
   0  -1  -3  270.11   16.82
   0  -1  -2 3882.69  159.74
   0  -1  -2 3711.16  159.48
   0  -1  -1 3362.95  137.97
   0  -1  -1 3221.98  137.89
   0  -1   0  197.70   10.61
   0  -1   0  181.21    9.84
   0  -1   0  208.98   10.73
   0  -1   1  650.88   27.92
   0  -1   1  631.56   29.10
   0  -1   1  615.98   28.91
   0  -1   1  677.16   28.82
   0  -1   1  652.92   28.71
   0  -1   2  483.52   21.97
   0  -1   2  484.15   21.60
   0  -1   2  482.01   23.65
   0  -1   2  511.41   23.34
   0  -1   2  478.95   23.36
   0  -1   2  485.08   22.96
   0  -1   3  668.85   30.71
   0  -1   3  690.83   32.55
   0  -1   3  717.59   32.17
   0  -1   3  681.27   30.34
   0  -1   3  727.58   32.02
   0  -1   4  537.29   27.42
   0  -1   4  587.79   28.14
   0  -1   4  555.63   27.31
   0  -1   5  168.42   13.91
   0  -1   5  220.00   16.92
   0  -1   6  274.58   15.58
   0  -1   6  220.78   17.01
   0  -1   6  292.77   20.41
   0  -1   6  246.36   14.98
   0  -1   7   17.61    6.91
   0  -1   7   22.64    8.27
   0  -1   7   12.25   14.33
   0  -1   7    9.24    8.98
   0  -1   7   12.00    9.89
   0  -1   8   25.67    8.38
   0  -1   8   34.95   15.75
   0  -1   8   30.12   10.40
   0  -1   8   32.87    6.82
   0  -1   9  539.32   27.59
   0  -1   9  513.59   30.42
   0  -1   9  528.07   29.71
   0  -1  10  565.07   33.52
   0  -1  10  575.20   32.65
   0  -1  11  257.69   20.26
   0  -1  11  261.50   20.10
   0  -1  12   -2.96   15.76
   0  -1  13   69.54   16.70
   0   0 -13  138.10   21.26
   0   0  -8  759.83   36.61
   0   0  -7   89.42   11.79
   0   0  -5  569.08   30.10
   0   0  -4 2600.31  111.89
   0   0  -3 1652.35   71.63
   0   0   1  102.82    6.12
   0   0   2  679.54   31.32
   0   0   2  739.42   31.58
   0   0   3 1618.81   71.99
   0   0   3 1743.18   72.29
   0   0   4 2411.57  101.48
   0   0   4 2569.61  102.16
   0   0   4 2312.97   99.47
   0   0   5  632.40   31.90
   0   0   5  643.09   31.73
   0   0   6 3841.85  161.98
   0   0   6 3760.02  162.71
   0   0   7  136.18   12.23
   0   0   7  124.59   16.19
   0   0   7  110.74   13.29
   0   0   8  631.76   31.30
   0   0   8  679.55   34.89
   0   0   8  643.65   33.44
   0   0   9  121.44   11.81
   0   0   9  121.28   17.88
   0   0   9  114.36   13.27
   0   0  10   74.54   10.58
   0   0  10   89.53   17.42
   0   0  10   59.54   12.15
   0   0  11  122.23   12.21
   0   0  11   95.15   13.97
   0   0  12  106.12   18.97
   0   0  12   85.87   13.49
   0   0  13  205.51   20.74
   0   0  14   25.33   13.78
   0   1 -13   56.53   16.41
   0   1  -7   28.63   12.80
   0   1  -6  257.64   20.91
   0   1  -5  203.04   17.59
   0   1  -4  568.53   29.57
   0   1   3  213.47   12.97
   0   1   3  166.93   13.19
   0   1   4  628.21   28.32
   0   1   4  530.06   28.23
   0   1   5  948.60   44.48
   0   1   5  963.43   44.55
   0   1   6  601.53   30.11
   0   1   6  549.91   28.70
   0   1   6  514.57   24.54
   0   1   7  160.29   17.66
   0   1   7  126.62   13.59
   0   1   7  127.49    8.63
   0   1   8  317.95   23.01
   0   1   9  597.04   31.14
   0   1   9  646.67   34.74
   0   1  10  236.10   17.20
   0   1  10  273.08   22.40
   0   1  10  216.93   18.32
   0   1  11    5.67    9.57
   0   1  11   11.10   16.37
   0   1  11   20.44   10.84
   0   1  12   79.39   11.35
   0   1  12  110.36   18.63
   0   1  13   42.13   16.66
   0   1  14   96.97   16.22
   0   2 -12  103.60   16.89
   0   2 -11   68.15   15.23
   0   2  -6   71.77   14.61
   0   2  -5 1202.88   57.93
   0   2  -4  897.71   43.77
   0   2  -3  167.77   13.90
   0   2   5  184.32   14.79
   0   2   5  188.01   16.46
   0   2   6 1162.12   53.71
   0   2   6 1141.20   53.77
   0   2   7  195.38   19.36
   0   2   7  165.50   12.34
   0   2   8   19.62   16.65
   0   2   8   12.24    6.24
   0   2   9  200.34   21.16
   0   2  10  196.51   16.83
   0   2  10  225.52   21.93
   0   2  11  291.06   21.37
   0   2  11  365.53   26.50
   0   2  12   28.19   10.80
   0   2  12   52.92   17.80
   0   2  12   39.40   12.09
   0   2  13   -0.37   14.75
   0   3 -11   50.36   13.13
   0   3 -10  117.00   15.13
   0   3  -5   40.49   12.81
   0   3  -4  399.98   25.21
   0   3  -3  652.18   33.51
   0   3  -2  463.11   25.12
   0   3  -1  610.43   30.69
   0   3   0 1305.26   59.03
   0   3   6   26.37   14.93
   0   3   7   20.98   15.80
   0   3   8   90.79   19.50
   0   3   8   61.92   10.29
   0   3   9   24.12   18.41
   0   3  10   91.51   19.97
   0   3  11   66.36   14.06
   0   3  11   76.28   18.96
   0   3  12   76.99   13.33
   0   3  12  115.52   19.01
   0   3  13    0.25    9.44
   0   3  13   20.60   14.98
   0   4  -2  135.29   14.19
   0   4  -1  130.06   14.03
   0   4   0  193.96   17.03
   0   4   6  121.11   18.25
   0   4   7  561.66   33.30
   0   4   8  330.23   26.44
   0   4   9  -10.76   19.03
   0   4   9    3.53    9.48
   0   4  10  288.92   27.04
   0   4  11  128.11   21.10
   0   4  12   59.51   13.61
   0   4  12   89.69   18.15
   0   4  13   29.65   14.49
   0   5   7   46.23   18.98
   0   5   8  316.47   27.20
   0   5   9  422.19   32.11
   0   5  10  213.52   24.92
   0   5  11   10.73   18.06
   0   5  12   20.89   12.26
   0   5  12   16.83   15.37
   0   6   7  117.82   22.03
   0   6   8  352.99   29.72
   0   6   9  193.13   24.83
   0   6  10  161.10   22.76
   0   6  11   27.27   16.81
   0   7   7  160.26   23.26
   0   7   8  417.88   31.18
   0   7   9   31.01   17.98
   0   8   6   21.43   17.66
   0   8   7  150.29   20.59
   1  -8  -6   24.20   19.41
   1  -8  -5   47.81   16.70
   1  -8  -4   40.34   19.84
   1  -8  -3   20.64   17.49
   1  -8  -3    9.53   16.01
   1  -8  -3   -2.07   17.99
   1  -8  -2    6.19   17.40
   1  -8  -2    2.98   14.92
   1  -8  -2   12.69   16.73
   1  -8  -1  -12.31   17.59
   1  -8  -1    7.64   15.33
   1  -8  -1   -2.35   14.32
   1  -8   0   81.83   18.39
   1  -8   0   33.84   15.98
   1  -8   1   -3.79   15.99
   1  -8   1    7.31   14.62
   1  -8   2   59.24   15.56
   1  -8   3   75.60   14.90
   1  -8   3   75.31   15.98
   1  -8   4   76.19   15.89
   1  -7  -9   38.31   19.26
   1  -7  -8   13.66   21.17
   1  -7  -7   69.10   23.11
   1  -7  -6   12.44   15.70
   1  -7  -6   20.59   22.21
   1  -7  -5  167.03   26.63
   1  -7  -5  176.00   25.84
   1  -7  -4  253.99   24.83
   1  -7  -4  167.37   24.40
   1  -7  -4  261.79   29.00
   1  -7  -4  219.11   26.40
   1  -7  -3   98.89   20.16
   1  -7  -3  104.51   21.92
   1  -7  -2   60.27   19.03
   1  -7  -2   75.50   20.72
   1  -7  -2   93.98   20.70
   1  -7  -1   19.13   16.72
   1  -7  -1    7.06   18.66
   1  -7  -1   18.85   17.67
   1  -7   0   25.38   16.33
   1  -7   0   66.26   19.29
   1  -7   0   37.14   16.34
   1  -7   1  172.48   23.12
   1  -7   1  129.51   20.07
   1  -7   2  169.94   21.78
   1  -7   2  178.41   23.82
   1  -7   3   49.64   17.08
   1  -7   3   55.88   18.40
   1  -7   4   23.36   13.37
   1  -7   4   30.83   15.75
   1  -7   4   41.32   17.62
   1  -7   5  100.53   14.83
   1  -7   5  132.25   19.31
   1  -7   5  134.51   20.59
   1  -7   6    5.48   14.14
   1  -7   6   18.62   15.76
   1  -7   7   82.52   16.27
   1  -7   7   54.08   16.35
   1  -6  -9  240.48   27.72
   1  -6  -8   66.61   23.53
   1  -6  -7   50.14   14.91
   1  -6  -7   37.59   23.92
   1  -6  -6   53.25   16.60
   1  -6  -6   58.73   23.07
   1  -6  -6   47.96   21.10
   1  -6  -5  182.47   25.54
   1  -6  -5  144.15   24.52
   1  -6  -4  144.62   21.65
   1  -6  -4  166.42   23.14
   1  -6  -4  168.38   24.42
   1  -6  -3   57.54   16.92
   1  -6  -3   52.22   20.79
   1  -6  -3  106.39   20.21
   1  -6  -2  139.91   20.10
   1  -6  -2  194.07   22.34
   1  -6  -1   48.21   15.80
   1  -6  -1   72.19   18.36
   1  -6   0   20.93   14.66
   1  -6   0   26.16   16.51
   1  -6   1   47.89   17.75
   1  -6   2   26.29   17.38
   1  -6   3   76.94   20.25
   1  -6   4  113.33   22.12
   1  -6   5  129.83   15.89
   1  -6   5  151.76   23.75
   1  -6   6   32.01   18.72
   1  -6   7   37.76   18.68
   1  -6   8  113.28   20.28
   1  -6   9   79.55   17.20
   1  -5 -11   -5.07   13.96
   1  -5 -11   23.45   18.38
   1  -5 -10   48.76   15.29
   1  -5  -9   31.29   21.50
   1  -5  -8  302.28   29.45
   1  -5  -7  211.48   19.54
   1  -5  -7  286.41   28.25
   1  -5  -6  233.80   26.94
   1  -5  -6  207.81   26.28
   1  -5  -5  169.64   22.31
   1  -5  -5   96.06   19.68
   1  -5  -5  165.08   23.34
   1  -5  -4   10.25   14.92
   1  -5  -4   20.21   16.77
   1  -5  -3   50.84   15.16
   1  -5  -3   83.04   18.04
   1  -5  -2  781.09   43.40
   1  -5  -2  872.50   46.03
   1  -5  -1  217.46   22.38
   1  -5   0  168.82   20.78
   1  -5   1  547.23   35.27
   1  -5   2  258.73   24.91
   1  -5   3   51.83   15.21
   1  -5   3   45.04   14.53
   1  -5   4  107.29   18.96
   1  -5   4   95.44   16.82
   1  -5   5  843.47   47.98
   1  -5   5  858.97   46.16
   1  -5   6  377.77   23.84
   1  -5   6  468.14   32.26
   1  -5   7  135.82   21.94
   1  -5   7  170.56   18.84
   1  -5   8   54.91   18.54
   1  -5   8   93.07   15.01
   1  -5   9   69.86   17.69
   1  -5   9   51.81   12.78
   1  -5  10  205.20   21.95
   1  -4 -12  120.54   21.01
   1  -4 -12  209.23   21.33
   1  -4 -11   68.92   18.71
   1  -4 -10  115.96   21.04
   1  -4  -8    9.48   19.50
   1  -4  -7    9.38   19.81
   1  -4  -6   16.13   19.60
   1  -4  -6    8.03   17.15
   1  -4  -5  631.09   39.19
   1  -4  -4  466.58   30.32
   1  -4  -4  583.70   33.40
   1  -4  -3  871.84   47.65
   1  -4  -3 1110.38   50.50
   1  -4  -2  568.80   33.63
   1  -4  -1  370.30   26.18
   1  -4   0  901.04   46.72
   1  -4   1 1446.35   67.53
   1  -4   1 1356.48   65.18
   1  -4   2 1189.06   58.54
   1  -4   2 1246.55   58.64
   1  -4   3 1107.51   54.54
   1  -4   3 1182.94   54.18
   1  -4   3 1046.56   51.92
   1  -4   4  239.01   22.71
   1  -4   4  269.99   21.88
   1  -4   4  270.00   19.71
   1  -4   5  231.21   22.09
   1  -4   5  259.43   20.61
   1  -4   5  209.97   17.59
   1  -4   6  705.69   40.23
   1  -4   6  746.84   37.50
   1  -4   7  537.61   36.96
   1  -4   8   18.47   17.65
   1  -4   8   -2.87   12.97
   1  -4   9  134.00   22.02
   1  -4   9  161.24   17.32
   1  -4  10  375.59   31.09
   1  -4  10  349.43   24.78
   1  -4  11   10.84   14.06
   1  -3 -11   21.94   15.30
   1  -3 -10  634.41   37.13
   1  -3  -9   95.89   18.67
   1  -3  -5  124.81   18.43
   1  -3  -4 2238.10  103.95
   1  -3  -4 2492.93  105.34
   1  -3  -3  697.27   37.08
   1  -3  -3  788.32   38.75
   1  -3  -2 1389.96   64.25
   1  -3  -1  176.54   17.54
   1  -3   0  -23.94   17.46
   1  -3   0   -9.18   14.73
   1  -3   1 3027.16  131.90
   1  -3   1 3105.64  132.30
   1  -3   2  918.58   45.83
   1  -3   2  970.95   45.85
   1  -3   2  952.00   44.19
   1  -3   3  485.39   27.90
   1  -3   3  452.66   25.27
   1  -3   4 1028.67   47.20
   1  -3   4  900.46   44.32
   1  -3   5 1067.71   48.36
   1  -3   5  891.92   44.74
   1  -3   6  275.05   21.86
   1  -3   6  284.77   18.99
   1  -3   7   36.55    9.95
   1  -3   7   34.32   13.61
   1  -3   9   85.64   14.77
   1  -3  10   30.07   12.13
   1  -3  11  130.26   15.61
   1  -2 -10  131.03   16.83
   1  -2  -9   30.50   13.75
   1  -2  -8   -0.22   13.18
   1  -2  -4   98.84   15.13
   1  -2  -3  109.32   13.57
   1  -2  -2  931.91   43.53
   1  -2  -1 1542.42   69.21
   1  -2  -1 1580.31   68.47
   1  -2   0 2133.19   91.82
   1  -2   0 2070.15   90.66
   1  -2   1 3954.49  166.80
   1  -2   1 3931.38  167.31
   1  -2   2 5789.09  245.91
   1  -2   2 5851.87  244.21
   1  -2   3   45.12    8.38
   1  -2   3   54.19   12.37
   1  -2   4  714.90   35.24
   1  -2   4  770.86   37.69
   1  -2   4  693.36   33.42
   1  -2   5 1094.33   50.46
   1  -2   5 1018.57   48.48
   1  -2   6 1123.38   53.32
   1  -2   6 1065.72   53.48
   1  -2   6 1090.79   51.14
   1  -2   7  826.20   42.37
   1  -2   7  799.17   39.56
   1  -2   8  110.17   17.11
   1  -2   8   93.27   15.88
   1  -2   9  278.27   22.79
   1  -2  10  564.52   32.83
   1  -2  10  479.50   31.71
   1  -2  11  172.53   19.86
   1  -2  11  142.90   16.89
   1  -2  12   41.11   11.48
   1  -1  -9  121.75   13.35
   1  -1  -8   42.17   11.21
   1  -1  -7   55.60   13.20
   1  -1  -3  774.46   37.53
   1  -1  -2  164.37   12.84
   1  -1  -1  254.62   14.68
   1  -1  -1  242.37   13.62
   1  -1   0 9132.22  383.06
   1  -1   0 9220.31  382.74
   1  -1   1 1542.98   67.09
   1  -1   2  581.14   26.94
   1  -1   2  576.90   28.80
   1  -1   3 1781.78   76.25
   1  -1   3 1746.53   75.88
   1  -1   4  747.92   34.44
   1  -1   4  765.31   34.69
   1  -1   4  706.10   32.13
   1  -1   5  266.77   18.34
   1  -1   5  230.71   13.46
   1  -1   6  290.99   15.99
   1  -1   6  258.36   17.94
   1  -1   7  136.94   10.70
   1  -1   7  120.39   12.93
   1  -1   8  395.68   25.67
   1  -1   9   62.13   16.01
   1  -1  10   48.17   15.97
   1  -1  11   93.43   17.01
   1  -1  11   48.90   14.35
   1  -1  12  137.50   18.12
   1  -1  12   93.67   14.97
   1  -1  13   50.30   14.90
   1  -1  13   11.72   10.34
   1   0  -1 2544.08  106.98
   1   0   2 1057.92   47.49
   1   0   2 1138.15   47.00
   1   0   3  156.35   10.06
   1   0   3  170.01   12.58
   1   0   4 1084.26   46.55
   1   0   4 1027.48   47.29
   1   0   5  763.38   36.30
   1   0   6  473.83   24.97
   1   0   6  454.38   23.21
   1   0   7  160.67   10.25
   1   0   7  125.97   12.34
   1   0   7  159.66   16.22
   1   0   7  141.89   10.90
   1   0   8  185.06   11.01
   1   0   8  181.67   17.08
   1   0   8  163.23   11.89
   1   0   9   38.49   13.94
   1   0  10   45.05   15.23
   1   0  11    3.67   15.89
   1   0  12   17.29   15.35
   1   0  12   15.78   12.43
   1   0  13   87.76   16.24
   1   0  13   46.56   13.13
   1   1  -6   89.15   13.93
   1   1  -5  401.11   24.55
   1   1  -4 1000.04   46.94
   1   1  -3 3165.15  135.12
   1   1  -2  799.45   36.67
   1   1  -1 1153.02   49.89
   1   1   0 4766.04  198.66
   1   1   1  170.48    8.74
   1   1   2   79.06    6.19
   1   1   3  827.85   41.09
   1   1   3 1016.04   40.62
   1   1   4  898.68   40.78
   1   1   5  327.82   20.61
   1   1   6 1238.05   56.88
   1   1   6 1253.19   56.28
   1   1   7  259.93   18.81
   1   1   7  223.35   15.90
   1   1   8  192.23   15.65
   1   1   8  250.30   18.77
   1   1   9   93.58    9.96
   1   1   9  105.56   15.94
   1   1   9   76.62    9.90
   1   1  10   26.29    8.19
   1   1  10   11.75   14.65
   1   1  11   44.38   16.00
   1   1  12   27.99   15.49
   1   1  13   27.35   15.02
   1   2  -5  449.64   27.65
   1   2  -4  560.40   30.73
   1   2  -3    2.26   10.61
   1   2  -2 3994.95  169.39
   1   2  -1 1122.93   49.53
   1   2   0 2004.96   85.37
   1   2   1 1438.67   61.94
   1   2   5  121.30   11.06
   1   2   5  107.89   14.61
   1   2   6 1427.92   64.58
   1   2   6 1431.01   64.10
   1   2   7   15.81   15.31
   1   2   7   24.61    9.01
   1   2   8    4.02    8.76
   1   2   8   17.60   15.19
   1   2   9   57.11   16.13
   1   2  10  159.98   19.24
   1   2  11  108.83   11.95
   1   2  11  102.04   18.04
   1   2  12   68.23   16.60
   1   2  13  225.18   20.95
   1   3  -4  936.68   46.61
   1   3  -3  950.05   46.21
   1   3  -2  345.83   21.30
   1   3  -1 1361.84   60.66
   1   3   0 1656.55   72.36
   1   3   5  127.66   11.86
   1   3   6  344.16   20.92
   1   3   6  358.79   23.06
   1   3   7  523.80   28.97
   1   3   7  436.95   26.52
   1   3   8  497.85   30.95
   1   3   9  120.65   19.78
   1   3  10   13.68   17.86
   1   3  11  100.03   18.44
   1   3  12   67.20   16.42
   1   3  13   22.72   14.18
   1   4   1  193.70   15.67
   1   4   2 1104.17   51.91
   1   4   6  337.90   21.74
   1   4   6  342.85   24.62
   1   4   7    0.54   15.44
   1   4   8  314.02   25.19
   1   4   9  685.53   40.22
   1   4  10   11.28   18.49
   1   4  11  173.53   21.96
   1   4  12   14.08   10.43
   1   4  12   29.25   15.79
   1   4  13   21.69   13.66
   1   5   7  658.50   38.33
   1   5   8  406.48   29.99
   1   5   9  373.31   29.85
   1   5  10   86.26   20.45
   1   5  11   12.99   16.54
   1   5  12   71.29   16.08
   1   6   7  235.91   24.87
   1   6   8   17.85   18.86
   1   6   9  238.98   25.00
   1   6  10  -13.85   18.41
   1   6  11   36.70   16.32
   1   7   7   65.51   19.82
   1   7   8  159.50   22.10
   1   7   9   33.54   17.82
   1   8   6   76.77   18.78
   1   8   7   24.66   16.29
   2  -8  -4   59.42   19.44
   2  -8  -3   91.85   19.45
   2  -8  -3  147.10   23.48
   2  -8  -3  125.47   20.82
   2  -8  -2   48.99   18.06
   2  -8  -2  105.57   19.39
   2  -8  -2   72.39   19.56
   2  -8  -1   35.10   17.39
   2  -8  -1   28.98   16.37
   2  -8  -1   28.54   16.85
   2  -8   0   64.52   17.20
   2  -8   0   77.76   18.06
   2  -8   1  478.08   32.60
   2  -8   1  639.12   38.32
   2  -8   2  178.06   21.05
   2  -7  -8  206.30   24.73
   2  -7  -7  138.54   23.62
   2  -7  -6  176.85   25.66
   2  -7  -5   51.44   22.63
   2  -7  -5   58.09   20.43
   2  -7  -4  224.29   29.24
   2  -7  -4  236.90   27.32
   2  -7  -3  126.11   23.99
   2  -7  -2   75.58   21.80
   2  -7  -1  490.45   36.99
   2  -7   0  749.97   47.51
   2  -7   1   96.31   16.05
   2  -7   1  134.61   21.81
   2  -7   2  159.81   17.81
   2  -7   2  222.78   24.00
   2  -7   3  374.81   26.93
   2  -7   3  440.23   32.36
   2  -7   4   46.54   13.54
   2  -7   4   66.79   14.05
   2  -7   4   65.37   16.89
   2  -7   5  179.62   21.43
   2  -7   5  161.40   17.85
   2  -7   6  130.14   18.66
   2  -6  -8   -7.09   21.12
   2  -6  -7  289.58   30.45
   2  -6  -6  177.40   27.67
   2  -6  -6  208.66   27.61
   2  -6  -5   21.09   21.03
   2  -6  -4   83.15   22.27
   2  -6  -3  256.86   27.75
   2  -6  -2   84.84   15.20
   2  -6  -2  106.39   21.20
   2  -6  -1   52.14   13.69
   2  -6  -1   49.23   19.32
   2  -6   0  122.18   16.24
   2  -6   0  196.59   23.49
   2  -6   1  672.44   39.13
   2  -6   1  483.17   31.77
   2  -6   2 1307.44   62.31
   2  -6   2 1023.41   56.15
   2  -6   3  276.77   26.50
   2  -6   3  235.89   21.12
   2  -6   4   26.97   12.70
   2  -6   4   48.62   18.65
   2  -6   5   17.99   13.05
   2  -6   5   41.76   18.57
   2  -6   6   22.00   13.34
   2  -6   6   45.44   17.91
   2  -6   7  143.42   21.38
   2  -6   7  156.94   18.81
   2  -6   8  208.24   23.03
   2  -5 -10  260.00   25.52
   2  -5  -8  431.33   34.22
   2  -5  -7    2.19   22.17
   2  -5  -6  163.55   25.94
   2  -5  -5  387.08   33.49
   2  -5  -4   33.50   18.60
   2  -5  -3  188.16   18.33
   2  -5  -3  299.83   25.64
   2  -5  -2  302.82   22.47
   2  -5  -2  422.93   29.28
   2  -5  -1  289.70   21.74
   2  -5  -1  426.77   28.67
   2  -5   0  289.07   24.27
   2  -5   0  204.91   17.72
   2  -5   1  177.63   20.99
   2  -5   1  138.05   15.28
   2  -5   2    7.87   10.69
   2  -5   2   -2.48   14.34
   2  -5   2   -1.99   16.40
   2  -5   3 1635.07   75.55
   2  -5   3 1531.16   72.54
   2  -5   4   33.90   13.30
   2  -5   4   27.24   17.59
   2  -5   4   32.43   15.38
   2  -5   5   18.08   13.61
   2  -5   5   15.82   18.11
   2  -5   5   42.84   15.85
   2  -5   6   66.00   16.49
   2  -5   6  113.18   17.81
   2  -5   7   66.16   16.48
   2  -5   7   48.81   15.21
   2  -5   8   -0.52   13.66
   2  -5   8    9.38   12.37
   2  -5   9  205.53   21.65
   2  -5   9  240.00   20.54
   2  -4 -11   28.01   15.89
   2  -4 -10   27.78   17.41
   2  -4  -9   27.31   18.78
   2  -4  -6   70.66   20.12
   2  -4  -5  190.72   23.40
   2  -4  -4    3.96   15.99
   2  -4  -3  451.35   30.42
   2  -4  -2  180.83   15.65
   2  -4  -2  259.22   21.67
   2  -4  -1  470.69   27.79
   2  -4  -1  325.75   21.18
   2  -4   0  656.16   34.92
   2  -4   0  707.50   37.96
   2  -4   1  319.69   24.20
   2  -4   1  264.94   18.83
   2  -4   1  263.82   22.16
   2  -4   2 1126.82   55.13
   2  -4   2 1050.37   50.73
   2  -4   2 1021.90   52.70
   2  -4   3   98.38   13.57
   2  -4   3   86.37   16.25
   2  -4   4   30.30   12.33
   2  -4   4   25.49   14.14
   2  -4   5  267.77   22.42
   2  -4   5  303.58   23.89
   2  -4   6   25.64   14.09
   2  -4   6   26.86   15.05
   2  -4   7   62.02   16.15
   2  -4   7   74.98   16.55
   2  -4   8   48.54   16.19
   2  -4   8   78.51   15.80
   2  -4   9   73.25   16.78
   2  -4   9   80.61   15.37
   2  -4  10    2.49   13.13
   2  -4  10    2.15   11.36
   2  -3 -10   63.81   16.61
   2  -3  -9  268.05   24.09
   2  -3  -8  161.93   21.03
   2  -3  -5  252.94   24.09
   2  -3  -4   79.20   16.85
   2  -3  -3  347.38   24.55
   2  -3  -2   78.37    9.80
   2  -3  -2  117.92   15.83
   2  -3  -1  143.60   16.35
   2  -3  -1  130.22   10.97
   2  -3   0  216.15   18.56
   2  -3   0  172.54   12.96
   2  -3   0  184.84   17.21
   2  -3   1 1337.18   59.00
   2  -3   1 1162.88   54.66
   2  -3   1 1195.41   56.94
   2  -3   2  162.29   14.24
   2  -3   2  170.48   17.55
   2  -3   3  566.62   30.99
   2  -3   3  594.57   32.80
   2  -3   4  118.29   16.20
   2  -3   5   13.41   13.77
   2  -3   6   12.75   14.06
   2  -3   7   41.54   15.43
   2  -3   8   79.64   16.43
   2  -3   9  224.32   21.28
   2  -3  10    8.47   12.86
   2  -3  11  124.24   16.39
   2  -2  -9  122.06   16.62
   2  -2  -8   75.55   15.46
   2  -2  -4  173.77   19.50
   2  -2  -3  590.28   32.63
   2  -2  -2  280.59   19.92
   2  -2  -1    9.11   11.74
   2  -2   0  678.77   31.15
   2  -2   0  628.11   30.41
   2  -2   1 1157.76   49.63
   2  -2   1 1069.27   48.52
   2  -2   2  851.44   42.24
   2  -2   3 1645.23   75.37
   2  -2   4   84.73   15.44
   2  -2   5   23.86   14.66
   2  -2   6   28.62   15.15
   2  -2   7   59.33   16.04
   2  -2   8  180.46   20.28
   2  -2   9  668.21   40.01
   2  -2  10   79.20   16.02
   2  -2  12   33.22   11.98
   2  -1  -8  434.86   24.89
   2  -1  -1 2935.24  124.60
   2  -1   1 1732.50   76.14
   2  -1   2  587.06   30.30
   2  -1   3 1879.10   83.86
   2  -1   4  223.03   15.45
   2  -1   5    0.28   10.04
   2  -1   6   96.77   13.03
   2  -1   7   57.97   12.73
   2  -1   8   15.26   12.51
   2  -1   8    2.69   13.50
   2  -1   9  350.34   23.08
   2  -1   9  325.73   26.25
   2  -1  10   10.96   13.56
   2  -1  10   15.18   14.00
   2  -1  11   38.89   14.13
   2  -1  11   39.24   14.49
   2  -1  12   25.33   13.04
   2   0  -1 4198.21  175.64
   2   0  -1 4193.50  176.42
   2   0   0 3647.24  151.48
   2   0   0 3556.69  152.22
   2   0   1 2398.25  101.72
   2   0   3  465.86   22.03
   2   0   4  731.41   33.68
   2   0   5  126.86   12.53
   2   0   6  385.42   20.11
   2   0   6  269.65   17.53
   2   0   7  229.88   16.44
   2   0   7  301.25   18.82
   2   0   8  554.50   29.95
   2   0   9   12.11   12.69
   2   0  10   92.72   15.59
   2   0  11   53.34   14.56
   2   0  11   45.96   15.49
   2   0  12  336.20   23.19
   2   0  12  290.40   25.09
   2   0  13   68.26   14.16
   2   0  13   79.12   14.84
   2   1   2  775.31   33.90
   2   1   3  560.27   26.26
   2   1   4  593.41   28.62
   2   1   5   36.89    5.74
   2   1   5   74.16   11.01
   2   1   6  292.56   16.91
   2   1   6  174.75   12.15
   2   1   7  181.78   14.19
   2   1   7  109.44   10.18
   2   1   8  127.49   14.39
   2   1   9  227.47   18.32
   2   1  10  225.83   19.12
   2   1  11  170.74   18.04
   2   1  12   46.34   14.23
   2   1  13  190.43   18.01
   2   2  -4   46.41   11.04
   2   2  -3 1172.90   54.27
   2   2  -2  619.37   30.83
   2   2  -1 1269.88   56.04
   2   2   0  662.82   30.19
   2   2   1  205.80   10.33
   2   2   4 1588.52   55.62
   2   2   4 1161.46   52.31
   2   2   5  147.89   13.44
   2   2   5   97.04    7.76
   2   2   6   45.65   12.75
   2   2   6   26.21    5.82
   2   2   7  122.45   15.25
   2   2   8  145.53   16.08
   2   2   9   -0.51   12.26
   2   2  10  493.48   29.39
   2   2  11  280.19   21.75
   2   2  12   54.07   14.70
   2   2  13    5.83   12.21
   2   3  -3   38.24   11.03
   2   3  -2  537.46   28.18
   2   3  -1  128.95   11.77
   2   3   0  445.74   23.06
   2   3   1  399.75   20.17
   2   3   2  104.29    7.83
   2   3   3  518.91   24.28
   2   3   4  108.60    8.58
   2   3   4  113.75    8.67
   2   3   5   36.90    6.59
   2   3   5   36.62   12.30
   2   3   6   54.39   13.32
   2   3   6   28.91    6.65
   2   3   7  167.44   17.59
   2   3   8  195.92   19.07
   2   3   9   85.84   16.60
   2   3  10   72.44   15.85
   2   3  11  263.73   21.75
   2   3  12   57.31   14.33
   2   4  -2   89.15   12.14
   2   4  -1  832.69   41.16
   2   4   0  198.12   14.80
   2   4   1  152.85   11.86
   2   4   2  611.60   29.68
   2   4   3  297.93   16.50
   2   4   4  238.27   14.58
   2   4   8  168.43   19.78
   2   4   9  136.34   19.14
   2   4  10   67.40   16.58
   2   4  11   96.45   16.58
   2   4  12   24.27   12.97
   2   5   8   17.43   16.55
   2   5   9   55.36   17.55
   2   5  10   70.53   17.43
   2   5  11   69.71   15.79
   2   6   6   60.55   17.69
   2   6   7    5.13   16.01
   2   6   8   23.17   17.52
   2   6   9   99.42   19.43
   2   6  10   73.18   16.74
   2   7   6  117.12   19.74
   2   7   7   46.54   17.24
   2   7   8   71.88   17.59
   2   8   5   53.99   16.92
   3  -7  -6   24.98   18.58
   3  -7  -5   19.53   18.17
   3  -7  -4  233.90   27.36
   3  -7  -4  231.17   25.53
   3  -7  -3  214.65   26.44
   3  -7  -2  145.20   22.60
   3  -7  -1   82.93   19.16
   3  -7   0   25.91   15.81
   3  -7   1  480.35   33.80
   3  -7   2  101.85   17.91
   3  -7   3  126.29   18.39
   3  -7   4   54.94   14.84
   3  -6  -7   26.93   20.24
   3  -6  -5   18.05   18.24
   3  -6  -4   62.62   20.87
   3  -6  -3   73.85   19.62
   3  -6  -2   46.11   19.05
   3  -6  -1  161.93   22.29
   3  -6   0   89.66   19.35
   3  -6   1  259.88   25.42
   3  -6   2  175.33   22.19
   3  -6   3   -8.62   15.44
   3  -6   4  222.48   23.12
   3  -6   5  110.53   18.05
   3  -6   6  107.03   17.85
   3  -5  -9   15.64   17.21
   3  -5  -5  180.01   24.77
   3  -5  -4   77.34   20.84
   3  -5  -3  299.07   28.01
   3  -5  -2  525.62   35.75
   3  -5  -1  661.22   40.69
   3  -5   0  122.53   19.81
   3  -5   1   14.97   14.88
   3  -5   2  113.43   18.77
   3  -5   3   17.01   14.51
   3  -5   3   20.37   15.50
   3  -5   4  122.57   18.60
   3  -5   4  105.61   19.31
   3  -5   5  226.96   24.38
   3  -5   5  204.85   22.57
   3  -5   6  184.72   22.20
   3  -5   6  179.32   20.57
   3  -5   7   81.36   15.73
   3  -5   8   50.28   13.00
   3  -4 -10   30.55   15.65
   3  -4  -9   24.88   17.42
   3  -4  -8   10.14   18.42
   3  -4  -5  397.08   32.03
   3  -4  -4  653.71   41.03
   3  -4  -3   85.58   17.24
   3  -4  -2  148.13   19.43
   3  -4  -1 1672.98   79.74
   3  -4   0  595.47   35.55
   3  -4   1   37.93   13.71
   3  -4   1   50.71   15.18
   3  -4   2  370.44   27.46
   3  -4   2  404.06   26.91
   3  -4   3  693.60   39.30
   3  -4   4  117.66   17.77
   3  -4   5   34.11   11.32
   3  -4   5   59.47   15.88
   3  -4   6  127.88   16.14
   3  -4   6  214.60   21.36
   3  -4   7  200.96   19.87
   3  -4   7  262.87   23.35
   3  -4   8   91.05   15.31
   3  -4   8  129.55   18.21
   3  -4   9   28.99   14.92
   3  -4   9   24.87   12.68
   3  -3  -9   48.52   16.42
   3  -3   1  472.08   27.93
   3  -3   2  250.38   20.11
   3  -3   3  651.18   36.44
   3  -3   4  992.76   52.19
   3  -3   4 1398.24   57.91
   3  -3   5  572.16   34.48
   3  -3   5  818.22   39.75
   3  -3   6   11.50   11.48
   3  -3   6   21.73   15.32
   3  -3   7   81.36   16.71
   3  -3   8  494.00   33.15
   3  -3   9  442.06   32.12
   3  -3   9  591.19   34.05
   3  -3  10   18.91   12.34
   3  -3  10   38.74   12.96
   3  -2  -3  169.41   17.33
   3  -2  -2 1705.91   78.05
   3  -2  -1 1080.12   50.80
   3  -2  -1 1029.39   49.14
   3  -2   0  768.88   37.83
   3  -2   0  705.40   36.55
   3  -2   1  664.20   34.78
   3  -2   2  315.78   21.89
   3  -2   2  330.40   21.92
   3  -2   3  242.55   18.68
   3  -2   3  260.31   18.94
   3  -2   4   37.68   14.02
   3  -2   5  719.28   40.57
   3  -2   6  606.51   36.68
   3  -2   7  222.24   22.65
   3  -2   8   41.68   15.37
   3  -2   9  181.17   20.94
   3  -2  10  198.06   20.52
   3  -2  11  166.06   18.15
   3  -1  -2  136.00   13.49
   3  -1  -1 1582.98   70.48
   3  -1  -1 1581.80   69.50
   3  -1   0 1673.68   70.35
   3  -1   0 1502.26   70.16
   3  -1   1 1006.03   44.92
   3  -1   1  901.76   44.85
   3  -1   2  246.15   16.97
   3  -1   3  243.20   18.43
   3  -1   3  266.93   20.08
   3  -1   4  166.47   17.38
   3  -1   5  358.74   25.47
   3  -1   6  272.02   22.99
   3  -1   7  323.79   26.05
   3  -1   8  156.45   20.07
   3  -1   9  361.77   28.20
   3  -1  10   10.07   14.18
   3  -1  11   42.04   14.33
   3  -1  12   44.03   12.61
   3   0  -1  640.96   29.26
   3   0   0   -1.29    7.16
   3   0   1  561.18   25.27
   3   0   1  518.21   28.33
   3   0   2  415.47   21.25
   3   0   2  492.77   25.93
   3   0   3  183.08   13.00
   3   0   6  231.53   15.09
   3   0   7  172.55   14.65
   3   0   8   12.27   10.13
   3   0   9  548.96   30.74
   3   0   9  654.35   37.55
   3   0  10    6.41   14.68
   3   0  11  139.24   18.82
   3   0  12   40.23   13.96
   3   1   0  123.08   10.24
   3   1   6   99.04   10.84
   3   1   7  370.18   21.33
   3   1   8   23.34   10.53
   3   1   9   90.86   12.94
   3   1  12    5.77   11.89
   3   2   5  180.76   12.71
   3   2   6  212.86   14.79
   3   2   7  218.68   15.52
   3   2   8   26.03   10.63
   3   2   9   75.44   12.62
   3   3   3  267.01   15.48
   3   3   4   63.21    9.91
   3   3   5   34.73   10.55
   3   3   6   54.83   11.52
   3   3   7  589.98   31.04
   3   3   8  232.38   17.76
   3   3   9   69.70   12.94
   3   4   4  238.59   17.16
   3   4   5  393.49   23.75
   3   4   6  111.93   14.75
   3   4   7    3.16   12.84
   3   4   8  114.70   15.13
   3   4   9  100.16   13.89
   3   5   4   78.76   13.91
   3   5   5  114.10   15.15
   3   5   6  321.37   23.32
   3   5   7  209.77   19.79
   3   5   8   46.10   13.90
   3   6   4   18.85   13.45
   3   6   5  121.41   16.23
   3   6   6   58.79   14.93
   4  -6  -3   50.28   16.32
   4  -6  -2   83.77   19.12
   4  -6  -1   97.41   18.24
   4  -6   0  394.16   29.50
   4  -6   1  248.42   23.03
   4  -6   2  204.12   20.36
   4  -5  -3  177.35   22.75
   4  -5  -2  113.36   20.13
   4  -5  -1  193.15   21.44
   4  -5   0  141.18   18.86
   4  -5   1    3.10   13.36
   4  -5   2  293.20   24.52
   4  -5   3  465.01   31.46
   4  -5   4  153.32   17.97
   4  -5   5    8.08   11.88
   4  -5   5    6.74   12.05
   4  -5   6  113.50   15.55
   4  -4  -8  337.14   26.04
   4  -4  -3  132.37   19.56
   4  -4  -2  218.49   23.33
   4  -4  -1  304.07   25.57
   4  -4   0 1171.49   59.84
   4  -4   1   23.73   12.75
   4  -4   2   19.26   12.52
   4  -4   2   16.36   12.94
   4  -4   3  238.38   21.39
   4  -4   4  345.26   25.88
   4  -4   5  186.45   19.30
   4  -4   5  181.54   19.19
   4  -4   6   21.58   13.20
   4  -4   6   31.64   12.32
   4  -4   7    9.19   11.84
   4  -4   7   10.53   12.42
   4  -3  -8   90.65   17.36
   4  -3  -3   17.79   12.83
   4  -3  -2   96.18   16.00
   4  -3  -1  189.12   18.63
   4  -3   0   40.73   12.39
   4  -3   1  435.39   26.96
   4  -3   1  373.92   25.49
   4  -3   2  552.04   32.14
   4  -3   2  502.16   31.08
   4  -3   3  246.95   20.81
   4  -3   3  234.10   21.08
   4  -3   4   37.25   12.71
   4  -3   5  278.68   22.93
   4  -3   5  346.00   25.47
   4  -3   6   -5.16   13.71
   4  -3   6    4.08   11.45
   4  -3   7   32.20   14.44
   4  -3   7   34.16   13.41
   4  -3   8   19.65   12.29
   4  -3   9   53.93   12.61
   4  -2  -2  384.85   25.16
   4  -2  -1  133.24   15.16
   4  -2   0  408.27   23.93
   4  -2   0  334.47   22.22
   4  -2   1  405.84   23.40
   4  -2   1  320.70   22.59
   4  -2   2  195.57   16.14
   4  -2   2  184.58   16.80
   4  -2   3  249.49   18.82
   4  -2   3  253.83   20.68
   4  -2   4  332.08   22.80
   4  -2   5   90.24   13.64
   4  -2   6  100.28   16.54
   4  -2   6   67.68   13.64
   4  -2   7   -2.36   13.46
   4  -2   8   -0.47   12.45
   4  -2   9   -4.91   11.64
   4  -1   0    3.86    7.45
   4  -1   1   45.00    9.92
   4  -1   2  264.27   18.97
   4  -1   3  306.76   21.73
   4  -1   4  147.13   16.90
   4  -1   7   49.59   15.87
   4  -1   8    6.81   14.00
   4  -1   9   36.09   14.14
   4  -1  10  111.59   16.18
   4   0   1  327.93   19.34
   4   0   2  154.42   14.11
   4   0   3  143.50   14.92
   4   0   4  504.61   30.38
   4   0   5  378.91   26.58
   4   0   8  166.27   20.41
   4   0   9   52.48   15.65
   4   0  10   61.70   14.68
   4   1   2  602.06   31.41
   4   1   3  251.97   18.58
   4   1   4   13.07   10.62
   4   1   5  260.53   21.02
   4   1   6  507.84   32.62
   4   1   9  107.84   17.53
   4   1  10  146.32   18.39
   5  -3   3   91.57   13.11
   5  -3   4   70.95   12.66
   5  -3   5   21.21   10.55
   5  -2   3   36.47   10.49
   5  -2   4   37.13   11.20
   5  -2   5   47.80   12.18
   5  -2   6  298.07   22.52
   5  -1   4   56.87   11.80
   5  -1   5   33.25   10.94
   5  -1   6   68.17   13.34
   5  -1   7  166.42   17.61
   5   0   5   15.97   10.36
   5   0   6   13.85   11.05
   5   0   7    9.31   11.32
   5   1   6    4.35   10.81
   5   1   7   17.05   12.08


TITL ca060318_1_1 in P1
REM P1 (#1 in standard setting)
CELL 1.54184   5.812782   8.569795  13.407451  83.9780  88.2987  88.2596
ZERR    2.00   0.000439   0.000607   0.001097   0.0063   0.0066   0.0060
LATT -1
SFAC C H O Cl
UNIT 30.00 28.00 2.00 4.00
TREF
HKLF 4
END
_computing_structure_solution     'SHELXT 2014/4 (Sheldrick, 2014)'
;
_shelx_hkl_checksum              437
_olex2_date_sample_data_collection 2018-03-07
_olex2_date_sample_submission    2018-03-05
_olex2_submission_original_sample_id ca060318_1_1
_olex2_submission_special_instructions 'No special instructions were received'
_oxdiff_exptl_absorpt_empirical_details
;
Empirical correction (ABSPACK) includes:
- Absorption correction using spherical harmonics
- Frame scaling
- Detector area scaling
;
_oxdiff_exptl_absorpt_empirical_full_max 1.707
_oxdiff_exptl_absorpt_empirical_full_min 0.651
loop_
_space_group_symop_operation_xyz
'x, y, z'
loop_
_atom_site_label
_atom_site_type_symbol
_atom_site_fract_x
_atom_site_fract_y
_atom_site_fract_z
_atom_site_U_iso_or_equiv
_atom_site_adp_type
_atom_site_occupancy
_atom_site_site_symmetry_order
_atom_site_calc_flag
_atom_site_refinement_flags_posn
Cl2A Cl 0.3879(5) 0.4610(4) 0.6564(2) 0.0352(9) Uani 1 1 d .
Cl1A Cl -0.0596(5) 0.3257(4) 0.6532(3) 0.0393(9) Uani 1 1 d .
Cl1B Cl 0.4366(5) 0.7667(4) 0.3913(3) 0.0433(10) Uani 1 1 d .
Cl2B Cl 0.8705(5) 0.7618(4) 0.4934(3) 0.0424(10) Uani 1 1 d .
O1A O 0.2334(17) 0.3832(11) 0.4565(7) 0.042(2) Uani 1 1 d .
H1A H 0.338552 0.445404 0.451501 0.063 Uiso 1 1 calc GR
O1B O 0.7150(18) 0.4590(12) 0.4284(8) 0.049(3) Uani 1 1 d .
H1B H 0.772294 0.473768 0.481680 0.073 Uiso 1 1 calc GR
C9B C 0.687(2) 0.7935(15) -0.0138(9) 0.027(3) Uani 1 1 d .
C9A C 0.199(2) 0.2356(15) 1.0221(9) 0.027(3) Uani 1 1 d .
C6A C 0.285(2) 0.1719(15) 0.8195(10) 0.028(3) Uani 1 1 d .
C15B C 0.939(2) 0.7605(15) 0.1310(10) 0.030(3) Uani 1 1 d .
H15B H 1.076317 0.723433 0.159501 0.035 Uiso 1 1 calc R
C8A C 0.046(2) 0.1493(16) 0.9725(9) 0.031(3) Uani 1 1 d .
H8A H -0.082837 0.108232 1.007355 0.038 Uiso 1 1 calc R
C4B C 0.785(3) 1.0269(17) 0.3201(11) 0.039(4) Uani 1 1 d .
H4B H 0.632772 1.062747 0.315864 0.047 Uiso 1 1 calc R
C14A C 0.407(2) 0.2857(15) 0.9686(10) 0.030(3) Uani 1 1 d .
C14B C 0.903(2) 0.7329(16) 0.0303(10) 0.030(3) Uani 1 1 d .
C10A C 0.163(2) 0.2657(18) 1.1202(10) 0.036(4) Uani 1 1 d .
H10A H 0.028925 0.231956 1.154550 0.043 Uiso 1 1 calc R
C3B C 0.841(2) 0.8642(16) 0.2953(10) 0.034(3) Uani 1 1 d .
H3B H 1.009178 0.852544 0.299400 0.041 Uiso 1 1 calc R
C15A C 0.439(2) 0.2527(16) 0.8700(10) 0.028(3) Uani 1 1 d .
H15A H 0.573221 0.286891 0.835798 0.034 Uiso 1 1 calc R
C6B C 0.788(2) 0.8364(16) 0.1886(10) 0.032(3) Uani 1 1 d .
C7B C 0.575(2) 0.8965(16) 0.1437(10) 0.030(3) Uani 1 1 d .
H7B H 0.468088 0.950122 0.181097 0.037 Uiso 1 1 calc R
C7A C 0.081(2) 0.1236(15) 0.8742(11) 0.033(3) Uani 1 1 d .
H7A H -0.030815 0.073382 0.842314 0.040 Uiso 1 1 calc R
C13B C 1.055(2) 0.6536(17) -0.0286(10) 0.033(3) Uani 1 1 d .
H13B H 1.192165 0.613770 -0.001208 0.039 Uiso 1 1 calc R
C8B C 0.532(2) 0.8748(17) 0.0472(12) 0.039(4) Uani 1 1 d .
H8B H 0.394476 0.915094 0.020019 0.046 Uiso 1 1 calc R
C3A C 0.327(2) 0.1472(16) 0.7126(9) 0.031(3) Uani 1 1 d .
H3A H 0.494091 0.138264 0.703294 0.037 Uiso 1 1 calc R
C13A C 0.561(2) 0.3693(16) 1.0195(10) 0.030(3) Uani 1 1 d .
H13A H 0.694388 0.404666 0.985684 0.037 Uiso 1 1 calc R
C11B C 0.808(2) 0.6895(16) -0.1693(11) 0.035(3) Uani 1 1 d .
H11B H 0.779458 0.675101 -0.235576 0.042 Uiso 1 1 calc R
C4A C 0.233(3) -0.0045(17) 0.6835(10) 0.042(4) Uani 1 1 d .
H4A H 0.074594 -0.016338 0.688886 0.050 Uiso 1 1 calc R
C11A C 0.322(3) 0.3448(19) 1.1686(11) 0.046(4) Uani 1 1 d .
H11A H 0.297272 0.361846 1.235515 0.055 Uiso 1 1 calc R
C10B C 0.649(3) 0.7688(17) -0.1128(10) 0.039(4) Uani 1 1 d .
H10B H 0.512597 0.806777 -0.141883 0.047 Uiso 1 1 calc R
C5A C 0.356(3) -0.1187(19) 0.6519(11) 0.054(4) Uani 1 1 d .
H5AA H 0.514684 -0.111540 0.645529 0.064 Uiso 1 1 calc R
H5AB H 0.284387 -0.208057 0.635621 0.064 Uiso 1 1 calc R
C12B C 1.012(2) 0.6313(17) -0.1245(11) 0.037(3) Uani 1 1 d .
H12B H 1.119785 0.576697 -0.161245 0.044 Uiso 1 1 calc R
C12A C 0.524(2) 0.4007(17) 1.1150(11) 0.038(4) Uani 1 1 d .
H12A H 0.629980 0.458045 1.145814 0.046 Uiso 1 1 calc R
C2A C 0.246(2) 0.2871(16) 0.6357(10) 0.032(3) Uani 1 1 d .
C1B C 0.796(3) 0.5714(17) 0.3515(10) 0.037(4) Uani 1 1 d .
H1BA H 0.723326 0.555995 0.289245 0.044 Uiso 1 1 calc R
H1BB H 0.960824 0.555578 0.341826 0.044 Uiso 1 1 calc R
C5B C 0.936(3) 1.1213(19) 0.3470(11) 0.057(5) Uani 1 1 d .
H5BA H 1.089672 1.088709 0.351861 0.069 Uiso 1 1 calc R
H5BB H 0.890592 1.221592 0.361512 0.069 Uiso 1 1 calc R
C1A C 0.292(3) 0.2515(17) 0.5279(10) 0.041(4) Uani 1 1 d .
H1AA H 0.454016 0.223652 0.519166 0.050 Uiso 1 1 calc R
H1AB H 0.203493 0.162070 0.515011 0.050 Uiso 1 1 calc R
C2B C 0.746(2) 0.7414(18) 0.3763(10) 0.039(4) Uani 1 1 d .
loop_
_atom_site_aniso_label
_atom_site_aniso_U_11
_atom_site_aniso_U_22
_atom_site_aniso_U_33
_atom_site_aniso_U_23
_atom_site_aniso_U_13
_atom_site_aniso_U_12
Cl2A 0.0316(19) 0.0236(18) 0.049(2) 0.0018(14) -0.0047(15) -0.0004(14)
Cl1A 0.0206(18) 0.036(2) 0.059(2) 0.0053(16) -0.0026(15) 0.0029(15)
Cl1B 0.025(2) 0.042(2) 0.060(2) 0.0064(17) 0.0003(16) 0.0033(16)
Cl2B 0.036(2) 0.044(2) 0.047(2) -0.0032(16) -0.0026(16) 0.0006(16)
O1A 0.048(6) 0.028(6) 0.048(6) 0.003(5) -0.001(5) -0.012(5)
O1B 0.044(6) 0.045(7) 0.057(6) 0.003(5) -0.005(5) -0.001(5)
C9B 0.031(8) 0.021(7) 0.029(8) -0.007(6) -0.004(6) -0.007(6)
C9A 0.025(8) 0.016(7) 0.039(8) -0.007(6) -0.001(6) 0.007(6)
C6A 0.021(8) 0.017(7) 0.045(8) 0.004(6) 0.000(6) 0.001(6)
C15B 0.017(7) 0.028(8) 0.044(9) -0.005(7) -0.004(6) -0.002(6)
C8A 0.035(8) 0.023(8) 0.035(8) 0.001(6) 0.003(6) 0.002(6)
C4B 0.027(9) 0.030(9) 0.061(10) 0.002(7) -0.006(7) -0.006(7)
C14A 0.022(8) 0.019(7) 0.050(9) -0.006(6) 0.003(6) 0.004(6)
C14B 0.024(8) 0.027(8) 0.039(8) -0.003(6) 0.009(6) -0.007(6)
C10A 0.028(8) 0.040(9) 0.039(8) -0.001(7) -0.006(6) 0.005(7)
C3B 0.014(7) 0.024(8) 0.063(10) 0.000(7) -0.003(6) -0.002(6)
C15A 0.017(7) 0.026(8) 0.040(8) 0.003(6) -0.003(6) 0.009(6)
C6B 0.028(9) 0.032(9) 0.035(8) 0.009(7) -0.003(6) 0.002(7)
C7B 0.018(7) 0.024(8) 0.052(9) -0.015(7) -0.005(6) 0.003(6)
C7A 0.019(8) 0.016(7) 0.063(10) 0.004(7) -0.010(7) -0.001(6)
C13B 0.023(8) 0.032(8) 0.045(9) -0.012(7) -0.004(6) -0.004(6)
C8B 0.023(8) 0.031(9) 0.061(10) 0.003(7) -0.003(7) -0.005(7)
C3A 0.025(8) 0.026(8) 0.042(8) -0.006(6) -0.006(6) 0.000(6)
C13A 0.020(8) 0.035(9) 0.037(8) -0.003(7) -0.008(6) 0.003(6)
C11B 0.039(9) 0.025(8) 0.042(8) -0.011(6) -0.008(7) -0.009(7)
C4A 0.052(10) 0.028(9) 0.044(9) 0.002(7) -0.003(7) -0.001(8)
C11A 0.039(10) 0.055(11) 0.045(9) -0.011(8) -0.007(7) 0.007(8)
C10B 0.035(9) 0.034(9) 0.046(9) 0.007(7) -0.004(7) 0.004(7)
C5A 0.066(11) 0.028(9) 0.067(11) -0.007(8) -0.016(9) 0.010(8)
C12B 0.023(8) 0.035(9) 0.055(9) -0.015(7) 0.003(6) 0.006(7)
C12A 0.032(9) 0.029(8) 0.056(10) -0.014(7) -0.014(7) -0.004(7)
C2A 0.009(7) 0.033(8) 0.051(8) 0.003(7) -0.006(6) 0.001(6)
C1B 0.038(9) 0.042(9) 0.028(7) 0.005(7) 0.006(6) 0.003(7)
C5B 0.084(14) 0.032(10) 0.055(11) 0.002(8) -0.007(9) 0.002(10)
C1A 0.049(10) 0.030(8) 0.044(9) 0.003(7) -0.007(7) 0.002(7)
C2B 0.029(8) 0.046(10) 0.041(8) -0.001(7) 0.006(6) 0.008(7)
loop_
_atom_type_symbol
_atom_type_description
_atom_type_scat_dispersion_real
_atom_type_scat_dispersion_imag
_atom_type_scat_source
C C 0.0181 0.0091 'International Tables Vol C Tables 4.2.6.8 and 6.1.1.4'
H H 0.0000 0.0000 'International Tables Vol C Tables 4.2.6.8 and 6.1.1.4'
Cl Cl 0.3639 0.7018 'International Tables Vol C Tables 4.2.6.8 and 6.1.1.4'
O O 0.0492 0.0322 'International Tables Vol C Tables 4.2.6.8 and 6.1.1.4'
loop_
_exptl_crystal_face_index_h
_exptl_crystal_face_index_k
_exptl_crystal_face_index_l
_exptl_crystal_face_perp_dist
0 0 -9 0.0054
0 0 9 0.0054
-3 3 -1 0.0510
-1 -5 -1 0.0352
0 -5 0 0.0287
1 5 1 0.0222
4 1 2 0.0682
1 -2 8 0.0244
0 -3 7 0.0177
-2 -4 3 0.0437
2 -4 -5 0.0416
1 -5 -1 0.0290
2 3 6 0.0405
loop_
_geom_angle_atom_site_label_1
_geom_angle_atom_site_label_2
_geom_angle_atom_site_label_3
_geom_angle
C1A O1A H1A 109.5
C1B O1B H1B 109.5
C8B C9B C14B 117.5(11)
C10B C9B C14B 118.0(12)
C10B C9B C8B 124.5(12)
C8A C9A C14A 117.5(11)
C10A C9A C8A 122.5(13)
C10A C9A C14A 119.9(12)
C15A C6A C7A 116.2(12)
C15A C6A C3A 120.8(12)
C7A C6A C3A 122.8(12)
C14B C15B H15B 117.5
C6B C15B H15B 117.5
C6B C15B C14B 125.0(12)
C9A C8A H8A 119.1
C7A C8A C9A 121.8(13)
C7A C8A H8A 119.1
C3B C4B H4B 118.1
C5B C4B H4B 118.1
C5B C4B C3B 123.9(14)
C15A C14A C9A 118.8(12)
C15A C14A C13A 124.0(12)
C13A C14A C9A 117.2(12)
C15B C14B C9B 116.9(11)
C13B C14B C9B 117.8(12)
C13B C14B C15B 125.4(12)
C9A C10A H10A 119.4
C9A C10A C11A 121.1(14)
C11A C10A H10A 119.4
C4B C3B H3B 105.2
C4B C3B C6B 114.1(11)
C4B C3B C2B 111.3(12)
C6B C3B H3B 105.2
C6B C3B C2B 114.7(12)
C2B C3B H3B 105.2
C6A C15A C14A 123.8(12)
C6A C15A H15A 118.1
C14A C15A H15A 118.1
C15B C6B C3B 121.7(12)
C15B C6B C7B 117.5(12)
C7B C6B C3B 120.7(12)
C6B C7B H7B 119.8
C8B C7B C6B 120.3(12)
C8B C7B H7B 119.8
C6A C7A H7A 119.2
C8A C7A C6A 121.6(12)
C8A C7A H7A 119.2
C14B C13B H13B 118.6
C12B C13B C14B 122.8(13)
C12B C13B H13B 118.6
C9B C8B H8B 118.6
C7B C8B C9B 122.8(13)
C7B C8B H8B 118.6
C6A C3A H3A 105.9
C6A C3A C4A 114.2(12)
C6A C3A C2A 114.9(11)
C4A C3A H3A 105.9
C4A C3A C2A 109.4(11)
C2A C3A H3A 105.9
C14A C13A H13A 118.5
C12A C13A C14A 123.0(13)
C12A C13A H13A 118.5
C10B C11B H11B 120.7
C10B C11B C12B 118.6(13)
C12B C11B H11B 120.7
C3A C4A H4A 117.3
C5A C4A C3A 125.4(16)
C5A C4A H4A 117.3
C10A C11A H11A 120.3
C10A C11A C12A 119.4(14)
C12A C11A H11A 120.3
C9B C10B H10B 118.9
C11B C10B C9B 122.1(13)
C11B C10B H10B 118.9
C4A C5A H5AA 120.0
C4A C5A H5AB 120.0
H5AA C5A H5AB 120.0
C13B C12B C11B 120.8(13)
C13B C12B H12B 119.6
C11B C12B H12B 119.6
C13A C12A C11A 119.3(13)
C13A C12A H12A 120.4
C11A C12A H12A 120.4
Cl2A C2A Cl1A 107.1(7)
C3A C2A Cl2A 110.2(9)
C3A C2A Cl1A 109.9(9)
C1A C2A Cl2A 109.3(10)
C1A C2A Cl1A 108.7(9)
C1A C2A C3A 111.5(11)
O1B C1B H1BA 109.2
O1B C1B H1BB 109.2
O1B C1B C2B 112.1(11)
H1BA C1B H1BB 107.9
C2B C1B H1BA 109.2
C2B C1B H1BB 109.2
C4B C5B H5BA 120.0
C4B C5B H5BB 120.0
H5BA C5B H5BB 120.0
O1A C1A C2A 112.1(12)
O1A C1A H1AA 109.2
O1A C1A H1AB 109.2
C2A C1A H1AA 109.2
C2A C1A H1AB 109.2
H1AA C1A H1AB 107.9
Cl2B C2B Cl1B 108.0(7)
C3B C2B Cl1B 110.8(10)
C3B C2B Cl2B 110.0(11)
C3B C2B C1B 112.5(11)
C1B C2B Cl1B 107.6(10)
C1B C2B Cl2B 107.7(10)
loop_
_geom_bond_atom_site_label_1
_geom_bond_atom_site_label_2
_geom_bond_distance
Cl2A C2A 1.776(14)
Cl1A C2A 1.808(13)
Cl1B C2B 1.810(14)
Cl2B C2B 1.777(15)
O1A H1A 0.8200
O1A C1A 1.441(17)
O1B H1B 0.8200
O1B C1B 1.416(17)
C9B C14B 1.461(19)
C9B C8B 1.42(2)
C9B C10B 1.390(18)
C9A C8A 1.398(19)
C9A C14A 1.440(18)
C9A C10A 1.375(18)
C6A C15A 1.385(19)
C6A C7A 1.423(19)
C6A C3A 1.483(18)
C15B H15B 0.9300
C15B C14B 1.417(18)
C15B C6B 1.35(2)
C8A H8A 0.9300
C8A C7A 1.367(18)
C4B H4B 0.9300
C4B C3B 1.49(2)
C4B C5B 1.29(2)
C14A C15A 1.387(19)
C14A C13A 1.400(19)
C14B C13B 1.376(19)
C10A H10A 0.9300
C10A C11A 1.38(2)
C3B H3B 0.9800
C3B C6B 1.52(2)
C3B C2B 1.54(2)
C15A H15A 0.9300
C6B C7B 1.448(19)
C7B H7B 0.9300
C7B C8B 1.36(2)
C7A H7A 0.9300
C13B H13B 0.9300
C13B C12B 1.351(19)
C8B H8B 0.9300
C3A H3A 0.9800
C3A C4A 1.52(2)
C3A C2A 1.568(18)
C13A H13A 0.9300
C13A C12A 1.345(19)
C11B H11B 0.9300
C11B C10B 1.38(2)
C11B C12B 1.40(2)
C4A H4A 0.9300
C4A C5A 1.29(2)
C11A H11A 0.9300
C11A C12A 1.43(2)
C10B H10B 0.9300
C5A H5AA 0.9300
C5A H5AB 0.9300
C12B H12B 0.9300
C12A H12A 0.9300
C2A C1A 1.52(2)
C1B H1BA 0.9700
C1B H1BB 0.9700
C1B C2B 1.55(2)
C5B H5BA 0.9300
C5B H5BB 0.9300
C1A H1AA 0.9700
C1A H1AB 0.9700
loop_
_exptl_oxdiff_crystal_face_indexfrac_h
_exptl_oxdiff_crystal_face_indexfrac_k
_exptl_oxdiff_crystal_face_indexfrac_l
_exptl_oxdiff_crystal_face_x
_exptl_oxdiff_crystal_face_y
_exptl_oxdiff_crystal_face_z
0.0035 0.0076 -9.0068 0.2987 0.9954 0.0635
-0.0035 -0.0076 9.0068 -0.2987 -0.9954 -0.0635
-3.0005 2.9979 -1.0041 0.9412 -0.1407 0.2587
-0.9980 -4.9965 -1.0000 -0.5025 0.1151 0.7730
0.0016 -4.9970 0.0015 -0.6986 0.0736 0.5684
0.9980 4.9965 1.0000 0.5025 -0.1151 -0.7730
3.9988 0.9992 2.0045 -0.5785 0.0403 -0.9180
0.9975 -2.0052 8.0075 -0.7079 -0.7863 -0.0267
-0.0018 -3.0041 7.0062 -0.6515 -0.7301 0.2916
-1.9999 -4.0009 3.0019 -0.3325 -0.4110 0.8287
2.0032 -3.9926 -5.0009 -0.7189 0.7500 0.0949
1.0019 -4.9958 -0.9984 -0.8284 0.2532 0.3779
1.9967 2.9939 6.0053 -0.1059 -0.5696 -0.7785
