#------------------------------------------------------------------------------
#$Date: 2019-11-03 15:56:29 +0200 (Sun, 03 Nov 2019) $
#$Revision: 221814 $
#$URL: file:///home/coder/svn-repositories/cod/cif/4/12/87/4128744.cif $
#------------------------------------------------------------------------------
#
# This file is available in the Crystallography Open Database (COD),
# http://www.crystallography.net/
#
# All data on this site have been placed in the public domain by the
# contributors.
#
data_4128744
loop_
_publ_author_name
'Chandgude, Ajay L.'
'Ren, Xinkun'
'Fasan, Rudi'
_publ_section_title
;
 Stereodivergent Intramolecular Cyclopropanation Enabled by Engineered
 Carbene Transferases.
;
_journal_issue                   23
_journal_name_full               'Journal of the American Chemical Society'
_journal_page_first              9145
_journal_page_last               9150
_journal_paper_doi               10.1021/jacs.9b02700
_journal_volume                  141
_journal_year                    2019
_chemical_absolute_configuration ad
_chemical_formula_moiety         'C11 H9 Cl O2'
_chemical_formula_sum            'C11 H9 Cl O2'
_chemical_formula_weight         208.63
_space_group_crystal_system      monoclinic
_space_group_IT_number           4
_space_group_name_Hall           'P 2yb'
_space_group_name_H-M_alt        'P 1 21 1'
_atom_sites_solution_hydrogens   geom
_atom_sites_solution_primary     dual
_atom_sites_solution_secondary   difmap
_audit_creation_date             2018-12-10
_audit_creation_method
;
Olex2 1.2-ac3
(compiled 2017.08.10 svn.r3458 for OlexSys, GUI svn.r5381)
;
_cell_angle_alpha                90
_cell_angle_beta                 96.864(2)
_cell_angle_gamma                90
_cell_formula_units_Z            2
_cell_length_a                   5.51150(10)
_cell_length_b                   9.7152(2)
_cell_length_c                   8.7681(2)
_cell_measurement_reflns_used    8075
_cell_measurement_temperature    99.98(10)
_cell_measurement_theta_max      76.6360
_cell_measurement_theta_min      5.0800
_cell_volume                     466.126(17)
_computing_cell_refinement       'CrysAlisPro 1.171.39.46 (Rigaku OD, 2018)'
_computing_data_collection       'CrysAlisPro 1.171.39.46 (Rigaku OD, 2018)'
_computing_data_reduction        'CrysAlisPro 1.171.39.46 (Rigaku OD, 2018)'
_computing_molecular_graphics    'Olex2 (Dolomanov et al., 2009)'
_computing_publication_material  'Olex2 (Dolomanov et al., 2009)'
_computing_structure_refinement  'ShelXL (Sheldrick, 2015b)'
_computing_structure_solution    'ShelXT (Sheldrick, 2015a)'
_diffrn_ambient_environment      N~2~
_diffrn_ambient_temperature      99.98(10)
_diffrn_detector                 'CCD plate'
_diffrn_detector_type            HyPix
_diffrn_measured_fraction_theta_full 0.999
_diffrn_measured_fraction_theta_max 0.993
_diffrn_measurement_details
;
List of Runs (angles in degrees, time in seconds):

  # Type    Start    End  Width  t~exp~   \w     \q     \k     \f   Frames
--------------------------------------------------------------------------
  1  \w    -54.00 -29.00   0.50    0.05    --  -49.87 -77.00  30.00   50
  2  \w    -73.00 -31.00   0.50    0.05    --  -49.87 -77.00 120.00   84
  3  \w    -87.00 -61.00   0.50    0.05    --  -84.25 -82.00 118.79   52
  4  \w    -89.00 -63.00   0.50    0.05    --  -84.25 -77.00 150.00   52
  5  \w    -99.00 -64.00   0.50    0.05    --  -84.25 -77.00  90.00   70
  6  \w    -95.00 -68.00   0.50    0.05    --  -84.25 -77.00  30.00   54
  7  \w    -92.00 -63.00   0.50    0.05    --  -84.25 -77.00   0.00   58
  8  \w    -90.00 -64.00   0.50    0.05    --  -84.25 -77.00 -60.00   52
  9  \w    -90.00 -65.00   0.50    0.05    --  -84.25 -77.00 -90.00   50
 10  \w    -88.00 -62.00   0.50    0.05    --  -84.25 -83.00-141.73   52
 11  \w    -89.00 -63.00   0.50    0.05    --  -84.25 -77.00-180.00   52
 12  \w    -91.00 -65.00   0.50    0.05    --  -84.25 -73.00-129.57   52
 13  \w    -94.00 -63.00   0.50    0.05    --  -84.25 -79.00 -67.06   62
 14  \w    -88.00 -63.00   0.50    0.05    --  -84.25 -77.00 -30.00   50
 15  \w   -105.00 -69.00   0.50    0.05    --  -49.87 -77.00  30.00   72
 16  \w   -110.00 -85.00   0.50    0.05    --  -84.25-135.00  51.00   50
 17  \w   -117.00 -92.00   0.50    0.05    --  -49.87-135.00  51.00   50
 18  \w    -95.00 -64.00   0.50    0.05    --  -84.25 -77.00  60.00   62
 19  \w    -94.00 -67.00   0.50    0.05    --  -84.25 -77.00  47.46   54
 20  \w    -94.00 -69.00   0.50    0.05    --  -84.25 -77.00  80.56   50
 21  \w   -104.00 -66.00   0.50    0.05    --  -84.25 -72.00 129.47   76
 22  \w   -145.00-120.00   0.50    0.05    --  -84.25 -77.00 -30.00   50
 23  \w    -79.00 -39.00   0.50    0.05    --  -49.87 -57.00 -90.00   80
 24  \w    -54.00 -29.00   0.50    0.05    --  -49.87 -77.00-120.00   50
 25  \w    -54.00 -29.00   0.50    0.05    --  -49.87 -77.00-180.00   50
 26  \w   -106.00 -79.00   0.50    0.05    --  -49.87 -77.00-180.00   54
 27  \w   -117.00 -92.00   0.50    0.05    --  -49.87-134.00-129.00   50
 28  \w   -118.00 -92.00   0.50    0.05    --  -49.87 -77.00-120.00   52
 29  \w   -108.00 -71.00   0.50    0.05    --  -84.25 -57.00-136.97   74
 30  \w   -151.00-100.00   0.50    0.05    --  -84.25-134.00-129.00  102
 31  \w     44.00  98.00   0.50    0.05    --   49.87-134.00-129.00  108
 32  \w     72.00 107.00   0.50    0.05    --  105.75-134.00-129.00   70
 33  \w     72.00  98.00   0.50    0.05    --  105.75 -94.00-120.00   52
 34  \w     72.00 125.00   0.50    0.05    --  105.75 -77.00-120.00  106
 35  \w     88.00 127.00   0.50    0.05    --  105.75 -77.00 -30.00   78
 36  \w     68.00  93.00   0.50    0.05    --   49.87-135.00  51.00   50
 37  \w     41.00 119.00   0.50    0.05    --  105.75-135.00  51.00  156
 38  \w     55.00 127.00   0.50    0.05    --  105.75 -77.00  60.00  144
 39  \w    135.00 175.00   0.50    0.05    --  105.75  15.00 -60.00   80
 40  \w    136.00 162.00   0.50    0.05    --  105.75  77.00 -60.00   52
 41  \w    153.00 178.00   0.50    0.05    --  105.75  77.00 -90.00   50
 42  \w    148.00 175.00   0.50    0.05    --  105.75  77.00-120.00   54
 43  \w    143.00 178.00   0.50    0.05    --  105.75  77.00-150.00   70
 44  \w    140.00 168.00   0.50    0.05    --  105.75  61.00-180.00   56
 45  \w    106.00 134.00   0.50    0.05    --  105.75 134.00 -62.00   56
 46  \w     90.00 118.00   0.50    0.05    --  105.75  77.00-120.00   56
 47  \w     89.00 118.00   0.50    0.05    --  105.75  77.00 -60.00   58
 48  \w    135.00 177.00   0.50    0.05    --  105.75  77.00 -30.00   84
 49  \w    133.00 158.00   0.50    0.05    --  105.75  77.00  30.00   50
 50  \w    147.00 177.00   0.50    0.05    --  105.75  45.00  90.00   60
 51  \w    151.00 177.00   0.50    0.05    --  105.75  77.00 120.00   52
 52  \w    133.00 177.00   0.50    0.05    --  105.75  77.00 150.00   88
 53  \w    130.00 155.00   0.50    0.05    --  105.75 135.00 117.00   50
 54  \w    125.00 150.00   0.50    0.05    --  105.75  77.00 120.00   50
 55  \w    101.00 161.00   0.50    0.05    --  105.75  45.00  60.00  120
 56  \w     96.00 122.00   0.50    0.05    --  105.75  61.00   0.00   52
 57  \w     85.00 120.00   0.50    0.05    --  105.75  77.00  30.00   70
 58  \w     90.00 117.00   0.50    0.05    --  105.75  77.00 -30.00   54
 59  \w     90.00 131.00   0.50    0.05    --  105.75  77.00 -90.00   82
 60  \w     93.00 141.00   0.50    0.05    --  105.75  61.00-150.00   96
 61  \w     94.00 119.00   0.50    0.05    --   49.87  77.00-180.00   50
 62  \w     86.00 139.00   0.50    0.05    --  105.75  77.00-150.00  106
 63  \w     94.00 125.00   0.50    0.05    --  105.75  61.00-180.00   62
 64  \w     98.00 130.00   0.50    0.05    --  105.75  15.00 -60.00   64
 65  \w     89.00 175.00   0.50    0.05    --  105.75  77.00   0.00  172
 66  \w     98.00 140.00   0.50    0.05    --  105.75  45.00  90.00   84
 67  \w     88.00 116.00   0.50    0.05    --  105.75  77.00 150.00   56
 68  \w     85.00 116.00   0.50    0.05    --  105.75  77.00 120.00   62
 69  \w     85.00 146.00   0.50    0.05    --  105.75  77.00  90.00  122
 70  \w     92.00 142.00   0.50    0.05    --  105.75  61.00 120.00  100
 71  \w     57.00  84.00   0.50    0.05    --   49.87  38.00 -30.00   54
 72  \w     42.00  75.00   0.50    0.05    --   49.87  38.00 -60.00   66
 73  \w     29.00  59.00   0.50    0.05    --   49.87  77.00-120.00   60
 74  \w     42.00  75.00   0.50    0.05    --   49.87  38.00-150.00   66
 75  \w     29.00  55.00   0.50    0.05    --   49.87  77.00-180.00   52
 76  \w     29.00  54.00   0.50    0.05    --   49.87  77.00 -30.00   50
 77  \w     42.00  87.00   0.50    0.05    --   49.87  38.00  30.00   90
 78  \w     44.00  74.00   0.50    0.05    --   49.87  38.00  90.00   60
 79  \w     33.00  59.00   0.50    0.05    --   49.87  77.00   0.00   52
 80  \w     30.00  55.00   0.50    0.05    --   49.87  77.00  30.00   50
 81  \w     31.00  58.00   0.50    0.05    --   49.87  77.00  60.00   54
 82  \w     29.00  60.00   0.50    0.05    --   49.87  77.00 120.00   62
 83  \w     40.00  70.00   0.50    0.05    --  105.75 -30.00  90.00   60
 84  \w     43.00  71.00   0.50    0.05    --  105.75 -30.00  60.00   56
 85  \w     47.00  88.00   0.50    0.05    --  105.75 -45.00   0.00   82
 86  \w     34.00  90.00   0.50    0.05    --  105.75 -45.00-120.00  112
 87  \w     36.00  98.00   0.50    0.05    --  105.75 -77.00-180.00  124
 88  \w     36.00  67.00   0.50    0.05    --  105.75 -77.00-120.00   62
 89  \w    -64.00 -37.00   0.50    0.05    --  -49.87 134.00 -62.00   54
 90  \w    -64.00 -39.00   0.50    0.05    --  -49.87 135.00 117.00   50
 91  \w    -81.00 -56.00   0.50    0.05    --  -84.25 135.00 117.00   50
;
_diffrn_measurement_device       'four-circle diffractometer'
_diffrn_measurement_device_type  'XtaLAB Synergy, Dualflex, HyPix'
_diffrn_measurement_method       '\w scans'
_diffrn_orient_matrix_type
'CrysAlisPro convention (1999,Acta A55,543-557)'
_diffrn_orient_matrix_UB_11      -0.0469544000
_diffrn_orient_matrix_UB_12      0.0121006000
_diffrn_orient_matrix_UB_13      -0.1762687000
_diffrn_orient_matrix_UB_21      0.0040200000
_diffrn_orient_matrix_UB_22      0.1581369000
_diffrn_orient_matrix_UB_23      0.0135478000
_diffrn_orient_matrix_UB_31      0.2774763000
_diffrn_orient_matrix_UB_32      -0.0002775000
_diffrn_orient_matrix_UB_33      -0.0085445000
_diffrn_radiation_monochromator  mirror
_diffrn_radiation_probe          x-ray
_diffrn_radiation_type           CuK\a
_diffrn_radiation_wavelength     1.54184
_diffrn_reflns_av_R_equivalents  0.0582
_diffrn_reflns_av_unetI/netI     0.0328
_diffrn_reflns_Laue_measured_fraction_full 0.999
_diffrn_reflns_Laue_measured_fraction_max 0.993
_diffrn_reflns_limit_h_max       6
_diffrn_reflns_limit_h_min       -5
_diffrn_reflns_limit_k_max       12
_diffrn_reflns_limit_k_min       -12
_diffrn_reflns_limit_l_max       11
_diffrn_reflns_limit_l_min       -11
_diffrn_reflns_number            11264
_diffrn_reflns_point_group_measured_fraction_full 0.994
_diffrn_reflns_point_group_measured_fraction_max 0.980
_diffrn_reflns_theta_full        74.504
_diffrn_reflns_theta_max         77.720
_diffrn_reflns_theta_min         5.081
_diffrn_source                   'micro-focus sealed X-ray tube'
_diffrn_source_type              'PhotonJet (Cu) X-ray Source'
_exptl_absorpt_coefficient_mu    3.365
_exptl_absorpt_correction_T_max  1.00000
_exptl_absorpt_correction_T_min  0.43353
_exptl_absorpt_correction_type   multi-scan
_exptl_absorpt_process_details
;
CrysAlisPro 1.171.39.46 (Rigaku Oxford Diffraction, 2018)
Empirical absorption correction using spherical harmonics,
 implemented in SCALE3 ABSPACK scaling algorithm.
;
_exptl_crystal_colour            colourless
_exptl_crystal_colour_primary    colourless
_exptl_crystal_density_diffrn    1.486
_exptl_crystal_description       needle
_exptl_crystal_F_000             216
_exptl_crystal_size_max          0.494
_exptl_crystal_size_mid          0.077
_exptl_crystal_size_min          0.064
_refine_diff_density_max         0.276
_refine_diff_density_min         -0.247
_refine_diff_density_rms         0.058
_refine_ls_abs_structure_details
;
 Flack x determined using 874 quotients [(I+)-(I-)]/[(I+)+(I-)]
 (Parsons, Flack and Wagner, Acta Cryst. B69 (2013) 249-259).
;
_refine_ls_abs_structure_Flack   0.005(8)
_refine_ls_extinction_method     none
_refine_ls_goodness_of_fit_ref   1.106
_refine_ls_hydrogen_treatment    constr
_refine_ls_matrix_type           full
_refine_ls_number_parameters     127
_refine_ls_number_reflns         1947
_refine_ls_number_restraints     1
_refine_ls_restrained_S_all      1.105
_refine_ls_R_factor_all          0.0312
_refine_ls_R_factor_gt           0.0310
_refine_ls_shift/su_max          0.001
_refine_ls_shift/su_mean         0.000
_refine_ls_structure_factor_coef Fsqd
_refine_ls_weighting_details
'w=1/[\s^2^(Fo^2^)+(0.0478P)^2^+0.0768P] where P=(Fo^2^+2Fc^2^)/3'
_refine_ls_weighting_scheme      calc
_refine_ls_wR_factor_gt          0.0804
_refine_ls_wR_factor_ref         0.0806
_reflns_Friedel_coverage         0.863
_reflns_Friedel_fraction_full    0.989
_reflns_Friedel_fraction_max     0.966
_reflns_number_gt                1930
_reflns_number_total             1947
_reflns_threshold_expression     'I > 2\s(I)'
_cod_data_source_file            ja9b02700_si_003.cif
_cod_data_source_block           fasac10
_cod_database_code               4128744
_shelx_shelxl_version_number     2018/3
_shelx_space_group_comment
;
The symmetry employed for this shelxl refinement is uniquely defined
by the following loop, which should always be used as a source of
symmetry information in preference to the above space-group names.
They are only intended as comments.
;
_shelx_estimated_absorpt_t_max   0.813
_shelx_estimated_absorpt_t_min   0.287
_reflns_odcompleteness_completeness 99.90
_reflns_odcompleteness_iscentric 1
_reflns_odcompleteness_theta     74.33
_olex2_refinement_description
;
1. Fixed Uiso
 At 1.2 times of:
  All C(H) groups, All C(H,H) groups
2.a Ternary CH refined with riding coordinates:
 C1(H1), C2(H2), C3(H3)
2.b Secondary CH2 refined with riding coordinates:
 C4(H4A,H4B)
2.c Aromatic/amide H refined with riding coordinates:
 C7(H7), C8(H8), C10(H10), C11(H11)
;
_shelx_res_file
;
TITL fasac10_a.res in P2(1)
    fasac10.res
    created by SHELXL-2018/3 at 09:19:15 on 10-Dec-2018
REM Old TITL FASAC10 in P2(1)
REM SHELXT solution in P2(1): R1 0.060, Rweak 0.043, Alpha 0.003
REM <I/s> 1.491 for 6 systematic absences, Orientation as input
REM Flack x = 0.009 ( 0.009 ) from 861 Parsons' quotients
REM Formula found by SHELXT: C11 O2 Cl
CELL 1.54184 5.5115 9.7152 8.7681 90 96.864 90
ZERR 2 0.0001 0.0002 0.0002 0 0.002 0
LATT -1
SYMM -X,0.5+Y,-Z
SFAC C H Cl O
UNIT 22 18 2 4

L.S. 12
PLAN  12
SIZE 0.494 0.077 0.064
BOND $H
list 4
CONF
fmap 2
acta 149.008
REM <olex2.extras>
REM <HklSrc "%.\\FASAC10.hkl">
REM </olex2.extras>

WGHT    0.047800    0.076800
FVAR       1.55700
CL1   3    0.131559    0.288940    1.137576    11.00000    0.02495    0.02604 =
         0.01861    0.00226    0.00545   -0.00393
O1    4    0.856360    0.561972    0.340146    11.00000    0.01963    0.02416 =
         0.02007   -0.00022    0.00642   -0.00141
O2    4    0.981357    0.732430    0.501741    11.00000    0.02379    0.02364 =
         0.02674    0.00251    0.00128   -0.00752
C1    1    0.625824    0.457146    0.591730    11.00000    0.01536    0.01672 =
         0.01883    0.00007    0.00056    0.00023
AFIX  13
H1    2    0.784484    0.412210    0.589193    11.00000   -1.20000
AFIX   0
C2    1    0.611988    0.606356    0.532805    11.00000    0.01717    0.01477 =
         0.01923    0.00012    0.00144   -0.00088
AFIX  13
H2    2    0.514638    0.675775    0.579202    11.00000   -1.20000
AFIX   0
C3    1    0.491588    0.491434    0.436405    11.00000    0.01638    0.01615 =
         0.01837   -0.00050    0.00029   -0.00185
AFIX  13
H3    2    0.313048    0.484750    0.418276    11.00000   -1.20000
AFIX   0
C4    1    0.643955    0.474429    0.304938    11.00000    0.02339    0.02155 =
         0.01887   -0.00259    0.00355   -0.00176
AFIX  23
H4A   2    0.693254    0.379175    0.296287    11.00000   -1.20000
H4B   2    0.551400    0.502131    0.208766    11.00000   -1.20000
AFIX   0
C5    1    0.831746    0.645198    0.461795    11.00000    0.01801    0.01769 =
         0.01904    0.00338    0.00009    0.00134
C6    1    0.495147    0.418021    0.723963    11.00000    0.01570    0.01671 =
         0.01590   -0.00173    0.00007   -0.00223
C7    1    0.286398    0.486327    0.760963    11.00000    0.01971    0.01604 =
         0.01973    0.00056   -0.00015    0.00181
AFIX  43
H7    2    0.223331    0.559696    0.700619    11.00000   -1.20000
AFIX   0
C8    1    0.172091    0.445997    0.886653    11.00000    0.01601    0.01885 =
         0.02090   -0.00144    0.00193    0.00233
AFIX  43
H8    2    0.032926    0.491518    0.910303    11.00000   -1.20000
AFIX   0
C9    1    0.268495    0.336833    0.976413    11.00000    0.02135    0.02090 =
         0.01480   -0.00130    0.00161   -0.00581
C10   1    0.474238    0.267504    0.942445    11.00000    0.01963    0.01720 =
         0.02118    0.00131   -0.00147    0.00049
AFIX  43
H10   2    0.536647    0.194356    1.003384    11.00000   -1.20000
AFIX   0
C11   1    0.586837    0.308225    0.816330    11.00000    0.01938    0.01675 =
         0.01806   -0.00163    0.00058    0.00179
AFIX  43
H11   2    0.725250    0.261738    0.793034    11.00000   -1.20000
AFIX   0
HKLF 4




REM  fasac10_a.res in P2(1)
REM wR2 = 0.0806, GooF = S = 1.106, Restrained GooF = 1.105 for all data
REM R1 = 0.0310 for 1930 Fo > 4sig(Fo) and 0.0312 for all 1947 data
REM 127 parameters refined using 1 restraints

END

WGHT      0.0478      0.0768

REM Highest difference peak  0.276,  deepest hole -0.247,  1-sigma level  0.058
Q1    1  -0.0449  0.2925  1.0794  11.00000  0.05    0.28
Q2    1   0.8434  0.2414  0.9741  11.00000  0.05    0.21
Q3    1   0.0534  0.2457  0.8617  11.00000  0.05    0.20
Q4    1   0.7842  0.2755  0.1609  11.00000  0.05    0.19
Q5    1   0.6671  0.4216  0.8007  11.00000  0.05    0.19
Q6    1   0.0097  0.3418  0.8130  11.00000  0.05    0.19
Q7    1   0.2818  0.5931  0.3867  11.00000  0.05    0.19
Q8    1  -0.0022  0.4799  1.0864  11.00000  0.05    0.18
Q9    1   1.0073  0.4618  0.3650  11.00000  0.05    0.17
Q10   1   1.1640  0.7234  0.5499  11.00000  0.05    0.17
Q11   1   0.2165  0.2060  0.9338  11.00000  0.05    0.16
Q12   1   0.5138  0.4866  0.8597  11.00000  0.05    0.16
;
_shelx_res_checksum              26798
_shelx_hkl_file
;
   0 -12   0   42.49    6.33
   0 -12   0   62.00    7.88
   0 -12   1  136.69   11.99
   0 -12  -1  119.10   11.03
   0 -12   2   27.56    4.98
   0 -11   0   -1.01    3.45
   0 -11   0    0.99    2.55
   0 -11  -1  246.00   22.68
   0 -11   1  240.42   22.74
   0 -11  -1  246.72   21.66
   0 -11  -1  251.24   22.43
   0 -11   1  261.87   23.04
   0 -11   1  240.40   21.51
   0 -11   2   36.29    7.25
   0 -11   2   19.07    6.64
   0 -11   2   25.16    6.94
   0 -11  -2   21.12    6.95
   0 -11  -2   21.27    6.30
   0 -11  -3  207.36   19.81
   0 -11   3  226.65   20.83
   0 -11   4   25.46    6.39
   0 -11  -4   16.68    5.67
   0 -11  -4   15.50    4.85
   0 -11   4   17.26    4.58
   0 -10   0  119.98   17.63
   0 -10   0  131.45   19.24
   0 -10   0  155.29   19.80
   0 -10   0  142.00   19.05
   0 -10  -1   63.63   13.32
   0 -10  -1   81.98   14.95
   0 -10  -1   73.88   13.75
   0 -10   1   99.44   15.68
   0 -10   1   73.86   13.45
   0 -10  -2  176.83   20.72
   0 -10   2  168.78   19.70
   0 -10   2  206.21   22.21
   0 -10  -2  159.43   17.42
   0 -10  -2  163.49   22.46
   0 -10  -3  219.67   23.89
   0 -10   3  193.85   19.61
   0 -10  -3  250.26   27.28
   0 -10  -4  248.49   26.62
   0 -10  -4  204.40   17.71
   0 -10   4  274.35   22.79
   0 -10   4  237.10   19.23
   0 -10  -5    7.58    2.63
   0 -10  -5    0.86    2.74
   0 -10   5    4.31    2.95
   0 -10  -6    9.33    4.30
   0 -10  -6   12.46    3.65
   0 -10   6   15.72    3.25
   0  -9   0    4.64    4.48
   0  -9   0   -1.45    4.98
   0  -9   0    1.46    3.78
   0  -9   1  105.28   16.02
   0  -9   1   75.39   14.31
   0  -9  -1   89.64   15.68
   0  -9   1   91.81   15.50
   0  -9  -1   91.28   11.77
   0  -9  -1   89.80   16.19
   0  -9  -1   87.28   16.73
   0  -9  -1   71.24   14.19
   0  -9  -2  361.58   29.09
   0  -9  -2  351.50   36.32
   0  -9   2  389.61   32.94
   0  -9  -2  341.36   32.25
   0  -9  -3  322.28   28.07
   0  -9  -3  342.76   28.12
   0  -9  -3  303.43   31.41
   0  -9  -3  362.20   36.85
   0  -9   3  351.89   31.09
   0  -9  -3  336.94   30.64
   0  -9   4  103.66   13.19
   0  -9   4   85.75   14.93
   0  -9  -4  106.84   15.09
   0  -9  -4  109.12   17.57
   0  -9   4  121.60   16.44
   0  -9   5  141.25   16.83
   0  -9  -5  132.84   16.54
   0  -9   5  147.77   15.16
   0  -9  -5  147.05   21.45
   0  -9  -6  126.41   15.38
   0  -9   6  126.45   13.84
   0  -9   6  133.48   13.21
   0  -9  -6  122.01   14.27
   0  -9  -6  145.19   19.20
   0  -9   7   90.76    8.26
   0  -9  -7   88.86    9.82
   0  -9  -7   97.56   12.63
   0  -9  -7  106.28   10.67
   0  -8   0   41.44   10.36
   0  -8   0   44.06   11.20
   0  -8   0   49.45    8.96
   0  -8   0   43.11    7.62
   0  -8   0   36.12   10.07
   0  -8   1  613.30   35.61
   0  -8  -1  721.82   50.18
   0  -8   1  727.68   45.94
   0  -8  -1  630.53   44.54
   0  -8  -1  610.33   32.94
   0  -8  -1  610.20   35.28
   0  -8   1  546.85   40.70
   0  -8   1  594.93   31.83
   0  -8   1  631.36   37.75
   0  -8   1  574.51   41.73
   0  -8  -2  331.69   30.84
   0  -8   2  279.98   27.80
   0  -8  -2  326.30   22.45
   0  -8   2  326.95   22.33
   0  -8  -2  375.01   36.08
   0  -8  -3  155.74   17.93
   0  -8   3  187.44   16.92
   0  -8  -3  187.88   21.19
   0  -8   3  202.96   15.77
   0  -8   3  186.80   19.62
   0  -8  -3  192.52   24.62
   0  -8  -3  212.74   22.86
   0  -8  -3  174.07   21.95
   0  -8  -3  201.52   27.20
   0  -8   3  164.23   20.89
   0  -8  -4  646.32   43.53
   0  -8  -4  752.87   51.81
   0  -8   4  682.63   46.91
   0  -8   4  752.36   47.17
   0  -8   4  743.00   44.49
   0  -8  -4  692.24   46.70
   0  -8  -4  612.25   41.57
   0  -8   5   39.46    9.10
   0  -8  -5   27.46   10.88
   0  -8  -5   43.10   10.16
   0  -8   5   54.94   11.10
   0  -8  -5   46.67   11.03
   0  -8   6   77.98   12.23
   0  -8  -6   77.80   16.06
   0  -8  -6   76.81   13.71
   0  -8   6   67.55   12.23
   0  -8  -6   90.34   14.47
   0  -8   6   83.79   12.57
   0  -8  -6   66.57   11.87
   0  -8  -7  119.42   14.75
   0  -8  -7  144.08   19.27
   0  -8   7  121.05   13.16
   0  -8  -7  132.92   15.61
   0  -8   7  116.74   14.16
   0  -8   7  125.94   14.18
   0  -8  -8   41.14    6.80
   0  -8  -8   36.07    5.83
   0  -8   8   28.93    5.25
   0  -7   0    1.71    1.11
   0  -7   0   -1.10    2.86
   0  -7   0    0.67    1.94
   0  -7   0    0.59    1.70
   0  -7   0    4.13    2.68
   0  -7   1   88.40   13.50
   0  -7  -1  103.44   15.25
   0  -7   1  106.05   10.44
   0  -7   1  121.80   13.11
   0  -7  -1  135.66   18.45
   0  -7   1   93.44   11.14
   0  -7   1   85.22   13.20
   0  -7  -1  109.90   10.74
   0  -7  -1   94.35   10.98
   0  -7  -2  376.04   32.14
   0  -7  -2  315.15   29.39
   0  -7  -2  390.05   23.81
   0  -7   2  391.50   22.85
   0  -7   2  368.68   27.10
   0  -7   2  423.96   24.94
   0  -7   2  394.02   25.79
   0  -7   2  348.81   29.05
   0  -7  -2  380.71   27.47
   0  -7  -2  424.47   36.27
   0  -7  -2  371.04   21.42
   0  -7  -3   49.04    6.64
   0  -7  -3   41.74   10.83
   0  -7  -3   34.66    8.34
   0  -7  -3   50.84   11.19
   0  -7   3   45.98    7.77
   0  -7   3   43.57    8.66
   0  -7   3   50.46   10.55
   0  -7   3   49.93    7.57
   0  -7  -4  153.89   19.84
   0  -7  -4  128.40   16.57
   0  -7   4  149.23   14.53
   0  -7   4  160.53   16.00
   0  -7   4  137.50   17.06
   0  -7  -4  153.47   16.79
   0  -7  -4  177.06   21.30
   0  -7  -4  168.69   22.23
   0  -7  -4  170.86   20.22
   0  -7  -4  147.08   23.02
   0  -7  -5  720.25   41.03
   0  -7  -5  672.53   46.36
   0  -7  -5  698.45   48.16
   0  -7  -5  603.47   47.39
   0  -7  -5  646.52   53.88
   0  -7   5  709.85   45.88
   0  -7   5  654.06   43.04
   0  -7   5  634.42   33.75
   0  -7   6    7.22    4.69
   0  -7   6   12.68    5.99
   0  -7  -6   12.88    5.88
   0  -7  -6   17.47    8.73
   0  -7  -6    5.77    4.60
   0  -7  -6    9.54    6.13
   0  -7  -7   41.31    9.94
   0  -7  -7   44.29    9.75
   0  -7  -7   32.27   10.32
   0  -7   7   31.91    7.59
   0  -7   7   23.83    7.15
   0  -7   7   45.51    9.65
   0  -7  -8   44.47    9.88
   0  -7  -8   51.00    8.33
   0  -7   8   40.98    8.00
   0  -7   8   45.66    6.46
   0  -7   9  314.20   18.51
   0  -6   0 2805.96  107.51
   0  -6   0 3005.23  111.94
   0  -6   0 2895.10  110.50
   0  -6   0 2917.95  119.28
   0  -6   1  309.84   24.37
   0  -6  -1  333.36   19.20
   0  -6  -1  324.50   19.98
   0  -6  -1  353.82   23.01
   0  -6   1  323.09   19.22
   0  -6   1  285.82   16.12
   0  -6  -1  307.66   24.90
   0  -6   1  359.56   21.16
   0  -6   1  314.56   23.87
   0  -6   1  325.89   21.18
   0  -6   2    5.04    2.39
   0  -6  -2    7.05    3.46
   0  -6   2    4.95    2.67
   0  -6   2    8.73    4.39
   0  -6  -2    3.72    2.35
   0  -6   2    5.82    2.73
   0  -6  -2    4.24    2.90
   0  -6   2    8.24    3.21
   0  -6  -2    5.30    3.89
   0  -6  -2    5.44    2.72
   0  -6  -2    7.17    2.25
   0  -6  -2    3.75    3.97
   0  -6  -3  903.53   45.36
   0  -6   3  984.20   44.83
   0  -6   3  961.91   43.15
   0  -6  -3  972.87   56.38
   0  -6  -3  840.83   51.70
   0  -6   3  953.08   42.56
   0  -6   3  973.32   46.60
   0  -6   3  985.92   45.83
   0  -6   3 1010.74   52.59
   0  -6   3  945.51   49.34
   0  -6  -3  942.40   41.86
   0  -6  -3 1018.75   49.57
   0  -6   3  855.63   47.90
   0  -6  -4  587.65   45.41
   0  -6   4  493.11   33.85
   0  -6   4  525.72   31.17
   0  -6  -4  531.65   37.38
   0  -6  -4  516.89   38.13
   0  -6   4  527.38   28.64
   0  -6  -4  446.43   33.48
   0  -6   4  535.83   29.16
   0  -6  -4  518.94   39.89
   0  -6  -4  539.99   30.29
   0  -6  -4  579.67   34.10
   0  -6   4  515.41   30.29
   0  -6   4  486.06   33.17
   0  -6  -4  454.52   35.49
   0  -6   5  514.39   35.54
   0  -6   5  524.46   31.38
   0  -6   5  476.80   29.03
   0  -6  -5  550.01   33.06
   0  -6  -5  458.06   37.68
   0  -6  -5  460.98   36.99
   0  -6  -5  446.13   33.19
   0  -6  -5  506.15   44.16
   0  -6   5  457.84   28.04
   0  -6  -5  432.85   38.06
   0  -6   5  447.54   32.12
   0  -6   5  511.12   36.06
   0  -6  -6   46.25   11.53
   0  -6   6   44.81   10.00
   0  -6   6   28.34    6.96
   0  -6   6   45.52   10.02
   0  -6   6   37.16    7.11
   0  -6  -6   40.70    7.80
   0  -6  -6   50.06   12.15
   0  -6   6   46.57    7.97
   0  -6  -6   47.39   13.62
   0  -6   7  537.68   36.55
   0  -6  -7  593.08   41.85
   0  -6  -7  560.96   42.26
   0  -6   7  524.49   37.52
   0  -6  -7  547.74   45.82
   0  -6  -8   61.48   12.02
   0  -6  -8   80.02   12.04
   0  -6  -8   96.36   15.28
   0  -6   8   58.33    9.16
   0  -6   8   80.42   12.16
   0  -6   9   57.10    8.69
   0  -5   0    1.12    1.02
   0  -5   0    0.71    1.38
   0  -5   0    0.94    1.82
   0  -5   0    0.21    0.75
   0  -5   0    0.86    1.47
   0  -5   0   -0.39    1.70
   0  -5   1  434.64   22.27
   0  -5   1  433.69   19.54
   0  -5  -1  414.40   23.70
   0  -5  -1  405.23   21.47
   0  -5   1  364.35   18.51
   0  -5   1  409.55   21.05
   0  -5   2  143.53    9.72
   0  -5  -2  202.17   14.16
   0  -5   2  182.01   15.25
   0  -5   2  194.31   14.25
   0  -5   2  181.89   13.10
   0  -5  -2  189.71   12.41
   0  -5   3  264.89   20.25
   0  -5  -3  260.18   22.71
   0  -5   3  226.47   16.39
   0  -5  -3  285.48   19.87
   0  -5   3  239.04   17.41
   0  -5  -3  265.49   17.47
   0  -5  -3  254.12   14.92
   0  -5  -3  284.70   26.10
   0  -5   3  261.03   17.81
   0  -5   3  280.18   18.78
   0  -5   4  232.90   16.80
   0  -5  -4  219.14   22.76
   0  -5  -4  200.56   19.93
   0  -5  -4  236.71   22.28
   0  -5  -4  267.89   19.69
   0  -5   4  225.01   16.24
   0  -5   4  219.82   17.01
   0  -5  -4  250.87   26.29
   0  -5   4  239.70   19.67
   0  -5  -4  200.81   15.45
   0  -5   4  186.73   16.88
   0  -5  -4  188.39   19.14
   0  -5   4  206.50   19.37
   0  -5  -4  209.99   21.62
   0  -5   4  227.59   20.19
   0  -5   5  149.76   16.68
   0  -5  -5  104.26   13.87
   0  -5   5  135.42   12.91
   0  -5  -5  103.03   18.34
   0  -5   5  103.41   12.15
   0  -5  -5  109.52   10.74
   0  -5   5  115.99   14.88
   0  -5   5  130.52   13.08
   0  -5   5  108.08   13.92
   0  -5  -5  113.54   12.78
   0  -5   5  112.21   13.41
   0  -5  -5   99.24   15.61
   0  -5  -5   91.32   15.79
   0  -5  -6 1440.15   77.11
   0  -5  -6 1411.18   66.33
   0  -5  -6 1622.42   66.47
   0  -5   6 1389.29   71.31
   0  -5   6 1319.50   67.21
   0  -5   6 1634.16   73.22
   0  -5   6 1415.58   65.38
   0  -5  -6 1412.39   83.32
   0  -5  -6 1238.63   67.17
   0  -5   6 1406.71   68.46
   0  -5  -6 1394.65   76.87
   0  -5   6 1466.38   64.75
   0  -5  -6 1256.62   63.93
   0  -5   7  162.67   17.90
   0  -5  -7  156.42   14.10
   0  -5  -7  159.22   20.54
   0  -5   7  140.98   15.05
   0  -5  -7  132.40   21.65
   0  -5  -7  134.43   14.66
   0  -5   7  151.68   18.65
   0  -5  -7  147.84   20.59
   0  -5   7  145.10   16.20
   0  -5   7  142.21   16.80
   0  -5  -8  116.84   15.86
   0  -5  -8  112.20   17.05
   0  -5   8  109.18   12.73
   0  -5  -8  101.33   11.48
   0  -5   8  109.83   12.46
   0  -5   8  114.74   15.42
   0  -5  -8  102.01   17.07
   0  -5  -9  211.74   22.15
   0  -5  -9  164.07   18.42
   0  -5  10   26.64    4.25
   0  -5 -10   23.95    5.21
   0  -4   0 3470.47  122.46
   0  -4   0 3259.41  122.68
   0  -4   0 3355.24  123.49
   0  -4   0 3375.70  120.66
   0  -4  -1 1587.65   61.02
   0  -4  -1 1759.41   64.16
   0  -4   1 1668.58   61.80
   0  -4   1 1631.06   59.55
   0  -4   2   96.83    8.26
   0  -4   2   89.93    8.40
   0  -4   2   84.18    8.10
   0  -4  -2   94.39    8.23
   0  -4   2   95.01    9.59
   0  -4   3  451.64   23.39
   0  -4  -3  417.67   22.03
   0  -4  -3  472.75   25.06
   0  -4   3  408.09   22.40
   0  -4   3  434.94   23.23
   0  -4  -3  429.19   18.44
   0  -4   3  419.05   25.23
   0  -4  -3  375.13   22.95
   0  -4   3  440.49   23.08
   0  -4  -3  383.79   21.47
   0  -4   4  874.57   38.98
   0  -4  -4  786.37   36.10
   0  -4   4  808.76   38.54
   0  -4  -4  751.32   46.03
   0  -4  -4  765.02   43.00
   0  -4   4  727.83   38.63
   0  -4  -4  836.52   45.97
   0  -4   4  821.25   42.17
   0  -4   4  812.10   37.98
   0  -4  -4  890.00   40.74
   0  -4   4  802.42   41.77
   0  -4  -4  785.61   49.46
   0  -4   5   71.24   11.11
   0  -4   5   91.73   10.91
   0  -4  -5  112.44   15.71
   0  -4  -5   96.18   13.70
   0  -4  -5  120.69   12.12
   0  -4  -5   89.81   12.41
   0  -4  -5   99.55   16.47
   0  -4  -5  102.53    8.98
   0  -4   5   95.06   10.82
   0  -4   5  109.48   13.56
   0  -4   5  106.63   12.53
   0  -4  -6  710.23   40.97
   0  -4  -6  627.93   46.89
   0  -4  -6  815.79   39.01
   0  -4  -6  673.97   39.97
   0  -4   6  757.78   44.64
   0  -4   6  726.49   39.02
   0  -4  -6  635.42   46.33
   0  -4  -6  696.20   42.38
   0  -4   6  692.85   42.12
   0  -4   6  828.40   44.12
   0  -4   6  744.98   40.27
   0  -4   6  716.84   41.49
   0  -4  -6  639.74   50.44
   0  -4   7   33.94    7.55
   0  -4  -7   27.99    7.16
   0  -4   7   34.15    8.06
   0  -4  -7   31.96    9.24
   0  -4  -7   29.56    9.51
   0  -4  -7   28.09    7.35
   0  -4   7   29.03    7.06
   0  -4  -7   24.70    6.02
   0  -4  -7   26.43    9.07
   0  -4  -7   19.58    8.05
   0  -4   7   29.62    7.17
   0  -4  -8   38.87    9.66
   0  -4   8   32.96    8.01
   0  -4  -8   45.75   11.22
   0  -4   8   39.04    7.13
   0  -4  -8   37.63    7.96
   0  -4   8   28.56    6.72
   0  -4  -9    7.47    2.93
   0  -4  -9   15.12    7.35
   0  -4   9    5.51    3.35
   0  -4   9   12.14    4.78
   0  -4  -9    5.71    4.45
   0  -4 -10  226.32   19.62
   0  -4  10  212.77   15.71
   0  -3   0   -0.16    0.82
   0  -3  -1 2145.39   79.10
   0  -3   1 2177.64   78.13
   0  -3  -2  874.34   36.77
   0  -3  -2  902.94   38.13
   0  -3  -2  936.30   40.22
   0  -3   2  885.91   37.31
   0  -3   2  897.86   37.24
   0  -3   2  927.42   37.46
   0  -3   2  825.03   39.85
   0  -3  -3  226.92   16.47
   0  -3   3  214.29   13.84
   0  -3   3  257.41   14.51
   0  -3  -3  223.99   11.47
   0  -3  -3  216.09   12.89
   0  -3  -3  264.88   15.77
   0  -3   3  200.36   13.43
   0  -3  -3  230.12   13.12
   0  -3   4  167.02   12.64
   0  -3  -4  181.54   13.39
   0  -3   4  130.48   11.31
   0  -3  -4  150.92   14.62
   0  -3  -4  151.10   10.40
   0  -3   4  147.92   11.84
   0  -3   4  154.23   11.47
   0  -3  -4  143.36   12.11
   0  -3  -4  133.18    9.97
   0  -3  -5  849.91   37.78
   0  -3   5  880.06   42.24
   0  -3  -5  942.23   48.79
   0  -3   5  885.11   42.71
   0  -3  -5  996.96   43.33
   0  -3   5  967.21   47.56
   0  -3   5  791.21   40.70
   0  -3  -5  918.24   54.88
   0  -3  -5  860.31   42.20
   0  -3   5  909.82   40.31
   0  -3   5  918.41   43.54
   0  -3  -5  952.84   51.86
   0  -3  -5  812.62   49.58
   0  -3   5  874.45   44.10
   0  -3  -6  732.06   44.57
   0  -3  -6  686.73   42.38
   0  -3   6  715.92   40.46
   0  -3   6  708.77   38.13
   0  -3  -6  724.96   41.19
   0  -3  -6  673.48   36.90
   0  -3  -6  693.57   47.25
   0  -3   6  752.37   39.65
   0  -3   6  610.69   35.98
   0  -3   6  726.18   35.51
   0  -3  -6  677.67   46.60
   0  -3  -6  709.32   49.23
   0  -3  -6  709.49   39.66
   0  -3  -6  680.66   45.56
   0  -3  -6  743.59   36.07
   0  -3  -7  814.59   47.10
   0  -3   7  762.56   39.93
   0  -3  -7  826.72   48.16
   0  -3   7  889.84   45.31
   0  -3  -7  791.74   54.48
   0  -3   7  893.78   49.92
   0  -3  -7  875.50   57.71
   0  -3   7  751.69   42.86
   0  -3   7  818.43   46.50
   0  -3  -7  788.66   44.84
   0  -3   7  869.88   46.16
   0  -3  -7  826.04   55.07
   0  -3  -7  824.76   52.47
   0  -3   8   57.38   11.01
   0  -3  -8   51.18    9.92
   0  -3   8   48.18    8.94
   0  -3  -8   56.79    7.79
   0  -3  -8   77.74   15.17
   0  -3   9  409.42   28.26
   0  -3  -9  494.74   40.30
   0  -3   9  428.87   29.86
   0  -3 -10  162.90   17.42
   0  -3  10  186.98   14.33
   0  -3  10  154.35   13.67
   0  -2   0 1382.78   49.88
   0  -2  -1 7970.92  277.01
   0  -2  -1 8100.36  278.36
   0  -2   1 7923.93  276.23
   0  -2   2 2881.76  101.22
   0  -2  -2 2750.72   99.96
   0  -2   2 2754.52  103.02
   0  -2  -2 2816.10  103.47
   0  -2  -3 2914.21  110.31
   0  -2  -3 2915.77  109.00
   0  -2   3 2924.69  108.00
   0  -2  -3 3097.68  113.31
   0  -2  -3 3051.55  106.82
   0  -2  -3 2941.18  106.38
   0  -2   3 2968.28  108.72
   0  -2  -4  186.07   11.33
   0  -2   4  209.48   14.10
   0  -2  -4  201.24   16.24
   0  -2   4  220.67   14.15
   0  -2  -4  219.68   15.48
   0  -2  -4  223.41   14.24
   0  -2   4  190.98   12.41
   0  -2   4  206.47   13.95
   0  -2   5  143.12   12.41
   0  -2   5  133.81   11.32
   0  -2  -5  124.90   11.20
   0  -2  -5  139.76   15.82
   0  -2  -5  155.17   16.69
   0  -2  -5  117.21   12.41
   0  -2  -5  132.79   11.14
   0  -2  -5  129.08    8.89
   0  -2   5  107.97    9.18
   0  -2  -6  860.63   53.48
   0  -2  -6  859.02   42.50
   0  -2  -6  948.99   41.85
   0  -2  -6  915.32   52.64
   0  -2   6  956.39   43.75
   0  -2  -6  998.12   52.09
   0  -2   6  881.73   44.33
   0  -2  -6  799.59   52.38
   0  -2  -6  886.05   55.36
   0  -2  -6  900.94   47.07
   0  -2  -6  879.35   48.10
   0  -2   6  937.71   50.41
   0  -2  -7  404.81   35.81
   0  -2   7  417.45   28.03
   0  -2  -7  433.33   36.34
   0  -2  -7  406.20   33.73
   0  -2  -7  391.26   28.81
   0  -2   7  452.47   31.70
   0  -2   7  408.44   26.36
   0  -2  -7  407.53   32.47
   0  -2  -7  480.08   32.83
   0  -2  -8  223.44   18.64
   0  -2   8  212.88   19.55
   0  -2   8  246.85   21.85
   0  -2   8  264.92   23.82
   0  -2  -8  233.71   22.96
   0  -2  -8  251.79   27.59
   0  -2   9  252.27   21.39
   0  -2  -9  271.39   22.84
   0  -2   9  251.92   21.51
   0  -2  -9  218.67   16.47
   0  -2  -9  245.52   27.52
   0  -2   9  230.93   20.18
   0  -2  10   67.34    8.51
   0  -2  10   73.38    9.25
   0  -2 -10   82.71   13.06
   0  -2 -10   49.87    8.07
   0  -1   0    0.60    0.47
   0  -1  -1  124.82    7.23
   0  -1   1  128.13    6.69
   0  -1   2 1630.24   59.76
   0  -1  -2 1597.99   57.03
   0  -1  -2 1537.25   57.23
   0  -1  -3   69.07    5.00
   0  -1   3   82.93    7.44
   0  -1   4  330.11   18.47
   0  -1   4  335.14   18.18
   0  -1   4  314.19   17.83
   0  -1  -4  326.13   17.26
   0  -1  -4  274.67   14.23
   0  -1  -4  328.54   19.57
   0  -1   5 1715.07   64.91
   0  -1   5 1264.30   57.41
   0  -1  -5 1498.26   64.43
   0  -1  -5 1818.07   70.00
   0  -1  -5 1550.20   65.36
   0  -1  -5 1641.63   61.50
   0  -1   5 1497.61   62.81
   0  -1   5 1700.76   69.47
   0  -1   5 1692.36   63.36
   0  -1  -5 1338.56   55.40
   0  -1   6 1093.47   50.49
   0  -1  -6 1113.04   58.80
   0  -1  -6 1093.88   47.56
   0  -1   6 1020.32   49.37
   0  -1  -6 1034.35   54.79
   0  -1  -6  979.58   58.25
   0  -1  -6 1063.18   54.86
   0  -1   6 1087.04   52.61
   0  -1  -6 1207.45   59.06
   0  -1  -6 1028.69   59.28
   0  -1   6 1008.82   50.26
   0  -1   6 1087.64   52.35
   0  -1  -6 1095.27   53.69
   0  -1   6 1187.59   57.52
   0  -1  -7  513.90   35.75
   0  -1  -7  525.51   34.40
   0  -1   7  531.11   31.65
   0  -1  -7  453.40   34.10
   0  -1   7  490.43   30.26
   0  -1   7  552.92   37.02
   0  -1  -7  499.72   27.24
   0  -1  -7  484.79   38.76
   0  -1   7  537.87   33.29
   0  -1   7  486.84   32.39
   0  -1  -8   90.38   13.48
   0  -1   8   63.30   11.15
   0  -1   8   72.21   10.85
   0  -1  -8   88.13   13.96
   0  -1  -8  115.46   19.87
   0  -1  -8   73.90   10.83
   0  -1   8   82.03   11.96
   0  -1   8   99.02   11.59
   0  -1  -8   80.74   15.40
   0  -1   9  229.79   19.50
   0  -1  -9  254.41   27.64
   0  -1  -9  186.73   16.40
   0  -1   9  213.30   19.00
   0  -1 -10  109.47   14.67
   0  -1  10  113.86   11.22
   0  -1  10  128.07   13.16
   0  -1  10  107.06   10.43
   0   0   1  609.10   22.09
   0   0  -1  518.59   24.94
   0   0  -2  607.34   30.12
   0   0   2  620.43   23.88
   0   0  -3 1544.53   62.14
   0   0   3 1521.46   61.54
   0   0   3 1757.69   61.93
   0   0  -3 1542.67   71.19
   0   0   4   25.16    4.20
   0   0  -4   11.99    5.67
   0   0  -4    9.72    3.09
   0   0  -4    9.44    2.94
   0   0   4   11.30    3.08
   0   0   4   17.86    3.92
   0   0   4   10.94    3.20
   0   0   4   10.73    4.25
   0   0   5  703.01   33.40
   0   0  -5  624.53   25.93
   0   0  -5  731.59   36.76
   0   0  -5  718.31   35.98
   0   0  -5  582.05   25.62
   0   0  -5  640.00   33.41
   0   0  -5  684.16   30.15
   0   0   5  755.66   34.77
   0   0   5  727.54   38.55
   0   0   5  734.98   33.72
   0   0   6  295.46   21.58
   0   0   6  302.69   24.57
   0   0  -6  303.00   23.31
   0   0  -6  297.68   25.50
   0   0   6  236.31   16.67
   0   0   6  258.34   17.93
   0   0   6  281.99   20.80
   0   0  -6  256.35   19.83
   0   0   6  292.77   26.35
   0   0  -6  237.76   15.74
   0   0   6  292.14   20.06
   0   0   6  276.57   19.98
   0   0  -6  256.52   21.44
   0   0  -7  391.56   33.73
   0   0   7  439.60   29.35
   0   0  -7  362.16   27.17
   0   0   7  367.18   26.17
   0   0   7  471.74   33.12
   0   0  -7  448.18   31.37
   0   0   7  405.66   27.00
   0   0   7  382.83   28.11
   0   0  -8   93.68   17.69
   0   0   8   89.36   12.22
   0   0  -8  103.79   13.20
   0   0  -8   99.83   11.86
   0   0   8   93.87   12.74
   0   0   8   91.71   12.56
   0   0   8   81.07   11.69
   0   0  -8  106.56   14.20
   0   0   8  108.14   14.68
   0   0   9   11.48    3.63
   0   0   9   16.36    4.71
   0   0   9   12.76    4.68
   0   0  -9    7.39    3.73
   0   0  -9    7.25    6.79
   0   0   9    5.19    3.61
   0   0  10   94.26    9.66
   0   0 -10   99.05    9.37
   0   0  10   92.01   11.49
   0   0 -10   78.45    8.99
   0   0 -11   49.59    5.59
   0   0  11   74.05    8.17
   0   1   0    1.06    0.60
   0   1   0    1.30    0.47
   0   1   1   84.05    4.72
   0   1  -1   89.54    4.59
   0   1   2 1168.93   48.99
   0   1  -2 1304.38   46.41
   0   1  -2 1258.19   47.63
   0   1   2 1352.30   48.39
   0   1  -3  104.49   13.37
   0   1   3   88.73    8.22
   0   1   3   86.26    7.22
   0   1  -3   87.02    5.56
   0   1   4  332.45   18.13
   0   1  -4  285.07   16.94
   0   1  -4  310.94   19.26
   0   1   4  249.20   16.13
   0   1  -4  288.75   13.35
   0   1   4  276.52   20.20
   0   1  -4  314.69   27.56
   0   1  -4  292.92   19.42
   0   1  -4  221.71   20.47
   0   1  -5 1758.77   66.10
   0   1  -5 1443.61   56.69
   0   1   5 1602.11   62.64
   0   1   5 1559.39   65.61
   0   1   5 1652.39   72.07
   0   1  -5 1528.42   84.48
   0   1   5 1624.70   64.12
   0   1   6 1043.39   49.53
   0   1  -6 1177.42   57.83
   0   1  -6 1127.99   54.28
   0   1  -6 1153.54   74.05
   0   1   6  998.02   51.37
   0   1   6 1065.81   53.07
   0   1   6 1073.58   57.35
   0   1  -6 1077.67   51.41
   0   1   6 1098.78   49.74
   0   1   6 1179.56   62.26
   0   1   6 1084.81   52.27
   0   1   7  498.67   32.01
   0   1   7  486.56   29.21
   0   1  -7  486.06   32.61
   0   1  -7  548.16   41.89
   0   1   7  477.27   34.98
   0   1  -7  490.28   35.27
   0   1  -7  446.18   31.13
   0   1   7  389.28   25.90
   0   1   7  560.16   40.87
   0   1   8   61.37    9.80
   0   1  -8   50.14    9.49
   0   1  -8   82.06   15.86
   0   1   8   60.31   11.33
   0   1  -8   72.68   11.09
   0   1  -8   61.26    9.80
   0   1  -8   61.56   11.80
   0   1   8   66.23    9.74
   0   1   9  193.16   16.66
   0   1   9  181.96   15.22
   0   1  -9  205.18   18.25
   0   1  10  110.63   12.43
   0   1  10  129.99   10.45
   0   1  10  109.61    9.78
   0   2   0 1697.11   57.58
   0   2   0 1512.92   57.81
   0   2   1 7226.44  268.72
   0   2  -1 7659.19  268.26
   0   2  -2 2699.20   94.80
   0   2  -2 2683.10   94.96
   0   2   2 2570.93   97.41
   0   2   3 2616.15  101.06
   0   2  -3 2668.57   97.43
   0   2   3 2759.22  101.16
   0   2  -3 2856.24  103.19
   0   2   3 2897.98  101.62
   0   2  -3 2544.32  102.74
   0   2   4  285.22   18.40
   0   2  -4  284.38   20.09
   0   2  -4  295.29   14.54
   0   2  -4  259.87   22.49
   0   2  -4  292.93   17.13
   0   2  -4  329.63   29.87
   0   2   4  370.27   19.91
   0   2   4  322.32   18.68
   0   2   5  111.39   11.41
   0   2   5   98.36   12.84
   0   2   5   92.32    8.57
   0   2   5  114.20   10.56
   0   2   5  106.61   10.70
   0   2   5  106.14   13.92
   0   2  -5   87.49    9.36
   0   2  -5   88.31   14.00
   0   2  -5  122.31   20.07
   0   2   6  842.34   40.96
   0   2  -6  818.90   44.47
   0   2  -6  821.44   62.95
   0   2   6  831.35   48.28
   0   2   6  797.29   40.80
   0   2   6  835.74   44.48
   0   2  -6  778.06   46.00
   0   2  -6  782.30   40.16
   0   2   6  960.14   53.79
   0   2  -6  823.02   43.38
   0   2   7  544.88   41.62
   0   2  -7  527.93   34.51
   0   2   7  463.31   29.75
   0   2   7  523.88   31.21
   0   2  -7  601.45   39.02
   0   2  -7  556.88   34.76
   0   2  -7  490.09   32.17
   0   2   7  515.00   33.27
   0   2   7  509.29   31.04
   0   2   7  571.38   38.56
   0   2   8  216.22   18.76
   0   2   8  245.48   20.58
   0   2  -8  222.38   17.15
   0   2   8  246.65   22.77
   0   2  -8  255.84   22.10
   0   2  -8  236.81   21.71
   0   2   8  283.18   28.87
   0   2   9  235.86   20.70
   0   2   9  224.02   18.10
   0   2  -9  271.47   21.21
   0   2   9  186.96   16.04
   0   2   9  235.02   17.46
   0   2  10   59.85    7.31
   0   2 -10   53.72    8.14
   0   2  10   51.93    7.89
   0   2 -10   52.17    7.88
   0   3   0    0.50    1.21
   0   3   0    0.15    0.80
   0   3   1 2008.80   77.34
   0   3  -1 2109.51   76.44
   0   3   2 1029.61   43.94
   0   3   2 1129.48   43.68
   0   3  -2 1081.20   43.95
   0   3  -2 1103.27   40.29
   0   3   2 1108.26   43.64
   0   3  -3  200.32   16.80
   0   3   3  204.43   13.17
   0   3  -3  194.63   14.12
   0   3   3  159.88   11.86
   0   3  -3  177.80   10.54
   0   3  -3  170.24   13.72
   0   3   4  168.04   13.67
   0   3  -4  173.01   14.99
   0   3   4  170.43   12.93
   0   3   5  847.64   42.87
   0   3  -5  777.45   42.28
   0   3   5  835.81   39.54
   0   3  -5  712.89   49.12
   0   3  -5  827.75   44.24
   0   3  -5  845.19   61.58
   0   3   5  970.72   51.58
   0   3   5  840.38   39.28
   0   3  -5  809.59   37.96
   0   3   5  822.02   38.20
   0   3   5  869.67   41.84
   0   3  -5  780.02   43.90
   0   3   6  830.10   49.76
   0   3   6  681.82   36.52
   0   3   6  722.63   38.51
   0   3  -6  675.86   58.42
   0   3   6  648.03   43.08
   0   3  -6  659.97   34.51
   0   3  -6  700.65   36.80
   0   3   6  692.22   36.15
   0   3   6  635.57   38.89
   0   3   6  690.02   35.10
   0   3  -7  900.79   72.04
   0   3   7  805.28   46.06
   0   3   7  853.90   44.38
   0   3  -7  870.43   41.02
   0   3   7  949.43   57.79
   0   3  -7  954.81   50.00
   0   3   7  904.33   44.19
   0   3   8   43.41    8.03
   0   3  -8   40.40    7.12
   0   3   8   42.80    7.98
   0   3   8   51.75   11.76
   0   3   8   54.37    9.89
   0   3   8   43.49    7.59
   0   3  -8   39.33    8.40
   0   3   9  404.17   24.69
   0   3   9  385.79   23.48
   0   3  -9  466.08   29.45
   0   3   9  386.87   27.29
   0   3 -10  137.88   11.99
   0   3  10  149.59   11.20
   0   4   0 3084.17  115.98
   0   4   0 2781.14  113.85
   0   4   0 3262.69  116.05
   0   4   0 3416.80  115.32
   0   4   0 3041.26  111.37
   0   4   1 1779.31   66.37
   0   4  -1 1622.60   66.65
   0   4   1 1657.16   61.16
   0   4   1 1797.48   66.66
   0   4  -1 1795.99   64.89
   0   4  -2   97.19    8.91
   0   4  -2   82.30    8.53
   0   4   2   87.73    7.88
   0   4   2   87.08    8.54
   0   4   2   92.22    9.07
   0   4   2   98.08    8.92
   0   4  -2   76.28    9.03
   0   4  -3  298.56   16.03
   0   4   3  376.65   21.44
   0   4  -3  377.25   21.90
   0   4  -3  371.63   25.88
   0   4  -3  346.20   21.28
   0   4  -3  344.42   22.15
   0   4   3  373.67   20.84
   0   4   3  326.25   21.96
   0   4   3  352.49   21.58
   0   4   3  352.58   20.51
   0   4   4  911.28   39.93
   0   4  -4  738.29   39.58
   0   4   4  771.46   41.54
   0   4  -4  881.32   42.40
   0   4   4  800.64   36.00
   0   4   4  858.23   37.85
   0   4  -4  836.26   41.75
   0   4  -4  682.65   40.81
   0   4  -4  764.39   46.65
   0   4   4  749.50   43.66
   0   4   4  745.07   37.49
   0   4   4  770.58   37.57
   0   4  -5   63.14   10.29
   0   4   5   74.11    8.28
   0   4   5   70.91    8.78
   0   4  -5   66.94   10.22
   0   4   5   83.22    9.52
   0   4   5   70.16   10.04
   0   4  -5   70.45   10.76
   0   4   5   76.99   10.64
   0   4  -5   83.86   18.71
   0   4   5   77.93    9.39
   0   4  -6  773.25   44.10
   0   4   6  719.74   41.65
   0   4   6  836.17   52.10
   0   4   6  627.05   43.77
   0   4  -6  733.01   39.98
   0   4   6  696.10   36.19
   0   4  -6  760.96   43.87
   0   4   6  780.00   39.57
   0   4  -6  714.00   37.92
   0   4  -6  712.33   63.28
   0   4   6  750.42   39.15
   0   4   7   25.49    6.18
   0   4   7   15.29    5.53
   0   4  -7   10.28    5.37
   0   4  -7   15.02    4.41
   0   4   7   19.51    5.67
   0   4   7   40.75   10.74
   0   4  -7   15.63    4.79
   0   4   7   24.62    5.61
   0   4  -7   22.76   11.08
   0   4   8   25.27    6.05
   0   4   8   21.23    5.87
   0   4   8   28.75    6.79
   0   4   8   21.47    5.40
   0   4   8   22.46    8.38
   0   4  -8   27.41    6.12
   0   4   9   10.42    3.33
   0   4  -9   12.03    4.32
   0   4   9   12.98    3.78
   0   4   9    9.49    4.94
   0   4  10  242.29   14.61
   0   4 -10  201.71   13.46
   0   5   0    0.48    1.86
   0   5   0    1.14    1.95
   0   5   0   -0.99    1.70
   0   5   1  450.93   22.42
   0   5   1  469.76   21.84
   0   5   1  514.10   27.78
   0   5  -1  461.38   27.64
   0   5   1  485.06   27.20
   0   5   1  563.68   26.87
   0   5  -1  491.82   26.08
   0   5  -1  509.80   30.31
   0   5   1  475.12   26.79
   0   5   2  130.00    8.44
   0   5   2  163.54   13.44
   0   5   2  126.76   12.53
   0   5  -2  129.97    8.03
   0   5  -2  121.99   11.58
   0   5  -2  140.50   11.47
   0   5   2  154.69   11.12
   0   5   2  170.46   12.25
   0   5  -2  147.27   12.70
   0   5   2  141.14   13.33
   0   5  -3  299.77   20.56
   0   5  -3  267.00   20.62
   0   5  -3  323.51   25.20
   0   5   3  303.28   20.98
   0   5   3  336.47   20.96
   0   5   3  252.73   20.48
   0   5   3  313.76   23.72
   0   5   3  276.41   19.29
   0   5   3  268.53   18.24
   0   5  -3  283.00   19.74
   0   5  -3  288.26   19.77
   0   5  -4  185.24   21.14
   0   5  -4  189.08   17.20
   0   5   4  216.24   16.66
   0   5   4  196.40   16.09
   0   5  -4  191.55   18.60
   0   5  -4  220.99   18.73
   0   5   4  194.21   15.91
   0   5   4  184.82   17.89
   0   5  -4  187.21   16.26
   0   5  -4  218.43   18.42
   0   5   4  226.13   18.03
   0   5   4  210.73   20.85
   0   5  -5  119.77   18.83
   0   5  -5  147.56   16.24
   0   5  -5  148.63   14.57
   0   5   5  136.67   13.38
   0   5  -5  134.57   15.39
   0   5   5  141.92   13.53
   0   5   5  128.69   13.96
   0   5   5  134.13   15.13
   0   5   5  149.76   14.28
   0   5  -5  123.06   13.28
   0   5  -5  136.26   14.52
   0   5   5  146.12   13.29
   0   5   6 1533.00   78.39
   0   5  -6 1322.70   64.02
   0   5   6 1383.84   65.66
   0   5  -6 1433.58   95.91
   0   5  -6 1455.78   63.52
   0   5  -6 1370.58   64.94
   0   5  -6 1481.05   69.52
   0   5   6 1338.56   61.60
   0   5   6 1360.30   62.55
   0   5  -6 1430.30   68.12
   0   5   7  159.70   21.35
   0   5  -7  175.30   18.92
   0   5  -7  131.91   26.06
   0   5   7  162.59   16.55
   0   5  -7  154.18   14.76
   0   5  -7  168.46   18.84
   0   5   7  145.23   17.32
   0   5  -7  139.77   15.95
   0   5   7  153.10   15.17
   0   5  -7  167.08   16.56
   0   5   7  175.68   14.44
   0   5  -8   93.73   11.86
   0   5   8  102.49   11.59
   0   5  -8   91.64    9.36
   0   5   8   97.36   11.25
   0   5   8   91.27    9.62
   0   5  -8   95.22   11.16
   0   5   8  104.85   16.40
   0   5   9  132.96   15.38
   0   5  -9  137.74   12.07
   0   5  10   23.05    3.33
   0   6   0 2816.97  111.76
   0   6   0 2941.26  118.06
   0   6   0 3126.94  116.98
   0   6   0 2858.79  114.39
   0   6   1  352.98   23.11
   0   6  -1  357.67   22.45
   0   6  -1  394.53   22.53
   0   6  -1  338.18   22.54
   0   6   1  343.44   21.71
   0   6  -1  371.51   25.46
   0   6  -1  338.55   27.09
   0   6  -1  357.18   22.20
   0   6  -2    7.25    2.72
   0   6  -2    4.48    2.76
   0   6  -2    4.63    3.80
   0   6  -2    5.67    3.17
   0   6   2    3.78    3.11
   0   6  -2    8.59    3.54
   0   6   2    6.72    2.82
   0   6   2    3.72    2.73
   0   6  -2    8.47    3.51
   0   6   2    7.31    3.95
   0   6   2    4.04    2.81
   0   6   2    9.49    3.91
   0   6  -3  971.69   54.33
   0   6  -3 1027.43   47.96
   0   6   3  959.76   47.33
   0   6   3  885.25   47.75
   0   6   3  942.70   52.46
   0   6  -3  900.48   47.90
   0   6  -3  857.73   45.78
   0   6  -3  850.28   44.64
   0   6   3  925.20   44.58
   0   6  -3  943.52   46.14
   0   6   3  987.82   48.04
   0   6   3  927.56   48.74
   0   6   3  961.92   43.54
   0   6  -3  913.66   45.03
   0   6   3  882.01   43.84
   0   6  -4  441.00   36.89
   0   6  -4  446.70   32.95
   0   6  -4  537.73   33.03
   0   6   4  520.70   30.45
   0   6   4  469.52   32.49
   0   6   4  541.63   37.82
   0   6  -4  502.47   49.16
   0   6  -4  476.14   30.70
   0   6  -4  489.99   30.49
   0   6   4  511.61   31.06
   0   6   4  459.76   29.75
   0   6  -4  454.73   30.39
   0   6   4  531.79   33.05
   0   6   5  454.51   31.20
   0   6   5  449.31   28.19
   0   6  -5  470.61   50.38
   0   6   5  408.70   27.52
   0   6   5  422.22   29.84
   0   6  -5  467.86   32.52
   0   6   5  455.13   28.87
   0   6  -5  374.78   36.36
   0   6   5  461.91   27.86
   0   6   5  414.32   34.51
   0   6  -5  434.80   29.05
   0   6  -6   26.86    7.81
   0   6  -6   29.02    6.83
   0   6   6   34.44    5.38
   0   6   6   19.37    5.17
   0   6   6   23.47    6.47
   0   6  -6   19.71    5.99
   0   6   6   28.31    9.70
   0   6   6   34.59    7.12
   0   6   7  601.51   43.12
   0   6  -7  570.41   33.29
   0   6   7  553.76   28.70
   0   6   7  559.26   33.03
   0   6  -7  599.40   35.65
   0   6   7  615.41   34.81
   0   6  -7  616.91   33.94
   0   6   8   49.15   10.11
   0   6  -8   40.20    5.94
   0   6  -8   27.98    5.83
   0   6   8   50.96    6.91
   0   6  -9   56.68    7.39
   0   6   9   58.73    8.98
   0   7   0    0.80    1.79
   0   7   0    0.66    1.20
   0   7   0    3.78    2.00
   0   7   0   -1.28    2.88
   0   7   0    1.31    1.20
   0   7   0    0.71    1.60
   0   7   0    0.90    2.33
   0   7   1   84.63    9.79
   0   7  -1   63.32    8.94
   0   7   1   69.92   10.68
   0   7  -1   68.05   12.04
   0   7  -1   60.85    9.03
   0   7  -1   83.84   10.20
   0   7  -1   82.40    9.92
   0   7  -1   71.79   10.04
   0   7  -1   62.85    9.68
   0   7   1   73.93    9.12
   0   7   1   64.42    9.20
   0   7   2  337.00   25.89
   0   7   2  347.47   27.32
   0   7  -2  355.65   25.27
   0   7  -2  332.79   24.35
   0   7   2  339.30   23.73
   0   7  -2  340.27   24.06
   0   7  -2  372.11   24.01
   0   7  -2  397.39   30.48
   0   7   2  356.07   23.82
   0   7  -2  374.36   24.67
   0   7  -2  327.22   24.33
   0   7   2  376.20   25.42
   0   7  -2  345.56   24.99
   0   7  -3   31.54    7.00
   0   7  -3   21.06    7.67
   0   7  -3   25.77    6.37
   0   7   3   22.16    7.53
   0   7   3   27.34    7.09
   0   7  -3   18.82    6.03
   0   7   3   18.14    5.04
   0   7   3   22.89    6.48
   0   7   3   29.64    5.85
   0   7  -3   21.88    5.43
   0   7  -3   28.63    6.55
   0   7  -3   22.89    6.37
   0   7   4  125.81   17.78
   0   7  -4  136.21   15.42
   0   7  -4  127.48   19.16
   0   7  -4  144.62   26.54
   0   7   4  129.77   15.35
   0   7   4  127.22   15.99
   0   7   4  128.73   14.10
   0   7  -4  101.71   12.35
   0   7   4  131.59   12.99
   0   7  -4  134.63   13.14
   0   7  -5  715.95   40.15
   0   7  -5  648.49   33.70
   0   7   5  684.95   38.65
   0   7  -5  616.72   48.07
   0   7   5  646.20   40.07
   0   7  -5  584.85   59.00
   0   7   5  690.88   36.58
   0   7  -6   33.31    7.14
   0   7   6   31.58    6.99
   0   7   6   23.98    5.82
   0   7   6   30.53    7.01
   0   7  -6   31.90    7.34
   0   7   6   31.20    9.43
   0   7  -7   28.76    5.97
   0   7   7   28.19    5.81
   0   7  -7   37.41    7.08
   0   7  -7   38.93    7.56
   0   7   7   30.65    6.12
   0   7   7   47.94   10.37
   0   7   8   40.60    8.29
   0   7  -8   42.26    6.84
   0   7  -8   57.82    7.27
   0   7  -9  280.14   14.88
   0   8   0   84.03   11.65
   0   8   0   69.36   10.42
   0   8   0   90.78   11.82
   0   8   0   80.39   14.97
   0   8  -1  647.42   37.35
   0   8   1  579.58   37.48
   0   8   1  604.84   46.69
   0   8  -1  605.50   36.83
   0   8   1  640.49   37.28
   0   8  -1  700.34   42.55
   0   8   1  647.77   35.95
   0   8  -1  662.92   38.64
   0   8   1  656.92   36.11
   0   8  -1  629.96   38.28
   0   8  -2  304.29   23.79
   0   8   2  326.93   23.85
   0   8  -2  366.51   24.78
   0   8   2  329.25   25.39
   0   8  -2  318.40   25.12
   0   8  -2  345.45   24.71
   0   8  -2  352.98   29.87
   0   8  -2  346.78   25.75
   0   8   2  309.60   25.69
   0   8   2  356.68   25.23
   0   8  -2  307.61   24.54
   0   8  -3  147.32   14.94
   0   8   3  127.52   18.18
   0   8  -3  185.68   28.06
   0   8  -3  144.28   16.15
   0   8  -3  137.81   14.77
   0   8  -3  148.60   20.28
   0   8   3  144.02   12.92
   0   8   3  148.86   16.63
   0   8  -3  155.19   15.67
   0   8  -3  141.43   15.93
   0   8   4  846.79   52.58
   0   8  -4  823.79   44.17
   0   8   4  803.27   43.40
   0   8   4  793.04   39.67
   0   8  -4  746.17   40.26
   0   8  -4  754.14   44.89
   0   8  -4  716.20   51.55
   0   8  -4  957.54   70.31
   0   8  -4  809.48   45.13
   0   8   5   35.86    7.70
   0   8   5   43.28    8.25
   0   8  -5   37.62    5.83
   0   8  -5   35.33    7.88
   0   8  -5   30.16    7.03
   0   8   5   30.98    6.15
   0   8  -5   30.41    9.32
   0   8   6  106.04   10.66
   0   8  -6   94.80   11.79
   0   8   6   95.50   14.90
   0   8  -6   94.36   11.70
   0   8   6   87.27   10.66
   0   8   6   83.95   10.80
   0   8  -7  154.07   13.83
   0   8  -7  154.10   13.51
   0   8  -7  139.66   12.50
   0   8   7  167.45   17.37
   0   8  -8   35.38    4.62
   0   8  -8   29.16    4.50
   0   8   8   36.02    6.18
   0   9   0   -0.67    1.73
   0   9   0    3.06    2.81
   0   9   0    0.87    2.26
   0   9   0    3.27    2.80
   0   9   1   80.41   10.49
   0   9   1   55.21    9.58
   0   9  -1   71.01   10.87
   0   9   1   66.24   10.65
   0   9  -1   73.73   11.23
   0   9  -1   53.34    7.76
   0   9  -1   69.26   10.82
   0   9   1   67.40   14.82
   0   9  -2  349.61   26.43
   0   9   2  355.80   25.21
   0   9  -2  319.34   27.98
   0   9  -2  335.50   25.32
   0   9   2  361.15   26.74
   0   9   2  325.16   33.81
   0   9  -2  373.07   27.31
   0   9  -3  356.42   24.94
   0   9   3  387.92   26.61
   0   9  -3  368.26   27.01
   0   9  -3  306.56   28.97
   0   9   3  374.14   36.08
   0   9  -3  348.60   24.10
   0   9  -3  377.99   27.69
   0   9   4   96.89   17.76
   0   9  -4  126.95   17.24
   0   9  -4  107.73   13.81
   0   9   4  108.59   10.20
   0   9  -4  124.50   12.93
   0   9  -4  111.42   11.76
   0   9  -4  121.83   14.50
   0   9   4  126.50   17.29
   0   9  -5   96.39   10.89
   0   9   5   93.93   10.98
   0   9   5   95.72   16.67
   0   9   5   90.13   10.97
   0   9  -5  121.63   13.36
   0   9   5   94.04    9.01
   0   9  -6   94.45    9.75
   0   9   6  111.81   16.00
   0   9   6  117.81   14.61
   0   9   6  103.52   10.52
   0   9  -6  107.22   11.22
   0   9  -7   86.82    8.52
   0   9   7   88.40   10.25
   0   9  -7   86.58    7.67
   0  10   0   94.37   10.46
   0  10   0  117.54   16.30
   0  10   0  110.29   13.15
   0  10   1   69.54    9.32
   0  10   1   60.11   12.12
   0  10  -1   67.66   10.05
   0  10  -1   81.89   10.97
   0  10  -2  172.28   16.62
   0  10   2  164.45   21.46
   0  10  -2  163.45   15.70
   0  10   2  201.22   16.53
   0  10   3  249.35   18.88
   0  10   3  241.47   26.29
   0  10  -3  232.20   18.02
   0  10  -3  257.29   20.37
   0  10  -3  271.43   20.86
   0  10   4  222.34   17.10
   0  10  -4  211.03   17.49
   0  10   4  238.91   17.38
   0  10  -4  230.22   18.26
   0  10   4  209.81   23.39
   0  10  -5   -0.53    1.68
   0  10   5   -0.47    2.01
   0  10  -5   -0.54    1.57
   0  10   5    0.82    2.99
   0  10   6   16.34    4.45
   0  10  -6   10.56    2.84
   0  11   0    3.45    2.74
   0  11   1  231.44   15.32
   0  11   1  287.87   22.91
   0  11  -1  282.67   22.28
   0  11  -1  268.94   17.86
   0  11   2   14.11    3.50
   0  11  -2   27.91    6.42
   0  11   3  243.70   15.44
   0  11  -3  225.38   15.99
   0  11   3  234.73   15.09
   0  11   4   14.90    3.21
   0  11  -4   14.15    3.46
   0  12   0   96.47    9.21
   0  12   1  112.73    9.90
   0  12  -1  105.51    9.52
  -1 -12   1  233.81   15.86
   1 -12   1    2.76    1.36
  -1 -12  -1    1.41    1.36
  -1 -11   4   27.62    5.53
   1 -11  -4   23.34    4.80
  -1 -11   4   21.95    4.31
  -1 -11   4   30.00    5.86
   1 -11  -4   24.17    5.20
   1 -11  -3  410.15   27.24
  -1 -11   3  483.13   30.20
   1 -11  -3  399.56   24.17
  -1 -11   3  540.63   30.85
  -1 -11   3  568.86   30.61
  -1 -11   2  190.69   17.76
  -1 -11   2  152.53   15.29
  -1 -11   2  158.90   16.34
   1 -11  -2  143.97   14.60
   1 -11  -1   62.15   10.46
   1 -11  -1   44.45    8.43
   1 -11  -1   57.18    9.84
  -1 -11   1   73.67   11.15
   1 -11   0    4.13    3.54
  -1 -11   0    2.69    2.85
  -1 -11   0    0.86    2.74
   1 -11   0    0.76    0.98
  -1 -11  -1  168.76   18.06
  -1 -11  -1  134.56   16.28
  -1 -11  -1  126.85   13.90
   1 -11   1  134.15   17.06
   1 -11   1  139.76   15.78
   1 -11   2   45.59    8.33
   1 -11   2   53.77   10.93
  -1 -11  -2   58.20   10.48
  -1 -11  -2   44.53    9.08
  -1 -11  -3  103.51   13.70
   1 -11   3  103.80   11.29
   1 -11   3   99.42   13.50
  -1 -11  -4   98.66   10.02
   1 -11   4  112.45   12.54
  -1 -10   5   36.54    6.82
   1 -10  -5   33.90    8.60
  -1 -10   5   40.99    7.71
  -1 -10   4  274.46   23.36
   1 -10  -4  255.63   26.18
   1 -10  -4  255.24   20.82
  -1 -10   3  236.06   22.47
   1 -10  -3  195.65   21.64
   1 -10  -3  207.07   24.34
   1 -10  -3  206.22   20.81
   1 -10  -2   37.64    9.73
  -1 -10   2   36.61    9.29
   1 -10  -2   46.52   11.40
   1 -10  -2   41.56   10.00
  -1 -10   2   46.10   10.60
   1 -10  -2   42.94   10.45
   1 -10  -1  450.37   37.78
   1 -10  -1  414.48   34.14
  -1 -10   1  510.08   37.31
   1 -10  -1  492.62   37.43
  -1 -10   1  480.34   35.56
   1 -10  -1  467.70   36.06
  -1 -10   0   58.80   11.61
   1 -10   0   51.99   11.34
   1 -10   0   47.14   12.60
  -1 -10   0   47.23   11.35
  -1 -10   0   63.99   13.10
  -1 -10   0   52.15    8.68
  -1 -10  -1   68.65   12.76
   1 -10   1   80.03   13.75
   1 -10   1   79.40   16.03
  -1 -10  -1   87.37   14.97
  -1 -10  -1   90.26   15.57
  -1 -10  -1   77.93    9.86
   1 -10   1   80.40   12.73
   1 -10   2  486.29   35.98
  -1 -10  -2  480.28   33.95
   1 -10   2  535.47   43.37
  -1 -10  -2  476.95   39.42
  -1 -10  -2  513.78   33.79
  -1 -10  -2  537.85   39.72
   1 -10   2  483.22   32.29
   1 -10   3  209.28   25.05
  -1 -10  -3  190.63   21.61
   1 -10   3  199.43   20.07
  -1 -10  -3  174.37   18.11
   1 -10   4   66.32   10.15
  -1 -10  -4   89.59   14.78
   1 -10   4   68.14    8.46
  -1 -10  -4   62.42    9.86
  -1 -10  -5   62.50    8.68
   1 -10   5   53.47    6.72
   1 -10   5   62.75   10.64
  -1 -10  -5   51.13    8.15
  -1 -10  -5   61.79   11.10
   1  -9  -7   45.55    7.30
  -1  -9   7   37.20    6.26
   1  -9  -6  253.15   22.11
  -1  -9   6  225.94   20.35
  -1  -9   5   23.02    7.06
  -1  -9   5   19.20    6.57
   1  -9  -5   10.23    4.53
   1  -9  -5    6.69    6.15
  -1  -9   4  205.95   22.06
  -1  -9   4  215.26   21.96
   1  -9  -4  196.88   26.84
   1  -9  -4  171.60   20.46
  -1  -9   4  199.72   17.19
   1  -9  -3  125.24   18.55
   1  -9  -3  133.67   22.69
  -1  -9   3  134.55   13.52
  -1  -9   3  130.46   17.47
   1  -9  -3  123.76   18.71
  -1  -9   3  140.58   18.76
   1  -9  -3  152.61   20.00
  -1  -9   2  855.23   42.68
   1  -9  -2  828.03   55.28
  -1  -9   2  885.24   46.19
  -1  -9   2  951.19   55.69
  -1  -9   2  862.08   52.08
   1  -9  -2  849.32   57.30
  -1  -9   2  908.93   47.99
   1  -9  -2  872.09   56.94
   1  -9  -2  837.76   60.90
   1  -9  -1  126.78   18.85
  -1  -9   1  128.19   12.00
  -1  -9   1  121.31   13.45
  -1  -9   1  112.91   13.81
   1  -9  -1  143.00   20.93
  -1  -9   1  152.13   19.94
   1  -9  -1  113.24   20.11
   1  -9  -1  138.85   19.73
   1  -9   0   99.94   16.52
  -1  -9   0  108.90   17.67
  -1  -9   0  117.50   17.49
   1  -9   0  107.29   19.73
  -1  -9   0  122.51   19.15
  -1  -9   0  114.29   12.47
  -1  -9   0   87.90   11.90
   1  -9   1  170.33   20.89
   1  -9   1  184.28   22.55
  -1  -9  -1  207.91   24.75
  -1  -9  -1  186.70   16.71
  -1  -9  -1  207.75   25.49
  -1  -9  -1  179.63   21.86
  -1  -9  -1  162.97   14.66
   1  -9   2   99.66   13.89
   1  -9   2  100.39   16.50
   1  -9   2   98.50   14.74
  -1  -9  -2  101.59   11.41
  -1  -9  -2  124.51   19.25
  -1  -9  -2  119.67   20.15
  -1  -9  -2   81.93   11.88
  -1  -9  -2   95.18   15.20
  -1  -9  -3   -1.23    2.76
  -1  -9  -3    5.40    3.13
  -1  -9  -3    1.53    3.96
   1  -9   3    6.33    4.93
  -1  -9  -3    4.86    3.09
   1  -9   3    2.19    2.46
   1  -9   3    3.84    2.49
   1  -9   4  259.38   24.32
  -1  -9  -4  228.01   21.76
   1  -9   4  249.97   23.23
  -1  -9  -4  293.27   26.44
  -1  -9  -4  281.75   30.60
  -1  -9  -4  264.55   26.82
  -1  -9  -5   70.55   11.05
   1  -9   5   71.50   11.01
  -1  -9  -5   62.76   11.39
   1  -9   5   88.19   12.27
  -1  -9  -5   68.24   14.26
  -1  -9  -6   66.75    9.43
  -1  -9  -6   63.79   10.34
   1  -9   6   84.17   10.52
  -1  -9  -6   85.70   10.29
  -1  -9  -6   79.37   13.30
  -1  -9  -7   75.89    8.57
  -1  -8   8  118.64   10.65
  -1  -8   8  119.63   11.05
   1  -8  -7   99.15   12.65
   1  -8  -7  103.01   16.38
   1  -8  -7   88.42   13.00
   1  -8  -7   95.59   12.55
  -1  -8   7  116.80   13.44
  -1  -8   7  107.15   13.23
  -1  -8   7  111.60   11.93
   1  -8  -6    8.87    7.28
   1  -8  -6   16.77    5.63
   1  -8  -6    9.84    4.93
   1  -8  -6    8.80    5.17
   1  -8  -6    8.69    4.70
  -1  -8   6   13.27    4.70
  -1  -8   5  103.62   13.02
  -1  -8   5  107.09   12.19
  -1  -8   5  111.54   15.80
  -1  -8   5   88.90   11.96
   1  -8  -5  102.48   15.57
   1  -8  -5   80.63   14.06
   1  -8  -4  412.24   34.95
  -1  -8   4  435.02   28.06
  -1  -8   4  381.43   31.44
   1  -8  -4  418.21   42.49
  -1  -8   4  392.32   25.76
  -1  -8   4  404.64   32.92
   1  -8  -4  372.56   31.64
  -1  -8   3   91.67   12.68
  -1  -8   3   81.50   14.21
   1  -8  -3   89.17   16.38
   1  -8  -3   98.11   14.29
  -1  -8   3   93.26   10.81
  -1  -8   3   78.09   10.62
  -1  -8   3   98.61   14.75
   1  -8  -3   76.40   14.94
   1  -8  -3   97.99   20.33
  -1  -8   2  419.43   33.35
  -1  -8   2  347.20   22.83
  -1  -8   2  371.57   27.00
   1  -8  -2  342.16   34.46
  -1  -8   2  376.05   24.58
   1  -8  -2  362.25   33.22
  -1  -8   2  384.52   30.32
   1  -8  -2  424.34   40.78
  -1  -8   2  382.36   26.53
   1  -8  -2  327.58   32.27
  -1  -8   1  267.26   24.37
  -1  -8   1  276.32   26.94
   1  -8  -1  224.99   28.54
  -1  -8   1  247.78   18.38
  -1  -8   1  259.99   20.37
   1  -8  -1  266.13   27.84
   1  -8  -1  284.68   31.67
   1  -8  -1  274.01   28.32
   1  -8   0  191.87   22.61
  -1  -8   0  150.15   13.20
  -1  -8   0  181.43   15.80
  -1  -8   0  162.92   15.89
  -1  -8   0  170.30   20.74
   1  -8   0  155.67   21.35
  -1  -8  -1  242.49   18.16
   1  -8   1  212.57   21.95
   1  -8   1  250.80   26.60
  -1  -8  -1  237.24   19.31
  -1  -8  -1  236.89   21.41
  -1  -8  -1  293.00   29.07
   1  -8   1  278.72   26.69
  -1  -8  -1  230.57   24.87
  -1  -8  -2  410.51   36.11
   1  -8   2  386.59   33.06
  -1  -8  -2  374.40   32.49
  -1  -8  -2  353.94   22.26
   1  -8   2  331.40   29.73
  -1  -8  -2  390.70   28.40
   1  -8   2  405.41   32.33
  -1  -8  -2  370.28   24.18
  -1  -8  -3   97.49   14.67
   1  -8   3  109.41   16.45
  -1  -8  -3   76.43   16.84
  -1  -8  -3  118.01   19.01
   1  -8   3   84.56   14.37
  -1  -8  -3   85.33   12.82
  -1  -8  -3   97.03   10.45
   1  -8   3  105.41   14.60
  -1  -8  -4  380.53   37.99
   1  -8   4  402.54   31.94
   1  -8   4  317.18   31.97
   1  -8   4  367.95   31.55
  -1  -8  -4  360.67   30.58
  -1  -8  -4  337.80   32.58
  -1  -8  -4  337.87   31.32
  -1  -8  -5  215.71   19.32
   1  -8   5  225.08   22.18
  -1  -8  -5  237.76   24.03
  -1  -8  -5  225.88   28.08
  -1  -8  -5  229.59   24.71
   1  -8   5  214.93   22.97
   1  -8   6   68.47    9.75
  -1  -8  -6   69.94   14.38
  -1  -8  -6   56.79   10.89
   1  -8   6   66.64   11.52
  -1  -8  -6   58.80   10.64
  -1  -8  -7  253.11   22.55
  -1  -8  -7  207.73   15.86
   1  -8   7  254.64   20.32
  -1  -8  -8   60.98    7.45
   1  -8   8   68.61    7.25
  -1  -7   8   67.71    9.60
   1  -7  -8   45.03    9.69
   1  -7  -8   67.67   10.62
  -1  -7   8   61.74    9.11
   1  -7  -8   69.31   10.55
  -1  -7   8   56.17    8.74
   1  -7  -7  146.25   18.73
   1  -7  -7  151.32   22.09
   1  -7  -7  181.15   18.02
   1  -7  -7  164.46   21.40
  -1  -7   7  127.00   15.99
  -1  -7   7  151.76   16.62
   1  -7  -7  139.41   18.15
   1  -7  -6  159.51   19.44
   1  -7  -6  161.57   20.74
  -1  -7   6  164.90   16.07
   1  -7  -6  136.64   19.78
   1  -7  -6  175.95   26.00
  -1  -7   6  155.24   14.46
  -1  -7   6  152.45   17.58
  -1  -7   5   64.68   11.93
  -1  -7   5   57.34   10.00
  -1  -7   5   57.99    9.45
   1  -7  -5   43.15   10.67
  -1  -7   5   45.50    9.72
   1  -7  -5   47.55   11.35
  -1  -7   5   60.84    8.55
   1  -7  -5   38.94    9.87
  -1  -7   5   50.91    7.99
  -1  -7   4  447.49   28.36
  -1  -7   4  411.87   29.17
  -1  -7   4  412.40   27.19
   1  -7  -4  382.47   34.15
  -1  -7   4  440.37   29.01
  -1  -7   4  453.85   33.54
   1  -7  -4  387.03   34.86
   1  -7  -4  468.82   45.07
   1  -7  -4  447.66   36.00
  -1  -7   4  431.78   32.96
   1  -7  -4  420.54   33.98
   1  -7  -3  754.72   50.96
  -1  -7   3  795.38   47.00
  -1  -7   3  816.30   42.00
   1  -7  -3  845.78   61.90
  -1  -7   3  804.34   41.13
  -1  -7   3  854.77   43.53
   1  -7  -3  839.28   50.46
  -1  -7   3  883.94   44.90
   1  -7  -3  772.59   52.57
   1  -7  -3  749.05   51.97
  -1  -7   2   16.41    3.64
  -1  -7   2   19.72    5.15
  -1  -7   2   17.28    5.15
   1  -7  -2   18.65    7.01
   1  -7  -2   22.11    7.56
  -1  -7   2   14.26    3.84
   1  -7  -2   29.46   10.15
  -1  -7   2   20.12    5.99
   1  -7  -2   14.78    6.78
  -1  -7   1  425.58   24.25
   1  -7  -1  397.25   37.00
  -1  -7   1  443.93   24.97
  -1  -7   1  475.98   31.41
  -1  -7   1  469.16   34.04
   1  -7  -1  545.96   41.88
   1  -7  -1  482.87   36.09
  -1  -7   1  460.45   27.32
  -1  -7   0   75.57    8.89
   1  -7   0   78.78   11.94
  -1  -7   0   65.50   10.22
   1  -7   0   84.68   13.71
  -1  -7   0   79.74   10.00
  -1  -7   0   79.39   10.29
  -1  -7   0   71.95    7.92
  -1  -7   0   84.27   10.91
   1  -7   0   83.26   14.42
  -1  -7   0   87.39   13.25
   1  -7   1 1133.28   62.49
  -1  -7  -1 1301.32   66.06
  -1  -7  -1 1201.28   55.41
  -1  -7  -1 1246.90   59.33
  -1  -7  -1 1278.82   57.71
   1  -7   1 1269.54   66.45
   1  -7   2   82.29   13.50
   1  -7   2  105.57   15.50
   1  -7   2  114.47   17.29
  -1  -7  -2   93.65   14.13
  -1  -7  -2   85.55   14.88
  -1  -7  -2  107.76   13.17
  -1  -7  -2   92.06   10.55
  -1  -7  -3  133.66   19.66
  -1  -7  -3  131.99   16.97
  -1  -7  -3  148.57   21.44
   1  -7   3  136.21   18.11
  -1  -7  -3  142.36   15.68
  -1  -7  -3  123.54   11.90
  -1  -7  -3  121.42   13.49
   1  -7   3  131.86   17.57
  -1  -7  -4  339.24   23.76
   1  -7   4  350.13   32.68
   1  -7   4  372.55   31.97
   1  -7   4  390.64   31.45
  -1  -7  -4  352.46   36.07
  -1  -7  -4  324.17   20.34
  -1  -7  -4  375.92   34.15
   1  -7   5  439.93   33.37
   1  -7   5  379.69   34.42
  -1  -7  -5  474.46   37.85
  -1  -7  -5  456.04   41.93
   1  -7   5  450.84   36.14
  -1  -7  -5  411.10   34.53
  -1  -7  -5  407.55   26.14
  -1  -7  -5  465.14   30.59
   1  -7   6   29.36    8.85
   1  -7   6   47.80    8.93
  -1  -7  -6   33.83    7.09
   1  -7   6   33.32    9.14
  -1  -7  -6   45.21   11.06
  -1  -7  -6   48.95   13.08
  -1  -7  -6   33.88    9.23
  -1  -7  -6   33.06    9.47
  -1  -7  -7  228.88   23.21
  -1  -7  -7  204.94   18.81
  -1  -7  -7  220.69   22.61
   1  -7   7  229.03   22.21
  -1  -7  -7  226.26   24.02
   1  -7   8  304.89   22.23
  -1  -7  -8  300.01   23.18
  -1  -6   9  438.79   24.92
   1  -6  -9  429.53   28.34
  -1  -6   8  521.60   33.68
  -1  -6   8  488.71   32.05
   1  -6  -8  494.05   35.71
   1  -6  -8  555.67   32.94
   1  -6  -8  463.78   35.54
   1  -6  -8  528.39   39.86
  -1  -6   7  243.14   19.54
   1  -6  -7  277.16   25.40
  -1  -6   7  276.10   24.33
   1  -6  -7  266.17   27.33
   1  -6  -7  251.43   27.15
   1  -6  -7  232.37   29.73
  -1  -6   7  263.18   23.80
  -1  -6   6   25.82    6.46
  -1  -6   6   34.80    7.12
  -1  -6   6   37.14    7.80
   1  -6  -6   39.55   10.50
  -1  -6   6   29.29    6.26
   1  -6  -6   26.84    8.42
  -1  -6   6   31.05    8.33
  -1  -6   6   33.95    8.51
  -1  -6   6   41.84    8.99
   1  -6  -6   36.80   10.77
   1  -6  -6   38.34   12.70
  -1  -6   5  678.01   37.37
  -1  -6   5  675.00   42.78
  -1  -6   5  676.92   36.48
   1  -6  -5  590.99   45.42
  -1  -6   5  671.90   38.00
  -1  -6   5  679.89   37.71
   1  -6  -5  727.08   49.43
  -1  -6   5  700.61   40.85
   1  -6  -5  648.09   45.96
   1  -6  -5  617.47   52.88
  -1  -6   4  751.14   38.79
  -1  -6   4  688.89   42.91
  -1  -6   4  755.95   39.25
  -1  -6   4  689.09   39.71
   1  -6  -4  740.34   48.04
  -1  -6   4  720.48   38.12
   1  -6  -4  720.46   48.02
   1  -6  -4  702.39   46.92
   1  -6  -4  629.73   45.15
   1  -6  -3   76.98   13.67
  -1  -6   3   82.14   10.24
   1  -6  -3   69.49   12.97
  -1  -6   3   80.27    9.89
  -1  -6   3   80.36    9.81
  -1  -6   3   82.22    9.36
   1  -6  -3   72.62   12.98
   1  -6  -3   91.10   13.17
   1  -6  -3   75.78   16.06
   1  -6  -3   79.58   12.71
   1  -6  -2   20.60    6.68
  -1  -6   2   41.60    7.42
  -1  -6   2   32.92    6.09
   1  -6  -2   30.35    7.65
  -1  -6   2   20.11    6.30
   1  -6  -2   38.33    9.29
   1  -6  -2   35.98    9.79
  -1  -6   2   40.77    6.16
  -1  -6   1 1530.89   66.71
  -1  -6   1 1498.97   62.84
   1  -6  -1 1453.22   64.10
  -1  -6   1 1509.54   63.82
  -1  -6   1 1481.80   61.30
  -1  -6   1 1428.88   61.23
  -1  -6   1 1442.80   63.10
   1  -6  -1 1637.31   73.84
  -1  -6   0  389.88   22.37
  -1  -6   0  375.76   22.78
   1  -6   0  368.51   27.98
  -1  -6   0  380.36   27.27
  -1  -6   0  383.34   23.78
  -1  -6   0  360.55   22.32
   1  -6   0  429.71   28.95
   1  -6   1  347.20   26.24
   1  -6   1  308.62   26.87
   1  -6   1  332.58   25.58
  -1  -6  -1  367.46   23.57
  -1  -6  -1  340.80   21.88
  -1  -6  -1  375.65   26.59
  -1  -6  -1  351.28   21.40
   1  -6   2  170.48   18.02
   1  -6   2  202.43   19.20
  -1  -6  -2  203.28   19.19
  -1  -6  -2  177.97   16.26
  -1  -6  -2  184.13   20.17
   1  -6   3  520.48   38.62
   1  -6   3  553.66   37.43
  -1  -6  -3  661.95   44.43
  -1  -6  -3  532.76   35.24
  -1  -6  -3  584.65   33.86
  -1  -6  -3  512.22   38.51
  -1  -6  -3  544.26   30.72
   1  -6   3  530.72   36.96
  -1  -6  -4   53.84   11.80
   1  -6   4   63.98   12.34
   1  -6   4   57.52    9.05
   1  -6   4   62.68   12.66
   1  -6   4   67.36   11.80
  -1  -6  -4   72.89   10.64
  -1  -6  -4   70.72   14.60
  -1  -6  -4   63.59    8.71
   1  -6   5  230.83   24.94
   1  -6   5  273.02   26.82
  -1  -6  -5  232.83   20.45
  -1  -6  -5  262.73   27.36
   1  -6   5  222.15   19.69
  -1  -6  -5  266.94   26.70
  -1  -6  -5  198.54   24.14
  -1  -6  -5  262.98   30.16
  -1  -6  -5  223.86   17.45
   1  -6   6  127.80   15.68
  -1  -6  -6  163.02   21.70
  -1  -6  -6  112.17   10.93
   1  -6   6  120.03   16.94
  -1  -6  -6  117.66   17.15
  -1  -6  -6  109.08   13.25
   1  -6   6  142.28   15.38
  -1  -6  -6  146.16   16.70
   1  -6   6  130.52   18.58
  -1  -6  -6  166.04   23.57
  -1  -6  -7  150.18   16.94
   1  -6   7  136.13   14.49
  -1  -6  -7  128.26   13.38
  -1  -6  -7  137.21   19.24
   1  -6   7  133.70   17.96
  -1  -6  -7  141.42   20.22
  -1  -6  -7  130.63   12.95
   1  -6   8   24.56    4.67
  -1  -6  -8   21.11    6.89
   1  -6   9    4.15    2.61
  -1  -6  -9    8.52    4.51
  -1  -5  10  303.09   18.23
  -1  -5   9    3.89    2.86
  -1  -5   9    4.74    2.05
  -1  -5   8   32.83    8.36
   1  -5  -8   37.89    9.77
   1  -5  -8   36.06    8.54
  -1  -5   8   53.57    9.39
   1  -5  -8   51.48   13.16
   1  -5  -8   29.31    5.81
  -1  -5   8   41.02    8.43
  -1  -5   7  180.55   19.57
  -1  -5   7  148.17   16.54
  -1  -5   7  203.73   20.06
   1  -5  -7  132.78   14.33
   1  -5  -7  119.22   19.34
  -1  -5   7  132.68   15.10
  -1  -5   7  156.09   15.74
   1  -5  -7  163.52   20.21
   1  -5  -7  179.99   22.49
  -1  -5   7  132.15   16.79
   1  -5  -7  178.53   26.52
   1  -5  -6   38.88   10.56
   1  -5  -6   47.43   11.06
  -1  -5   6   36.25    7.63
   1  -5  -6   40.26   10.68
  -1  -5   6   32.15    8.53
   1  -5  -6   22.78   10.14
  -1  -5   6   33.95    7.42
  -1  -5   6   43.14    8.12
  -1  -5   6   49.29    8.95
   1  -5  -6   41.99   11.74
  -1  -5   6   57.83   10.27
   1  -5  -5  554.56   41.68
  -1  -5   5  673.84   41.44
  -1  -5   5  602.49   35.46
  -1  -5   5  677.04   39.53
   1  -5  -5  653.16   46.66
  -1  -5   5  673.37   36.03
   1  -5  -5  700.64   47.12
   1  -5  -5  627.06   51.55
  -1  -5   4  165.74   14.16
  -1  -5   4  145.69   13.51
   1  -5  -4  153.01   18.34
   1  -5  -4  197.33   17.29
  -1  -5   4  156.73   14.03
  -1  -5   4  164.60   15.39
   1  -5  -4  133.96   17.48
   1  -5  -4  159.51   18.91
  -1  -5   4  158.61   13.76
  -1  -5   4  146.04   13.33
   1  -5  -3  607.71   40.39
  -1  -5   3  677.53   34.08
   1  -5  -3  795.54   39.58
  -1  -5   3  664.21   33.91
   1  -5  -3  669.22   42.57
   1  -5  -3  763.52   50.75
  -1  -5   3  697.45   34.08
  -1  -5   2 1517.91   61.02
  -1  -5   2 1563.40   61.08
  -1  -5   1   85.77   10.50
  -1  -5   1   81.23    8.23
  -1  -5   1   78.94    8.18
   1  -5  -1   78.63    8.55
  -1  -5   1   72.80    7.66
  -1  -5   0 1028.37   45.90
  -1  -5   0 1065.86   45.16
   1  -5   0 1074.79   47.60
  -1  -5   0 1025.15   44.98
  -1  -5  -1  493.69   25.37
  -1  -5  -1  445.79   23.11
  -1  -5  -1  455.63   23.38
  -1  -5  -1  379.93   21.58
  -1  -5  -1  415.67   22.22
   1  -5   1  326.78   20.94
  -1  -5  -2 1521.89   61.06
  -1  -5  -2 1550.98   60.42
  -1  -5  -2 1451.91   60.22
  -1  -5  -3   26.56    5.08
   1  -5   3   27.36    4.72
  -1  -5  -3   33.47    5.70
   1  -5   3   39.33    8.33
   1  -5   3   26.33    5.67
  -1  -5  -3   17.61    4.59
   1  -5   3   33.34    7.75
  -1  -5  -3   33.91    6.47
   1  -5   3   37.48    6.57
  -1  -5  -3   38.93    8.25
   1  -5   4  604.67   35.52
  -1  -5  -4  581.58   29.51
   1  -5   4  647.70   41.65
  -1  -5  -4  714.10   37.36
  -1  -5  -4  609.17   32.32
   1  -5   4  692.94   42.01
   1  -5   4  627.67   33.60
   1  -5   4  602.76   34.82
  -1  -5  -4  754.03   47.59
  -1  -5  -4  580.71   36.42
  -1  -5  -4  654.72   32.88
  -1  -5  -4  659.39   42.22
  -1  -5  -4  667.48   35.24
  -1  -5  -5  431.92   26.27
   1  -5   5  482.21   36.23
   1  -5   5  491.00   35.82
   1  -5   5  464.08   31.50
  -1  -5  -5  429.25   35.42
  -1  -5  -5  496.87   37.72
  -1  -5  -5  483.22   33.45
   1  -5   5  525.74   30.72
  -1  -5  -5  464.07   26.46
   1  -5   5  455.91   29.29
  -1  -5  -5  522.63   31.60
  -1  -5  -5  473.31   39.76
   1  -5   6   76.37   12.65
  -1  -5  -6   67.24    7.76
   1  -5   6   46.78   11.04
  -1  -5  -6   68.98   14.99
  -1  -5  -6   53.39   11.39
  -1  -5  -6   58.43   13.07
  -1  -5  -6   70.25   10.46
  -1  -5  -6   65.49   11.70
   1  -5   6   60.77   10.85
  -1  -5  -6   68.78   14.07
   1  -5   7   53.61    9.37
  -1  -5  -7   49.06    9.93
   1  -5   7   65.78   10.99
  -1  -5  -7   55.97    8.48
  -1  -5  -7   31.05    7.54
  -1  -5  -7   55.34   12.65
  -1  -5  -7   59.47   13.05
  -1  -5  -7   62.95   12.87
   1  -5   8  614.60   35.11
  -1  -5  -8  506.85   31.86
   1  -5   8  619.02   39.15
  -1  -5  -8  631.93   42.50
  -1  -5  -8  552.37   40.03
   1  -5   9  171.85   15.65
  -1  -5  -9  206.64   20.42
   1  -5   9  166.82   13.13
  -1  -5  -9  184.82   17.06
   1  -4 -10   84.64   12.12
  -1  -4   9   83.47   11.91
  -1  -4   9   66.07    8.42
   1  -4  -9   62.45    9.26
  -1  -4   9   79.84   10.88
   1  -4  -9   65.69    9.51
  -1  -4   8  839.70   48.71
  -1  -4   8  811.52   45.00
  -1  -4   8  864.40   46.47
   1  -4  -8  888.25   54.28
  -1  -4   8  777.54   43.19
   1  -4  -8  723.44   45.23
   1  -4  -8  895.21   52.20
  -1  -4   7  182.79   15.92
  -1  -4   7  195.45   18.92
  -1  -4   7  218.72   22.91
   1  -4  -7  219.86   23.89
  -1  -4   7  196.62   19.35
   1  -4  -7  214.12   24.98
  -1  -4   7  199.34   18.35
   1  -4  -7  194.12   27.57
   1  -4  -7  198.94   19.81
  -1  -4   7  222.20   22.17
   1  -4  -7  196.48   18.93
  -1  -4   7  220.58   19.41
   1  -4  -6  632.37   44.85
  -1  -4   6  742.67   42.72
  -1  -4   6  702.11   37.87
   1  -4  -6  685.94   40.55
  -1  -4   6  696.00   37.67
   1  -4  -6  614.69   45.27
  -1  -4   6  680.30   38.03
   1  -4  -6  631.40   38.26
  -1  -4   6  674.27   38.65
   1  -4  -6  608.84   51.14
  -1  -4   6  694.24   37.80
   1  -4  -6  669.21   48.92
   1  -4  -6  647.46   47.63
  -1  -4   5  919.76   42.89
  -1  -4   5  812.93   41.23
   1  -4  -5  878.07   42.76
  -1  -4   5  812.03   42.09
   1  -4  -5  802.32   51.56
   1  -4  -5  908.91   54.63
   1  -4  -5  899.61   45.02
   1  -4  -5  864.67   59.03
   1  -4  -5  766.81   49.43
   1  -4  -5  815.58   39.42
  -1  -4   5  791.25   41.11
   1  -4  -4 1140.02   59.98
  -1  -4   4 1129.07   49.51
  -1  -4   4 1107.55   48.77
  -1  -4   4 1171.85   49.07
   1  -4  -4 1031.26   57.71
   1  -4  -4 1195.45   52.13
  -1  -4   4 1160.06   51.42
   1  -4  -4 1100.11   51.65
   1  -4  -4  982.15   58.01
   1  -4  -4 1181.14   67.60
  -1  -4   3  323.66   18.65
  -1  -4   3  358.75   21.26
   1  -4  -3  319.78   19.08
  -1  -4   3  333.41   23.12
  -1  -4   3  332.71   18.80
  -1  -4   3  301.42   18.77
   1  -4  -3  360.83   22.07
  -1  -4   2  491.60   27.02
   1  -4  -2  533.89   26.61
  -1  -4   2  444.53   22.89
  -1  -4   2  460.12   22.37
   1  -4  -2  390.84   21.04
  -1  -4   2  422.83   20.90
   1  -4  -1  182.35    9.89
  -1  -4   1  225.03   14.17
  -1  -4   1  208.90   12.38
  -1  -4   1  222.09   15.47
  -1  -4   1  176.75   11.63
  -1  -4   0  572.58   25.63
   1  -4   0  542.36   26.02
   1  -4   1  327.75   14.81
   1  -4   1  316.89   15.66
   1  -4   1  284.63   17.80
  -1  -4  -1  363.02   18.24
  -1  -4  -1  421.91   21.03
  -1  -4  -1  422.65   20.20
  -1  -4  -1  368.74   18.64
  -1  -4  -1  393.45   19.05
   1  -4   2 2764.92  107.88
   1  -4   2 2750.83  105.76
  -1  -4  -2 3293.91  109.38
   1  -4   2 3073.87  106.53
  -1  -4  -2 3253.44  110.25
   1  -4   2 2280.59  104.57
   1  -4   2 3414.76  111.01
   1  -4   3 1655.98   66.16
  -1  -4  -3 1726.43   67.46
   1  -4   3 1540.81   65.86
   1  -4   3 1771.00   68.29
   1  -4   3 1551.99   65.31
  -1  -4  -3 1587.29   68.84
   1  -4   3 1573.39   65.71
  -1  -4  -3 1689.64   65.62
  -1  -4  -4   98.24    9.56
  -1  -4  -4   99.81   12.13
   1  -4   4  116.36   11.63
  -1  -4  -4   90.99   10.22
   1  -4   4   84.56   11.09
   1  -4   4  116.08   13.69
  -1  -4  -4   89.82   13.01
   1  -4   4   87.74   10.25
  -1  -4  -4  106.38    9.40
   1  -4   4   98.81   10.67
   1  -4   4  104.54   11.28
  -1  -4  -4  129.44   16.02
   1  -4   4  116.04   14.70
   1  -4   5   67.36    9.82
  -1  -4  -5   71.36    8.34
  -1  -4  -5   68.35   11.20
   1  -4   5   71.07    9.54
  -1  -4  -5   56.65    7.13
  -1  -4  -5   85.12   10.74
  -1  -4  -5   87.60   14.00
   1  -4   5   68.26   10.94
  -1  -4  -5   78.98   13.69
  -1  -4  -5   87.26   14.80
   1  -4   5   78.58   11.61
   1  -4   5   90.40   11.21
  -1  -4  -6  758.25   36.40
  -1  -4  -6  742.83   41.62
   1  -4   6  633.45   42.13
   1  -4   6  885.99   47.52
  -1  -4  -6  809.46   49.11
  -1  -4  -6  766.78   37.22
  -1  -4  -6  835.96   52.22
   1  -4   6  773.42   44.59
  -1  -4  -6  877.14   49.34
  -1  -4  -6  830.46   48.06
  -1  -4  -6  821.07   52.64
  -1  -4  -6  784.82   53.87
  -1  -4  -6  914.98   44.07
   1  -4   7  374.19   29.38
   1  -4   7  436.35   31.24
   1  -4   7  519.99   37.42
  -1  -4  -7  461.12   38.17
  -1  -4  -7  403.98   31.72
  -1  -4  -7  476.12   34.64
  -1  -4  -7  455.04   38.05
  -1  -4  -7  465.25   33.30
  -1  -4  -7  434.97   28.65
  -1  -4  -7  503.67   28.94
  -1  -4  -7  477.54   32.52
   1  -4   8  136.59   17.15
   1  -4   8  139.35   15.10
  -1  -4  -8  130.17   18.91
  -1  -4  -8  124.37   18.24
   1  -4   8  174.39   17.77
  -1  -4  -8  135.53   15.37
  -1  -4  -9  106.05   11.77
  -1  -4  -9  135.73   17.63
   1  -4   9  102.10   11.57
   1  -4   9  109.75   12.32
  -1  -4  -9  120.59   14.72
   1  -4   9  122.07   13.65
   1  -3 -10   26.03    5.52
   1  -3 -10   47.81   10.12
  -1  -3  10   42.06    7.05
  -1  -3  10   46.70    7.10
   1  -3  -9  457.26   38.77
  -1  -3   9  401.86   27.70
   1  -3  -9  343.09   27.52
   1  -3  -8  166.66   18.34
  -1  -3   8  125.08   15.64
   1  -3  -8  146.68   19.34
   1  -3  -8  176.66   25.50
  -1  -3   8  127.75   13.80
  -1  -3   8  136.25   13.68
   1  -3  -8  141.46   21.46
   1  -3  -7   32.49    8.70
   1  -3  -7   40.94   10.55
  -1  -3   7   37.42    8.22
   1  -3  -7   62.38   14.77
  -1  -3   7   36.37    7.13
   1  -3  -7   39.35   10.44
  -1  -3   7   39.27    7.27
   1  -3  -7   51.18    9.86
   1  -3  -7   33.82   10.10
  -1  -3   6  858.33   42.39
   1  -3  -6  968.87   48.98
   1  -3  -6  855.43   53.01
  -1  -3   6  787.18   40.97
   1  -3  -6  831.26   58.47
   1  -3  -6  896.26   53.18
  -1  -3   6  846.26   42.91
   1  -3  -6  791.85   42.13
  -1  -3   6  850.17   41.08
   1  -3  -5  165.96   19.67
  -1  -3   5  175.01   14.22
  -1  -3   5  184.36   17.58
   1  -3  -5  161.66   18.36
   1  -3  -5  152.69   18.59
   1  -3  -5  161.74   13.19
   1  -3  -5  192.45   23.93
   1  -3  -5  175.05   20.92
   1  -3  -5  206.28   14.45
  -1  -3   5  157.13   14.26
  -1  -3   5  156.01   13.40
  -1  -3   4  157.72   14.50
  -1  -3   4  150.74   11.67
  -1  -3   4  159.77   13.35
   1  -3  -4  125.79   11.36
  -1  -3   4  156.54   11.10
  -1  -3   4  151.36   11.24
   1  -3  -3 1375.11   55.15
  -1  -3   3 1317.02   55.72
  -1  -3   3 1289.45   51.85
  -1  -3   3 1343.46   53.67
   1  -3  -3 1273.59   54.75
  -1  -3   3 1307.26   51.83
  -1  -3   2  906.61   38.54
   1  -3  -2  861.00   37.87
  -1  -3   2  898.75   37.20
  -1  -3   1  189.55   10.63
  -1  -3   1  219.86   13.33
  -1  -3   1  236.63   14.64
   1  -3  -1  207.75   11.65
   1  -3   0   94.07    6.34
  -1  -3   0  100.10    7.18
  -1  -3   0   97.05    8.51
  -1  -3   0   91.39    5.61
  -1  -3  -1 3581.45  126.45
   1  -3   1 3558.56  126.06
   1  -3   1 3514.80  123.97
   1  -3   1 3167.92  125.49
  -1  -3  -1 3764.66  126.76
   1  -3   1 3573.50  126.07
  -1  -3  -2  984.30   39.93
   1  -3   2  949.57   39.02
   1  -3   2  997.07   39.64
  -1  -3  -2 1027.12   40.83
  -1  -3  -3 1693.61   68.81
   1  -3   3 1655.14   68.89
   1  -3   3 1727.44   68.93
   1  -3   3 1665.50   69.70
  -1  -3  -3 1855.00   67.76
  -1  -3  -3 1887.70   71.92
   1  -3   3 1659.20   68.29
  -1  -3  -4 1039.49   43.71
  -1  -3  -4 1001.45   48.86
   1  -3   4  997.68   45.73
  -1  -3  -4  949.35   45.97
   1  -3   4 1059.54   47.49
  -1  -3  -4 1018.50   43.40
   1  -3   5  182.25   18.63
   1  -3   5  181.65   16.65
  -1  -3  -5  154.58   12.30
  -1  -3  -5  170.27   19.34
  -1  -3  -5  161.37   17.27
  -1  -3  -5  198.72   20.06
   1  -3   5  166.98   14.09
   1  -3   5  188.92   16.65
  -1  -3  -5  180.07   15.12
  -1  -3  -5  145.25   12.36
  -1  -3  -5  159.46   18.54
  -1  -3  -5  177.00   15.73
   1  -3   5  156.20   14.54
  -1  -3  -5  181.99   17.63
  -1  -3  -6   84.80    8.61
   1  -3   6   88.68   12.20
  -1  -3  -6  101.64   14.03
   1  -3   6   80.81   10.51
   1  -3   6   74.41   11.87
   1  -3   6   96.44   14.26
  -1  -3  -6   90.02   10.88
  -1  -3  -6   72.87   12.15
   1  -3   6   95.20   10.84
  -1  -3  -6  100.34   15.48
  -1  -3  -6  102.52   11.74
   1  -3   6   74.53   11.73
  -1  -3  -6   78.65   14.25
   1  -3   7 1226.95   63.96
  -1  -3  -7 1138.49   66.51
   1  -3   7 1089.08   59.78
  -1  -3  -7 1199.00   53.79
  -1  -3  -7 1071.00   53.55
  -1  -3  -7 1161.92   59.94
  -1  -3  -7 1154.62   62.91
  -1  -3  -7 1075.56   65.23
  -1  -3  -7 1193.64   61.82
   1  -3   7 1079.48   58.54
   1  -3   8   29.22    7.88
   1  -3   8   28.61    7.45
  -1  -3  -8   26.11    8.61
  -1  -3  -8   36.49    8.45
   1  -3   9   10.06    3.63
  -1  -3  -9    8.74    5.62
  -1  -3  -9    7.76    3.91
  -1  -3  -9    9.27    2.77
   1  -3   9   10.38    4.40
   1  -3   9   10.24    4.58
  -1  -3 -10   15.94    3.77
   1  -3  10   24.56    4.55
   1  -2 -10  110.01   15.34
   1  -2 -10   68.60    8.45
  -1  -2  10   89.95   10.23
  -1  -2  10   89.78   10.51
   1  -2 -10   78.14   10.32
   1  -2 -10   60.84    9.24
   1  -2  -9  143.26   21.40
  -1  -2   9  127.16   13.49
   1  -2  -9  129.82   16.66
  -1  -2   9  124.84   14.58
  -1  -2   9  117.00   14.69
   1  -2  -8  245.09   30.45
   1  -2  -8  167.20   20.11
  -1  -2   8  191.14   19.03
  -1  -2   8  200.68   17.97
  -1  -2   8  204.23   17.85
  -1  -2   8  224.30   20.77
   1  -2  -7  341.83   24.10
  -1  -2   7  310.94   22.59
   1  -2  -7  345.84   33.01
  -1  -2   7  351.18   29.50
   1  -2  -7  305.34   30.01
  -1  -2   7  296.50   22.48
  -1  -2   7  324.77   24.49
   1  -2  -7  348.94   28.29
   1  -2  -7  339.77   30.84
  -1  -2   7  295.58   23.13
   1  -2  -6  197.09   22.05
  -1  -2   6  239.42   21.94
  -1  -2   6  211.86   17.85
   1  -2  -6  226.05   23.22
   1  -2  -6  224.78   17.23
   1  -2  -6  187.43   22.72
  -1  -2   6  219.55   16.60
   1  -2  -6  187.85   17.18
   1  -2  -6  207.29   25.14
  -1  -2   6  216.34   17.11
  -1  -2   6  171.96   15.57
  -1  -2   6  211.80   17.11
   1  -2  -6  213.06   20.28
   1  -2  -5 1758.03   75.04
   1  -2  -5 2082.56   80.02
  -1  -2   5 2046.45   78.66
   1  -2  -5 1857.93   88.89
  -1  -2   5 2230.69   88.12
   1  -2  -5 2002.89   90.25
  -1  -2   5 2271.08   85.95
  -1  -2   5 1979.94   79.33
  -1  -2   4  791.55   33.80
   1  -2  -4  745.23   32.08
  -1  -2   4  857.85   40.95
  -1  -2   4  769.77   34.61
   1  -2  -4  812.87   35.32
  -1  -2   3 2579.23   89.09
  -1  -2   3 2622.65   92.59
  -1  -2   2 1913.64   78.43
   1  -2  -2 2086.93   76.98
  -1  -2   2 1870.49   76.81
   1  -2  -1 1122.17   45.80
  -1  -2   1 1046.18   43.29
  -1  -2   1 1309.42   47.63
  -1  -2   1 1405.97   45.88
   1  -2  -1 1230.80   45.76
   1  -2   0 3002.09  108.20
  -1  -2   0 3063.83  109.87
  -1  -2   0 3125.00  108.18
   1  -2   0 3030.11  108.67
  -1  -2   0 2969.90  109.33
  -1  -2  -1 9999.00  326.16
  -1  -2  -1 9396.51  326.87
   1  -2   1 9488.72  324.63
   1  -2   1 9090.93  324.81
   1  -2   1 8952.63  326.26
   1  -2   2  871.03   37.01
   1  -2   2  839.39   35.79
   1  -2   3 1035.34   45.57
  -1  -2  -3 1168.84   45.00
  -1  -2  -3 1082.35   43.93
   1  -2   3 1149.87   47.22
  -1  -2  -3  991.63   44.93
   1  -2   4    2.99    1.37
   1  -2   4    2.79    2.17
  -1  -2  -4    0.68    1.33
  -1  -2  -4    0.77    1.22
  -1  -2  -4   -0.50    1.60
  -1  -2  -5  278.90   16.98
   1  -2   5  265.63   20.11
   1  -2   5  317.73   22.40
   1  -2   5  325.81   24.87
  -1  -2  -5  272.12   22.22
  -1  -2  -5  303.91   21.18
  -1  -2  -5  276.40   24.03
   1  -2   5  281.34   21.98
  -1  -2  -5  308.11   24.87
   1  -2   5  277.35   21.17
  -1  -2  -5  313.70   23.79
   1  -2   5  301.32   20.03
   1  -2   6  400.71   28.59
   1  -2   6  421.21   30.82
  -1  -2  -6  433.22   33.69
  -1  -2  -6  411.29   28.14
  -1  -2  -6  453.02   26.45
  -1  -2  -6  471.28   32.15
  -1  -2  -6  387.22   32.59
   1  -2   6  394.26   26.46
   1  -2   6  414.00   30.09
  -1  -2  -6  397.05   21.94
  -1  -2  -6  393.76   30.40
   1  -2   7  638.01   40.57
  -1  -2  -7  539.16   32.41
   1  -2   7  633.63   40.79
  -1  -2  -7  556.99   38.13
  -1  -2  -7  598.19   40.06
  -1  -2  -7  614.69   44.25
   1  -2   7  562.65   34.50
  -1  -2  -7  606.49   44.08
   1  -2   7  630.85   38.42
  -1  -2  -7  626.48   32.81
   1  -2   8  253.67   22.59
  -1  -2  -8  260.08   24.08
   1  -2   8  278.96   25.21
  -1  -2  -8  268.72   27.39
  -1  -2  -8  298.97   24.95
   1  -2   8  293.08   24.69
   1  -2   8  283.72   21.02
  -1  -2  -8  262.63   19.02
   1  -2   9   97.56   12.32
   1  -2   9  112.78   14.10
  -1  -2  -9  124.32   17.54
  -1  -2  -9  119.88   12.07
  -1  -2  -9  127.66   15.00
   1  -2  10   74.01    8.93
   1  -2  10   86.73   10.73
  -1  -1  10  219.80   17.45
   1  -1 -10  243.78   20.23
   1  -1 -10  217.32   17.36
  -1  -1  10  219.75   17.42
  -1  -1   9   30.17    7.49
   1  -1  -9   40.92   12.74
  -1  -1   9   28.51    6.51
   1  -1  -8  139.07   14.31
   1  -1  -8  188.48   27.00
  -1  -1   8  176.38   17.93
  -1  -1   8  157.36   15.93
  -1  -1   8  160.31   16.13
   1  -1  -7  292.37   22.50
   1  -1  -7  228.28   29.41
   1  -1  -7  274.12   25.75
   1  -1  -7  295.01   21.55
  -1  -1   7  314.38   22.69
  -1  -1   7  280.52   21.81
  -1  -1   7  267.91   21.88
   1  -1  -7  288.36   28.80
  -1  -1   7  282.16   21.16
   1  -1  -7  267.62   28.93
  -1  -1   6  467.76   27.69
   1  -1  -6  477.14   27.02
   1  -1  -6  468.94   29.56
  -1  -1   6  452.71   27.62
   1  -1  -6  438.78   34.23
   1  -1  -6  445.12   35.71
  -1  -1   6  439.68   27.47
  -1  -1   6  514.13   34.78
   1  -1  -6  482.37   33.43
   1  -1  -6  454.97   34.97
  -1  -1   6  443.76   26.42
   1  -1  -6  466.62   27.78
   1  -1  -6  473.17   32.89
  -1  -1   6  487.32   30.23
  -1  -1   5   35.39    7.57
  -1  -1   5   27.30    4.60
  -1  -1   5   25.97    5.05
  -1  -1   5   40.29    7.51
  -1  -1   5   36.83    5.82
  -1  -1   5   33.81    5.38
   1  -1  -5   35.17    5.95
   1  -1  -5   32.31    7.13
   1  -1  -5   30.69    5.25
  -1  -1   4  158.61   10.44
  -1  -1   4  151.31   14.21
   1  -1  -4  115.50    9.72
  -1  -1   4  166.65   14.82
   1  -1  -4  154.97   11.34
  -1  -1   4  161.90   10.94
   1  -1  -4  156.29   14.26
   1  -1  -3  807.25   32.80
  -1  -1   3  793.69   37.83
  -1  -1   3  796.98   34.19
   1  -1  -3  819.42   33.33
   1  -1  -3  870.31   38.42
  -1  -1   3  867.19   38.23
  -1  -1   2  577.08   23.08
   1  -1  -2  481.14   19.97
  -1  -1   2  530.68   24.44
  -1  -1   2  541.56   22.77
  -1  -1   2  502.31   24.70
  -1  -1   1 1383.51   51.13
   1  -1  -1 1435.92   54.34
  -1  -1   1 1424.82   52.28
   1  -1  -1 1514.42   53.83
  -1  -1   1 1417.19   53.17
   1  -1  -1 1524.75   54.15
  -1  -1   0 3627.72  127.38
   1  -1   0 3477.73  128.78
   1  -1   0 3839.63  128.60
   1  -1   0 3547.89  128.76
  -1  -1  -1 8124.03  257.37
  -1  -1  -1 7766.77  257.68
  -1  -1  -1 8078.83  255.66
   1  -1   1 7630.59  258.59
  -1  -1  -2 4980.65  172.62
  -1  -1  -2 5061.50  172.06
   1  -1   2 5007.97  173.78
  -1  -1  -3  455.59   21.93
   1  -1   3  444.99   23.61
  -1  -1  -3  395.74   24.69
   1  -1   3  490.82   23.98
  -1  -1  -4  132.92   11.69
   1  -1   4  108.38   10.07
  -1  -1  -4  132.15   11.51
   1  -1   4  162.24   13.41
   1  -1   4  150.44   13.12
  -1  -1  -4  132.22   14.68
  -1  -1  -4  160.92   11.55
  -1  -1  -5  648.06   36.05
   1  -1   5  558.46   31.90
   1  -1   5  605.36   33.13
   1  -1   5  654.22   35.20
  -1  -1  -5  561.61   27.55
   1  -1   5  547.78   29.33
   1  -1   5  610.01   34.68
  -1  -1  -5  595.53   32.36
  -1  -1  -6  160.82   17.29
  -1  -1  -6  164.95   18.50
   1  -1   6  141.77   15.15
  -1  -1  -6  124.06   10.00
  -1  -1  -6  128.69   12.60
   1  -1   6  159.44   16.94
   1  -1   6  119.96   13.88
  -1  -1  -6  146.07   17.33
   1  -1   6  158.21   16.81
   1  -1   7  126.96   15.53
   1  -1   7  118.36   14.40
  -1  -1  -7  119.03   16.15
  -1  -1  -7  116.44   11.85
  -1  -1  -7  114.47   15.46
  -1  -1  -7  122.49   17.32
   1  -1   7  145.65   17.27
  -1  -1  -7  120.75   17.45
  -1  -1  -7  130.43   16.21
   1  -1   7  117.28   14.19
   1  -1   7  108.09   13.60
  -1  -1  -8  990.96   55.31
  -1  -1  -8 1021.09   55.88
   1  -1   8 1024.74   51.54
   1  -1   8  994.49   55.91
   1  -1   8 1010.30   52.49
  -1  -1  -8 1109.10   60.43
  -1  -1  -8  819.28   43.34
   1  -1   8 1076.83   51.43
   1  -1   9  167.57   15.45
   1  -1   9  205.75   20.02
  -1  -1  -9  182.30   21.11
  -1  -1  -9  193.12   16.63
   1  -1   9  202.84   15.99
   1  -1  10  144.27   13.10
  -1  -1 -10  109.70    9.69
   1  -1  10  145.35   12.89
   1  -1  10  136.54   14.45
   1   0 -11  137.61    8.92
   1   0 -11   68.69    7.21
  -1   0  10   32.44    5.94
  -1   0  10   47.17    7.65
   1   0 -10   50.09    8.03
   1   0 -10   42.86    7.74
  -1   0  10   44.39    6.97
  -1   0   9   85.15   11.88
  -1   0   9  103.57   12.27
   1   0  -9  112.49   18.87
   1   0  -9   95.42   11.06
  -1   0   8 1954.28   90.74
  -1   0   8 1740.06   80.07
   1   0  -8 1808.07   79.37
  -1   0   8 1569.30   72.83
  -1   0   8 1673.36   78.13
  -1   0   8 1863.06   79.07
   1   0  -7  149.11   15.79
  -1   0   7  168.33   16.46
   1   0  -7  173.91   17.36
  -1   0   7  170.35   16.20
   1   0  -7  200.56   26.15
  -1   0   7  142.26   14.77
  -1   0   7  150.86   13.40
   1   0  -7  162.77   15.74
   1   0  -7  155.27   19.14
  -1   0   6  304.28   23.17
   1   0  -6  295.66   22.48
   1   0  -6  343.89   23.20
   1   0  -6  369.76   30.27
  -1   0   6  318.35   21.45
   1   0  -6  283.05   30.29
   1   0  -6  330.79   27.02
  -1   0   6  340.81   22.45
   1   0  -6  365.77   25.17
   1   0  -6  317.85   28.82
   1   0  -6  306.68   25.06
  -1   0   6  361.09   27.27
  -1   0   6  322.58   19.49
  -1   0   5 2417.39  106.62
  -1   0   5 2528.89   97.80
  -1   0   5 2485.43   96.35
   1   0  -5 2429.91  103.32
  -1   0   5 2166.58  101.29
   1   0  -5 2548.37   99.93
  -1   0   5 2684.67   98.87
  -1   0   4 5227.35  168.16
  -1   0   4 4910.77  178.21
   1   0  -4 4642.63  173.97
  -1   0   3  128.43    9.94
  -1   0   3   97.19   10.16
   1   0  -3  126.44    8.84
   1   0  -3  110.62    9.54
  -1   0   2 1652.66   65.47
  -1   0   2 1691.63   63.62
  -1   0   2 1692.68   64.23
  -1   0   1   28.92    2.09
   1   0  -1   31.43    3.54
   1   0  -1   32.40    3.73
   1   0   0  468.68   20.31
  -1   0  -1  475.85   19.00
  -1   0  -1  487.00   19.60
  -1   0  -2  253.69   13.32
   1   0   2  228.53   12.57
  -1   0  -2  250.95   13.12
   1   0   3 2666.47   99.29
  -1   0  -3 2726.01  100.92
  -1   0  -3 2522.85   97.85
  -1   0  -4  160.30   15.94
  -1   0  -4  173.96   14.02
  -1   0  -4  180.08   19.00
   1   0   4  210.90   15.41
  -1   0  -5   41.53    7.50
  -1   0  -5   33.87    9.58
   1   0   5   38.68    7.12
   1   0   5   51.56    8.17
  -1   0  -5   45.65    7.33
   1   0   5   54.10    7.67
   1   0   6 1280.97   58.77
   1   0   6 1321.33   59.11
  -1   0  -6 1323.84   64.18
   1   0   6 1038.92   52.25
  -1   0  -6 1238.46   63.69
   1   0   6 1395.01   60.97
  -1   0  -6 1367.70   59.36
  -1   0  -6 1132.34   62.49
   1   0   6 1369.34   63.26
   1   0   6 1464.73   62.70
  -1   0  -6 1102.15   49.61
  -1   0  -7   27.82    5.66
  -1   0  -7   30.45    7.99
  -1   0  -7   22.65    7.39
   1   0   7   26.21    6.34
  -1   0  -7   29.63    7.89
   1   0   7   31.39    6.75
   1   0   7   22.34    7.22
  -1   0  -7   17.16    6.13
  -1   0  -7   29.64    7.17
  -1   0  -8  155.91   16.68
   1   0   8  143.17   15.11
   1   0   8  169.32   19.26
  -1   0  -8  125.81   17.11
  -1   0  -8  128.82   19.79
   1   0   8  168.22   18.37
   1   0   8  146.15   14.78
   1   0   8  135.96   15.59
  -1   0  -8  163.85   17.90
   1   0   9   20.58    5.03
   1   0   9   28.43    7.47
  -1   0  -9   31.11    6.65
   1   0   9   35.43    7.02
  -1   0  -9   33.05    8.03
  -1   0 -10    6.97    2.66
  -1   1  10  196.51   15.17
  -1   1  10  202.73   15.34
   1   1 -10  175.27   17.01
   1   1 -10  202.04   15.62
   1   1 -10  160.12   15.64
   1   1  -9   57.60   10.42
  -1   1   9   60.13    9.27
  -1   1   8  176.32   15.78
  -1   1   8  173.80   16.78
   1   1  -8  201.98   19.33
  -1   1   8  184.99   16.15
  -1   1   8  166.39   21.26
   1   1  -8  227.60   28.21
   1   1  -8  175.26   17.54
   1   1  -8  187.54   21.17
   1   1  -7  294.17   23.20
  -1   1   7  239.95   20.50
   1   1  -7  274.82   22.97
  -1   1   7  267.18   20.38
  -1   1   7  277.63   27.38
  -1   1   7  263.22   19.16
  -1   1   7  254.58   25.50
   1   1  -7  335.21   33.47
  -1   1   7  223.33   18.97
   1   1  -6  312.62   24.25
   1   1  -6  422.41   27.63
   1   1  -6  376.10   33.84
  -1   1   6  361.71   23.43
  -1   1   6  336.55   23.25
   1   1  -6  363.74   25.69
   1   1  -6  401.67   26.31
  -1   1   6  350.14   28.32
  -1   1   6  285.93   23.19
  -1   1   6  348.27   22.46
  -1   1   6  334.70   21.10
   1   1  -5   51.07    7.85
  -1   1   5   43.61    8.05
  -1   1   5   49.22    7.14
   1   1  -5   49.66    7.89
  -1   1   5   45.11    6.20
  -1   1   5   47.67    6.56
  -1   1   4  154.74   10.56
  -1   1   4  104.11   11.95
  -1   1   4  141.83    9.98
   1   1  -4  137.71   11.87
   1   1  -4  111.04   10.69
  -1   1   3  885.05   38.65
   1   1  -3  946.04   38.60
   1   1  -3  812.67   36.64
  -1   1   3  885.50   38.89
   1   1  -3  902.28   52.57
  -1   1   2  505.50   24.27
   1   1  -2  573.14   24.30
   1   1  -1 1393.10   52.90
   1   1  -1 1351.21   53.37
  -1   1   1 1456.80   51.07
  -1   1   1 1382.98   50.48
  -1   1   1 1507.13   52.30
   1   1  -1 1418.54   53.28
   1   1   0 3283.36  113.96
   1   1   0 3033.28  113.57
  -1   1   0 2950.70  111.39
  -1   1  -1 7958.24  257.56
  -1   1  -1 8270.98  258.33
  -1   1  -1 7440.38  255.91
   1   1   1 7919.95  260.71
  -1   1  -1 7253.43  258.34
  -1   1  -1 8449.39  260.16
   1   1   2 4355.13  148.90
   1   1   2 3995.64  144.02
  -1   1  -2 4508.30  149.07
  -1   1  -3  438.53   22.96
  -1   1  -3  508.38   25.65
  -1   1  -3  465.95   26.82
  -1   1  -3  480.97   23.07
   1   1   3  456.04   23.78
  -1   1  -4   95.24    9.44
  -1   1  -4   98.85   12.72
  -1   1  -4   84.30    9.66
  -1   1  -4  120.62   11.97
   1   1   4  126.86   11.67
  -1   1  -4   99.31   10.27
   1   1   5  531.94   30.26
   1   1   5  620.53   33.41
   1   1   5  593.97   31.25
  -1   1  -5  583.11   44.32
  -1   1  -5  594.87   33.33
   1   1   5  565.29   34.61
   1   1   6  174.42   17.96
  -1   1  -6  139.73   16.12
   1   1   6  175.14   17.03
  -1   1  -6  172.20   17.72
  -1   1  -6  148.41   11.04
  -1   1  -6  170.87   24.99
   1   1   6  131.03   11.83
  -1   1  -6  174.86   15.69
   1   1   6  160.36   15.36
  -1   1  -7  123.89   10.93
   1   1   7  114.91   13.75
   1   1   7  131.36   13.83
  -1   1  -7  129.66   15.76
   1   1   7  146.02   20.36
   1   1   7  139.04   16.87
   1   1   7  116.29   13.93
  -1   1  -7  136.28   14.77
  -1   1  -7  136.21   16.81
  -1   1  -8 1050.02   55.35
   1   1   8 1239.34   59.98
   1   1   8 1007.63   50.32
   1   1   8 1103.08   59.11
  -1   1  -8  975.58   55.25
   1   1   8  973.22   52.19
  -1   1  -8 1182.16   60.31
   1   1   9  230.95   21.18
   1   1   9  225.31   18.66
  -1   1  -9  214.14   18.74
   1   1  10  137.88   12.83
  -1   1 -10  132.31   11.32
   1   1  10  116.38    9.84
   1   2 -10   88.74   10.61
  -1   2  10   85.40    7.76
  -1   2  10   79.64    8.54
   1   2 -10   88.23   10.46
   1   2 -10   51.32    8.29
  -1   2  10   91.13   10.49
   1   2  -9  118.75   15.34
   1   2  -9  131.93   16.68
   1   2  -9  123.54   14.27
  -1   2   9  127.36   12.63
   1   2  -8  209.16   20.19
  -1   2   8  183.92   17.03
   1   2  -8  208.54   20.21
  -1   2   8  208.19   24.07
   1   2  -8  187.96   20.16
  -1   2   8  181.56   21.72
   1   2  -8  214.08   21.71
  -1   2   8  199.48   17.19
  -1   2   7  272.91   20.82
  -1   2   7  306.50   22.71
  -1   2   7  289.87   23.30
   1   2  -7  380.96   35.11
  -1   2   7  309.36   29.80
   1   2  -7  326.34   26.08
  -1   2   7  312.97   28.79
   1   2  -7  359.46   27.25
   1   2  -6  207.55   19.51
   1   2  -6  265.99   21.64
  -1   2   6  249.18   20.43
  -1   2   6  212.91   17.08
  -1   2   6  227.66   18.12
  -1   2   6  210.77   17.85
  -1   2   6  156.77   16.83
  -1   2   6  231.51   22.64
   1   2  -6  227.95   25.27
  -1   2   6  197.87   22.69
  -1   2   6  211.44   16.23
   1   2  -6  229.92   18.40
   1   2  -5 2019.63   86.82
  -1   2   5 2110.79   81.04
  -1   2   5 1991.12   82.46
  -1   2   5 1907.67   85.86
   1   2  -5 2048.74  111.78
   1   2  -5 1853.14   81.73
   1   2  -4 1053.69   45.89
   1   2  -4 1107.51   65.75
  -1   2   4  958.06   39.46
  -1   2   4 1044.03   42.73
  -1   2   4  987.33   45.64
  -1   2   4 1047.30   40.49
  -1   2   3 2661.62   90.42
  -1   2   3 2441.98   92.35
   1   2  -3 2445.50   90.20
  -1   2   3 2548.12   96.42
  -1   2   2 1834.76   66.16
   1   2  -2 2019.40   85.88
   1   2  -2 1845.24   69.79
   1   2  -1 1358.34   50.62
   1   2  -1 1514.99   60.82
  -1   2   1 1380.42   48.81
  -1   2   1 1397.34   51.29
  -1   2   0 2959.95  102.39
   1   2   0 2870.41  101.75
   1   2   0 2922.96  101.36
   1   2   0 2884.99  101.87
  -1   2   0 2907.04  101.37
   1   2   0 2646.97   99.62
   1   2   1 9921.60  332.82
  -1   2  -1 8885.18  331.90
   1   2   1 9902.70  332.48
  -1   2  -1 9605.59  331.77
   1   2   2  762.30   29.73
  -1   2  -3 1352.09   55.74
  -1   2  -3 1201.90   49.64
  -1   2  -3 1229.88   51.84
  -1   2  -3 1298.84   48.94
   1   2   4    0.21    1.03
  -1   2  -4    6.36    2.80
   1   2   4    4.07    2.82
  -1   2  -4   -0.90    2.33
  -1   2  -4    1.70    2.33
  -1   2  -4   -0.43    1.86
  -1   2  -4    1.75    1.44
  -1   2  -5  216.74   24.18
   1   2   5  295.97   20.63
   1   2   5  314.35   22.51
   1   2   5  334.28   20.96
   1   2   5  320.12   24.35
  -1   2  -5  288.24   17.12
  -1   2  -5  308.67   21.93
  -1   2  -5  359.89   34.42
  -1   2  -5  267.50   21.64
   1   2   6  385.84   26.95
   1   2   6  387.31   29.71
  -1   2  -6  363.91   27.89
  -1   2  -6  410.47   41.39
   1   2   6  375.35   25.37
   1   2   6  381.59   25.07
   1   2   6  322.49   20.14
  -1   2  -6  374.08   27.77
  -1   2  -6  399.97   25.50
   1   2   7  562.48   34.51
  -1   2  -7  565.73   36.64
   1   2   7  574.41   33.93
   1   2   7  530.45   31.23
   1   2   7  551.06   38.20
  -1   2  -7  601.59   54.31
   1   2   7  579.28   38.39
  -1   2  -7  566.61   37.74
  -1   2  -7  533.66   32.73
  -1   2  -8  269.11   22.61
   1   2   8  250.37   20.53
   1   2   8  272.23   18.92
   1   2   8  253.73   24.11
   1   2   8  252.82   27.31
   1   2   8  311.07   25.45
  -1   2  -8  285.47   25.34
   1   2   9  105.44   13.34
   1   2   9   90.92   11.57
  -1   2  -9   78.21    8.36
   1   2   9   87.06   10.96
   1   2  10   79.46   10.40
   1   2  10   74.25    7.59
  -1   2 -10   80.32    8.64
  -1   2 -10   66.62    7.93
   1   3 -10   25.41    4.66
  -1   3  10   32.99    5.04
  -1   3  10   29.11    4.14
   1   3 -10   41.32    6.84
   1   3 -10   15.29    3.82
  -1   3   9  352.18   22.97
   1   3  -9  362.21   26.89
   1   3  -9  376.54   27.51
   1   3  -9  301.73   24.00
   1   3  -8  147.12   15.69
  -1   3   8  108.68   13.22
  -1   3   8  115.86   16.90
   1   3  -8  134.15   16.62
  -1   3   8  149.52   14.56
  -1   3   8  142.27   18.44
   1   3  -7   49.83    7.77
   1   3  -7   50.60   10.40
   1   3  -7   47.73    9.85
  -1   3   7   42.52    7.67
  -1   3   7   42.05   10.62
  -1   3   7   36.62    7.69
  -1   3   7   63.79   13.82
   1   3  -7   53.32    9.62
   1   3  -7   38.22    8.75
   1   3  -6  958.99   48.73
  -1   3   6 1085.44   58.93
   1   3  -6 1075.45   55.15
   1   3  -6 1129.70   56.94
  -1   3   6 1014.12   50.64
   1   3  -6  877.95   51.11
  -1   3   6  957.50   49.64
  -1   3   6 1217.84   54.00
   1   3  -5  193.37   17.70
   1   3  -5  139.82   14.95
  -1   3   5  189.93   18.98
  -1   3   5  160.45   14.04
   1   3  -5  146.14   15.04
  -1   3   5  144.39   15.20
  -1   3   4  150.13   13.77
   1   3  -4  123.58   16.10
  -1   3   4  152.05   12.05
  -1   3   4  137.16   14.05
   1   3  -3 1041.27   57.47
   1   3  -3 1416.94   74.25
  -1   3   3 1159.37   52.79
   1   3  -3 1451.19   55.61
  -1   3   3 1227.00   54.50
   1   3  -3 1238.51   51.15
  -1   3   3 1214.65   49.88
   1   3  -2  842.20   36.48
   1   3  -2  990.53   54.04
  -1   3   2  928.03   39.92
   1   3  -2 1001.21   40.84
   1   3  -2  857.98   36.99
   1   3  -1  219.82   11.48
  -1   3   1  243.74   14.21
   1   3  -1  221.45   19.27
  -1   3   1  213.75   13.64
   1   3   0  127.32    7.95
  -1   3   0  162.04   10.59
   1   3   0  164.98   12.17
  -1   3   0  161.58    9.51
   1   3   1 3487.26  128.16
   1   3   1 3537.11  128.26
   1   3   1 3892.50  129.82
  -1   3  -1 3625.16  130.44
  -1   3  -1 3624.34  128.72
   1   3   1 3393.97  128.11
  -1   3  -2 1062.98   42.37
   1   3   2  958.76   41.54
   1   3   2 1045.77   41.06
  -1   3  -2  943.16   40.89
   1   3   2 1023.17   43.55
  -1   3  -3 1596.43   70.20
  -1   3  -3 1978.67   70.42
   1   3   3 1706.72   71.50
  -1   3  -3 2054.65   79.38
  -1   3  -3 1953.14   73.10
  -1   3  -3 1711.38   68.72
   1   3   3 1703.40   67.29
  -1   3  -4 1115.17   46.05
  -1   3  -4 1142.16   47.76
  -1   3  -4 1156.50   58.31
  -1   3  -4 1101.69   51.47
   1   3   4 1021.76   43.72
  -1   3  -5  109.89   13.87
   1   3   5  125.56   11.67
  -1   3  -5  151.34   19.28
   1   3   5   96.36   12.09
  -1   3  -5  131.30   13.72
  -1   3  -5  111.76    9.82
  -1   3  -5  127.50   13.27
   1   3   5  103.40   11.77
   1   3   5  141.87   17.69
   1   3   5  125.88   15.06
  -1   3  -6   89.73   12.36
   1   3   6   82.35   13.24
   1   3   6   98.99   13.55
  -1   3  -6   73.65   17.96
   1   3   6   93.67   11.88
  -1   3  -6   95.96   11.12
  -1   3  -6   82.66   16.19
  -1   3  -6   93.98   12.80
   1   3   6   93.45   11.11
   1   3   6   85.05   11.44
  -1   3  -7 1210.27   59.83
   1   3   7 1069.24   53.57
   1   3   7 1175.75   60.85
  -1   3  -7 1037.07   55.36
   1   3   7 1214.71   61.59
  -1   3  -7 1175.11   60.76
  -1   3  -7 1141.45   53.92
  -1   3  -7 1106.42   82.26
  -1   3  -8   65.05   11.06
  -1   3  -8   57.32    7.12
   1   3   8   59.71   10.86
   1   3   8   60.72    8.82
   1   3   8   70.90   11.52
   1   3   8   47.72   12.25
   1   3   8   67.76    9.06
  -1   3  -9    4.46    2.25
  -1   3  -9    9.55    3.93
   1   3   9    7.79    3.51
   1   3   9    6.05    3.15
   1   3  10   25.34    4.27
  -1   3 -10   28.14    4.04
   1   3  10   18.10    3.89
  -1   4  10   67.76    6.51
   1   4 -10   57.23    6.63
   1   4 -10   52.54    6.80
   1   4  -9   85.48   11.53
  -1   4   9   85.38   10.14
   1   4  -9   68.04    8.71
  -1   4   9   96.24   10.23
  -1   4   9  110.25   10.59
   1   4  -8  702.79   42.83
   1   4  -8  707.46   41.62
  -1   4   8  750.68   38.51
   1   4  -8  619.72   34.76
  -1   4   8  713.72   45.53
  -1   4   7  217.45   17.37
   1   4  -7  255.45   24.37
   1   4  -7  219.21   18.84
   1   4  -7  212.58   20.74
  -1   4   7  177.67   17.31
   1   4  -7  237.55   22.37
  -1   4   7  194.18   18.98
  -1   4   7  176.45   22.91
  -1   4   7  225.46   18.61
  -1   4   7  226.60   24.27
   1   4  -7  190.88   19.36
  -1   4   6  785.78   40.48
   1   4  -6  790.65   46.74
  -1   4   6  716.88   37.39
   1   4  -6  641.45   41.60
   1   4  -6  676.75   40.76
  -1   4   6  672.92   40.04
   1   4  -6  717.07   40.47
  -1   4   6  767.71   41.21
  -1   4   6  775.74   48.26
   1   4  -6  709.26   38.67
   1   4  -5  821.22   41.23
   1   4  -5  686.98   40.61
  -1   4   5  663.11   39.26
   1   4  -5  785.68   39.94
   1   4  -5  700.37   38.95
  -1   4   5  784.00   44.44
  -1   4   5  714.79   39.81
  -1   4   5  747.31   36.54
   1   4  -5  759.16   63.64
   1   4  -4 1050.18   53.77
   1   4  -4 1352.32   58.84
  -1   4   4 1192.78   57.66
  -1   4   4 1203.85   58.43
   1   4  -4 1123.16   63.20
  -1   4   4 1329.30   54.71
   1   4  -4 1378.73   82.85
   1   4  -4 1102.50   51.49
  -1   4   4 1286.66   55.78
  -1   4   4 1181.19   54.47
  -1   4   4 1062.99   50.63
   1   4  -3  389.96   23.50
   1   4  -3  302.51   18.15
   1   4  -3  304.04   17.76
  -1   4   3  312.35   22.27
   1   4  -3  301.76   24.97
  -1   4   3  369.19   20.93
  -1   4   3  300.50   20.48
   1   4  -3  398.02   37.18
  -1   4   3  301.94   20.48
   1   4  -2  440.98   28.07
  -1   4   2  467.47   23.82
   1   4  -2  506.31   38.39
   1   4  -2  434.54   20.95
   1   4  -2  437.05   21.48
  -1   4   2  515.36   26.71
  -1   4   1  271.47   16.89
   1   4  -1  223.58   21.92
  -1   4   1  247.03   14.76
   1   4  -1  258.66   14.55
  -1   4   1  290.95   17.68
   1   4  -1  249.79   20.73
  -1   4   0  467.30   21.46
  -1   4   0  546.44   26.67
   1   4   0  535.29   29.46
  -1   4   0  579.11   25.97
   1   4   0  501.75   31.55
  -1   4   0  505.20   26.57
  -1   4   0  559.97   25.89
  -1   4   0  470.09   23.54
  -1   4  -1  393.90   19.92
  -1   4  -1  398.03   19.15
   1   4   1  338.97   16.41
   1   4   1  313.52   16.38
   1   4   1  371.24   19.66
  -1   4  -1  373.62   19.71
  -1   4  -2 3364.60  117.59
   1   4   2 3000.35  113.76
  -1   4  -2 3616.81  115.70
   1   4   2 2762.57  118.20
   1   4   2 3143.27  117.73
  -1   4  -2 2758.54  114.92
  -1   4  -3 1464.61   63.29
   1   4   3 1389.83   60.80
   1   4   3 1388.26   61.03
  -1   4  -3 1492.69   59.63
  -1   4  -3 1473.12   59.45
   1   4   3 1533.13   60.49
  -1   4  -4  127.20   12.77
   1   4   4  140.86   13.50
   1   4   4  137.46   12.89
   1   4   4  118.40   12.40
  -1   4  -4  130.81   13.68
  -1   4  -4  120.27   13.66
   1   4   4  113.35   10.03
  -1   4  -4  149.85   17.66
  -1   4  -4  129.37   10.80
  -1   4  -4  143.02   11.61
  -1   4  -5   86.22   11.44
   1   4   5   89.75   11.39
   1   4   5   77.13   10.94
   1   4   5  115.75   10.78
   1   4   5  103.78   13.94
   1   4   5   74.02   10.60
  -1   4  -5   98.73   13.36
   1   4   5   91.84   10.67
   1   4   5  122.33   16.63
  -1   4  -5   80.31    8.68
  -1   4  -5   88.16   15.66
   1   4   5  108.49   12.15
  -1   4  -5  102.74   13.07
  -1   4  -6  803.46   47.37
   1   4   6  879.59   49.98
  -1   4  -6  793.20   45.24
  -1   4  -6  873.26   46.90
   1   4   6  732.77   39.42
  -1   4  -6  936.73   70.55
   1   4   6  841.68   46.18
  -1   4  -6  670.25   53.11
  -1   4  -6  819.33   40.51
  -1   4  -7  568.83   35.69
   1   4   7  466.70   32.75
   1   4   7  474.39   28.48
   1   4   7  487.89   33.73
  -1   4  -7  497.20   34.24
  -1   4  -7  473.68   28.43
   1   4   7  512.73   36.06
  -1   4  -7  495.35   51.46
  -1   4  -7  480.92   27.98
  -1   4  -8  165.70   14.94
   1   4   8  143.33   15.59
  -1   4  -8  156.96   16.75
  -1   4  -8  138.07   12.21
   1   4   8  156.86   16.78
  -1   4  -9   81.96    8.63
   1   4   9   86.13   11.18
  -1   4  -9  107.17   10.52
   1   4   9  117.26   11.44
   1   4  10   29.13    3.98
   1   5 -10  288.00   15.15
   1   5  -9    7.97    3.38
  -1   5   9    3.98    2.19
   1   5  -9    2.38    2.32
  -1   5   9    4.24    3.55
  -1   5   8   31.19    6.49
   1   5  -8   39.04    6.34
  -1   5   8   31.26    6.00
   1   5  -8   38.10    8.10
  -1   5   8   35.26    8.89
   1   5  -7  172.60   15.60
   1   5  -7  204.90   18.36
  -1   5   7  174.15   15.52
  -1   5   7  162.75   15.41
  -1   5   7  190.03   21.90
  -1   5   7  192.48   17.19
  -1   5   7  174.28   22.01
   1   5  -7  176.94   18.62
  -1   5   6   15.44    4.59
  -1   5   6   14.82    4.56
  -1   5   6   14.52    5.08
   1   5  -6   11.71    4.92
  -1   5   6   17.52    7.22
   1   5  -6   18.10    5.46
   1   5  -6    9.98    4.73
   1   5  -6   18.23   11.15
  -1   5   6   15.33    4.72
  -1   5   5  688.17   43.79
  -1   5   5  686.77   36.24
   1   5  -5  685.30   40.00
   1   5  -5  652.87   39.32
  -1   5   5  669.04   38.84
   1   5  -5  740.83   65.37
  -1   5   5  574.82   36.22
  -1   5   5  700.03   39.11
  -1   5   5  668.17   42.58
  -1   5   5  811.04   40.50
   1   5  -5  787.84   41.23
  -1   5   4  136.82   16.00
   1   5  -4  119.96   10.58
  -1   5   4  141.75   13.96
  -1   5   4  111.16   12.78
  -1   5   4  132.90   13.44
  -1   5   4  126.92   13.43
   1   5  -4  103.37   12.09
   1   5  -4  104.79   12.79
   1   5  -4  108.43   16.74
   1   5  -4  153.77   26.24
  -1   5   4  141.97   16.04
   1   5  -4  144.66   14.69
  -1   5   3  696.29   38.47
   1   5  -3  597.62   39.83
  -1   5   3  638.90   34.59
  -1   5   3  595.17   33.32
  -1   5   3  622.35   33.34
   1   5  -3  711.03   36.09
   1   5  -3  613.85   34.42
   1   5  -3  556.12   29.45
   1   5  -2 1656.26   86.05
  -1   5   2 1547.35   66.58
   1   5  -2 1499.76   69.23
  -1   5   2 1693.17   65.90
  -1   5   2 1419.33   62.04
   1   5  -2 1387.00   60.03
   1   5  -1   73.69    7.96
  -1   5   1  100.21   10.16
  -1   5   1   65.70    7.15
   1   5  -1   85.77   10.01
   1   5  -1   81.85   12.52
  -1   5   1   76.93    9.32
  -1   5   1  100.13   10.10
  -1   5   1   84.11    9.98
   1   5  -1   54.04   11.47
  -1   5   0  968.55   43.47
  -1   5   0 1106.57   47.18
   1   5   0 1034.89   51.30
  -1   5   0  958.87   47.68
  -1   5   0 1042.11   46.66
   1   5   0 1073.14   56.20
  -1   5   0 1115.58   48.86
  -1   5  -1  345.81   18.94
   1   5   1  318.38   20.12
  -1   5  -1  348.02   21.51
  -1   5  -1  358.15   20.24
  -1   5  -1  367.17   21.89
  -1   5  -1  375.84   22.01
  -1   5  -2 1609.15   64.29
  -1   5  -2 1564.83   66.75
   1   5   2 1526.56   65.77
  -1   5  -2 1509.31   66.17
   1   5   3   36.34    5.94
  -1   5  -3   42.03    5.70
  -1   5  -3   29.65    6.45
   1   5   3   38.73    7.68
  -1   5  -3   41.75    6.85
   1   5   4  582.73   31.47
  -1   5  -4  614.44   33.25
  -1   5  -4  503.10   30.82
   1   5   4  535.76   31.88
  -1   5  -4  480.03   26.75
  -1   5  -4  540.15   32.63
   1   5   4  488.85   35.07
  -1   5  -5  517.26   32.85
  -1   5  -5  517.45   33.33
   1   5   5  529.24   32.40
  -1   5  -5  450.38   39.62
  -1   5  -5  470.23   34.53
   1   5   5  530.58   31.59
   1   5   5  504.37   35.85
   1   5   5  587.13   40.69
   1   5   5  515.73   30.81
  -1   5  -5  521.42   34.45
  -1   5  -6   52.13   10.14
  -1   5  -6   71.38   11.43
  -1   5  -6   28.85   11.14
   1   5   6   57.44    9.50
  -1   5  -6   70.18   11.30
   1   5   6   58.08    9.56
  -1   5  -6   57.53   17.15
   1   5   6   62.30   11.54
  -1   5  -7   70.19   11.37
  -1   5  -7   75.06   11.39
  -1   5  -7   65.50   17.48
  -1   5  -7   56.74    9.43
  -1   5  -7   60.27    8.79
   1   5   7   86.38   13.44
   1   5   8  571.50   33.80
  -1   5  -8  513.03   27.67
  -1   5  -8  534.57   30.67
  -1   5  -9  148.97   11.25
   1   5   9  167.57   12.55
   1   6  -9  276.96   15.80
   1   6  -8  520.49   31.31
   1   6  -8  450.15   26.44
  -1   6   8  464.15   24.65
  -1   6   8  505.99   28.21
   1   6  -8  477.72   28.45
  -1   6   8  492.00   32.93
  -1   6   7  270.02   25.70
   1   6  -7  243.14   19.21
  -1   6   7  231.61   18.71
  -1   6   7  196.35   17.36
   1   6  -7  231.54   20.24
  -1   6   7  247.62   18.73
   1   6  -7  222.78   19.64
  -1   6   6   47.11    8.89
   1   6  -6   52.88    9.73
   1   6  -6   54.32    9.53
   1   6  -6   42.77    8.81
  -1   6   6   70.25   13.71
  -1   6   6   47.07    7.86
   1   6  -6   76.35   19.87
  -1   6   6   51.17    8.66
  -1   6   6   43.36    8.00
   1   6  -5  826.27   46.14
   1   6  -5  742.00   42.70
   1   6  -5  742.79   44.61
  -1   6   5  788.77   43.82
  -1   6   5  773.84   43.52
  -1   6   5  789.52   41.45
   1   6  -5  897.08   73.57
  -1   6   5  819.81   42.42
  -1   6   5  783.18   49.31
   1   6  -4  688.41   40.88
   1   6  -4  673.38   38.45
   1   6  -4  685.38   40.78
  -1   6   4  762.87   40.96
   1   6  -4  579.92   45.71
   1   6  -4  743.70   63.60
  -1   6   4  761.53   46.16
  -1   6   4  666.11   39.29
  -1   6   4  723.96   39.26
   1   6  -3   54.32    9.24
  -1   6   3   80.37   10.97
  -1   6   3   73.84    8.53
   1   6  -3   76.71   18.48
   1   6  -3   58.67    8.52
   1   6  -3   63.78   12.25
   1   6  -3   74.61    9.67
  -1   6   3   69.96   11.97
   1   6  -3   72.08    8.40
  -1   6   3   65.39    7.27
  -1   6   3   59.78    8.84
  -1   6   3   75.80   10.34
   1   6  -2   14.92    3.82
   1   6  -2   13.51    3.73
   1   6  -2   15.73    4.27
   1   6  -2   16.52    4.89
  -1   6   2   10.25    3.94
   1   6  -2   11.18    3.76
   1   6  -2   11.02    4.33
  -1   6   2   13.99    3.40
   1   6  -2    3.80    4.28
   1   6  -2   11.87    4.21
  -1   6   2   12.34    4.02
  -1   6   2   14.50    3.63
   1   6  -1 1525.17   69.04
  -1   6   1 1578.21   71.28
   1   6  -1 1661.71   70.74
  -1   6   1 1579.89   69.71
   1   6  -1 1709.62   68.25
   1   6  -1 1520.74   81.62
  -1   6   1 1533.90   63.65
  -1   6   1 1654.28   69.70
   1   6  -1 1684.38   70.11
  -1   6   1 1531.93   70.60
   1   6  -1 1649.38   69.80
   1   6  -1 1556.99   66.67
   1   6  -1 1455.15   78.50
   1   6  -1 1458.14   67.57
   1   6   0  272.25   20.53
  -1   6   0  316.41   22.06
   1   6   0  298.20   21.90
   1   6   0  280.24   20.36
  -1   6   0  292.10   18.47
   1   6   0  269.54   26.96
   1   6   0  281.75   19.91
   1   6   0  340.48   22.64
  -1   6   0  317.17   21.90
  -1   6  -1  329.47   20.51
   1   6   1  346.60   23.85
  -1   6  -1  315.09   20.65
   1   6   1  371.37   23.28
   1   6   1  271.18   20.20
  -1   6  -1  315.01   23.24
   1   6   1  286.29   20.17
  -1   6  -1  315.89   22.85
   1   6   1  326.20   21.58
   1   6   1  327.41   22.63
  -1   6  -1  335.06   23.05
   1   6   2  211.88   16.40
  -1   6  -2  206.83   15.71
  -1   6  -2  168.20   15.20
   1   6   2  236.70   18.44
  -1   6  -2  173.65   17.43
   1   6   2  230.21   20.37
   1   6   2  178.32   17.15
  -1   6  -2  191.05   15.40
   1   6   2  183.80   16.08
  -1   6  -3  492.73   29.91
  -1   6  -3  490.80   29.54
  -1   6  -3  455.77   24.85
   1   6   3  464.07   33.69
  -1   6  -3  529.92   30.87
  -1   6  -3  546.24   32.99
   1   6   3  498.74   28.35
  -1   6  -4   74.74   10.42
  -1   6  -4   56.35    8.82
  -1   6  -4   57.15    9.57
  -1   6  -4   66.39    9.99
   1   6   4   56.92    8.69
   1   6   4   68.97   10.48
  -1   6  -4   59.63   10.98
   1   6   4   60.58   11.67
  -1   6  -4   58.06    9.80
  -1   6  -5  234.38   21.70
  -1   6  -5  218.36   20.39
  -1   6  -5  228.33   19.27
  -1   6  -5  252.47   21.90
  -1   6  -5  224.88   20.15
   1   6   5  261.23   21.36
   1   6   5  232.50   19.24
   1   6   5  233.15   23.33
   1   6   5  238.15   19.65
   1   6   5  271.08   27.16
  -1   6  -6  106.45   13.55
   1   6   6   92.75   12.16
   1   6   6   67.20    9.94
  -1   6  -6   69.74   15.67
  -1   6  -6   94.25   11.66
  -1   6  -6  108.49   22.72
   1   6   6   95.76   14.30
  -1   6  -7  166.07   15.81
   1   6   7  158.53   17.18
  -1   6  -7  141.38   13.86
  -1   6  -8   19.94    4.28
  -1   6  -8   20.68    4.96
   1   6   8   20.15    5.08
  -1   6  -9    4.31    1.32
   1   6   9    1.30    1.34
  -1   6  -9    4.69    1.99
   1   7  -9   13.72    3.02
   1   7  -8   70.05    7.65
   1   7  -8   76.87    9.45
  -1   7   8   65.98    9.74
  -1   7   7  138.55   13.04
   1   7  -7  125.88   12.14
   1   7  -7  146.02   15.55
   1   7  -7  126.27   12.80
  -1   7   7  160.72   18.23
   1   7  -7  132.67   13.98
   1   7  -6  141.00   16.60
   1   7  -6  126.56   14.92
   1   7  -6  153.43   16.78
  -1   7   6  147.32   14.63
  -1   7   6  120.02   14.43
   1   7  -6  130.59   13.65
  -1   7   6  139.57   13.85
  -1   7   6  147.71   19.44
  -1   7   6  123.70   13.44
  -1   7   5   49.93   11.08
   1   7  -5   59.14   10.76
  -1   7   5   63.83    9.85
  -1   7   5   80.94   12.29
   1   7  -5   66.27    9.54
   1   7  -5   63.48   11.01
  -1   7   5   45.09   10.44
   1   7  -5   68.48   11.66
  -1   7   5   51.60    9.34
  -1   7   5   59.08    9.79
   1   7  -5   67.74   18.43
  -1   7   4  375.02   28.84
   1   7  -4  378.78   45.96
   1   7  -4  409.95   30.39
   1   7  -4  316.59   32.22
   1   7  -4  403.61   25.89
  -1   7   4  409.86   25.45
  -1   7   4  406.33   28.65
   1   7  -4  422.30   29.81
  -1   7   4  338.78   30.97
  -1   7   4  379.90   28.57
  -1   7   4  452.95   33.60
  -1   7   4  397.18   26.58
  -1   7   3  858.44   42.26
  -1   7   3  779.71   40.66
  -1   7   3  812.30   44.70
   1   7  -3  734.41   49.41
   1   7  -3  895.63   67.88
   1   7  -3  820.97   46.06
  -1   7   3  811.08   50.10
   1   7  -3  760.83   43.54
  -1   7   3  756.36   44.93
   1   7  -3  792.65   43.06
  -1   7   3  765.90   47.90
   1   7  -2   33.23    7.54
   1   7  -2   54.51    9.42
  -1   7   2   37.59    6.72
   1   7  -2   44.79   12.44
   1   7  -2   29.03    7.08
   1   7  -2   43.69    7.30
  -1   7   2   36.36    8.38
   1   7  -2   41.82    7.11
  -1   7   2   39.07    6.50
   1   7  -2   39.86    7.78
  -1   7   2   27.60    5.00
  -1   7   2   40.06    8.48
   1   7  -2   34.59    7.73
  -1   7   2   33.44    6.78
   1   7  -1  487.89   29.16
  -1   7   1  500.26   30.32
   1   7  -1  465.23   30.36
  -1   7   1  408.25   26.13
   1   7  -1  440.93   30.15
  -1   7   1  482.26   31.90
   1   7  -1  471.13   31.18
   1   7  -1  500.28   30.28
   1   7  -1  408.65   36.38
  -1   7   1  492.83   31.75
   1   7  -1  472.85   30.85
   1   7   0   68.12   10.07
  -1   7   0   85.24   12.00
   1   7   0   74.09    9.31
   1   7   0   95.29   12.38
   1   7   0   85.13   16.13
   1   7   0   91.12   10.62
  -1   7   0   88.74    9.96
  -1   7   0   93.64   10.60
  -1   7   0   93.94   12.97
   1   7   0   90.50   11.45
   1   7   1 1311.78   60.67
   1   7   1 1210.09   62.76
   1   7   1 1182.71   57.59
  -1   7  -1 1383.33   63.03
  -1   7  -1 1219.63   57.38
   1   7   1 1287.88   59.34
   1   7   1 1156.99   56.39
   1   7   1 1327.64   62.00
   1   7   1 1208.10   73.58
  -1   7  -1 1228.64   62.31
  -1   7  -1 1320.24   62.45
  -1   7  -1 1185.61   56.21
  -1   7  -2   89.21   11.37
  -1   7  -2   83.89   10.81
  -1   7  -2  118.45   13.43
   1   7   2   91.13   11.12
  -1   7  -2  109.71   14.51
   1   7   2   93.97   12.84
   1   7   2   92.13   13.67
  -1   7  -2  103.13   13.56
   1   7   2  101.11   11.85
   1   7   2  116.05   13.36
   1   7   3  117.69   16.25
  -1   7  -3  120.30   14.89
  -1   7  -3  124.59   14.05
   1   7   3  128.44   14.63
   1   7   3  138.11   12.52
  -1   7  -3  132.58   15.76
  -1   7  -3  129.31   18.62
  -1   7  -3  113.94   13.28
  -1   7  -3  112.89   13.00
  -1   7  -4  448.10   28.64
  -1   7  -4  396.91   28.42
  -1   7  -4  395.65   28.58
   1   7   4  418.25   26.29
   1   7   4  400.19   32.74
  -1   7  -4  455.32   38.51
  -1   7  -4  436.76   29.22
  -1   7  -4  394.20   30.79
  -1   7  -4  399.29   29.75
  -1   7  -5  418.84   29.68
  -1   7  -5  413.70   29.78
  -1   7  -5  387.16   29.13
  -1   7  -5  427.48   29.90
   1   7   5  420.60   29.13
   1   7   5  434.89   28.08
  -1   7  -5  390.36   37.51
  -1   7  -5  426.56   48.57
   1   7   5  447.47   32.95
   1   7   5  441.38   27.53
   1   7   5  458.00   36.36
  -1   7  -6   41.84    8.25
   1   7   6   17.64    6.83
   1   7   6   35.71    8.21
  -1   7  -6   43.22    7.74
  -1   7  -7  211.48   16.68
   1   7   7  217.99   18.66
   1   7   7  226.99   23.99
  -1   7  -8  315.47   18.44
   1   7   8  292.64   17.94
  -1   7  -8  322.91   18.27
   1   8  -8  118.67    9.88
  -1   8   8  111.31   10.08
   1   8  -7   93.62   10.31
  -1   8   7   84.43    8.99
   1   8  -7  102.39   11.12
   1   8  -7   85.68    9.42
  -1   8   7  106.11   13.06
   1   8  -7   92.36    9.43
  -1   8   7   94.70    9.50
   1   8  -6   16.24    5.08
  -1   8   6   19.52    5.12
   1   8  -6   14.07    4.50
  -1   8   6   18.71    4.57
   1   8  -6   19.12    5.46
   1   8  -6   12.57    4.48
  -1   8   6   21.69    7.12
   1   8  -5   86.93   12.71
  -1   8   5   98.22   12.04
   1   8  -5  101.91   13.70
   1   8  -5   84.12   12.21
  -1   8   5   98.00   11.04
   1   8  -5   93.00   12.14
  -1   8   5   71.27   10.95
   1   8  -4  457.59   28.28
  -1   8   4  457.40   27.96
  -1   8   4  477.08   30.18
   1   8  -4  489.36   48.41
  -1   8   4  434.63   34.18
   1   8  -4  462.92   31.54
  -1   8   4  489.71   37.56
  -1   8   4  433.00   31.53
   1   8  -4  460.76   31.42
  -1   8   3  100.40   16.00
  -1   8   3   97.40   14.76
   1   8  -3   87.84   12.90
  -1   8   3   87.56   13.14
  -1   8   3   73.93   10.49
  -1   8   3   79.84   10.96
   1   8  -3   86.24   12.38
   1   8  -3   85.81   12.24
  -1   8   3   91.84   11.75
   1   8  -3   86.89   12.99
   1   8  -3   81.84   11.65
   1   8  -2  339.49   24.37
  -1   8   2  367.07   26.90
   1   8  -2  330.81   26.78
   1   8  -2  353.29   26.20
   1   8  -2  364.91   28.12
  -1   8   2  383.08   25.75
  -1   8   2  346.18   29.82
   1   8  -2  382.50   27.85
  -1   8   2  397.99   33.39
   1   8  -2  388.69   28.75
   1   8  -1  238.08   21.76
  -1   8   1  277.19   23.40
  -1   8   1  264.20   24.25
   1   8  -1  279.42   23.38
   1   8  -1  295.17   23.93
  -1   8   1  271.99   21.32
   1   8   0  172.92   17.24
  -1   8   0  168.54   15.62
  -1   8   0  185.12   16.69
  -1   8   0  184.29   19.01
   1   8   0  152.81   15.00
  -1   8   0  152.48   15.34
   1   8   0  141.73   22.42
  -1   8   0  146.64   17.61
   1   8   0  182.57   18.34
  -1   8   0  133.26   17.34
  -1   8  -1  252.69   20.09
   1   8   1  252.25   20.90
   1   8   1  249.49   22.24
  -1   8  -1  231.06   20.07
   1   8   1  241.59   23.60
   1   8   1  193.43   27.14
  -1   8  -1  250.99   23.20
  -1   8  -1  265.53   20.83
  -1   8  -2  364.50   25.40
  -1   8  -2  374.02   26.55
   1   8   2  362.35   26.40
  -1   8  -2  369.66   32.37
  -1   8  -2  335.85   25.88
   1   8   2  331.81   29.08
   1   8   2  325.62   36.28
  -1   8  -2  358.56   28.43
   1   8   2  356.91   24.70
   1   8   3   44.69   10.20
  -1   8  -3   59.29    9.72
  -1   8  -3   50.94    9.23
   1   8   3   59.96   10.07
  -1   8  -3   58.23   10.00
  -1   8  -3   52.12   12.20
  -1   8  -3   47.65    9.64
   1   8   3   80.57   17.87
   1   8   4  290.60   27.18
   1   8   4  294.12   19.78
  -1   8  -4  324.54   24.15
  -1   8  -4  358.44   25.84
  -1   8  -4  304.73   31.29
  -1   8  -4  329.55   27.15
   1   8   4  302.58   34.66
  -1   8  -4  247.40   22.55
  -1   8  -5  187.90   17.16
  -1   8  -5  187.54   17.78
  -1   8  -5  161.22   13.62
   1   8   5  180.12   16.14
  -1   8  -5  165.15   22.62
  -1   8  -5  192.12   16.31
   1   8   5  208.29   20.32
   1   8   5  185.63   21.33
   1   8   5  180.40   17.12
   1   8   6   35.12    8.70
  -1   8  -6   36.29    7.17
   1   8   6   51.57    8.91
  -1   8  -6   44.67    7.00
   1   8   6   55.06   12.44
  -1   8  -6   40.26    7.29
  -1   8  -7  223.73   15.64
   1   8   7  197.15   19.97
  -1   8  -7  227.44   14.56
   1   8   7  240.52   19.49
  -1   9   7   51.39    6.92
   1   9  -7   24.89    3.43
  -1   9   6  326.87   24.30
   1   9  -6  295.19   19.66
  -1   9   6  288.67   18.87
  -1   9   6  266.38   16.57
   1   9  -6  264.61   17.06
   1   9  -6  268.86   18.75
  -1   9   5   12.60    4.32
   1   9  -5   15.51    4.35
   1   9  -5    7.79    3.93
   1   9  -5   16.34    4.77
  -1   9   5    9.82    3.23
  -1   9   4  223.24   23.14
  -1   9   4  198.96   15.25
   1   9  -4  220.99   20.31
  -1   9   4  226.94   18.78
   1   9  -4  211.38   18.60
   1   9  -4  188.75   17.63
   1   9  -3   87.38   12.98
   1   9  -3   80.30   12.32
  -1   9   3   83.45   11.37
   1   9  -3   82.54   11.67
  -1   9   3   99.97   15.90
  -1   9   2  948.62   56.06
  -1   9   2  792.03   46.16
  -1   9   2  877.81   45.51
  -1   9   2  818.09   43.40
   1   9  -2  886.42   47.26
  -1   9   2  814.62   49.75
   1   9  -2  844.19   46.69
   1   9  -2  894.29   48.47
  -1   9   2  793.89   54.13
  -1   9   1  103.50   14.73
   1   9  -1  143.81   15.92
  -1   9   1  122.58   14.13
   1   9  -1  135.06   15.56
   1   9  -1  140.65   16.15
   1   9   0   90.00   14.05
  -1   9   0   93.66   11.54
  -1   9   0  103.83   12.64
   1   9   0   83.60   10.45
   1   9   0   89.80   17.24
   1   9   0   92.23   13.06
   1   9   1  203.75   22.29
  -1   9  -1  219.16   19.24
  -1   9  -1  256.12   20.85
   1   9   1  233.10   19.53
   1   9   1  223.15   28.65
  -1   9  -1  292.06   26.57
   1   9   1  248.03   20.18
  -1   9  -1  198.76   17.76
  -1   9  -1  233.03   22.19
   1   9   2   76.34   13.19
  -1   9  -2   96.35   11.64
  -1   9  -2  103.52   12.40
   1   9   2  102.00   12.64
  -1   9  -2   96.03   15.40
   1   9   2   75.05   17.08
   1   9   2   94.65   10.94
  -1   9  -2   75.75   11.29
  -1   9  -2   93.86   12.94
  -1   9  -2  101.09   12.85
   1   9   3    2.24    3.24
  -1   9  -3    2.38    3.09
  -1   9  -3    0.68    1.52
  -1   9  -3    1.39    2.55
   1   9   3    3.97    3.09
  -1   9  -3    0.88    2.29
   1   9   3   -1.93    4.34
  -1   9  -3    5.03    3.26
  -1   9  -4  261.04   19.13
  -1   9  -4  291.19   22.50
   1   9   4  287.09   21.47
  -1   9  -4  266.76   27.16
  -1   9  -4  272.29   21.24
   1   9   4  300.64   32.36
  -1   9  -5  115.25   12.38
  -1   9  -5  102.92   11.49
  -1   9  -5   87.57   14.02
   1   9   5  102.13   10.12
  -1   9  -5   70.61    7.87
   1   9   5   97.61   13.69
   1   9   5   98.24   12.24
   1   9   5  112.30   17.86
   1   9   6   89.27    9.36
   1   9   6   57.18   10.82
  -1   9  -6   88.95    9.77
   1   9   6   73.44   10.28
  -1   9  -7   71.09    6.47
  -1   9  -7   90.06    7.59
   1   9   7   73.20    7.79
  -1  10   6  137.77    9.47
  -1  10   6  134.24   11.30
  -1  10   5   44.16    8.43
  -1  10   5   46.97    6.67
   1  10  -4  239.31   16.13
   1  10  -4  240.38   19.02
  -1  10   4  244.50   23.52
  -1  10   4  268.00   22.75
  -1  10   3  242.73   22.87
   1  10  -3  208.17   16.53
  -1  10   3  189.88   21.01
   1  10  -3  226.61   19.04
  -1  10   3  225.92   17.63
  -1  10   2   51.24    8.13
   1  10  -2   62.15    9.63
   1  10  -2   63.67    8.93
  -1  10   2   62.34    9.33
  -1  10   2   66.21   12.24
  -1  10   1  606.75   40.53
  -1  10   1  500.15   31.44
   1  10  -1  545.46   35.20
   1  10  -1  503.74   30.98
  -1  10   1  507.35   29.50
   1  10   0   46.47    9.67
   1  10   0   40.24    7.56
  -1  10   0   27.52    5.75
  -1  10   0   36.59    7.34
  -1  10  -1   61.76    7.66
   1  10   1   80.25   12.34
  -1  10  -1   76.04    9.87
   1  10   1   70.91    9.28
   1  10   1   61.84    8.46
   1  10   2  464.39   31.81
  -1  10  -2  495.62   28.88
   1  10   2  402.11   25.76
  -1  10  -2  451.39   27.62
  -1  10  -2  418.29   31.48
   1  10   2  422.56   37.57
   1  10   3  128.21   15.15
  -1  10  -3  178.39   15.55
   1  10   3  167.59   14.28
  -1  10  -3  169.52   15.07
  -1  10  -3  161.18   17.53
   1  10   3  148.29   20.53
  -1  10  -3  148.37   13.48
  -1  10  -4   81.45    9.65
  -1  10  -4   92.13   10.27
  -1  10  -4   77.28    8.20
   1  10   4   69.94   12.86
  -1  10  -4   64.74   10.52
   1  10   4   78.93    8.95
   1  10   4   85.88   10.61
   1  10   4   81.49   11.41
  -1  10  -5   72.50    8.19
  -1  10  -5   75.04    8.41
   1  10   5   72.22    8.07
   1  10   5   67.60    9.06
  -1  11   4   24.24    5.48
   1  11  -4   15.80    3.64
  -1  11   3  515.93   30.05
  -1  11   3  467.93   24.66
   1  11  -3  466.11   25.75
   1  11  -2  173.19   14.15
  -1  11   2  158.34   12.54
  -1  11   2  190.89   17.82
   1  11  -2  176.32   14.19
  -1  11   1   61.05   10.56
  -1  11   1   68.54    7.46
   1  11  -1   60.78    8.69
   1  11  -1   66.78    8.10
   1  11   0    0.66    2.28
  -1  11   0    2.68    2.32
  -1  11   0    2.72    1.25
  -1  11   0    2.86    2.34
   1  11   0    3.98    1.99
   1  11   1  124.00   12.92
  -1  11  -1  148.21   15.89
  -1  11  -2   49.70    6.41
  -1  11  -2   42.97    6.32
  -1  11  -3  103.50    9.20
  -1  11  -3   85.00    8.24
   1  11   3  107.20   11.11
   1  11   3  107.81    9.60
   1  11   3  111.28   10.39
  -1  11  -4   91.55    7.67
   1  11   4   83.13    8.35
  -1  12   1  257.54   16.46
  -1  12   0  107.66    9.90
  -1  12  -1    1.19    1.36
  -2 -11   4  140.54   11.29
   2 -11  -3   10.00    3.14
  -2 -11   3   19.49    4.10
   2 -11  -2   17.93    4.87
  -2 -11   2   26.40    6.15
  -2 -11   2   31.30    5.22
  -2 -11   1  118.41   10.64
  -2 -11   1  115.63   12.78
   2 -11  -1  121.74   13.53
  -2 -11   1  150.86   15.42
  -2 -11   0   35.11    7.56
  -2 -11   0   59.02    9.62
   2 -11   1  174.64   14.65
   2 -11   1  160.04   17.44
  -2 -11  -1  136.84   12.28
  -2 -11  -1  211.88   18.85
  -2 -11  -1  209.73   17.76
   2 -11   2   66.35   10.30
  -2 -11  -2   52.27    6.63
  -2 -11  -2   64.40    8.53
  -2 -11  -2   64.37   10.19
  -2 -11  -3   69.21    9.63
  -2 -10   5   68.16    8.92
   2 -10  -5   61.60    8.19
   2 -10  -5   57.77    7.66
   2 -10  -4   55.25    9.15
  -2 -10   4   49.24    8.64
   2 -10  -4   47.63    8.20
  -2 -10   3  124.89   10.84
   2 -10  -3  107.72   14.60
  -2 -10   3  126.56   14.97
   2 -10  -3  122.90   14.49
  -2 -10   2  523.25   30.04
  -2 -10   2  522.30   35.34
  -2 -10   2  535.83   31.55
  -2 -10   2  531.70   35.23
   2 -10  -2  519.85   37.34
  -2 -10   2  590.74   38.93
  -2 -10   1  372.71   23.86
   2 -10  -1  343.12   29.61
  -2 -10   1  388.48   28.82
  -2 -10   1  458.88   33.52
  -2 -10   1  464.84   34.28
  -2 -10   0   79.31   10.01
   2 -10   0   70.61   10.95
   2 -10   0   67.05   12.16
   2 -10   0   56.09   12.88
  -2 -10   0   81.56   11.21
  -2 -10   0   91.75   15.25
  -2 -10   0   90.53   14.60
  -2 -10   0   77.40    9.05
   2 -10   1  156.32   17.93
  -2 -10  -1  155.24   13.43
   2 -10   1  127.60   19.93
   2 -10   1  128.86   15.93
  -2 -10  -1  183.54   21.69
  -2 -10  -1  161.00   19.28
  -2 -10  -1  136.87   11.55
  -2 -10  -2    9.69    2.75
   2 -10   2    8.16    4.56
   2 -10   2    1.52    5.22
   2 -10   2    2.07    2.69
   2 -10   2    7.05    3.04
  -2 -10  -2    7.50    4.40
   2 -10   3   81.13    9.72
   2 -10   3   64.60   10.98
   2 -10   3   63.06    8.77
  -2 -10  -3   67.33   10.67
  -2 -10  -3   97.06   14.78
  -2 -10  -3   59.22    8.04
  -2 -10  -3   58.21    9.93
   2 -10   4    3.53    1.73
  -2 -10  -4    1.87    1.21
   2 -10   4   -0.96    2.80
   2 -10   4    2.30    2.44
  -2 -10  -4    2.83    2.90
  -2 -10  -4    1.00    3.68
  -2 -10  -4    4.87    1.91
  -2 -10  -5  109.39   11.48
  -2 -10  -5  144.71   11.74
  -2  -9   7   64.38    7.53
  -2  -9   7   61.17    7.54
  -2  -9   6  229.94   18.88
  -2  -9   6  259.95   19.95
   2  -9  -6  214.16   18.79
   2  -9  -6  249.42   18.88
  -2  -9   5  181.61   14.94
  -2  -9   5  178.63   17.53
  -2  -9   5  172.20   17.73
   2  -9  -5  157.50   17.71
  -2  -9   5  144.90   12.95
   2  -9  -5  185.76   22.73
   2  -9  -5  153.76   17.25
  -2  -9   4  198.13   15.50
   2  -9  -4  187.96   21.35
  -2  -9   4  183.27   15.97
  -2  -9   4  171.45   18.31
  -2  -9   4  199.11   20.28
   2  -9  -4  183.90   20.69
   2  -9  -4  170.75   23.65
   2  -9  -3  135.10   21.34
  -2  -9   3  126.23   12.24
  -2  -9   3  139.19   13.60
  -2  -9   3  146.23   15.24
  -2  -9   3  118.32   15.33
  -2  -9   3  149.69   17.98
   2  -9  -3  124.13   18.10
  -2  -9   3  129.68   14.18
  -2  -9   2  138.00   12.66
  -2  -9   2  129.94   13.37
  -2  -9   2  160.96   19.49
  -2  -9   2  140.56   16.22
   2  -9  -2  149.58   19.88
  -2  -9   2  158.42   15.94
   2  -9  -2  148.65   20.79
   2  -9  -2  151.95   20.03
  -2  -9   1  428.98   26.11
   2  -9  -1  419.37   35.83
  -2  -9   1  521.57   36.34
   2  -9  -1  427.11   40.61
   2  -9  -1  429.96   35.27
   2  -9  -1  459.54   35.97
  -2  -9   1  457.10   28.73
  -2  -9   0  194.48   17.35
  -2  -9   0  178.63   14.36
  -2  -9   0  207.54   21.51
   2  -9   0  161.82   21.20
  -2  -9   0  180.58   16.06
   2  -9   0  191.16   27.09
   2  -9   0  173.41   22.21
   2  -9   0  174.08   19.88
  -2  -9   0  205.05   24.50
  -2  -9  -1   62.99   10.28
   2  -9   1   44.31   10.61
   2  -9   1   54.32   15.18
  -2  -9  -1   46.87    7.84
   2  -9   1   42.22    9.64
  -2  -9  -1   52.29    7.79
  -2  -9  -1   72.38   14.16
   2  -9   2  113.97   16.66
  -2  -9  -2  156.10   19.94
  -2  -9  -2   97.93   11.23
  -2  -9  -2  137.50   20.72
  -2  -9  -2  120.79   11.10
   2  -9   2  117.08   16.12
  -2  -9  -3  141.07   12.33
   2  -9   3  127.22   16.52
   2  -9   3  167.61   25.01
  -2  -9  -3  167.55   22.71
  -2  -9  -3  153.10   17.36
  -2  -9  -3  161.82   16.20
  -2  -9  -3  184.18   20.56
   2  -9   3  172.43   19.21
   2  -9   4  189.51   24.58
  -2  -9  -4  199.98   23.71
  -2  -9  -4  209.37   19.69
  -2  -9  -4  197.77   17.11
   2  -9   4  167.01   18.51
   2  -9   5   39.42    7.99
   2  -9   5   37.88    8.95
  -2  -9  -5   49.55   10.41
  -2  -9  -5   37.71    7.72
   2  -9   6  156.51   13.21
  -2  -9  -6  183.86   15.04
  -2  -9  -6  151.30   13.01
  -2  -8   8   46.36    6.33
  -2  -8   7   32.30    7.04
  -2  -8   7   47.13    8.26
   2  -8  -7   46.47    8.00
   2  -8  -6  355.82   28.27
   2  -8  -6  335.86   33.64
   2  -8  -6  360.59   29.00
  -2  -8   6  343.74   26.49
  -2  -8   6  331.76   22.54
  -2  -8   5  120.01   12.10
  -2  -8   5  129.92   16.07
   2  -8  -5  124.75   17.66
   2  -8  -5  125.09   17.61
  -2  -8   5  137.05   13.77
   2  -8  -5  136.38   22.64
  -2  -8   4   49.09    8.91
  -2  -8   4   42.82    7.77
  -2  -8   4   38.80    8.08
  -2  -8   4   41.30    9.22
  -2  -8   4   47.68    8.71
  -2  -8   4   48.35   10.80
   2  -8  -4   27.93    8.85
   2  -8  -4   48.64   14.12
  -2  -8   3  989.07   48.56
  -2  -8   3  992.63   50.37
  -2  -8   3  934.02   52.70
   2  -8  -3  861.62   58.96
  -2  -8   3  991.71   56.79
   2  -8  -3  864.71   67.00
  -2  -8   3  940.48   48.87
  -2  -8   2  198.73   18.14
   2  -8  -2  164.11   21.43
  -2  -8   2  153.76   15.33
  -2  -8   2  180.08   18.87
   2  -8  -2  166.48   21.54
  -2  -8   2  164.45   19.87
  -2  -8   2  162.43   14.60
   2  -8  -2  148.43   23.31
   2  -8  -2  187.74   26.56
   2  -8  -2  162.34   22.04
   2  -8  -1  639.31   47.04
  -2  -8   1  696.18   44.74
   2  -8  -1  687.11   54.84
   2  -8  -1  631.55   47.76
  -2  -8   1  596.85   34.47
  -2  -8   1  692.52   37.43
   2  -8  -1  684.65   47.35
  -2  -8   1  634.63   37.24
   2  -8   0   53.85   11.26
  -2  -8   0   56.85    9.44
   2  -8   0   47.64   14.40
  -2  -8   0   73.85   12.16
   2  -8   0   61.60   13.02
  -2  -8   0   60.57    9.81
   2  -8   0   57.79   11.53
  -2  -8  -1  119.92   13.88
  -2  -8  -1  181.40   22.17
  -2  -8  -1  161.88   17.81
   2  -8   1  132.04   19.36
   2  -8   1  148.28   25.73
  -2  -8  -1  154.86   16.28
  -2  -8  -1  131.92   14.23
   2  -8   1  133.94   18.69
  -2  -8  -2  794.23   44.06
   2  -8   2  838.54   54.30
   2  -8   2  816.64   53.37
  -2  -8  -2  820.74   42.37
  -2  -8  -2  860.68   46.89
  -2  -8  -2  967.83   57.51
  -2  -8  -3   14.11    5.38
  -2  -8  -3   13.62    4.16
  -2  -8  -3   16.22    4.99
   2  -8   3    8.57    5.87
   2  -8   3   15.36    5.77
  -2  -8  -3   15.67    7.83
  -2  -8  -3   16.70    7.01
  -2  -8  -4  199.35   17.02
   2  -8   4  191.13   19.93
  -2  -8  -4  210.76   26.92
  -2  -8  -4  222.89   19.66
  -2  -8  -4  201.42   21.67
   2  -8   4  219.25   23.95
  -2  -8  -5  200.94   22.04
  -2  -8  -5  171.64   16.67
   2  -8   5  221.42   25.62
   2  -8   5  171.59   20.47
  -2  -8  -5  216.47   25.00
  -2  -8  -5  177.32   20.02
  -2  -8  -6   55.07    9.74
   2  -8   6   49.03    8.45
   2  -8   6   45.82    9.15
  -2  -8  -6   48.93    9.73
  -2  -8  -6   47.94    9.49
  -2  -8  -6   51.29    7.32
  -2  -8  -7   80.95    9.84
   2  -8   7   92.45   10.13
  -2  -7   8  366.21   22.09
  -2  -7   8  396.18   25.14
   2  -7  -8  443.64   25.97
   2  -7  -7  294.42   26.46
   2  -7  -7  363.51   28.48
  -2  -7   7  380.90   23.10
  -2  -7   7  383.98   24.67
  -2  -7   6   22.59    5.48
  -2  -7   6   27.06    6.28
  -2  -7   6   16.10    5.31
  -2  -7   6   16.17    4.76
  -2  -7   6   23.75    6.99
   2  -7  -6   25.04    7.48
   2  -7  -6   17.52    7.24
   2  -7  -6   20.85    7.96
   2  -7  -6   22.93    6.86
  -2  -7   5  141.48   15.02
  -2  -7   5  134.55   14.67
  -2  -7   5  138.18   16.92
   2  -7  -5  124.19   17.55
   2  -7  -5  108.87   17.70
   2  -7  -5   88.38   16.31
  -2  -7   5  117.81   16.52
   2  -7  -5  139.92   24.37
   2  -7  -4  247.78   21.69
  -2  -7   4  268.48   21.86
  -2  -7   4  331.38   26.83
  -2  -7   4  324.48   23.43
   2  -7  -4  263.46   28.45
   2  -7  -4  291.55   36.68
  -2  -7   4  290.02   26.67
  -2  -7   3 1051.53   50.89
  -2  -7   3 1079.16   50.91
  -2  -7   3 1093.70   50.40
  -2  -7   3 1037.89   54.54
   2  -7  -3  923.80   59.58
  -2  -7   3  801.45   46.13
   2  -7  -3  862.08   59.51
   2  -7  -3 1054.19   74.43
  -2  -7   3 1068.65   51.41
  -2  -7   2   18.00    5.24
  -2  -7   2   15.67    4.88
  -2  -7   2   24.38    6.23
   2  -7  -2   15.47    7.09
   2  -7  -2   21.37    7.43
   2  -7  -2   14.63    7.14
  -2  -7   2   19.91    5.41
  -2  -7   2   19.71    5.04
   2  -7  -2   17.30    7.95
   2  -7  -2   17.66    6.64
  -2  -7   1  806.75   41.67
   2  -7  -1  792.41   52.02
  -2  -7   1  912.30   50.23
   2  -7  -1  807.14   59.58
   2  -7  -1  858.14   52.69
   2  -7  -1  813.88   55.20
  -2  -7   1  804.60   42.08
   2  -7  -1  676.38   53.51
  -2  -7   1  793.58   41.95
  -2  -7   1  871.58   43.38
  -2  -7   1  918.01   43.29
   2  -7  -1  686.76   47.39
   2  -7   0 1020.57   60.66
  -2  -7   0 1028.43   49.54
   2  -7   0 1029.12   69.97
   2  -7   0 1028.96   58.78
  -2  -7   0 1003.04   49.92
  -2  -7   0 1049.34   55.42
   2  -7   0 1057.91   52.08
  -2  -7   0  944.25   48.01
   2  -7   0  852.86   55.41
  -2  -7  -1    6.84    3.42
  -2  -7  -1    0.70    2.04
   2  -7   1    2.75    2.52
   2  -7   1    1.35    3.51
   2  -7   1    3.82    2.21
  -2  -7  -1    3.19    2.93
   2  -7   2   11.55    6.23
   2  -7   2   15.62    4.36
  -2  -7  -2   18.66    5.30
   2  -7   2   17.69    6.39
  -2  -7  -2   17.89    5.66
  -2  -7  -2   21.91    7.34
   2  -7   3  666.89   48.06
   2  -7   3  716.18   46.29
   2  -7   3  605.96   37.88
  -2  -7  -3  653.39   39.18
  -2  -7  -3  624.34   36.37
  -2  -7  -3  685.10   46.72
   2  -7   4  233.12   22.85
   2  -7   4  203.08   19.42
   2  -7   4  222.34   26.06
  -2  -7  -4  253.80   21.37
  -2  -7  -4  221.06   27.56
  -2  -7  -4  201.49   17.59
  -2  -7  -4  229.34   23.70
   2  -7   5  100.23   12.65
  -2  -7  -5  122.44   12.23
   2  -7   5  111.66   17.59
  -2  -7  -5  119.53   18.03
  -2  -7  -5  120.85   19.94
   2  -7   6   18.95    7.16
   2  -7   6   12.89    5.07
   2  -7   6   22.69    5.28
  -2  -7  -6   19.41    5.35
  -2  -7  -6   17.38    6.66
  -2  -7  -6   12.95    5.60
  -2  -7  -7  189.53   14.15
   2  -7   7  189.10   13.02
  -2  -7  -7  199.77   18.98
  -2  -7  -7  176.01   18.37
   2  -7   8   20.61    3.92
  -2  -6   9  155.71   12.26
  -2  -6   9  162.73   12.68
   2  -6  -9  134.54   10.91
  -2  -6   8  133.05   14.00
   2  -6  -8  144.93   16.17
  -2  -6   8  110.40   13.29
   2  -6  -8  140.26   16.58
  -2  -6   8  130.25   12.56
   2  -6  -8  143.11   18.17
  -2  -6   7   30.37    7.36
   2  -6  -7   32.08   10.24
  -2  -6   7   28.54    6.43
   2  -6  -7   23.80    7.51
  -2  -6   7   39.39    7.55
  -2  -6   6  150.61   16.43
  -2  -6   6  163.49   16.11
   2  -6  -6  102.32   19.40
  -2  -6   6  145.88   15.65
   2  -6  -6  133.81   19.49
   2  -6  -6  133.39   19.13
  -2  -6   6  148.29   15.43
   2  -6  -6  121.40   19.07
  -2  -6   5  341.71   23.69
  -2  -6   5  319.03   24.00
  -2  -6   5  332.08   24.44
   2  -6  -5  262.36   23.03
   2  -6  -5  292.06   30.09
   2  -6  -5  273.67   30.65
  -2  -6   5  312.01   27.93
   2  -6  -5  331.44   31.90
   2  -6  -5  349.99   40.36
   2  -6  -5  286.40   29.71
  -2  -6   4  234.02   18.99
  -2  -6   4  251.89   20.54
  -2  -6   4  238.97   23.45
  -2  -6   4  237.74   19.81
   2  -6  -4  244.21   26.69
   2  -6  -4  241.27   25.25
   2  -6  -4  251.27   34.29
  -2  -6   4  246.10   19.47
   2  -6  -3  112.05   17.29
  -2  -6   3  116.86   12.41
  -2  -6   3  131.73   16.29
   2  -6  -3  109.49   16.73
   2  -6  -3  103.62   21.01
  -2  -6   3  119.83   12.50
  -2  -6   3   97.83   11.98
  -2  -6   2  419.69   24.24
   2  -6  -2  373.71   33.58
   2  -6  -2  403.15   36.69
  -2  -6   2  446.20   31.09
   2  -6  -2  368.27   37.95
  -2  -6   2  422.80   25.83
   2  -6  -2  410.05   33.91
  -2  -6   2  391.82   26.03
   2  -6  -2  403.58   32.84
   2  -6  -1  477.94   30.64
   2  -6  -1  467.91   34.87
   2  -6  -1  411.29   38.64
  -2  -6   1  488.29   26.89
  -2  -6   1  468.93   26.74
   2  -6  -1  521.06   36.05
  -2  -6   1  449.95   28.35
   2  -6  -1  461.07   33.73
   2  -6   0  265.49   20.79
   2  -6   0  296.43   25.83
  -2  -6   0  293.15   22.86
   2  -6   0  239.18   29.36
  -2  -6   0  265.68   19.11
  -2  -6   0  252.24   19.87
  -2  -6   0  294.26   20.22
   2  -6   0  250.53   24.19
   2  -6   1  173.47   19.15
   2  -6   1  137.52   14.25
  -2  -6  -1  137.27   13.02
   2  -6   1  150.38   15.48
   2  -6   1  152.55   18.92
  -2  -6  -1  160.96   14.11
  -2  -6  -1  170.51   15.58
  -2  -6  -1  157.56   14.89
  -2  -6  -2  285.64   20.16
  -2  -6  -2  334.98   23.78
   2  -6   2  264.02   20.41
  -2  -6  -2  291.73   20.23
   2  -6   2  323.41   27.60
   2  -6   2  247.18   21.73
   2  -6   2  214.51   24.64
  -2  -6  -2  310.74   22.45
  -2  -6  -2  333.75   28.03
  -2  -6  -2  302.33   20.88
   2  -6   3  145.62   20.20
  -2  -6  -3  134.24   13.96
   2  -6   3  112.49   15.91
  -2  -6  -3  138.43   13.76
   2  -6   3  123.70   15.03
   2  -6   3  134.52   13.57
  -2  -6  -3  162.69   16.40
  -2  -6  -3  183.98   20.04
   2  -6   4 1071.05   64.02
  -2  -6  -4 1056.38   52.80
  -2  -6  -4  936.63   55.22
  -2  -6  -4  893.91   46.43
   2  -6   4  877.08   46.45
   2  -6   4  970.79   54.51
   2  -6   4  920.78   51.95
  -2  -6  -4  899.83   48.15
  -2  -6  -4 1036.69   48.39
  -2  -6  -4 1195.09   67.20
  -2  -6  -4 1003.20   46.07
   2  -6   5  772.61   53.44
  -2  -6  -5  693.13   38.22
   2  -6   5  740.03   44.24
  -2  -6  -5  676.96   40.49
  -2  -6  -5  887.29   54.85
  -2  -6  -5  738.89   38.62
  -2  -6  -5  836.78   44.40
  -2  -6  -5  814.80   55.13
   2  -6   6   65.79   10.74
  -2  -6  -6   75.28   14.62
  -2  -6  -6   77.67   10.83
  -2  -6  -6   44.05   10.80
  -2  -6  -6   85.47   15.48
  -2  -6  -6   54.36    7.45
   2  -6   7   11.38    4.44
   2  -6   7   11.46    5.37
  -2  -6  -7   14.61    5.85
  -2  -6  -7   13.88    6.01
  -2  -6  -7   15.62    4.94
  -2  -6  -7   12.37    3.99
   2  -6   8  194.60   13.48
  -2  -6  -8  174.80   12.39
  -2  -6  -8  189.37   16.48
   2  -6   8  209.84   17.27
  -2  -5   9   95.95   11.16
   2  -5  -9   84.59   13.63
  -2  -5   9   79.43    9.50
  -2  -5   8  263.32   22.34
  -2  -5   8  257.59   21.82
  -2  -5   8  244.58   19.59
   2  -5  -8  282.94   26.46
  -2  -5   8  269.92   20.38
   2  -5  -8  252.23   28.45
   2  -5  -8  298.92   26.54
  -2  -5   7  693.39   40.49
  -2  -5   7  621.03   36.47
   2  -5  -7  505.48   46.96
  -2  -5   7  583.29   35.04
  -2  -5   7  621.06   36.92
  -2  -5   7  593.09   33.68
   2  -5  -7  686.72   46.50
  -2  -5   7  623.61   36.25
   2  -5  -7  668.64   47.60
   2  -5  -7  508.42   33.41
  -2  -5   6  430.02   29.83
  -2  -5   6  405.02   27.55
  -2  -5   6  396.51   26.82
  -2  -5   6  406.91   27.57
  -2  -5   6  355.77   25.29
   2  -5  -6  257.12   34.05
   2  -5  -6  370.77   27.71
  -2  -5   6  377.07   32.24
   2  -5  -6  374.59   33.89
   2  -5  -6  438.04   38.20
   2  -5  -6  403.26   43.19
   2  -5  -6  347.02   26.02
  -2  -5   5  223.29   17.72
  -2  -5   5  250.65   19.65
   2  -5  -5  182.40   18.93
  -2  -5   5  213.70   17.26
   2  -5  -5  119.87   21.98
   2  -5  -5  197.21   23.98
   2  -5  -5  193.25   23.40
  -2  -5   5  220.25   19.11
  -2  -5   5  226.85   20.13
  -2  -5   5  247.99   24.12
  -2  -5   5  274.56   21.64
   2  -5  -5  250.07   27.54
  -2  -5   4  796.95   38.72
  -2  -5   4  799.01   40.37
   2  -5  -4  693.69   48.85
   2  -5  -4  649.08   47.33
  -2  -5   4  823.12   41.58
  -2  -5   4  763.42   42.00
  -2  -5   4  784.97   46.50
   2  -5  -4  779.47   60.97
  -2  -5   4  770.21   38.75
   2  -5  -3   97.79    9.80
   2  -5  -3   81.06   13.49
  -2  -5   3  120.23   12.46
   2  -5  -3  124.87   17.02
  -2  -5   3  110.12   14.17
   2  -5  -3  106.70   19.88
  -2  -5   3  120.79   11.36
   2  -5  -3  114.75   16.27
  -2  -5   2   37.77    7.87
  -2  -5   2   54.74    8.39
   2  -5  -2   57.26   10.16
   2  -5  -2   45.18   10.82
   2  -5  -2   54.04    8.84
   2  -5  -2   62.40   11.58
   2  -5  -2   40.43   11.07
  -2  -5   2   54.64    6.74
   2  -5  -2   54.64   10.27
   2  -5  -2   52.49    6.13
   2  -5  -1   75.55   11.38
   2  -5  -1   64.39   12.64
  -2  -5   1   52.33    6.70
  -2  -5   1   66.77    7.59
   2  -5  -1   74.49    9.52
  -2  -5   1   71.84   10.38
  -2  -5   1   68.00    7.74
   2  -5  -1   62.64   10.32
  -2  -5   0 1438.81   61.73
   2  -5   0 1441.94   65.61
  -2  -5   0 1586.04   66.08
   2  -5   0 1327.55   69.87
  -2  -5  -1  575.02   30.03
  -2  -5  -1  622.04   33.04
  -2  -5  -1  526.49   28.58
   2  -5   1  603.70   33.96
   2  -5   1  590.53   32.24
   2  -5   1  566.33   38.24
   2  -5   2  677.14   37.27
   2  -5   2  801.36   43.53
  -2  -5  -2  690.73   35.53
   2  -5   2  675.51   39.42
   2  -5   2  746.98   46.23
  -2  -5  -2  708.95   35.69
   2  -5   3  322.55   29.15
  -2  -5  -3  303.89   20.73
   2  -5   3  266.81   22.85
  -2  -5  -3  271.28   20.41
   2  -5   3  280.82   20.65
  -2  -5  -3  311.92   25.25
  -2  -5  -4 1343.22   62.80
   2  -5   4 1398.53   65.21
  -2  -5  -4 1605.02   64.90
  -2  -5  -4 1436.51   65.36
   2  -5   4 1435.08   70.61
  -2  -5  -4 1326.74   66.37
  -2  -5  -5  298.64   21.01
  -2  -5  -5  307.06   24.73
   2  -5   5  296.40   22.14
  -2  -5  -5  294.64   20.85
   2  -5   5  285.37   25.63
  -2  -5  -5  290.04   22.60
  -2  -5  -5  341.41   31.45
  -2  -5  -5  261.99   19.47
  -2  -5  -5  307.87   24.33
  -2  -5  -5  334.53   31.74
  -2  -5  -6   54.64   12.29
   2  -5   6   63.34   13.33
   2  -5   6   75.35    9.67
  -2  -5  -6   58.31    7.96
   2  -5   6   78.63   12.78
  -2  -5  -6   65.61   11.03
  -2  -5  -6   82.58   13.08
  -2  -5  -6   60.96    8.14
  -2  -5  -6   61.54   10.22
  -2  -5  -6   74.86   14.59
   2  -5   7  115.94   16.88
   2  -5   7  144.35   16.15
  -2  -5  -7  119.30   17.57
  -2  -5  -7  128.14   13.18
  -2  -5  -7  147.91   19.26
   2  -5   8   14.66    5.15
  -2  -5  -8   20.42    5.16
   2  -5   8   11.93    4.24
  -2  -5  -8   10.09    4.39
  -2  -5  -8   19.48    6.33
  -2  -4  10   90.82    9.24
   2  -4 -10   83.41    8.86
  -2  -4   9  364.08   25.21
   2  -4  -9  397.99   33.08
  -2  -4   9  326.36   22.14
  -2  -4   9  338.40   22.40
   2  -4  -9  281.33   21.36
   2  -4  -9  302.00   20.95
  -2  -4   8  167.58   18.05
   2  -4  -8  188.78   26.25
   2  -4  -8  163.61   20.18
  -2  -4   8  141.24   15.13
   2  -4  -8  132.04   16.20
  -2  -4   8  148.92   14.09
  -2  -4   8  151.74   15.59
   2  -4  -8  124.67   15.30
  -2  -4   7  475.86   30.23
   2  -4  -7  454.76   30.68
  -2  -4   7  449.28   30.09
   2  -4  -7  487.32   35.05
   2  -4  -7  420.30   36.72
   2  -4  -7  417.23   32.88
   2  -4  -7  511.04   39.58
   2  -4  -7  308.02   37.65
  -2  -4   7  409.08   28.45
   2  -4  -7  424.61   32.01
   2  -4  -7  486.09   41.34
   2  -4  -7  411.68   31.59
  -2  -4   6  641.83   36.96
  -2  -4   6  651.39   36.93
   2  -4  -6  578.40   38.29
  -2  -4   6  660.25   36.10
   2  -4  -6  679.47   43.04
   2  -4  -6  633.21   40.91
   2  -4  -6  651.45   41.07
   2  -4  -6  575.01   44.32
   2  -4  -6  671.72   43.28
  -2  -4   6  552.99   36.15
   2  -4  -6  667.88   50.01
   2  -4  -6  678.61   56.94
  -2  -4   5   42.89    6.81
   2  -4  -5   36.37    7.96
  -2  -4   5   31.90    7.26
  -2  -4   5   44.13    7.31
   2  -4  -5   59.15   14.96
   2  -4  -5   32.89    8.28
   2  -4  -5   34.25    9.98
   2  -4  -5   37.74    8.22
  -2  -4   5   34.39    6.98
   2  -4  -5   36.02    9.87
   2  -4  -5   31.85    7.53
   2  -4  -5   66.90   13.29
   2  -4  -5   25.86   10.90
   2  -4  -5   46.45    8.62
  -2  -4   4  453.99   30.28
   2  -4  -4  526.81   32.44
   2  -4  -4  508.81   37.98
  -2  -4   4  494.65   26.36
   2  -4  -4  487.40   36.43
   2  -4  -4  562.11   32.67
   2  -4  -4  439.20   35.00
  -2  -4   4  496.84   33.96
   2  -4  -4  516.82   38.38
   2  -4  -4  546.30   47.06
   2  -4  -4  492.47   30.19
  -2  -4   4  504.62   27.03
   2  -4  -3  286.77   19.82
   2  -4  -3  270.64   24.75
   2  -4  -3  211.00   21.04
   2  -4  -3  237.15   18.43
  -2  -4   3  301.59   22.84
   2  -4  -3  281.09   30.63
  -2  -4   3  250.13   16.22
   2  -4  -2 2796.90  107.01
  -2  -4   2 3049.57  111.42
  -2  -4   2 3445.96  115.55
   2  -4  -2 2315.02  106.60
  -2  -4   2 2872.60  104.21
  -2  -4   1  186.98   12.36
  -2  -4   1  213.97   15.46
  -2  -4   1  211.07   16.46
  -2  -4   1  200.32   13.32
   2  -4  -1  189.54   13.22
   2  -4   0  445.98   23.01
  -2  -4   0  453.76   22.01
  -2  -4   0  474.77   23.46
   2  -4   1  841.84   37.70
  -2  -4  -1  872.93   37.07
  -2  -4  -1  887.13   37.93
  -2  -4  -1  754.41   34.67
   2  -4   1  799.84   37.60
   2  -4   2 1382.91   62.42
   2  -4   2 1351.02   61.85
  -2  -4  -2 1498.11   61.42
  -2  -4  -2 1610.63   62.45
   2  -4   2 1459.01   62.65
  -2  -4  -2 1488.32   61.48
  -2  -4  -2 1654.27   64.85
   2  -4   3 1077.35   52.72
   2  -4   3 1169.88   53.85
  -2  -4  -3 1092.30   52.20
  -2  -4  -3 1224.81   52.14
   2  -4   3 1172.72   54.10
   2  -4   3 1114.78   55.99
   2  -4   3 1165.65   53.59
  -2  -4  -3 1069.33   49.33
   2  -4   4   70.33   10.56
   2  -4   4   96.39   12.59
  -2  -4  -4   90.34   10.91
  -2  -4  -4  102.73   11.12
   2  -4   4   80.22   12.39
   2  -4   4   88.26   11.92
  -2  -4  -4   86.65   11.79
  -2  -4  -4   98.84   10.54
   2  -4   4  107.24   16.52
   2  -4   4   99.33   11.69
  -2  -4  -4   96.38   10.94
  -2  -4  -4  118.36   15.60
   2  -4   5   55.46   10.93
   2  -4   5   50.76   11.90
   2  -4   5   48.00    9.25
   2  -4   5   58.43   10.27
  -2  -4  -5   45.97    7.61
  -2  -4  -5   58.68    9.52
  -2  -4  -5   49.25    7.56
   2  -4   5   66.04   12.72
   2  -4   5   45.81    8.55
  -2  -4  -5   50.15    9.70
  -2  -4  -5   66.60   12.79
   2  -4   5   43.83    8.84
   2  -4   6  628.74   45.33
  -2  -4  -6  527.52   30.46
   2  -4   6  539.54   37.38
   2  -4   6  561.90   34.92
   2  -4   6  541.62   39.33
   2  -4   6  502.47   36.85
   2  -4   6  633.52   44.48
  -2  -4  -6  596.60   41.07
  -2  -4  -6  679.12   37.53
  -2  -4  -6  606.91   43.62
  -2  -4  -6  599.57   43.16
  -2  -4  -6  512.14   37.24
   2  -4   7  185.33   22.02
   2  -4   7  159.69   15.80
   2  -4   7  189.30   20.39
  -2  -4  -7  155.36   20.16
  -2  -4  -7  192.53   17.19
  -2  -4  -7  187.16   22.78
   2  -4   7  211.91   23.03
  -2  -4  -7  164.69   16.04
   2  -4   8  259.73   22.80
   2  -4   8  275.98   22.36
   2  -4   8  271.30   22.44
  -2  -4  -8  255.88   21.35
  -2  -4  -8  255.54   22.63
  -2  -4  -8  253.62   23.92
  -2  -4  -9  171.59   16.09
   2  -4   9  228.52   15.76
  -2  -4  -9  224.21   15.40
   2  -4   9  188.18   13.48
  -2  -3  10  170.60   12.62
   2  -3 -10  161.61   13.96
  -2  -3   9    4.18    3.76
  -2  -3   9    7.96    3.98
   2  -3  -9    6.46    3.17
   2  -3  -9    4.17    3.06
  -2  -3   9    5.73    2.69
   2  -3  -8  100.81   16.23
   2  -3  -8   90.55   12.00
  -2  -3   8   73.02    9.11
  -2  -3   8   63.37   10.79
   2  -3  -8   78.05   13.70
   2  -3  -8   79.05   10.44
  -2  -3   8   73.33   10.38
  -2  -3   8   81.40   11.24
   2  -3  -8   80.58   13.10
  -2  -3   7  287.07   22.25
   2  -3  -7  331.58   25.73
  -2  -3   7  274.96   19.46
  -2  -3   7  227.18   20.66
   2  -3  -7  296.23   28.48
  -2  -3   7  286.51   23.16
   2  -3  -7  273.20   29.22
   2  -3  -7  281.09   28.08
   2  -3  -7  252.70   26.00
   2  -3  -7  306.68   29.99
  -2  -3   7  289.54   22.78
   2  -3  -7  283.86   35.38
   2  -3  -7  286.20   27.01
  -2  -3   6  202.71   17.43
   2  -3  -6  205.22   20.30
  -2  -3   6  196.03   16.63
   2  -3  -6  235.34   24.40
   2  -3  -6  145.34   26.10
   2  -3  -6  208.69   23.63
   2  -3  -6  207.58   23.75
  -2  -3   6  199.67   20.78
  -2  -3   6  179.88   18.38
   2  -3  -6  241.94   27.91
   2  -3  -6  221.06   23.18
   2  -3  -6  244.95   31.98
  -2  -3   5  120.67   10.76
  -2  -3   5  126.16   12.03
   2  -3  -5  115.53   14.38
   2  -3  -5  130.11   17.46
   2  -3  -5  131.12   22.05
  -2  -3   5  115.16   13.97
   2  -3  -5  114.72   16.91
  -2  -3   5  143.19   15.47
   2  -3  -5  119.71   16.39
   2  -3  -5  136.98   16.38
   2  -3  -5  141.22   17.21
   2  -3  -5  155.10   20.46
   2  -3  -5  123.01   21.47
  -2  -3   4  979.53   42.52
   2  -3  -4 1083.98   52.35
  -2  -3   4 1010.21   47.31
   2  -3  -4 1122.34   53.66
  -2  -3   4  920.10   49.51
   2  -3  -4  943.26   54.72
  -2  -3   4 1128.50   53.07
   2  -3  -4 1033.35   52.96
  -2  -3   4 1180.86   51.54
  -2  -3   4  963.23   43.14
   2  -3  -3  763.95   37.44
   2  -3  -3  653.29   36.70
  -2  -3   3  748.44   35.83
  -2  -3   3  860.50   40.06
   2  -3  -3  735.98   37.92
  -2  -3   3  650.70   31.12
  -2  -3   2  458.33   21.61
  -2  -3   2  620.61   29.66
   2  -3  -2  533.30   27.94
   2  -3  -2  502.81   27.58
  -2  -3   2  471.49   27.70
  -2  -3   2  586.13   29.91
   2  -3  -1 1299.39   55.42
   2  -3  -1 1490.50   56.44
  -2  -3   1 1659.68   57.93
   2  -3  -1 1166.60   55.75
  -2  -3   1 1327.22   57.06
  -2  -3   1 1292.07   52.60
  -2  -3   1 1459.58   58.07
   2  -3   0  176.91   12.66
  -2  -3   0  187.46   11.76
  -2  -3   0  192.31   12.83
   2  -3   1  124.93   11.19
   2  -3   1  133.80   11.48
  -2  -3  -1  161.01   12.45
  -2  -3  -1  133.39   10.36
   2  -3   1  146.13   11.95
   2  -3   2  270.05   18.57
   2  -3   2  237.65   17.63
  -2  -3  -2  251.11   15.94
  -2  -3  -2  262.70   16.92
   2  -3   2  244.48   17.76
  -2  -3  -2  233.70   14.85
   2  -3   3 3409.63  141.80
   2  -3   3 3475.51  136.86
   2  -3   3 3519.26  136.71
   2  -3   3 3517.92  137.50
   2  -3   3 3302.54  137.15
  -2  -3  -3 3568.09  132.91
  -2  -3  -3 3591.80  131.57
   2  -3   4   13.67    4.34
   2  -3   4   20.38    6.03
   2  -3   4   19.03    5.94
  -2  -3  -4   13.66    3.83
   2  -3   4   15.21    4.32
  -2  -3  -4   12.61    3.85
   2  -3   4   29.38    7.29
  -2  -3  -4   11.85    4.00
   2  -3   5   49.75   11.26
   2  -3   5   32.55    8.36
   2  -3   5   40.47    9.36
  -2  -3  -5   38.07    6.64
  -2  -3  -5   44.49    8.90
  -2  -3  -5   54.21   11.01
   2  -3   5   33.96    7.20
  -2  -3  -5   57.00    8.27
  -2  -3  -5   46.09    8.34
   2  -3   6  241.29   26.15
   2  -3   6  261.60   25.40
  -2  -3  -6  233.51   23.15
   2  -3   6  274.51   26.17
  -2  -3  -6  249.91   20.33
   2  -3   6  260.74   25.31
   2  -3   6  235.34   20.03
  -2  -3  -6  225.16   17.42
  -2  -3  -6  246.21   25.35
  -2  -3  -6  235.73   20.95
  -2  -3  -6  221.66   24.39
   2  -3   7   92.88   15.23
   2  -3   7   90.74   14.07
   2  -3   7   89.59   13.99
   2  -3   7  115.68   16.21
  -2  -3  -7   82.14   11.15
   2  -3   7  108.11   16.00
   2  -3   7  106.99   17.86
  -2  -3  -7  110.63   15.08
  -2  -3  -7  100.97   14.91
  -2  -3  -7   92.56   15.27
  -2  -3  -7  100.83   12.04
  -2  -3  -7   86.61   15.15
   2  -3   8  390.58   29.12
   2  -3   8  400.45   29.99
   2  -3   8  459.48   34.69
  -2  -3  -8  401.77   29.65
  -2  -3  -8  398.19   24.90
   2  -3   8  418.52   26.35
  -2  -3  -9   23.45    5.29
   2  -3   9   24.19    6.04
  -2  -3  -9   24.64    4.58
   2  -3   9   31.97    6.36
  -2  -3  -9   28.15    5.92
  -2  -2  10  255.79   18.96
  -2  -2  10  279.69   18.57
   2  -2 -10  270.78   19.82
   2  -2 -10  245.65   19.27
   2  -2 -10  242.75   18.17
  -2  -2   9  254.22   18.61
  -2  -2   9  281.87   22.29
   2  -2  -9  286.99   25.33
   2  -2  -9  247.60   19.96
  -2  -2   9  274.65   20.30
   2  -2  -9  280.97   24.06
   2  -2  -8  342.05   25.74
  -2  -2   8  291.63   21.42
   2  -2  -8  322.18   30.13
   2  -2  -8  341.52   38.20
  -2  -2   8  273.54   23.11
  -2  -2   8  291.00   22.86
   2  -2  -8  294.05   28.64
   2  -2  -8  327.13   30.75
  -2  -2   8  287.08   22.91
   2  -2  -8  285.17   27.31
   2  -2  -8  280.16   27.19
  -2  -2   7  841.75   43.90
   2  -2  -7  941.03   50.11
  -2  -2   7  835.95   44.90
  -2  -2   7  885.22   43.35
   2  -2  -7  897.14   56.58
  -2  -2   7  867.59   46.34
   2  -2  -7  844.05   53.89
   2  -2  -7  942.58   57.68
  -2  -2   7  935.38   53.82
  -2  -2   6  519.54   30.09
   2  -2  -6  456.57   33.40
  -2  -2   6  501.53   28.46
  -2  -2   6  536.63   36.61
   2  -2  -6  548.13   40.66
  -2  -2   6  558.68   36.74
   2  -2  -6  461.49   37.62
  -2  -2   6  507.15   31.04
   2  -2  -6  505.32   38.53
   2  -2  -6  539.90   43.58
   2  -2  -5  980.55   57.99
  -2  -2   5 1212.76   52.98
   2  -2  -5 1398.51   67.23
   2  -2  -5 1637.56   83.19
   2  -2  -5 1135.70   64.56
   2  -2  -5 1323.51   71.29
  -2  -2   5 1415.71   63.23
   2  -2  -5 1321.44   65.35
   2  -2  -5 1192.41   75.95
  -2  -2   4   28.01    5.43
  -2  -2   4   38.91    7.62
   2  -2  -4   29.26    6.96
  -2  -2   4   33.05    6.65
   2  -2  -4   35.12    7.80
  -2  -2   4   27.63    7.20
   2  -2  -4   32.55    7.16
  -2  -2   4   31.90    4.23
  -2  -2   3 1318.44   55.09
  -2  -2   3 1172.63   59.15
   2  -2  -3 1356.94   59.47
  -2  -2   3 1398.10   58.34
   2  -2  -3 1219.86   57.69
  -2  -2   3 1366.06   56.77
   2  -2  -3 1373.91   60.08
   2  -2  -2 1348.33   53.90
  -2  -2   2 1236.24   51.93
  -2  -2   2 1125.38   53.29
  -2  -2   2 1262.44   49.55
  -2  -2   2 1221.33   47.34
  -2  -2   2 1152.01   45.13
   2  -2  -2 1286.71   53.62
   2  -2  -1  555.94   26.80
   2  -2  -1  573.05   26.97
  -2  -2   1  583.09   23.80
   2  -2  -1  449.19   26.27
  -2  -2   1  504.74   24.98
  -2  -2   1  609.98   27.23
  -2  -2   1  514.43   27.04
  -2  -2   1  525.95   22.43
   2  -2   0  477.22   24.86
   2  -2   0  483.12   25.22
  -2  -2   0  467.42   22.98
  -2  -2   0  487.14   21.09
  -2  -2   0  516.12   24.55
  -2  -2   0  528.33   23.25
   2  -2   0  508.66   24.88
   2  -2   1 1191.21   53.51
   2  -2   1 1237.98   53.74
  -2  -2  -1 1348.42   49.58
  -2  -2  -1 1242.14   49.51
  -2  -2  -1 1285.22   52.26
   2  -2   2  237.90   17.14
   2  -2   2  228.36   16.81
   2  -2   2  210.74   16.56
  -2  -2  -2  223.26   14.43
  -2  -2  -2  202.44   13.53
   2  -2   3 2289.09   91.80
   2  -2   3 2069.70   91.01
   2  -2   4   92.32   13.07
  -2  -2  -4  107.17   11.05
   2  -2   4   99.42   11.68
   2  -2   4  107.46   13.94
   2  -2   4  114.86   14.86
   2  -2   4  103.78   11.44
  -2  -2  -4  125.21   12.25
   2  -2   5  141.82   17.36
   2  -2   5  122.97   16.67
   2  -2   5  139.17   14.49
  -2  -2  -5  122.58   12.78
   2  -2   5  146.83   18.21
  -2  -2  -5  112.99   11.66
   2  -2   5  110.56   13.43
  -2  -2  -5  137.37   16.71
  -2  -2  -5  156.81   15.33
  -2  -2  -5  142.58   16.52
   2  -2   6  465.26   35.57
  -2  -2  -6  364.16   24.08
   2  -2   6  415.45   34.82
  -2  -2  -6  488.55   29.37
   2  -2   6  432.75   35.53
  -2  -2  -6  475.30   33.82
  -2  -2  -6  412.98   33.35
  -2  -2  -6  461.75   30.81
   2  -2   6  423.73   29.59
  -2  -2  -6  443.35   34.47
   2  -2   7  145.97   18.33
   2  -2   7  185.70   21.21
   2  -2   7  169.68   21.17
  -2  -2  -7  152.41   15.36
  -2  -2  -7  156.28   19.48
  -2  -2  -7  173.33   19.40
   2  -2   7  177.97   17.47
  -2  -2  -7  164.08   17.37
  -2  -2  -7  175.86   21.27
  -2  -2  -7  197.19   21.24
   2  -2   8    6.15    3.02
   2  -2   8    5.68    4.42
   2  -2   8    3.13    3.83
  -2  -2  -8    5.32    2.97
   2  -2   8    1.44    4.59
  -2  -2  -8    7.81    4.20
  -2  -2  -9  653.45   33.93
   2  -2   9  695.88   37.31
   2  -2   9  656.36   33.10
   2  -2   9  651.45   39.92
  -2  -2  -9  735.86   38.32
  -2  -1  10  147.96   13.48
  -2  -1  10  142.60   11.58
  -2  -1  10  139.46   12.91
   2  -1 -10  148.83   14.58
   2  -1 -10  131.38   11.81
   2  -1 -10  148.54   14.44
  -2  -1   9   56.65    8.91
  -2  -1   9   51.32    8.43
   2  -1  -9   58.93   14.52
   2  -1  -9   68.34   10.53
   2  -1  -9   58.01   11.55
   2  -1  -8  339.62   37.74
  -2  -1   8  268.56   21.51
   2  -1  -8  305.46   29.97
  -2  -1   8  303.35   28.38
  -2  -1   8  291.00   23.99
  -2  -1   8  287.53   23.41
   2  -1  -8  288.69   28.71
  -2  -1   8  302.66   23.41
   2  -1  -8  349.36   26.80
   2  -1  -8  292.70   29.22
  -2  -1   7  601.31   39.63
   2  -1  -7  658.31   41.40
   2  -1  -7  585.46   44.00
  -2  -1   7  645.88   44.09
   2  -1  -7  612.81   46.10
   2  -1  -7  654.87   54.74
  -2  -1   7  567.25   35.89
   2  -1  -7  668.51   46.73
  -2  -1   7  620.27   35.94
  -2  -1   6  414.87   24.63
   2  -1  -6  371.16   28.85
  -2  -1   6  386.23   22.64
  -2  -1   6  391.52   25.60
  -2  -1   6  418.80   27.00
   2  -1  -6  387.83   32.87
   2  -1  -6  363.84   31.80
  -2  -1   6  384.71   30.35
  -2  -1   6  435.02   32.91
   2  -1  -5  276.28   23.49
  -2  -1   5  294.39   17.73
  -2  -1   5  366.27   26.98
  -2  -1   5  301.14   18.88
  -2  -1   5  288.10   25.08
   2  -1  -5  335.89   27.39
  -2  -1   5  354.77   26.14
   2  -1  -4  679.93   38.56
   2  -1  -4  730.97   40.12
  -2  -1   4  671.93   37.89
  -2  -1   4  665.35   37.10
  -2  -1   4  624.91   31.88
  -2  -1   3 2380.22   91.92
   2  -1  -3 2638.94   98.72
  -2  -1   3 2505.07   93.33
  -2  -1   3 2306.05   95.10
   2  -1  -3 2621.21   99.01
  -2  -1   3 2138.23   96.44
   2  -1  -3 2428.69   96.87
  -2  -1   2   18.12    2.22
   2  -1  -2   15.71    3.93
  -2  -1   2   20.93    4.06
  -2  -1   2   23.12    3.97
   2  -1  -2   18.18    4.32
   2  -1  -1  582.41   26.60
   2  -1  -1  534.60   27.06
  -2  -1   1  505.23   22.21
   2  -1   0 3441.98  127.57
  -2  -1   0 3442.40  121.91
  -2  -1  -1   79.22    6.80
   2  -1   1   66.04    7.78
   2  -1   1   72.97    8.10
   2  -1   1   80.39    8.41
  -2  -1  -1   68.05    5.60
  -2  -1  -1   62.19    4.44
   2  -1   2  597.44   31.70
   2  -1   2  618.87   32.45
  -2  -1  -2  649.35   28.83
  -2  -1  -2  539.27   27.00
   2  -1   3  647.62   37.12
   2  -1   3  716.94   38.61
  -2  -1  -3  643.64   32.43
  -2  -1  -4 1556.60   69.35
   2  -1   4 1286.05   68.02
   2  -1   4 1211.05   67.68
   2  -1   4 1351.76   64.05
   2  -1   4 1442.44   64.54
  -2  -1  -4 1605.46   62.82
   2  -1   4 1573.15   63.65
   2  -1   4 1392.30   61.87
  -2  -1  -4 1415.82   61.39
   2  -1   5   29.59    7.24
  -2  -1  -5   29.19    6.48
   2  -1   5   48.77   10.43
   2  -1   5   33.99    7.01
  -2  -1  -5   34.75    6.54
   2  -1   5   44.00   10.35
  -2  -1  -5   48.82    8.37
   2  -1   5   38.39    6.67
   2  -1   5   49.59    9.02
  -2  -1  -5   34.17    8.27
   2  -1   5   42.40    7.76
  -2  -1  -5   46.98    8.71
   2  -1   6  195.64   20.63
   2  -1   6  216.75   21.18
   2  -1   6  176.63   21.74
   2  -1   6  201.38   23.25
  -2  -1  -6  166.86   14.50
   2  -1   6  194.75   16.81
   2  -1   6  185.95   17.60
   2  -1   6  185.84   18.70
  -2  -1  -6  184.15   18.16
  -2  -1  -6  202.92   22.24
  -2  -1  -6  192.16   20.59
   2  -1   7  353.27   27.82
   2  -1   7  381.13   32.90
   2  -1   7  382.20   33.39
  -2  -1  -7  386.46   25.27
  -2  -1  -7  357.14   30.23
   2  -1   7  383.88   28.43
   2  -1   7  365.40   29.97
  -2  -1  -7  401.41   28.64
  -2  -1  -7  337.88   29.74
   2  -1   8   45.03    8.30
   2  -1   8   49.84   10.42
  -2  -1  -8   34.61    6.33
  -2  -1  -8   35.49    8.62
  -2  -1  -9   54.78    8.13
   2  -1   9   58.11    9.22
   2  -1   9   40.49    9.35
  -2  -1  -9   62.75    9.59
   2  -1  10  288.01   14.94
   2  -1  10  171.21   14.28
  -2   0  10  183.91   15.14
  -2   0  10  217.80   14.96
   2   0 -10  185.22   15.33
   2   0 -10  187.89   16.43
   2   0 -10  173.69   16.20
  -2   0   9   -0.67    2.75
   2   0  -9   -1.21    3.51
   2   0  -9    0.96    1.75
   2   0  -9    5.53    4.06
   2   0  -9    4.39    4.03
   2   0  -8  306.01   24.99
   2   0  -8  235.62   26.38
   2   0  -8  301.40   34.51
   2   0  -8  211.96   22.76
  -2   0   8  228.14   20.27
   2   0  -8  225.43   25.51
  -2   0   8  277.83   27.08
   2   0  -7  295.59   34.95
   2   0  -7  261.04   27.56
   2   0  -7  313.37   26.00
   2   0  -7  231.33   27.25
  -2   0   7  246.88   20.77
  -2   0   7  260.58   21.85
  -2   0   7  264.31   27.03
  -2   0   7  262.68   24.59
  -2   0   7  249.75   20.32
   2   0  -6  267.06   23.59
   2   0  -6  321.52   34.43
  -2   0   6  260.90   19.67
  -2   0   6  266.53   17.77
  -2   0   6  224.53   23.38
  -2   0   6  271.72   26.08
   2   0  -6  230.95   24.62
  -2   0   6  239.09   18.52
  -2   0   5  666.77   32.04
   2   0  -5  626.47   38.98
  -2   0   5  721.48   42.18
   2   0  -5  603.82   41.06
   2   0  -5  701.52   42.97
  -2   0   5  756.95   43.69
   2   0  -4  696.03   40.15
  -2   0   4  787.85   37.26
   2   0  -4  666.64   39.38
  -2   0   4  645.72   38.37
  -2   0   4  644.37   38.93
   2   0  -3 1287.13   56.18
  -2   0   3 1277.37   49.77
   2   0  -3 1180.33   55.68
   2   0  -3 1209.52   54.66
  -2   0   3 1152.12   52.33
   2   0  -2 4699.67  172.11
   2   0  -2 4716.23  171.15
   2   0  -2 4989.51  172.84
  -2   0   2 4539.45  165.33
   2   0  -1  383.63   19.40
  -2   0   1  313.16   13.48
   2   0   0  194.92   12.69
   2   0   0  207.42   13.41
   2   0   0  171.85   12.55
  -2   0   0  159.43    7.37
   2   0   1  789.08   29.65
   2   0   1  769.40   29.27
   2   0   1  737.61   28.82
   2   0   2  701.27   36.03
   2   0   2  689.84   35.81
  -2   0  -2  761.76   33.41
  -2   0  -2  686.27   29.78
   2   0   3    7.45    3.87
   2   0   3    4.63    3.32
  -2   0  -3    2.27    1.86
  -2   0  -3    5.97    2.45
  -2   0  -3   -0.47    2.53
  -2   0  -3    2.96    1.66
  -2   0  -3    1.28    1.86
   2   0   4   16.57    4.15
  -2   0  -4    8.31    3.62
   2   0   4    4.83    3.77
   2   0   4   12.96    5.34
  -2   0  -4    8.36    3.44
   2   0   4   13.68    4.19
   2   0   4    7.07    3.57
  -2   0  -4    7.67    3.26
  -2   0  -4   13.13    3.62
  -2   0  -4    8.19    3.99
   2   0   4    7.86    3.51
  -2   0  -5   38.87    7.79
   2   0   5   32.20    8.71
   2   0   5   31.93    6.38
   2   0   5   33.06    9.08
   2   0   5   43.09    7.27
  -2   0  -5   43.56    9.10
   2   0   5   50.50    8.14
  -2   0  -6  110.48   14.47
   2   0   6  121.69   18.11
   2   0   6  134.78   14.37
   2   0   6  113.23   17.68
   2   0   6  131.88   15.98
   2   0   6  108.12   15.16
   2   0   6  116.72   13.28
  -2   0  -6  116.80   16.51
   2   0   6  126.52   13.71
   2   0   7   37.85    9.51
   2   0   7   38.43   10.33
   2   0   7   42.43    9.56
   2   0   7   30.07    6.11
   2   0   7   32.16    8.11
  -2   0  -7   22.71    6.96
   2   0   8  774.17   48.23
   2   0   8  774.50   44.93
   2   0   8  731.94   41.81
  -2   0  -8  662.49   40.39
  -2   0  -8  776.65   44.92
  -2   0  -9  590.51   32.73
   2   0   9  637.54   40.45
   2   0   9  568.09   33.21
   2   0   9  524.94   30.27
  -2   0  -9  620.75   35.27
  -2   0 -10   72.62    6.58
   2   0  10   65.35    6.29
   2   0  10   57.72    5.47
  -2   1  10  123.78   11.54
  -2   1  10  146.94   12.07
  -2   1  10  135.08   12.54
   2   1 -10  137.36   13.89
   2   1 -10  159.13   13.91
   2   1 -10  132.64   12.99
   2   1 -10  120.06   12.98
  -2   1   9   44.07    8.24
  -2   1   9   59.07    8.88
  -2   1   9   36.02    6.72
   2   1  -9   47.01   10.22
   2   1  -9   38.57    8.64
   2   1  -9   43.06    9.62
   2   1  -9   59.46   10.86
   2   1  -8  292.65   28.83
   2   1  -8  347.51   31.88
   2   1  -8  283.55   27.17
   2   1  -8  236.97   25.52
  -2   1   8  301.62   22.94
  -2   1   8  284.25   23.25
   2   1  -8  326.37   30.46
  -2   1   8  286.16   28.54
   2   1  -7  870.96   46.76
   2   1  -7  709.69   49.58
   2   1  -7  923.05   61.72
  -2   1   7  665.43   37.53
  -2   1   7  676.72   39.31
  -2   1   7  633.17   34.00
  -2   1   7  530.06   39.47
  -2   1   7  702.47   48.46
  -2   1   7  600.11   35.47
   2   1  -7  676.90   47.50
   2   1  -6  494.21   32.77
   2   1  -6  315.36   30.51
   2   1  -6  315.79   34.53
  -2   1   6  405.58   24.65
  -2   1   6  366.85   29.61
  -2   1   6  386.84   25.85
  -2   1   6  352.83   22.95
  -2   1   6  412.40   33.73
   2   1  -6  297.99   28.95
   2   1  -5  416.63   28.41
   2   1  -5  300.33   26.90
   2   1  -5  494.00   39.17
  -2   1   5  371.17   21.62
   2   1  -5  403.84   29.81
  -2   1   5  348.59   20.75
  -2   1   5  318.80   27.76
   2   1  -5  303.98   26.57
   2   1  -4  642.39   37.48
  -2   1   4  598.37   33.89
   2   1  -4  639.56   36.69
   2   1  -3 2582.18  102.32
   2   1  -3 2576.22  101.49
  -2   1   3 2627.74  100.47
  -2   1   3 2417.05   93.21
  -2   1   3 2578.95   97.17
   2   1  -3 2619.36  101.23
  -2   1   2   22.48    3.16
   2   1  -2   26.68    5.20
   2   1  -2   31.97    5.42
  -2   1   2   23.52    2.72
   2   1  -1  507.26   26.31
  -2   1   1  592.29   24.13
  -2   1   0 3518.05  127.18
   2   1   0 3721.38  131.83
   2   1   1   86.75    9.19
   2   1   1   93.10    9.30
  -2   1  -1   86.55    5.95
  -2   1  -1   90.02    5.85
  -2   1  -1  105.27    8.34
  -2   1  -2  478.45   23.65
   2   1   2  606.80   30.59
   2   1   2  547.16   30.47
  -2   1  -2  519.02   25.84
  -2   1  -2  608.33   28.78
   2   1   3  683.93   38.77
   2   1   3  728.03   39.68
  -2   1  -3  734.63   38.35
  -2   1  -3  646.94   33.06
  -2   1  -3  802.26   35.79
  -2   1  -3  687.57   33.15
  -2   1  -3  710.63   37.14
   2   1   4 1520.61   70.28
   2   1   4 1467.43   73.32
   2   1   4 1505.31   73.79
  -2   1  -4 1566.60   73.40
  -2   1  -4 1704.89   72.38
  -2   1  -4 1568.33   66.70
   2   1   4 1546.44   65.69
  -2   1  -5   41.91    8.08
  -2   1  -5   31.62    8.25
   2   1   5   38.14    9.49
   2   1   5   39.12    9.60
  -2   1  -5   32.28    8.77
   2   1   5   53.61   10.22
   2   1   5   33.28    6.50
  -2   1  -5   44.00   11.65
  -2   1  -6  201.52   20.13
   2   1   6  188.03   22.61
   2   1   6  207.10   23.31
   2   1   6  191.09   18.07
   2   1   6  184.22   19.75
  -2   1  -6  179.17   18.78
   2   1   6  187.03   22.56
  -2   1  -6  222.91   22.79
  -2   1  -6  198.67   18.89
   2   1   6  184.78   16.73
   2   1   7  327.30   30.78
   2   1   7  361.35   32.14
  -2   1  -7  324.15   27.80
   2   1   7  396.52   26.21
   2   1   7  367.86   28.53
   2   1   7  340.13   23.63
  -2   1  -7  371.24   26.99
   2   1   7  334.49   28.44
  -2   1  -8   38.32    8.43
   2   1   8   38.54    9.46
  -2   1  -8   32.69    8.52
   2   1   8   34.55    8.40
   2   1   8   41.94    8.42
  -2   1  -8   29.94    6.75
   2   1   8   47.31    6.78
   2   1   9   58.51    8.39
   2   1   9   50.08    7.55
  -2   1 -10  256.69   12.62
   2   1  10   70.08    9.47
  -2   2  10  250.40   16.33
  -2   2  10  244.19   16.63
   2   2 -10  220.59   16.75
  -2   2   9  368.09   23.21
   2   2  -9  290.66   25.48
   2   2  -9  300.88   24.24
  -2   2   9  274.15   20.61
   2   2  -9  281.40   20.03
   2   2  -9  289.72   24.60
  -2   2   8  206.74   19.70
   2   2  -8  206.34   23.63
   2   2  -8  223.59   22.89
  -2   2   8  198.80   18.93
   2   2  -8  198.88   22.67
  -2   2   8  216.04   17.30
   2   2  -8  276.01   26.70
  -2   2   8  259.41   26.10
   2   2  -8  233.17   23.89
   2   2  -7  898.30   55.28
   2   2  -7  780.54   49.56
  -2   2   7  853.26   45.39
   2   2  -7  858.34   54.52
  -2   2   7  830.23   41.17
   2   2  -7  737.52   50.71
  -2   2   7  635.07   45.21
  -2   2   7  933.94   50.90
  -2   2   7  815.10   54.76
  -2   2   6  547.81   38.34
   2   2  -6  566.58   40.23
   2   2  -6  535.40   39.88
  -2   2   6  544.02   30.61
   2   2  -6  533.97   38.25
  -2   2   6  692.62   35.73
  -2   2   6  547.68   41.92
   2   2  -5 1189.22   62.54
  -2   2   5 1189.94   50.98
  -2   2   5 1255.77   55.24
   2   2  -5 1056.51   59.03
   2   2  -5 1200.63   61.83
  -2   2   5 1074.01   61.19
  -2   2   5 1199.15   50.55
  -2   2   5 1198.01   59.18
   2   2  -4   34.44    6.99
   2   2  -4   45.35    8.37
  -2   2   4   35.75    4.69
   2   2  -4   45.08    8.33
  -2   2   4   36.62    6.80
  -2   2   4   36.51    7.51
   2   2  -3 1251.11   56.08
   2   2  -3 1201.02   55.81
  -2   2   3 1277.82   54.85
   2   2  -3 1260.08   55.33
  -2   2   2 1056.11   41.92
   2   2  -2 1029.44   44.58
   2   2  -2  959.00   44.08
  -2   2   2  939.69   37.93
   2   2  -1  545.42   25.88
   2   2  -1  575.61   26.19
   2   2  -1  568.35   27.29
  -2   2   1  593.97   24.08
  -2   2   1  574.21   25.06
   2   2   0  442.46   23.93
   2   2   0  462.49   24.48
   2   2   0  420.30   29.01
  -2   2   0  514.05   22.95
  -2   2   0  466.16   20.71
   2   2   0  533.47   24.99
   2   2   1 1412.85   56.91
  -2   2  -1 1306.50   51.84
   2   2   1 1331.84   56.11
  -2   2  -1 1263.69   52.44
  -2   2  -1 1344.15   51.75
   2   2   1 1417.53   63.97
   2   2   2  245.23   17.58
   2   2   2  216.99   17.13
   2   2   2  225.48   17.10
  -2   2  -2  210.75   13.63
  -2   2  -2  208.39   13.72
  -2   2  -2  249.94   16.63
   2   2   2  258.66   21.87
   2   2   3 2059.15   90.68
   2   2   3 2114.88   91.47
  -2   2  -3 2211.39   89.52
   2   2   3 1931.90   94.94
   2   2   4  101.05   12.99
   2   2   4   86.45   12.67
   2   2   4   86.87   13.06
  -2   2  -4  108.19   14.55
  -2   2  -4   91.16   10.71
   2   2   4  121.50   11.80
  -2   2  -4   85.00   10.80
   2   2   4  105.39   13.40
  -2   2  -4  112.18   13.45
   2   2   4   97.10   10.34
   2   2   5   99.12   14.91
   2   2   5   82.14   13.99
  -2   2  -5   80.81   14.53
  -2   2  -5   91.19   11.40
   2   2   5   90.92   10.71
  -2   2  -5   73.61   10.32
  -2   2  -5   77.17   11.60
   2   2   5  119.40   16.07
  -2   2  -5   85.46   10.08
   2   2   5   98.35   11.05
  -2   2  -5  109.84   13.48
  -2   2  -6  447.31   33.18
   2   2   6  471.77   35.01
   2   2   6  452.41   33.21
   2   2   6  444.02   36.43
   2   2   6  513.15   38.21
  -2   2  -6  519.59   47.12
   2   2   6  495.97   37.83
  -2   2  -6  429.49   25.79
   2   2   6  485.20   28.65
  -2   2  -6  436.52   31.28
  -2   2  -7  177.31   17.35
  -2   2  -7  170.46   18.28
   2   2   7  168.96   20.65
   2   2   7  175.35   21.13
  -2   2  -7  159.06   18.00
   2   2   7  168.29   19.22
   2   2   7  207.07   23.46
   2   2   7  158.71   16.27
   2   2   7  168.81   14.76
  -2   2  -8    3.49    3.00
   2   2   8    6.74    4.12
   2   2   8    8.91    3.27
   2   2   8    4.26    4.12
   2   2   8    2.84    3.25
  -2   2  -8    0.92    2.93
   2   2   8    9.43    4.31
  -2   2  -8    7.15    3.59
  -2   2  -9  750.30   36.66
   2   2   9  665.67   40.22
  -2   2  -9  633.27   31.03
   2   2   9  716.70   35.01
   2   2   9  610.84   32.51
  -2   3  10  180.06   12.16
   2   3 -10  178.20   13.75
   2   3  -9    3.76    2.44
   2   3  -9    5.26    2.79
   2   3  -9    5.35    3.66
   2   3  -9    4.97    3.19
  -2   3   9    2.62    2.40
   2   3  -9    6.95    3.32
  -2   3   9    2.41    2.34
   2   3  -8   64.45   12.04
   2   3  -8   45.73   10.16
   2   3  -8   54.91   10.39
  -2   3   8   66.20    9.03
  -2   3   8   56.20    9.86
   2   3  -8   50.44   10.50
  -2   3   7  274.00   24.35
  -2   3   7  237.86   20.52
   2   3  -7  229.26   24.43
  -2   3   7  229.27   26.59
   2   3  -7  243.47   24.62
   2   3  -7  210.38   22.10
  -2   3   7  242.67   21.21
  -2   3   7  186.63   20.22
   2   3  -7  212.59   23.71
   2   3  -7  253.20   24.32
  -2   3   7  186.73   18.79
  -2   3   7  262.56   19.54
   2   3  -7  218.47   23.01
   2   3  -6  181.53   20.24
   2   3  -6  200.49   21.85
   2   3  -6  210.22   21.90
   2   3  -6  165.21   19.00
   2   3  -6  187.17   21.19
  -2   3   6  198.32   21.33
  -2   3   6  218.51   18.19
   2   3  -6  184.73   20.08
  -2   3   5  105.81   13.65
   2   3  -5  132.72   15.17
   2   3  -5   91.91   13.64
   2   3  -5   99.37   13.63
   2   3  -5   89.24   12.83
  -2   3   5   95.35   10.82
   2   3  -5   98.31   13.82
   2   3  -5   88.91   12.66
   2   3  -5  102.43   13.00
   2   3  -4 1226.45   58.72
   2   3  -4 1144.67   58.29
   2   3  -4 1102.27   57.99
  -2   3   4 1197.24   52.74
   2   3  -4 1270.66   59.50
   2   3  -4 1203.66   57.68
  -2   3   4 1249.83   58.74
   2   3  -3  714.55   37.12
  -2   3   3  724.22   32.98
   2   3  -3  780.41   37.86
  -2   3   3  739.42   38.36
   2   3  -2  538.97   27.57
   2   3  -2  475.16   26.68
  -2   3   2  543.46   27.27
   2   3  -1 1375.18   57.41
   2   3  -1 1545.81   58.29
   2   3  -1 1463.99   59.27
  -2   3   1 1386.45   58.72
  -2   3   1 1440.18   59.72
  -2   3   1 1404.67   55.76
   2   3   0  209.42   14.15
  -2   3   0  240.57   14.82
  -2   3   0  207.61   13.52
   2   3   0  226.55   14.87
   2   3   1   89.13    9.75
   2   3   1   97.55    9.76
   2   3   1  117.35   10.49
  -2   3  -1  105.30    9.14
  -2   3  -1  110.56    9.50
   2   3   1  118.04   15.40
  -2   3  -1  111.69    9.68
   2   3   2  242.45   18.14
   2   3   2  259.28   18.48
   2   3   2  241.65   18.34
  -2   3  -2  251.02   16.06
   2   3   3 3411.55  125.13
   2   3   3 3206.14  120.88
  -2   3  -3 3173.58  117.49
   2   3   4   13.15    4.75
   2   3   4    6.70    3.75
   2   3   4   10.83    4.63
  -2   3  -4   12.90    6.10
  -2   3  -4   20.53    5.35
   2   3   4   16.50    4.39
  -2   3  -4   14.98    5.07
  -2   3  -4   21.02    4.94
   2   3   4   15.38    4.36
   2   3   5   55.42    7.98
  -2   3  -5   53.90   10.31
   2   3   5   66.43   11.92
  -2   3  -5   43.56    7.97
  -2   3  -5   55.80    8.66
   2   3   5   48.08   10.58
  -2   3  -5   62.02   12.97
   2   3   5   45.83    8.15
  -2   3  -5   41.87    8.82
   2   3   5   61.67   11.97
  -2   3  -5   60.03    8.09
  -2   3  -6  282.28   24.90
  -2   3  -6  241.84   22.06
   2   3   6  246.32   25.12
   2   3   6  278.94   26.94
  -2   3  -6  259.20   29.51
  -2   3  -6  292.17   36.44
   2   3   6  272.35   27.02
  -2   3  -6  228.96   17.17
   2   3   6  244.94   18.48
   2   3   6  253.10   24.54
  -2   3  -6  235.88   21.33
  -2   3  -7  106.26   14.06
   2   3   7   94.05   14.29
   2   3   7  102.67   15.56
   2   3   7   91.71   13.88
   2   3   7   96.00   15.63
   2   3   7  122.04   14.03
   2   3   7   98.29   10.30
  -2   3  -7   83.90   11.39
  -2   3  -7   92.77   13.17
  -2   3  -8  424.61   28.36
   2   3   8  426.33   33.35
   2   3   8  400.51   27.64
   2   3   8  391.10   24.30
   2   3   8  396.07   28.49
  -2   3  -8  358.20   23.78
  -2   3  -9   29.26    5.68
  -2   3  -9   24.85    4.39
   2   3   9   34.97    6.09
   2   3   9   33.81    7.07
   2   3   9   21.23    4.77
  -2   4  10  108.07    8.22
   2   4 -10   99.70    9.20
  -2   4   9  362.69   20.67
  -2   4   9  399.51   22.18
   2   4  -9  367.55   24.92
   2   4  -9  361.49   22.53
  -2   4   8  200.96   16.52
   2   4  -8  201.78   18.93
   2   4  -8  198.06   20.13
  -2   4   8  166.65   16.86
   2   4  -8  184.28   18.50
  -2   4   8  137.55   14.40
   2   4  -8  166.05   16.55
   2   4  -7  411.86   31.65
   2   4  -7  436.10   34.04
   2   4  -7  463.27   32.38
   2   4  -7  433.28   32.17
   2   4  -7  449.45   31.81
  -2   4   7  366.27   28.67
  -2   4   7  449.47   32.35
   2   4  -7  437.06   31.01
   2   4  -6  592.49   39.31
   2   4  -6  600.97   38.81
   2   4  -6  690.87   43.11
   2   4  -6  629.28   40.04
  -2   4   6  727.62   39.73
   2   4  -6  582.22   39.24
  -2   4   6  596.13   40.66
  -2   4   6  614.92   38.40
   2   4  -6  668.72   38.00
   2   4  -6  611.37   38.17
  -2   4   6  576.10   34.96
   2   4  -5   31.29    6.77
   2   4  -5   36.97    7.49
  -2   4   5   26.41    6.40
   2   4  -5   38.45    7.69
   2   4  -5   38.60    8.72
   2   4  -5   37.69    8.00
   2   4  -5   44.20    8.27
   2   4  -5   27.87    6.68
  -2   4   5   30.73    6.14
  -2   4   5   39.24    8.89
  -2   4   5   43.02    9.37
   2   4  -4  498.31   30.53
  -2   4   4  486.81   30.05
   2   4  -4  398.56   29.69
   2   4  -4  550.37   33.03
   2   4  -4  553.32   31.72
   2   4  -4  516.87   33.12
   2   4  -4  510.35   32.74
  -2   4   4  623.56   32.40
  -2   4   4  540.12   27.94
  -2   4   4  511.02   33.48
  -2   4   4  609.10   35.57
   2   4  -3  293.85   19.77
   2   4  -3  294.87   21.34
  -2   4   3  320.09   22.66
  -2   4   3  282.93   22.51
   2   4  -3  291.49   19.58
   2   4  -2 2511.79  103.75
   2   4  -2 2549.19  105.47
  -2   4   2 3051.67  106.38
  -2   4   2 3011.24  110.81
  -2   4   2 2978.53  110.10
  -2   4   1  195.39   15.19
  -2   4   1  186.59   12.44
  -2   4   1  186.43   12.48
  -2   4   1  199.91   15.55
   2   4  -1  180.76   12.53
   2   4   0  474.36   24.02
  -2   4   0  500.15   26.84
  -2   4   0  495.43   25.04
  -2   4  -1  768.72   34.80
  -2   4  -1  676.36   32.61
   2   4   1  723.73   34.07
  -2   4  -1  745.77   33.78
  -2   4  -1  745.26   34.56
  -2   4  -1  689.80   35.55
   2   4   1  767.99   48.66
  -2   4  -2 1651.38   69.24
  -2   4  -2 1705.42   69.71
   2   4   2 1618.41   70.23
   2   4   2 1787.24   74.13
   2   4   2 1625.59   70.41
  -2   4  -3 1255.28   54.78
   2   4   3 1196.53   56.94
   2   4   3 1174.92   56.46
   2   4   3 1200.66   56.63
   2   4   3 1202.39   54.77
  -2   4  -3 1223.01   52.94
   2   4   3 1147.37   51.97
  -2   4  -4   78.03    9.99
  -2   4  -4   55.08    8.66
   2   4   4   73.07   11.33
   2   4   4   76.25   11.65
   2   4   4   72.36   10.29
  -2   4  -4   83.30   14.56
   2   4   4   96.85   13.55
   2   4   4   90.62   12.66
   2   4   4   61.17   11.70
  -2   4  -4   80.98   11.81
  -2   4  -4   69.22    8.92
   2   4   4   79.23    9.30
  -2   4  -5   87.95   11.80
   2   4   5   64.15   11.57
  -2   4  -5   67.50    9.91
   2   4   5   88.74   13.43
  -2   4  -5   85.35   13.08
  -2   4  -5   92.96   16.84
   2   4   5   80.08   12.75
   2   4   5   83.24   14.41
   2   4   5   78.33   12.93
   2   4   5   79.28   10.85
   2   4   5   84.78   14.16
  -2   4  -5   72.89    9.12
   2   4   5   72.88   15.89
   2   4   5   75.96    9.29
  -2   4  -6  483.03   35.17
  -2   4  -6  521.82   34.03
   2   4   6  497.60   35.65
   2   4   6  546.35   37.11
  -2   4  -6  454.93   26.84
  -2   4  -6  517.80   44.25
  -2   4  -6  527.79   52.76
   2   4   6  551.21   41.37
   2   4   6  510.70   37.18
   2   4   6  594.36   44.77
   2   4   6  504.94   38.49
   2   4   6  483.22   35.47
  -2   4  -7  196.79   18.90
   2   4   7  203.35   22.62
   2   4   7  192.02   19.72
   2   4   7  167.49   20.39
  -2   4  -7  179.22   15.82
  -2   4  -8  274.57   21.37
  -2   4  -8  232.52   16.35
  -2   4  -8  283.13   19.86
   2   4   8  299.17   22.29
   2   4   8  278.51   23.41
   2   4   8  281.56   19.08
  -2   4  -9  186.09   12.53
   2   4   9  227.52   15.10
  -2   5   9   74.91    7.94
  -2   5   9   74.34    7.79
   2   5  -9   78.30    9.53
   2   5  -9   78.12    8.94
   2   5  -8  217.30   19.13
  -2   5   8  196.99   15.98
   2   5  -8  195.03   18.48
   2   5  -7  599.26   33.44
  -2   5   7  556.53   33.64
   2   5  -7  588.58   38.14
  -2   5   7  497.96   34.21
  -2   5   7  545.10   31.60
   2   5  -7  657.62   39.89
  -2   5   7  540.44   41.43
  -2   5   7  431.19   32.02
  -2   5   7  586.31   33.10
   2   5  -6  390.15   27.05
   2   5  -6  409.97   29.03
  -2   5   6  386.06   24.23
   2   5  -6  381.79   30.02
  -2   5   6  351.97   26.86
   2   5  -6  366.56   29.70
  -2   5   6  304.63   26.89
  -2   5   6  371.43   28.60
  -2   5   6  321.70   27.08
   2   5  -5  230.77   22.24
   2   5  -5  266.18   23.48
  -2   5   5  256.14   21.52
   2   5  -5  266.14   23.53
  -2   5   5  255.70   22.83
  -2   5   5  280.83   25.41
  -2   5   4  648.21   39.18
   2   5  -4  571.48   40.00
   2   5  -4  829.63   44.62
  -2   5   4  738.97   44.52
   2   5  -4  690.39   41.05
  -2   5   4  765.27   39.61
  -2   5   4  791.52   43.91
  -2   5   3  155.25   15.24
   2   5  -3  172.38   17.68
   2   5  -3  178.02   17.45
  -2   5   3  153.66   15.97
   2   5  -3  166.70   16.10
  -2   5   3  156.29   14.33
   2   5  -3  146.36   15.51
  -2   5   3  151.20   16.53
   2   5  -2   53.76    8.98
   2   5  -2   39.44    7.92
   2   5  -2   57.16    8.38
  -2   5   2   40.16    6.34
   2   5  -2   44.45    7.87
  -2   5   2   42.06    7.81
  -2   5   2   44.27    8.06
   2   5  -1   79.59    9.70
   2   5  -1   62.48    9.17
  -2   5   1   69.27    7.37
  -2   5   1   76.31   10.12
  -2   5   1   91.75   11.09
   2   5  -1   71.25    9.55
   2   5   0 1632.66   65.28
  -2   5   0 1356.28   60.49
  -2   5   0 1470.02   62.10
  -2   5   0 1531.84   62.68
   2   5   0 1362.55   64.48
  -2   5   0 1476.57   64.59
  -2   5   0 1431.68   65.51
   2   5   0 1293.23   75.76
   2   5   1  498.57   31.81
   2   5   1  551.50   26.84
  -2   5  -1  591.44   30.49
  -2   5  -1  662.49   32.08
   2   5   1  608.85   33.29
  -2   5  -1  603.01   30.42
   2   5   2  750.15   38.88
   2   5   2  751.96   39.99
  -2   5  -2  784.09   38.38
   2   5   2  781.71   41.50
   2   5   2  659.22   33.14
   2   5   2  649.59   34.11
   2   5   2  769.06   38.42
  -2   5  -2  592.45   34.20
   2   5   2  937.81   58.87
  -2   5  -3  308.14   22.99
   2   5   3  301.93   21.42
   2   5   3  336.94   25.50
   2   5   3  336.05   21.58
   2   5   3  372.62   37.45
  -2   5  -3  322.69   21.13
   2   5   3  280.11   19.57
  -2   5  -4 1296.06   63.30
   2   5   4 1275.75   63.80
  -2   5  -4 1504.35   79.34
  -2   5  -4 1500.80   64.24
   2   5   4 1482.25   66.95
  -2   5  -4 1568.64   70.87
   2   5   4 1478.60   73.15
   2   5   4 1494.85   87.77
  -2   5  -4 1336.78   61.52
   2   5   4 1433.28   61.29
  -2   5  -5  247.93   21.13
  -2   5  -5  267.66   29.63
   2   5   5  272.04   24.92
   2   5   5  279.15   21.65
   2   5   5  243.21   24.06
  -2   5  -5  207.92   18.01
  -2   5  -5  234.80   23.52
   2   5   5  252.73   31.86
   2   5   5  277.91   26.60
  -2   5  -5  250.07   23.46
  -2   5  -6   61.28   11.60
  -2   5  -6   55.07    9.86
  -2   5  -6   54.05    9.43
   2   5   6   72.36   11.82
  -2   5  -6   60.69   14.42
   2   5   6   72.68    9.71
  -2   5  -6   47.97   14.80
  -2   5  -6   52.50    8.29
   2   5   6   65.72   12.54
   2   5   6   69.62   14.77
   2   5   6   62.80   11.93
  -2   5  -7  169.46   16.63
  -2   5  -7  166.64   14.46
   2   5   7  133.12   17.22
   2   5   7  153.66   17.62
   2   5   7  142.53   16.27
  -2   5  -8   18.84    3.87
  -2   5  -8   19.49    4.70
   2   5   8   16.75    4.02
   2   5   8   15.95    4.41
   2   5   8   20.18    5.10
  -2   5  -9    4.05    1.28
   2   5   9    4.45    1.68
   2   5   9    3.02    1.52
  -2   6   9  195.33   11.39
   2   6  -9  210.64   13.21
   2   6  -9  207.07   13.71
  -2   6   9  227.63   13.37
   2   6  -8  103.59   11.68
  -2   6   8  120.39   11.48
   2   6  -8  110.29   12.44
   2   6  -7   27.69    5.74
  -2   6   7   30.96    5.25
  -2   6   7   28.77    6.49
   2   6  -7   18.16    5.45
  -2   6   7   24.01    5.99
  -2   6   7   23.67    5.12
  -2   6   7   22.28    5.62
   2   6  -6  193.04   18.27
   2   6  -6  168.59   18.23
  -2   6   6  177.65   15.57
  -2   6   6  156.95   17.08
  -2   6   6  175.31   17.76
   2   6  -6  161.24   17.60
  -2   6   6  155.42   15.88
  -2   6   6  137.59   16.26
  -2   6   6  140.85   16.79
   2   6  -5  260.48   20.42
   2   6  -5  334.10   27.14
   2   6  -5  334.23   27.34
  -2   6   5  302.14   22.42
  -2   6   5  328.18   25.43
   2   6  -5  280.17   24.05
  -2   6   5  335.47   24.50
   2   6  -5  316.73   26.67
  -2   6   5  298.61   25.24
  -2   6   5  228.82   23.28
  -2   6   5  324.57   28.56
  -2   6   5  240.07   22.16
  -2   6   4  237.84   21.53
   2   6  -4  250.02   19.94
   2   6  -4  294.96   26.05
   2   6  -4  274.60   24.75
   2   6  -4  271.04   22.73
  -2   6   4  249.73   20.91
   2   6  -4  258.22   23.50
  -2   6   4  293.20   24.32
  -2   6   4  249.25   24.76
  -2   6   3   98.77   12.78
   2   6  -3   76.87   10.51
   2   6  -3   77.98   12.66
   2   6  -3   76.29   12.08
  -2   6   3   91.29   12.21
  -2   6   3  105.44   13.47
   2   6  -3   83.56   11.44
   2   6  -3   86.94   12.34
  -2   6   3   76.81   11.85
  -2   6   3   92.30   11.25
  -2   6   3   93.96   14.15
   2   6  -2  349.30   24.10
   2   6  -2  353.49   26.65
  -2   6   2  368.99   25.29
   2   6  -2  302.68   23.77
  -2   6   2  288.05   20.74
  -2   6   2  343.03   25.85
  -2   6   2  354.15   26.82
  -2   6   2  325.79   23.83
   2   6  -1  600.60   33.30
   2   6  -1  533.16   33.95
  -2   6   1  537.08   31.84
  -2   6   1  516.87   31.32
   2   6  -1  500.90   32.37
  -2   6   1  482.86   28.49
  -2   6   1  500.29   32.98
  -2   6   1  506.18   33.55
   2   6   0  322.85   23.08
   2   6   0  284.62   21.59
  -2   6   0  252.38   17.25
   2   6   0  289.93   22.74
   2   6   0  255.68   19.97
  -2   6   0  277.53   20.71
  -2   6   0  304.00   21.47
   2   6   0  275.83   30.63
  -2   6   0  260.21   19.16
  -2   6   0  233.67   21.23
  -2   6   0  281.88   23.12
   2   6   1  244.09   20.00
   2   6   1  202.39   18.25
  -2   6  -1  212.46   18.16
  -2   6  -1  214.04   17.76
  -2   6  -1  216.71   16.10
   2   6   1  161.84   16.99
  -2   6  -1  176.65   16.01
   2   6   1  232.41   20.44
   2   6   1  184.21   17.17
   2   6   1  180.57   25.60
  -2   6  -1  207.04   20.24
   2   6   2  245.80   21.29
   2   6   2  270.11   22.93
  -2   6  -2  270.60   21.72
  -2   6  -2  247.52   19.07
   2   6   2  233.60   21.58
   2   6   2  247.67   19.97
  -2   6  -2  235.53   19.52
   2   6   2  238.56   17.39
   2   6   3  124.72   15.81
   2   6   3  118.30   13.13
  -2   6  -3  130.48   13.18
  -2   6  -3  122.91   13.54
   2   6   3  164.88   17.72
  -2   6  -3  127.13   15.22
  -2   6  -3  131.41   12.99
   2   6   3  110.47   21.55
   2   6   3  128.33   11.87
  -2   6  -4  937.22   47.77
  -2   6  -4 1013.68   61.76
  -2   6  -4  851.28   44.05
   2   6   4  872.64   48.63
  -2   6  -4  971.04   52.85
   2   6   4  902.25   54.10
   2   6   4  965.08   70.12
  -2   6  -4  955.22   50.57
  -2   6  -5  790.31   43.30
  -2   6  -5  794.85   44.17
  -2   6  -5  772.81   43.36
  -2   6  -5  759.26   55.49
   2   6   5  733.65   47.34
   2   6   5  774.66   42.73
  -2   6  -5  781.00   48.36
   2   6   5  806.93   49.92
   2   6   5  927.56   64.76
  -2   6  -5  891.63   48.27
  -2   6  -6   68.10   11.48
  -2   6  -6   65.09    9.29
  -2   6  -6   51.39    9.06
  -2   6  -6   49.14   13.15
   2   6   6   56.51    8.30
   2   6   6   68.22   11.64
   2   6   6   58.07   11.52
   2   6   6   56.38   13.07
  -2   6  -7   15.53    4.23
  -2   6  -7   17.92    4.97
   2   6   7   16.71    5.55
   2   6   7   17.69    5.21
   2   6   7   10.89    4.74
  -2   6  -8  208.88   13.43
  -2   6  -8  235.31   15.69
   2   6   8  243.00   16.41
   2   6   8  233.13   14.42
   2   6   8  213.85   14.41
  -2   7   8  352.12   20.05
  -2   7   7  398.36   21.60
  -2   7   7  333.00   23.80
   2   7  -7  352.72   23.02
  -2   7   7  416.03   23.97
  -2   7   7  300.03   22.39
   2   7  -6   21.27    7.02
   2   7  -6   22.98    6.25
   2   7  -6   25.08    6.91
  -2   7   6   20.65    5.30
  -2   7   6   19.14    6.01
   2   7  -6   23.86    5.95
  -2   7   6   24.21    6.25
  -2   7   6   17.22    5.80
   2   7  -5  164.58   18.55
   2   7  -5  165.65   18.47
   2   7  -5  153.39   17.99
  -2   7   5  159.26   15.60
  -2   7   5  165.98   17.81
   2   7  -5  164.14   16.68
  -2   7   5  144.05   15.87
  -2   7   5  169.75   17.92
  -2   7   5  139.23   18.18
   2   7  -4  408.21   26.76
  -2   7   4  354.18   28.80
   2   7  -4  387.63   31.39
   2   7  -4  395.48   31.67
   2   7  -4  380.83   29.48
   2   7  -4  357.83   27.06
  -2   7   4  396.53   28.66
  -2   7   4  364.56   29.36
  -2   7   4  406.98   29.01
  -2   7   4  455.64   34.58
   2   7  -3 1117.80   53.06
  -2   7   3  970.50   55.07
   2   7  -3 1102.79   59.04
   2   7  -3 1101.91   57.76
  -2   7   3 1109.41   55.64
  -2   7   3 1046.02   48.74
   2   7  -3 1018.96   54.72
   2   7  -3  965.44   53.68
  -2   7   3  912.34   46.62
  -2   7   3  996.34   53.60
  -2   7   3 1014.23   58.84
   2   7  -2   21.16    5.95
  -2   7   2   17.69    6.43
   2   7  -2   15.71    5.53
   2   7  -2   26.02    7.10
  -2   7   2   22.90    5.25
  -2   7   2   19.06    5.84
  -2   7   2   18.02    6.19
  -2   7   2   24.05    6.57
   2   7  -1  876.68   45.29
   2   7  -1  747.61   44.97
  -2   7   1  724.01   42.95
   2   7  -1  829.79   45.87
  -2   7   1  754.71   43.23
  -2   7   1  715.96   38.88
  -2   7   1  808.13   46.55
  -2   7   1  798.57   47.61
   2   7   0 1209.69   56.91
   2   7   0 1047.73   54.47
  -2   7   0 1142.49   55.09
  -2   7   0  995.33   48.31
   2   7   0  970.51   50.88
  -2   7   0  972.58   53.16
  -2   7   0 1117.47   58.39
   2   7   0 1083.14   56.34
   2   7   0  997.37   69.30
  -2   7   0 1046.89   50.60
  -2   7   0 1117.71   55.10
   2   7   1   10.62    4.15
   2   7   1    5.71    3.71
  -2   7  -1    2.52    2.31
  -2   7  -1    6.15    2.66
   2   7   1   11.71    4.21
  -2   7  -1    4.58    3.95
   2   7   1    4.05    3.48
   2   7   1    2.55    2.70
  -2   7  -1    9.16    4.45
  -2   7  -1    4.37    3.75
   2   7   1    4.35    5.65
   2   7   2   16.30    5.77
  -2   7  -2    4.78    2.96
  -2   7  -2   12.01    3.91
   2   7   2    8.78    4.58
   2   7   2   13.73    5.98
  -2   7  -2   16.16    6.69
   2   7   2    9.55    4.14
   2   7   2    4.66    7.41
   2   7   2   17.84    4.17
  -2   7  -3  594.71   35.25
  -2   7  -3  630.02   36.82
   2   7   3  637.44   40.17
  -2   7  -3  679.73   41.14
   2   7   3  603.81   35.14
  -2   7  -4  225.61   19.15
  -2   7  -4  228.33   20.12
  -2   7  -4  234.76   27.74
   2   7   4  231.11   20.47
   2   7   4  194.82   21.78
   2   7   4  244.14   32.92
  -2   7  -4  207.30   21.79
  -2   7  -4  212.12   20.13
  -2   7  -5  111.84   14.11
  -2   7  -5  113.78   12.87
  -2   7  -5  102.50   12.77
  -2   7  -5   93.81   17.34
   2   7   5   93.19   13.85
   2   7   5   94.92   14.63
   2   7   5   97.06   19.24
   2   7   5  118.59   12.95
  -2   7  -6   25.81    6.23
  -2   7  -6   23.74    8.43
   2   7   6   21.38    6.28
   2   7   6   26.61    4.82
   2   7   6   27.31    7.17
   2   7   6   33.01    9.37
  -2   7  -7  173.49   13.41
  -2   7  -7  203.84   15.28
   2   7   7  190.00   15.34
   2   7   7  158.69   12.15
   2   7   7  145.82   14.47
   2   7   8   16.89    3.15
  -2   8   7   35.35    4.59
   2   8  -7   29.00    5.76
   2   8  -7   39.33    6.20
  -2   8   7   32.51    5.02
  -2   8   6  370.54   22.69
  -2   8   6  375.22   22.41
   2   8  -6  305.19   22.76
   2   8  -6  357.72   24.76
  -2   8   6  333.17   23.22
  -2   8   6  298.53   22.95
   2   8  -5   99.71   13.73
  -2   8   5   93.47   11.56
  -2   8   5   73.07   11.65
   2   8  -5   77.63   11.66
  -2   8   5   97.68   12.66
   2   8  -5   85.58   12.09
   2   8  -4   28.74    7.12
   2   8  -4   37.86    6.79
  -2   8   4   32.74    8.38
  -2   8   4   49.61    8.29
   2   8  -4   43.62    9.67
  -2   8   4   48.01    8.35
   2   8  -4   37.08    8.27
  -2   8   4   30.89    7.68
  -2   8   4   34.35    7.97
  -2   8   4   27.73    7.77
   2   8  -3  892.50   47.04
  -2   8   3  883.66   51.92
  -2   8   3  953.06   48.19
   2   8  -3  873.76   49.14
  -2   8   3  885.75   50.79
  -2   8   3  906.96   45.32
   2   8  -3  901.18   49.93
   2   8  -2  116.92   14.03
  -2   8   2  115.49   16.04
   2   8  -2  108.30   15.22
  -2   8   2  107.80   13.57
  -2   8   2   87.04   13.38
  -2   8   2   89.03   10.30
  -2   8   2  118.25   13.06
  -2   8   2   88.50   13.33
   2   8  -2  110.39   14.56
   2   8  -1  565.34   38.22
   2   8  -1  600.30   37.74
   2   8  -1  575.71   37.04
  -2   8   1  610.40   39.27
  -2   8   1  651.41   42.93
   2   8   0   62.36   10.77
   2   8   0   58.53   10.48
  -2   8   0   69.03   11.56
   2   8   0   60.68   11.12
   2   8   0   61.98   10.61
  -2   8   0   42.36    9.52
  -2   8   0   60.99   11.88
   2   8   1  124.02   15.30
  -2   8  -1  125.56   13.22
  -2   8  -1  124.01   16.10
   2   8   1   99.07   12.88
   2   8   1  116.48   15.91
   2   8   1  100.89   13.34
   2   8   1  114.69   21.97
   2   8   2  772.66   47.99
  -2   8  -2  848.37   44.83
  -2   8  -2  911.33   46.38
   2   8   2  786.82   44.52
   2   8   2  884.76   48.13
  -2   8  -2  983.87   50.35
   2   8   2  880.32   67.23
  -2   8  -3   16.76    5.45
  -2   8  -3   20.19    5.61
  -2   8  -3   21.83    5.87
   2   8   3   21.67    6.23
  -2   8  -3   16.25    6.35
  -2   8  -3   15.57    7.03
   2   8   3   21.37    4.94
  -2   8  -3   19.89    6.11
  -2   8  -4  200.13   17.77
  -2   8  -4  202.94   17.73
  -2   8  -4  178.01   17.30
   2   8   4  181.06   17.33
  -2   8  -4  167.78   19.00
   2   8   4  185.95   19.87
   2   8   4  184.62   27.27
  -2   8  -5  177.69   15.66
  -2   8  -5  150.16   15.03
   2   8   5  153.28   16.58
   2   8   5  160.88   14.25
   2   8   5  148.73   16.46
   2   8   5  156.05   22.33
  -2   8  -6   71.55    8.99
   2   8   6   59.41    9.03
   2   8   6   82.94   10.25
   2   8   6   74.92   12.55
  -2   8  -7   67.96    6.92
  -2   8  -7   78.14    7.72
   2   8   7   77.23    7.64
   2   8   7   82.15    7.37
  -2   9   7   51.03    4.90
  -2   9   6  234.89   15.29
  -2   9   6  246.93   14.83
   2   9  -6  233.53   15.20
   2   9  -6  207.23   15.02
  -2   9   6  189.29   14.54
  -2   9   5  133.63   14.22
  -2   9   5  162.86   14.05
   2   9  -5  144.76   13.56
  -2   9   5  133.19   14.33
  -2   9   5  137.39   11.76
  -2   9   4  258.19   21.71
  -2   9   4  209.90   17.81
  -2   9   4  282.80   20.15
  -2   9   4  240.75   21.34
   2   9  -4  253.25   20.43
  -2   9   3  160.71   18.16
  -2   9   3  165.93   16.32
  -2   9   3  177.00   16.15
  -2   9   3  162.16   14.86
   2   9  -3  183.65   17.56
  -2   9   2  157.86   18.87
   2   9  -2  144.79   15.28
  -2   9   2  159.79   16.97
   2   9  -2  172.98   17.80
  -2   9   2  175.32   19.14
  -2   9   2  171.34   15.86
   2   9  -1  527.69   34.04
  -2   9   1  561.25   39.27
  -2   9   1  535.68   35.72
   2   9  -1  574.42   36.52
  -2   9   1  516.29   36.71
   2   9  -1  555.65   35.76
  -2   9   1  547.91   32.84
   2   9   0  155.00   16.73
  -2   9   0  176.00   16.37
   2   9   0  162.50   16.82
  -2   9   0  173.61   16.19
   2   9   0  188.09   19.23
   2   9   1   61.83   10.16
  -2   9  -1   57.87    8.80
  -2   9  -1   64.44    9.37
   2   9   1   61.54    9.49
  -2   9  -1   62.85    9.91
   2   9   2  105.64   13.65
  -2   9  -2  117.51   13.05
  -2   9  -2  124.78   13.19
  -2   9  -2  144.33   19.31
   2   9   2  130.37   13.03
  -2   9  -2  117.85   14.08
   2   9   2   91.54   18.91
  -2   9  -3  139.07   13.94
  -2   9  -3  132.78   13.92
  -2   9  -3  159.71   20.47
  -2   9  -3  137.16   15.35
   2   9   3  157.35   16.91
   2   9   3  154.59   23.33
  -2   9  -4  165.65   14.74
  -2   9  -4  167.38   14.84
   2   9   4  164.68   14.54
  -2   9  -4  154.97   19.78
   2   9   4  171.76   16.75
   2   9   4  163.14   16.10
  -2   9  -4  138.77   12.59
  -2   9  -5   43.33    6.70
  -2   9  -5   46.05    6.80
  -2   9  -5   36.56    4.94
  -2   9  -5   39.64    8.65
   2   9   5   41.28    7.33
   2   9   5   29.87    4.81
   2   9   5   29.16    5.84
   2   9   5   35.93    8.59
  -2   9  -6  167.62   11.69
  -2   9  -6  150.94   11.25
   2   9   6  159.17   11.85
  -2  10   5   81.76    6.44
  -2  10   5   94.99    8.72
   2  10  -5   86.67    7.65
   2  10  -5   90.24    8.58
  -2  10   5   83.98    8.19
  -2  10   4   51.40    7.13
  -2  10   4   43.70    5.01
   2  10  -4   44.64    6.60
  -2  10   3  114.94   13.65
   2  10  -3  122.57   12.39
   2  10  -3  143.77   14.05
  -2  10   2  477.09   32.43
  -2  10   2  483.66   27.86
   2  10  -2  492.80   30.26
  -2  10   2  484.47   28.09
   2  10  -2  480.14   29.25
  -2  10   1  409.68   29.59
   2  10  -1  351.34   24.87
   2  10  -1  344.40   24.30
  -2  10   1  363.16   23.95
  -2  10   0   85.84   12.95
  -2  10   0  102.20   13.80
  -2  10   0   72.45    9.75
   2  10   0   77.11    9.95
   2  10   1  166.96   14.92
   2  10   1  165.07   14.19
  -2  10  -1  193.72   20.11
  -2  10  -1  160.29   14.57
  -2  10  -2    6.28    2.81
  -2  10  -2   10.64    4.59
   2  10   2    9.54    2.60
  -2  10  -3   80.92    9.04
  -2  10  -3   77.47    8.12
   2  10   3   83.34    9.68
  -2  10  -3   79.23   12.16
  -2  10  -3   79.57    8.85
   2  10   3   80.83    9.33
  -2  10  -4    5.91    2.39
  -2  10  -4    5.14    1.73
  -2  10  -4    5.39    2.10
   2  10   4    4.23    2.57
   2  10   4    3.40    1.97
  -2  10  -5  131.98    9.48
   2  10   5  138.00    8.94
   2  10   5  136.97    9.96
  -2  11   4  146.97    9.64
   2  11  -3   32.38    4.93
  -2  11   2   27.93    5.73
  -2  11   2   19.03    3.91
   2  11  -2   22.04    4.39
   2  11  -2   20.25    3.16
  -2  11   1  153.63   13.95
  -2  11   1  124.75   10.17
   2  11  -1  135.35   11.07
   2  11   0   35.96    5.06
  -2  11   0   31.10    4.51
  -2  11   0   42.34    6.22
  -2  11  -1  257.53   18.72
  -2  11  -1  200.35   14.72
  -2  11  -2   86.27    9.63
   2  11   2   60.52    7.05
  -2  11  -3   56.16    5.65
   2  11   3   60.19    6.51
   2  11   3   57.11    5.63
   3 -11  -2  100.46    8.82
  -3 -11   0   17.32    4.10
   3 -10  -4   10.11    3.34
  -3 -10   4    4.49    2.73
   3 -10  -3   67.75    9.82
  -3 -10   3   84.55   10.74
  -3 -10   2  113.77   10.98
   3 -10  -2   93.51   12.70
  -3 -10   2  103.28   13.10
  -3 -10   2  127.89   14.16
  -3 -10   1   60.43    7.92
  -3 -10   1   57.14    7.38
  -3 -10   1   60.11   10.82
  -3 -10   1   73.85   10.88
  -3 -10   0   77.08    8.56
   3 -10   0   53.68    8.98
  -3 -10   0   59.25    9.41
  -3 -10   0   71.54    7.76
  -3 -10  -1  105.30    9.68
   3 -10   1   83.22   11.81
  -3 -10  -1  106.39   14.20
  -3 -10  -1  103.69   11.15
   3 -10   2  183.38   16.96
  -3 -10  -2  187.34   16.60
  -3 -10  -2  215.98   20.10
  -3 -10  -3   62.97    9.49
   3 -10   3   55.98    8.14
  -3  -9   6  113.83    9.95
  -3  -9   6  132.05   10.27
   3  -9  -5   62.99    9.42
  -3  -9   5   47.80    7.30
  -3  -9   5   62.61    8.38
  -3  -9   4  430.14   23.51
   3  -9  -4  381.37   29.12
  -3  -9   4  438.39   24.55
  -3  -9   4  339.84   23.60
  -3  -9   4  402.34   25.90
  -3  -9   3  100.77   11.29
  -3  -9   3   93.07    9.99
   3  -9  -3   92.04   14.12
  -3  -9   3   96.49   10.52
   3  -9  -3   77.40    9.50
  -3  -9   3  110.01   11.78
  -3  -9   3  100.26   11.87
  -3  -9   2  272.80   20.44
  -3  -9   2  260.68   18.90
   3  -9  -2  229.29   23.74
  -3  -9   2  295.98   20.81
  -3  -9   1  272.51   20.91
  -3  -9   1  273.18   19.40
   3  -9  -1  295.87   27.95
   3  -9   0  147.26   23.33
   3  -9   0  106.22   17.05
  -3  -9   0  136.15   13.08
  -3  -9   0  168.50   18.75
  -3  -9  -1    4.79    2.76
  -3  -9  -1    6.63    3.03
   3  -9   1    8.50    5.20
   3  -9   1    5.40    2.86
  -3  -9  -1    9.53    6.37
  -3  -9  -1    1.95    2.84
   3  -9   2  186.80   24.86
   3  -9   2  186.47   22.51
  -3  -9  -2  245.15   25.48
  -3  -9  -2  179.35   13.43
  -3  -9  -2  181.94   16.77
  -3  -9  -2  191.23   14.79
   3  -9   2  191.08   19.82
   3  -9   3   18.41    6.35
   3  -9   3   14.74    6.54
   3  -9   3   18.69    7.07
  -3  -9  -3   15.35    5.87
  -3  -9  -3   29.27    8.06
  -3  -9  -3   20.81    4.73
  -3  -9  -3   20.03    3.73
   3  -9   4   16.22    4.98
   3  -9   4   10.92    5.16
  -3  -9  -4   10.07    4.28
  -3  -9  -4   11.11    4.16
  -3  -9  -4    9.62    3.90
   3  -9   5   53.40    7.78
  -3  -9  -5   41.74    6.31
  -3  -9  -5   38.58    6.07
   3  -9   5   46.04    6.49
  -3  -8   7  119.79   11.09
  -3  -8   7  104.11   10.26
  -3  -8   6  241.21   16.95
  -3  -8   6  269.04   17.79
  -3  -8   6  225.05   18.73
  -3  -8   6  238.96   19.11
   3  -8  -6  268.88   20.62
   3  -8  -6  227.31   20.27
  -3  -8   5   65.40    8.86
  -3  -8   5   57.07    8.44
  -3  -8   5   53.26    9.14
  -3  -8   5   58.29    9.92
   3  -8  -5   58.83   10.72
   3  -8  -5   56.78   10.87
  -3  -8   5   57.40    7.94
  -3  -8   4    5.47    3.32
  -3  -8   4    3.37    2.76
   3  -8  -4   12.47    4.04
  -3  -8   4    3.38    2.90
  -3  -8   4    1.31    1.90
  -3  -8   4    4.62    3.97
   3  -8  -4    4.44    3.22
   3  -8  -4   -1.28    4.70
  -3  -8   3  102.67   12.18
  -3  -8   3   96.41   11.89
  -3  -8   3   81.39   11.57
  -3  -8   3   88.37   12.95
   3  -8  -3  101.02   14.31
  -3  -8   3   84.45   11.30
  -3  -8   2  378.41   28.48
   3  -8  -2  410.48   36.81
  -3  -8   2  443.31   28.32
  -3  -8   2  405.54   27.28
  -3  -8   1   39.24    7.79
   3  -8  -1   36.50   10.02
   3  -8  -1   29.15   10.84
   3  -8  -1   30.01   10.19
  -3  -8   1   21.54    5.37
  -3  -8   0 1077.63   53.01
   3  -8   0 1064.04   62.99
   3  -8   0  996.51   67.26
  -3  -8   0 1055.42   53.91
  -3  -8   0 1176.59   54.51
  -3  -8   0 1166.40   53.17
  -3  -8   0 1269.46   65.32
   3  -8   0  998.21   61.33
   3  -8   1   12.55    6.56
   3  -8   1   24.70    6.45
  -3  -8  -1   23.47    5.81
  -3  -8  -1   23.18    5.84
   3  -8   1   34.64    8.52
   3  -8   1   40.69   11.77
   3  -8   1   11.57    7.97
  -3  -8  -1   31.05    6.77
  -3  -8  -1   13.94    5.69
  -3  -8  -2  117.89   12.79
   3  -8   2  122.81   22.80
   3  -8   2  117.22   12.59
  -3  -8  -2  109.57   12.07
  -3  -8  -2  136.67   20.53
  -3  -8  -2  108.65   13.07
  -3  -8  -2  156.17   16.68
   3  -8   2  126.83   18.19
   3  -8   3   78.46   14.10
   3  -8   3  118.80   20.68
  -3  -8  -3   72.35    9.13
  -3  -8  -3   93.30   11.59
  -3  -8  -3   78.20   14.93
   3  -8   4   11.92    5.80
  -3  -8  -4   18.26    4.62
   3  -8   4   21.59    7.43
  -3  -8  -4   22.84    7.20
  -3  -8  -4   19.47    6.71
  -3  -8  -4    6.65    3.14
  -3  -8  -5  732.84   40.63
  -3  -8  -5  664.18   37.64
  -3  -8  -5  695.28   35.10
   3  -8   5  720.03   41.34
   3  -8   6   73.62    9.82
  -3  -8  -6   59.58    7.56
  -3  -8  -6   69.71    8.69
  -3  -7   8  197.11   14.29
  -3  -7   8  205.49   14.20
  -3  -7   7   83.61    9.21
  -3  -7   7   77.67   10.40
   3  -7  -7   78.55   11.40
  -3  -7   7   72.03    8.44
  -3  -7   6   24.17    5.84
  -3  -7   6   20.95    5.44
  -3  -7   6   24.91    6.53
   3  -7  -6   16.26    6.47
   3  -7  -6   13.46    6.20
  -3  -7   6   16.85    4.83
  -3  -7   5  895.78   43.76
  -3  -7   5  960.02   45.83
  -3  -7   5  943.33   49.64
   3  -7  -5  901.38   54.06
   3  -7  -5  800.64   52.58
  -3  -7   4  211.09   17.58
  -3  -7   4  236.00   19.62
  -3  -7   4  213.02   20.23
   3  -7  -4  195.59   23.20
  -3  -7   4  214.63   18.18
  -3  -7   3   58.72    9.25
  -3  -7   3   66.88   10.07
  -3  -7   3   57.40    9.99
   3  -7  -3   55.90   11.62
   3  -7  -3   43.42   12.01
  -3  -7   3   52.18    9.01
  -3  -7   3   56.39    9.04
  -3  -7   2   95.96   12.74
  -3  -7   2   96.99   13.15
   3  -7  -2   76.22   15.89
  -3  -7   2   84.76   11.88
  -3  -7   2  110.29   12.74
  -3  -7   1  312.25   22.63
   3  -7  -1  325.47   30.94
   3  -7  -1  280.47   35.51
   3  -7  -1  365.92   36.34
  -3  -7   1  350.70   25.95
   3  -7  -1  370.21   28.23
  -3  -7   1  327.74   24.67
   3  -7   0  486.71   38.28
   3  -7   0  451.73   42.05
   3  -7   0  492.30   32.34
  -3  -7   0  380.11   28.81
   3  -7   0  419.31   36.41
  -3  -7   0  474.53   28.94
  -3  -7   0  449.37   28.45
   3  -7   1   60.71   13.74
   3  -7   1   71.52   11.04
   3  -7   1   81.26   13.80
   3  -7   1   78.06   19.73
  -3  -7  -1   55.20    9.74
  -3  -7  -1   64.79    9.83
  -3  -7  -1   71.53   10.53
  -3  -7  -1   90.04   13.77
   3  -7   2   86.73   16.15
   3  -7   2   93.40   21.42
   3  -7   2   86.18   11.59
  -3  -7  -2   81.10   10.88
  -3  -7  -2   85.27   11.96
  -3  -7  -2   95.70   13.55
   3  -7   3   26.53    9.65
   3  -7   3   22.86   10.72
   3  -7   3   23.87    5.92
  -3  -7  -3   41.84   11.04
  -3  -7  -3   21.50    6.27
   3  -7   4    7.82    5.75
  -3  -7  -4   11.00    4.04
   3  -7   4   22.68    8.16
   3  -7   4   12.86    5.11
   3  -7   4   11.96    3.66
  -3  -7  -4    8.44    5.48
  -3  -7  -4    8.06    4.06
   3  -7   5  578.81   34.40
  -3  -7  -5  669.09   41.79
  -3  -7  -5  586.10   38.84
  -3  -7  -5  687.98   35.91
  -3  -7  -5  697.12   42.73
  -3  -7  -5  587.30   31.73
   3  -7   6   20.04    6.20
  -3  -7  -6   27.03    5.21
  -3  -7  -6   23.63    5.99
  -3  -7  -6   34.25    7.66
  -3  -7  -7   56.51    7.15
   3  -7   7   47.49    6.12
  -3  -6   8  105.02    9.13
   3  -6  -8  129.49   13.74
  -3  -6   8  117.11   10.62
  -3  -6   7  120.76   11.94
  -3  -6   7  148.79   13.87
   3  -6  -7  142.66   12.91
   3  -6  -7  134.55   16.63
  -3  -6   7  135.07   13.45
  -3  -6   6  203.38   18.15
   3  -6  -6  193.42   18.79
  -3  -6   6  207.04   17.57
   3  -6  -6  232.22   24.74
   3  -6  -6  201.43   22.90
  -3  -6   5    6.91    3.66
  -3  -6   5    2.01    2.13
   3  -6  -5    2.11    2.74
  -3  -6   5    1.55    2.65
   3  -6  -5    1.48    2.72
  -3  -6   4   44.82    7.65
  -3  -6   4   37.07    7.92
   3  -6  -4   39.51   11.68
  -3  -6   4   30.69    8.20
   3  -6  -4   45.37   11.18
  -3  -6   4   48.34    9.16
   3  -6  -4   46.36   15.37
  -3  -6   4   46.24    8.32
   3  -6  -3 1175.90   72.90
  -3  -6   3 1432.89   64.95
   3  -6  -3 1314.81   73.00
   3  -6  -3 1230.87   75.48
   3  -6  -3 1211.97   72.28
  -3  -6   3 1396.22   68.05
   3  -6  -3  932.81   76.65
  -3  -6   3 1509.03   62.56
  -3  -6   2  249.19   18.28
   3  -6  -2  283.26   30.73
   3  -6  -2  288.34   31.83
  -3  -6   2  271.75   22.59
  -3  -6   2  282.16   20.99
   3  -6  -2  301.19   25.60
   3  -6  -1  629.93   44.47
   3  -6  -1  600.57   48.18
   3  -6  -1  694.64   40.61
  -3  -6   1  666.17   34.66
  -3  -6   1  598.60   38.02
   3  -6  -1  575.28   43.68
   3  -6   0  384.15   31.74
  -3  -6   0  309.30   21.91
   3  -6   0  376.68   41.26
   3  -6   0  335.74   25.91
  -3  -6   0  334.42   25.54
  -3  -6   0  348.27   23.67
  -3  -6   0  356.22   23.95
   3  -6   0  306.84   30.37
  -3  -6  -1  940.00   47.25
   3  -6   1  938.56   56.23
   3  -6   1 1054.38   75.56
   3  -6   1  931.19   50.85
  -3  -6  -1 1082.27   51.43
  -3  -6  -1 1084.24   56.07
   3  -6   1  942.06   60.83
  -3  -6  -2  679.47   37.56
   3  -6   2  643.97   38.93
   3  -6   2  672.80   60.49
   3  -6   2  666.60   42.11
  -3  -6  -2  637.99   35.70
  -3  -6  -2  829.86   42.68
   3  -6   2  763.86   53.23
   3  -6   3  436.70   29.94
  -3  -6  -3  450.72   28.97
   3  -6   3  472.30   47.68
   3  -6   3  466.88   34.27
  -3  -6  -3  586.00   35.06
  -3  -6  -3  483.63   29.53
  -3  -6  -4  426.64   28.17
   3  -6   4  459.78   42.51
   3  -6   4  471.38   33.91
   3  -6   4  432.08   29.14
  -3  -6  -4  476.42   29.69
  -3  -6  -4  484.14   29.38
  -3  -6  -4  461.42   28.78
  -3  -6  -4  541.67   33.77
  -3  -6  -4  552.30   40.61
   3  -6   5  380.07   28.66
  -3  -6  -5  360.61   25.10
  -3  -6  -5  387.22   24.11
   3  -6   5  331.50   23.28
  -3  -6  -5  410.15   32.40
   3  -6   5  428.85   37.16
   3  -6   6  136.93   14.44
   3  -6   6  111.77   10.17
  -3  -6  -6  111.75   14.67
  -3  -6  -6  137.44   13.43
  -3  -6  -6  128.78   16.57
  -3  -6  -6  120.80   10.60
   3  -6   6  123.68   16.94
   3  -6   7   39.16    7.29
   3  -6   7   31.79    5.62
  -3  -6  -7   34.44    5.51
  -3  -6  -7   34.78    7.07
  -3  -6  -7   35.80    5.81
  -3  -5   9  128.73   10.06
  -3  -5   9  120.94   10.77
   3  -5  -9  112.08    9.05
  -3  -5   8  328.29   22.04
   3  -5  -8  364.36   20.53
   3  -5  -8  307.81   22.70
  -3  -5   8  279.77   19.23
  -3  -5   8  323.94   21.58
   3  -5  -8  354.84   26.84
  -3  -5   7   26.01    6.47
  -3  -5   7   22.49    5.59
   3  -5  -7   21.55    6.31
  -3  -5   7   24.99    5.71
   3  -5  -7   16.07    4.22
   3  -5  -7   31.10    8.71
   3  -5  -7   16.19    4.18
  -3  -5   6   85.51   11.46
  -3  -5   6   77.90   10.96
   3  -5  -6   67.30   11.65
  -3  -5   6   80.73   10.68
   3  -5  -6   50.77   14.00
   3  -5  -6   62.05    9.20
   3  -5  -6   57.95   12.86
  -3  -5   6   64.31   10.73
  -3  -5   6   83.17   13.02
   3  -5  -6   67.46    9.78
  -3  -5   5  232.34   19.24
   3  -5  -5  157.01   19.12
   3  -5  -5  154.91   22.63
   3  -5  -5  185.69   17.34
   3  -5  -5  222.75   25.68
  -3  -5   5  229.27   21.52
  -3  -5   5  243.56   23.66
   3  -5  -5  186.61   17.24
  -3  -5   5  235.28   17.57
  -3  -5   4 1059.86   48.89
   3  -5  -4 1082.09   67.49
   3  -5  -4 1086.26   64.59
   3  -5  -4  958.17   61.08
  -3  -5   4 1066.95   55.80
  -3  -5   4  979.29   56.63
   3  -5  -4 1146.93   81.74
  -3  -5   4 1107.70   50.63
   3  -5  -3   34.69    9.45
   3  -5  -3   21.98    8.75
  -3  -5   3   37.06    6.73
   3  -5  -3   50.68   10.89
   3  -5  -3   42.67   11.54
  -3  -5   3   47.55    9.04
  -3  -5   3   48.78    9.48
   3  -5  -3   43.91   13.13
   3  -5  -3   44.00    7.15
   3  -5  -2  668.70   48.99
   3  -5  -2  656.18   40.56
  -3  -5   2  785.24   40.76
  -3  -5   2  673.90   39.95
  -3  -5   2  657.98   33.36
   3  -5  -2  619.12   49.55
   3  -5  -1  369.95   30.44
  -3  -5   1  342.68   21.48
   3  -5  -1  378.65   35.25
   3  -5  -1  406.30   27.90
   3  -5  -1  350.35   30.71
  -3  -5   0  142.76   13.02
   3  -5   0  154.63   18.28
   3  -5   0  132.63   23.05
   3  -5   0  142.47   15.60
  -3  -5   0  184.79   15.38
   3  -5   0  153.11   19.61
   3  -5   1  352.24   26.11
  -3  -5  -1  349.57   22.25
   3  -5   1  465.03   44.11
   3  -5   1  395.28   28.85
  -3  -5  -1  428.59   27.89
  -3  -5  -1  359.41   23.51
   3  -5   1  398.73   34.15
   3  -5   2   38.91   13.66
   3  -5   2   37.35    7.81
  -3  -5  -2   43.35    8.33
  -3  -5  -2   35.58    6.59
   3  -5   2   28.07    7.61
  -3  -5  -2   38.94    7.11
  -3  -5  -3  136.67   14.03
   3  -5   3  123.32   22.52
   3  -5   3  124.32   16.41
  -3  -5  -3  122.00   13.11
   3  -5   3  107.83   13.64
   3  -5   3  144.31   21.72
   3  -5   4  424.20   30.08
  -3  -5  -4  455.26   29.46
   3  -5   4  469.15   41.82
   3  -5   4  421.05   33.70
  -3  -5  -4  474.74   30.17
  -3  -5  -4  557.11   39.33
  -3  -5  -4  453.46   28.72
   3  -5   4  492.37   43.42
   3  -5   5   49.29   13.41
  -3  -5  -5   55.28    8.13
   3  -5   5   46.88   10.43
   3  -5   5   48.29    8.77
  -3  -5  -5   46.90    8.45
  -3  -5  -5   34.54    8.33
  -3  -5  -5   53.19   11.13
   3  -5   6  344.10   27.83
  -3  -5  -6  327.63   23.60
  -3  -5  -6  350.05   21.67
   3  -5   6  328.87   23.02
  -3  -5  -6  351.87   28.57
  -3  -5  -6  396.94   26.67
  -3  -5  -6  349.66   29.72
   3  -5   6  398.00   33.85
   3  -5   7  249.46   19.58
   3  -5   7  204.73   14.30
  -3  -5  -7  214.48   17.29
  -3  -5  -7  230.12   16.81
  -3  -5  -7  227.86   20.42
   3  -5   7  227.08   20.37
   3  -5   8   10.60    2.98
  -3  -5  -8   20.34    3.95
  -3  -4   9   73.73    8.84
  -3  -4   9   66.72    8.72
   3  -4  -9   74.10    9.39
   3  -4  -9   57.63    6.48
  -3  -4   8   23.13    6.25
   3  -4  -8   46.57    7.96
  -3  -4   8   35.97    6.73
  -3  -4   8   31.75    5.59
   3  -4  -8   30.42    6.46
   3  -4  -8   33.79    7.01
   3  -4  -8   26.65    7.71
   3  -4  -8   27.64    8.05
  -3  -4   8   25.28    6.07
   3  -4  -8   33.84    6.83
  -3  -4   7  449.35   28.98
   3  -4  -7  476.16   32.94
  -3  -4   7  476.82   28.06
  -3  -4   7  480.79   30.95
  -3  -4   7  433.63   27.49
   3  -4  -7  490.67   45.67
   3  -4  -7  491.90   34.98
   3  -4  -7  469.83   37.85
   3  -4  -7  469.54   32.74
  -3  -4   6  479.30   29.68
   3  -4  -6  358.59   30.59
  -3  -4   6  469.36   28.20
   3  -4  -6  460.65   45.91
   3  -4  -6  451.12   34.44
   3  -4  -6  473.88   39.29
   3  -4  -6  493.64   36.03
  -3  -4   6  383.55   30.12
  -3  -4   6  383.51   32.93
   3  -4  -6  438.15   32.56
  -3  -4   5  185.11   16.50
   3  -4  -5  161.00   19.16
   3  -4  -5  211.86   27.85
   3  -4  -5  226.54   28.81
   3  -4  -5  203.65   21.16
  -3  -4   5  206.97   18.75
   3  -4  -5  187.51   23.29
   3  -4  -5  173.83   20.11
   3  -4  -5  175.48   22.37
  -3  -4   5  160.70   18.64
  -3  -4   5  171.72   19.89
   3  -4  -5  172.94   18.56
  -3  -4   5  171.40   14.21
   3  -4  -4  210.79   26.51
   3  -4  -4  259.06   27.79
   3  -4  -4  182.49   18.23
   3  -4  -4  248.39   22.17
   3  -4  -4  243.98   26.00
  -3  -4   4  240.46   22.00
  -3  -4   4  228.34   21.89
  -3  -4   4  227.87   19.85
   3  -4  -4  169.59   21.79
   3  -4  -4  225.83   20.05
  -3  -4   4  237.87   16.18
   3  -4  -3   22.51    5.54
   3  -4  -3   16.75    7.67
   3  -4  -3   12.01    7.05
  -3  -4   3   18.62    5.46
  -3  -4   3   26.51    7.09
   3  -4  -3   19.36    4.97
   3  -4  -3   24.71    6.29
   3  -4  -3   28.16    7.64
   3  -4  -3   14.85    6.04
  -3  -4   3   13.91    5.21
   3  -4  -3   22.18    5.29
   3  -4  -2  610.69   33.34
  -3  -4   2  547.72   27.41
   3  -4  -2  614.93   33.36
   3  -4  -2  614.76   35.09
   3  -4  -2  612.64   44.43
  -3  -4   2  636.29   36.06
  -3  -4   2  665.24   35.49
   3  -4  -2  558.89   32.03
   3  -4  -1  338.80   24.71
   3  -4  -1  301.24   25.63
   3  -4  -1  377.24   34.53
   3  -4  -1  363.75   32.89
  -3  -4   1  399.04   24.76
  -3  -4   1  355.98   20.31
   3  -4  -1  323.64   28.01
   3  -4   0  323.73   21.22
   3  -4   0  264.11   21.29
   3  -4   0  327.80   33.53
   3  -4   0  265.91   22.27
  -3  -4   0  356.23   21.58
  -3  -4   0  294.26   19.19
   3  -4   1  741.34   39.43
   3  -4   1  895.08   59.18
   3  -4   1  740.25   43.08
   3  -4   1  778.35   40.68
   3  -4   1  742.39   41.43
  -3  -4  -1  768.93   38.16
  -3  -4  -1  869.36   42.80
   3  -4   2  279.28   22.04
   3  -4   2  257.29   20.77
   3  -4   2  302.99   32.67
   3  -4   2  264.05   23.44
   3  -4   2  248.37   20.79
  -3  -4  -2  288.59   19.99
  -3  -4  -2  269.78   20.86
   3  -4   2  247.21   18.04
   3  -4   2  317.71   29.85
   3  -4   3   36.50   11.44
   3  -4   3   25.78    6.52
   3  -4   3   29.43    6.84
   3  -4   3   22.26    8.41
   3  -4   3   25.77    6.81
   3  -4   3   43.74    9.65
  -3  -4  -3   35.09    6.87
   3  -4   3   39.44    9.07
  -3  -4  -3   35.84    6.09
   3  -4   3   31.26    6.36
  -3  -4  -3   38.68    6.98
  -3  -4  -4 1010.33   52.27
   3  -4   4 1072.68   55.64
  -3  -4  -4 1050.33   51.42
   3  -4   4 1029.62   58.64
   3  -4   4  902.13   53.45
   3  -4   4  925.14   52.24
   3  -4   4 1037.85   60.96
  -3  -4  -4 1080.91   52.26
   3  -4   4  980.24   54.80
  -3  -4  -4  974.81   48.32
  -3  -4  -4 1000.72   49.57
   3  -4   4  984.00   65.18
   3  -4   5   72.78   15.68
  -3  -4  -5   74.99   11.48
  -3  -4  -5  101.01   12.53
   3  -4   5   79.64   13.92
   3  -4   5   93.53   13.73
   3  -4   5   73.15   11.99
   3  -4   5   88.80   15.47
   3  -4   5   73.11   11.48
  -3  -4  -5   79.55   10.76
  -3  -4  -5   72.93   12.88
  -3  -4  -5   79.29   10.46
  -3  -4  -5   73.47   12.99
   3  -4   6   35.83    9.92
   3  -4   6   33.41    7.49
   3  -4   6   18.59    5.77
   3  -4   6   26.43    8.09
  -3  -4  -6   33.21    6.93
   3  -4   6   30.02    8.44
  -3  -4  -6   25.92    7.20
  -3  -4  -6   33.11    8.76
  -3  -4  -6   29.25    7.21
   3  -4   7   42.51    8.57
   3  -4   7   55.24    8.08
  -3  -4  -7   53.81    8.21
   3  -4   7   53.11    9.83
  -3  -4  -7   47.66    9.60
   3  -4   7   59.04   10.04
   3  -4   8   69.06    8.82
   3  -4   8   56.71    5.58
  -3  -4  -8   69.62    8.64
  -3  -3  10   22.18    4.00
   3  -3 -10   30.50    4.64
  -3  -3   9  225.01   17.73
  -3  -3   9  187.18   14.41
   3  -3  -9  183.50   15.92
   3  -3  -9  236.00   18.76
   3  -3  -9  204.31   18.50
  -3  -3   9  182.12   14.74
   3  -3  -9  186.84   15.96
   3  -3  -8  221.81   19.50
  -3  -3   8  176.23   15.88
   3  -3  -8  185.55   20.44
   3  -3  -8  174.14   20.62
  -3  -3   8  159.98   16.15
  -3  -3   8  168.84   15.90
   3  -3  -8  181.38   21.08
   3  -3  -8  152.86   17.86
  -3  -3   7  184.06   16.47
  -3  -3   7  177.58   17.32
   3  -3  -7  183.37   19.99
  -3  -3   7  162.50   14.25
   3  -3  -7  119.36   24.21
  -3  -3   7  168.81   17.55
   3  -3  -7  188.58   22.51
   3  -3  -7  181.63   21.92
  -3  -3   7  145.70   16.91
   3  -3  -7  178.74   21.15
  -3  -3   6 1183.79   54.18
   3  -3  -6 1069.43   60.05
  -3  -3   6 1153.02   51.87
   3  -3  -6 1269.97   68.10
   3  -3  -6 1255.00   69.96
   3  -3  -6 1242.12   68.07
   3  -3  -6 1115.72   65.25
  -3  -3   6  983.80   58.02
   3  -3  -6 1109.31   62.91
  -3  -3   5  793.30   39.61
   3  -3  -5  629.13   44.40
   3  -3  -5  893.95   61.53
  -3  -3   5  850.88   43.92
   3  -3  -5  992.09   54.50
   3  -3  -5  875.27   54.58
   3  -3  -5  883.37   52.70
   3  -3  -5  774.10   50.80
  -3  -3   5  740.66   46.56
  -3  -3   5  984.19   51.48
   3  -3  -5  860.36   49.74
   3  -3  -4  140.35   20.99
   3  -3  -4   93.46   15.09
   3  -3  -4  149.29   21.22
   3  -3  -4  135.98   16.86
   3  -3  -4  147.38   18.36
   3  -3  -4  140.44   16.99
  -3  -3   4  138.77   14.24
  -3  -3   4  120.63   15.64
  -3  -3   4  157.49   17.49
   3  -3  -4  106.00   14.17
   3  -3  -3   35.53    7.29
   3  -3  -3   36.90    9.48
   3  -3  -3   36.51    9.56
   3  -3  -3   44.88    7.89
   3  -3  -3   48.64    9.00
   3  -3  -3   45.92    9.18
   3  -3  -3   45.30    8.27
   3  -3  -3   43.53    9.02
  -3  -3   3   35.30    7.99
  -3  -3   3   46.12    8.28
  -3  -3   3   34.95    7.88
  -3  -3   3   34.59    7.02
   3  -3  -3   33.28    6.79
   3  -3  -2   98.36   11.51
   3  -3  -2  122.90   12.70
   3  -3  -2  103.55   12.59
   3  -3  -2  114.12   12.61
   3  -3  -2  104.76   13.75
  -3  -3   2  113.24   13.15
  -3  -3   2  134.38   13.76
  -3  -3   2  133.32   11.41
  -3  -3   2  110.27   11.81
  -3  -3   2  106.36    8.43
  -3  -3   1 1720.96   73.19
   3  -3  -1 1804.58   73.51
   3  -3  -1 1661.86   84.29
  -3  -3   1 1680.85   67.35
  -3  -3   1 1660.95   69.49
  -3  -3   1 1842.30   72.03
   3  -3  -1 1615.32   72.03
   3  -3   0  187.39   16.29
  -3  -3   0  215.92   15.20
  -3  -3   0  236.12   16.49
   3  -3   0  212.30   20.89
   3  -3   1  335.65   23.62
   3  -3   1  341.10   24.37
   3  -3   1  332.64   23.65
  -3  -3  -1  354.05   21.90
  -3  -3  -1  390.25   24.07
   3  -3   1  354.36   28.50
   3  -3   2  763.84   43.15
   3  -3   2  728.03   42.02
  -3  -3  -2  779.85   38.88
   3  -3   2  757.71   51.28
   3  -3   2  708.53   42.18
   3  -3   2  824.48   48.87
  -3  -3  -2  815.23   40.03
   3  -3   2  731.00   41.32
  -3  -3  -2  788.42   37.12
   3  -3   2  804.83   38.47
   3  -3   2  788.40   49.59
   3  -3   3  120.80   15.55
   3  -3   3  132.63   16.34
  -3  -3  -3  122.87   12.62
   3  -3   3  105.92   13.59
   3  -3   3  102.98   16.83
  -3  -3  -3  109.06   12.55
   3  -3   3  122.24   12.85
   3  -3   3  112.61   15.03
  -3  -3  -3  111.45   11.77
   3  -3   3  119.07   17.71
   3  -3   4  206.30   22.96
  -3  -3  -4  221.97   19.04
   3  -3   4  248.75   24.71
   3  -3   4  258.94   28.80
   3  -3   4  264.34   23.05
  -3  -3  -4  239.93   20.37
   3  -3   4  252.76   20.75
  -3  -3  -4  301.50   21.44
   3  -3   4  198.67   25.50
   3  -3   5  176.98   19.17
   3  -3   5  152.92   20.33
   3  -3   5  206.93   23.23
  -3  -3  -5  197.32   19.63
   3  -3   5  169.47   24.55
  -3  -3  -5  170.96   16.72
  -3  -3  -5  176.59   20.30
   3  -3   5  177.05   17.56
  -3  -3  -5  192.74   20.23
  -3  -3  -5  156.39   16.42
  -3  -3  -5  160.70   15.67
   3  -3   5  117.36   19.09
   3  -3   6  513.86   37.52
   3  -3   6  395.78   33.91
   3  -3   6  517.87   42.94
  -3  -3  -6  406.36   32.04
  -3  -3  -6  413.18   26.22
  -3  -3  -6  446.79   33.69
   3  -3   6  480.73   33.10
  -3  -3  -6  478.53   30.79
  -3  -3  -6  489.99   35.71
   3  -3   6  485.39   38.32
   3  -3   7   38.72    8.26
   3  -3   7   45.35    9.56
   3  -3   7   43.65    8.30
   3  -3   7   53.10   11.67
  -3  -3  -7   37.19    7.16
  -3  -3  -7   54.41    8.57
  -3  -3  -7   33.50    8.11
   3  -3   8   61.30    9.59
   3  -3   8   59.58    7.57
  -3  -3  -8   67.87    7.75
  -3  -3  -8   60.94    8.98
  -3  -3  -9  182.08   11.75
  -3  -2  10  160.59   12.14
  -3  -2  10  143.01   10.07
   3  -2 -10  147.40   11.16
   3  -2 -10  127.15   10.54
  -3  -2   9  180.40   15.14
   3  -2  -9  203.44   19.50
  -3  -2   9  174.36   15.18
   3  -2  -9  176.23   17.35
   3  -2  -8   10.24    4.99
  -3  -2   8   14.95    3.55
   3  -2  -8    7.02    2.90
   3  -2  -8    9.60    5.63
   3  -2  -8    6.72    4.62
  -3  -2   8    7.26    3.41
  -3  -2   8   10.45    4.43
   3  -2  -8    8.62    5.30
  -3  -2   7  119.60   12.71
   3  -2  -7  126.27   16.56
  -3  -2   7  126.92   11.83
   3  -2  -7  110.39   23.48
   3  -2  -7  127.40   19.78
  -3  -2   7  108.04   13.62
   3  -2  -7  107.73   13.70
   3  -2  -7  128.26   19.35
  -3  -2   7  115.22   13.81
  -3  -2   7   89.42   13.69
  -3  -2   7  122.80   15.41
   3  -2  -7   93.81   16.04
  -3  -2   6  114.04   12.43
   3  -2  -6   93.88   14.57
  -3  -2   6  132.14   11.99
   3  -2  -6  103.59   22.05
   3  -2  -6  124.54   19.49
   3  -2  -6  104.81   13.33
   3  -2  -6  114.75   18.71
   3  -2  -6  115.68   17.78
  -3  -2   6  130.80   15.50
   3  -2  -6  112.16   17.45
  -3  -2   5  622.18   31.29
   3  -2  -5  498.33   37.15
   3  -2  -5  682.40   45.82
   3  -2  -5  704.35   45.86
   3  -2  -5  632.66   44.80
   3  -2  -5  521.48   39.79
  -3  -2   5  678.58   42.92
  -3  -2   5  792.53   42.76
  -3  -2   5  619.40   36.75
   3  -2  -5  602.77   41.80
   3  -2  -4  178.43   19.26
   3  -2  -4  279.86   29.68
  -3  -2   4  314.53   24.14
   3  -2  -4  239.86   27.62
   3  -2  -4  285.46   25.59
   3  -2  -4  255.12   24.39
  -3  -2   4  264.60   24.33
   3  -2  -4  249.86   24.13
   3  -2  -4  246.90   23.11
  -3  -2   4  268.24   19.70
  -3  -2   4  274.65   20.08
   3  -2  -4  265.73   23.62
   3  -2  -3  472.02   37.66
   3  -2  -3  518.72   33.18
   3  -2  -3  524.09   33.07
   3  -2  -3  478.96   28.88
   3  -2  -3  419.36   30.62
  -3  -2   3  431.63   31.59
  -3  -2   3  479.81   30.19
  -3  -2   3  499.21   26.16
  -3  -2   3  506.32   28.60
   3  -2  -3  447.17   29.81
  -3  -2   2  817.51   40.40
   3  -2  -2  788.05   40.54
   3  -2  -2  893.47   43.80
  -3  -2   2  726.00   32.68
  -3  -2   2  747.56   42.46
  -3  -2   2  789.40   38.42
  -3  -2   2  849.12   35.78
   3  -2  -1  187.17   15.63
   3  -2  -1  196.01   15.82
  -3  -2   1  202.49   13.04
   3  -2  -1  180.52   16.49
  -3  -2   1  181.44   11.00
  -3  -2   1  178.71   15.57
  -3  -2   1  156.05   13.30
  -3  -2   1  180.16   12.55
   3  -2   0   85.76   10.22
   3  -2   0   69.61    9.63
  -3  -2   0   78.50    7.36
  -3  -2   0   79.98    8.97
  -3  -2   0   87.66    8.77
   3  -2   1 1952.22   84.87
   3  -2   1 2000.45   85.88
  -3  -2  -1 2048.35   81.64
  -3  -2  -1 2030.67   77.21
  -3  -2  -1 1978.36   78.46
   3  -2   2   67.82   10.69
   3  -2   2   80.53   11.14
   3  -2   2   58.14   10.21
   3  -2   2   77.81   11.56
  -3  -2  -2   70.16    8.63
   3  -2   2   73.05   10.15
   3  -2   2   54.62   11.28
  -3  -2  -2   74.92    8.68
   3  -2   2   65.95    8.80
   3  -2   2   89.31   13.09
   3  -2   3  109.50   18.20
   3  -2   3  146.79   17.96
   3  -2   3  167.80   18.25
   3  -2   3  161.41   18.76
   3  -2   3  137.25   13.86
   3  -2   3  159.63   19.24
   3  -2   4  198.21   22.99
   3  -2   4  202.53   23.15
  -3  -2  -4  196.50   17.63
   3  -2   4  218.34   24.10
   3  -2   4  206.72   19.44
   3  -2   4  206.74   22.28
   3  -2   4  218.07   27.44
  -3  -2  -4  204.62   18.13
  -3  -2  -4  164.65   19.22
  -3  -2  -4  222.79   18.88
   3  -2   4  210.42   18.86
   3  -2   4  185.33   22.33
   3  -2   5  578.78   43.74
   3  -2   5  604.94   45.17
   3  -2   5  496.54   34.47
  -3  -2  -5  547.66   32.39
   3  -2   5  543.99   41.10
   3  -2   5  473.57   40.54
   3  -2   5  701.98   53.13
  -3  -2  -5  501.67   32.59
  -3  -2  -5  572.53   39.49
  -3  -2  -5  589.43   35.43
   3  -2   5  441.89   37.94
  -3  -2  -6  131.14   16.58
   3  -2   6  139.70   19.59
   3  -2   6  141.24   19.79
   3  -2   6  157.36   20.17
   3  -2   6  119.33   18.17
  -3  -2  -6  100.10   11.75
   3  -2   6  104.36   20.79
  -3  -2  -6  128.39   17.42
   3  -2   6  121.39   15.28
  -3  -2  -6  138.58   15.71
  -3  -2  -6  147.25   17.73
   3  -2   6  154.38   18.79
  -3  -2  -7  298.36   22.01
   3  -2   7  322.32   27.76
   3  -2   7  376.95   35.10
  -3  -2  -7  289.15   23.19
  -3  -2  -7  302.92   24.55
   3  -2   8  266.38   20.86
   3  -2   8  238.23   20.43
   3  -2   8  243.06   22.90
   3  -2   8  232.62   18.08
  -3  -2  -8  232.63   16.25
  -3  -2  -8  238.37   19.57
  -3  -2  -9    9.16    2.46
   3  -2   9    8.37    2.54
  -3  -2  -9   10.08    2.90
  -3  -1  10   21.70    4.14
   3  -1 -10   16.14    4.37
  -3  -1   9  106.00    9.72
   3  -1  -9   99.04   14.06
   3  -1  -9   92.32   10.28
   3  -1  -9  118.95   14.85
  -3  -1   9   81.35    9.74
   3  -1  -8  681.19   40.92
  -3  -1   8  633.26   33.66
   3  -1  -8  714.26   48.72
   3  -1  -8  591.29   38.17
  -3  -1   8  605.80   36.98
  -3  -1   8  601.54   34.85
   3  -1  -7  142.23   17.85
   3  -1  -7  153.40   20.51
   3  -1  -7  115.68   20.07
  -3  -1   7  114.72   13.52
   3  -1  -7   91.75   14.08
   3  -1  -7  125.98   19.72
   3  -1  -7  108.34   18.73
  -3  -1   7  129.70   14.07
  -3  -1   7  108.97   17.06
  -3  -1   7  136.55   16.94
   3  -1  -6   17.17    8.09
  -3  -1   6   28.68    5.72
   3  -1  -6   29.15    8.20
   3  -1  -6   31.82   10.68
   3  -1  -6   24.68    6.90
   3  -1  -6   37.87    9.97
  -3  -1   6   48.80   10.85
  -3  -1   6   31.83    8.24
   3  -1  -5 1305.21   73.40
   3  -1  -5 1418.09   90.41
   3  -1  -5 1849.33   86.73
   3  -1  -5 1543.10   73.81
   3  -1  -5 1798.08   86.73
   3  -1  -5 1508.51   78.02
  -3  -1   5 1426.57   79.32
  -3  -1   5 1792.43   80.26
  -3  -1   5 1761.42   76.18
  -3  -1   4 1336.12   57.42
   3  -1  -4 1484.33   78.01
   3  -1  -4 1381.06   68.39
   3  -1  -4 1335.33   66.32
   3  -1  -4 1338.87   68.01
   3  -1  -4 1131.70   62.58
  -3  -1   4 1264.13   64.89
  -3  -1   4 1199.04   59.25
   3  -1  -4 1230.41   64.41
   3  -1  -3  254.39   26.45
   3  -1  -3  288.43   23.43
   3  -1  -3  263.33   22.76
  -3  -1   3  238.62   21.76
  -3  -1   3  294.89   19.43
  -3  -1   3  295.00   19.80
  -3  -1   3  292.78   19.12
   3  -1  -3  253.11   21.20
   3  -1  -2  890.25   45.87
   3  -1  -1  225.99   17.15
   3  -1  -1  216.70   17.96
  -3  -1   1  205.43   12.49
   3  -1   0  898.62   44.77
   3  -1   0  971.12   46.51
   3  -1   1   75.31   10.25
   3  -1   1   69.29    9.94
  -3  -1  -1   64.31    5.48
  -3  -1  -1   68.45    7.90
  -3  -1  -1   58.88    6.35
  -3  -1  -1   79.69    8.48
   3  -1   2  564.14   36.49
   3  -1   2  598.62   34.91
   3  -1   2  577.26   36.91
   3  -1   2  673.07   43.35
  -3  -1  -2  611.45   29.88
   3  -1   2  555.52   31.91
   3  -1   2  521.96   31.83
  -3  -1  -2  698.70   32.84
   3  -1   2  544.63   30.67
   3  -1   2  663.70   36.98
   3  -1   3  573.96   34.71
   3  -1   3  620.94   41.47
   3  -1   3  680.99   43.29
   3  -1   3  628.40   39.30
   3  -1   3  709.47   44.27
  -3  -1  -3  649.44   34.85
   3  -1   3  589.27   34.56
  -3  -1  -3  673.17   36.06
  -3  -1  -3  683.96   39.24
   3  -1   3  658.66   35.18
   3  -1   3  687.41   48.42
   3  -1   3  570.49   38.64
   3  -1   4  115.58   17.83
   3  -1   4  142.63   19.84
   3  -1   4  133.50   17.65
   3  -1   4  128.67   18.89
   3  -1   4  156.02   23.43
   3  -1   4  130.20   15.02
   3  -1   4  129.57   14.37
   3  -1   4  113.95   14.46
  -3  -1  -4  153.15   17.84
  -3  -1  -4  136.14   13.47
   3  -1   4  111.27   15.99
  -3  -1  -5   72.38   10.24
   3  -1   5   90.69   19.15
   3  -1   5   39.71   11.62
   3  -1   5   63.35   14.06
   3  -1   5   72.74   14.00
   3  -1   5   69.87   14.83
   3  -1   5   52.60   10.18
   3  -1   5   76.38   11.21
   3  -1   5   81.01   12.82
  -3  -1  -5   78.33   13.39
  -3  -1  -5  106.13   13.53
   3  -1   5   89.58   12.34
   3  -1   6  101.84   17.16
   3  -1   6  112.80   18.37
  -3  -1  -6   79.65   10.35
   3  -1   6   88.19   15.34
   3  -1   6   83.51   16.04
   3  -1   6   86.37   19.42
   3  -1   6   80.60   13.07
   3  -1   6   91.84   13.72
  -3  -1  -6   90.47   14.60
   3  -1   6   76.99   11.99
  -3  -1  -6   84.94   12.65
  -3  -1  -7  150.93   15.03
   3  -1   7  180.11   20.37
   3  -1   7  216.48   27.47
   3  -1   7  144.15   16.01
  -3  -1  -7  171.10   17.18
  -3  -1  -7  168.94   18.07
   3  -1   8   42.71    7.59
  -3  -1  -8   39.67    5.90
   3  -1   8   59.44   11.90
   3  -1   8   41.66    8.29
  -3  -1  -8   51.53    8.70
   3  -1   9   78.36    7.33
   3  -1   9   74.87    7.39
  -3  -1  -9   90.86    8.65
  -3   0  10  648.95   30.17
  -3   0  10  554.45   25.49
  -3   0  10  675.05   29.35
   3   0 -10  639.75   31.18
   3   0 -10  676.97   32.00
   3   0 -10  599.77   30.69
  -3   0   9   16.83    5.04
  -3   0   9   17.65    4.32
   3   0  -9   16.21    5.17
   3   0  -9   16.53    6.57
   3   0  -9   12.69    5.54
  -3   0   9   13.24    4.12
   3   0  -9   18.42    5.92
   3   0  -8   32.34    8.23
   3   0  -8   23.04    8.50
   3   0  -8   21.02    6.79
   3   0  -8   33.88    9.66
  -3   0   8   29.65    7.26
  -3   0   8   22.96    5.39
   3   0  -8   27.66    8.83
   3   0  -7  404.64   31.08
   3   0  -7  331.56   34.47
  -3   0   7  319.95   23.88
   3   0  -7  312.70   29.27
  -3   0   7  372.41   27.74
   3   0  -7  366.95   34.08
  -3   0   7  337.69   30.62
  -3   0   7  342.96   23.83
  -3   0   7  377.61   30.69
   3   0  -7  293.43   30.96
   3   0  -6  124.04   16.55
   3   0  -6   91.04   16.86
  -3   0   6  116.82   12.62
   3   0  -6   89.78   14.42
  -3   0   6  101.95   11.71
   3   0  -6   84.50   16.64
   3   0  -6   63.98   14.03
   3   0  -6  119.15   17.32
  -3   0   6   84.49   15.26
  -3   0   6  145.81   18.91
  -3   0   6  131.77   17.01
   3   0  -6   78.17   15.39
   3   0  -5   81.26   14.67
   3   0  -5   74.38   12.20
   3   0  -5   70.07   13.07
   3   0  -5   84.11   15.38
   3   0  -5   83.06   12.78
  -3   0   5   71.23   13.32
  -3   0   5   65.79   11.38
   3   0  -5   84.26   14.20
   3   0  -4  108.36   14.09
   3   0  -4  173.59   19.38
   3   0  -4  147.48   14.94
   3   0  -4  124.81   15.99
   3   0  -4  154.96   18.38
   3   0  -4  117.45   14.28
  -3   0   4  120.83   16.44
  -3   0   4  132.98   14.93
  -3   0   4  152.82   15.46
  -3   0   4  141.23   12.26
   3   0  -4  130.60   16.15
   3   0  -3  388.17   32.78
  -3   0   3  391.09   21.72
   3   0  -3  376.39   27.32
   3   0  -3  372.50   27.09
  -3   0   3  316.78   22.76
  -3   0   3  359.46   24.26
   3   0  -3  326.05   24.23
   3   0  -2  677.95   36.02
   3   0  -2  701.48   38.07
  -3   0   2  591.99   31.85
   3   0  -1    3.52    2.52
   3   0  -1    2.39    2.05
   3   0  -1    0.68    1.76
   3   0   0 1183.84   55.48
   3   0   0 1273.16   56.84
  -3   0   0 1188.35   50.13
   3   0   0 1313.47   56.23
   3   0   1 1711.14   78.91
   3   0   1 1876.70   79.44
  -3   0  -1 1784.71   71.08
  -3   0  -1 1800.57   69.58
  -3   0  -1 1988.93   75.29
   3   0   1 1826.48   79.68
   3   0   2  200.67   19.15
  -3   0  -2  201.89   15.81
   3   0   2  176.36   18.16
   3   0   2  176.24   20.86
  -3   0  -2  145.45   11.52
   3   0   2  175.24   15.25
  -3   0  -2  201.63   15.94
  -3   0  -2  220.90   17.42
   3   0   2  178.70   14.34
   3   0   2  202.16   17.90
   3   0   3   23.58    6.03
   3   0   3   21.37    7.25
   3   0   3   14.34    6.23
   3   0   3   14.28    6.20
   3   0   3   17.28    7.37
  -3   0  -3   18.56    5.24
   3   0   3   23.32    5.30
   3   0   3   14.13    4.67
   3   0   3   14.14    4.98
  -3   0  -3   22.48    5.39
  -3   0  -3   19.76    5.61
   3   0   4 2391.56  115.81
   3   0   4 2410.55  116.61
   3   0   4 2391.44  109.55
   3   0   4 2406.21  117.00
   3   0   4 2588.45  126.17
  -3   0  -4 2478.91  103.32
   3   0   4 2322.30  103.91
   3   0   4 2294.73  103.36
  -3   0  -4 2464.04  102.31
  -3   0  -4 2615.45  109.83
   3   0   4 2612.81  103.73
  -3   0  -4 2846.37  104.60
   3   0   5   90.16   19.29
   3   0   5   92.84   17.24
   3   0   5   93.42   17.48
   3   0   5   95.61   15.57
   3   0   5   68.00   14.79
   3   0   5  139.53   16.34
   3   0   5  140.31   15.79
   3   0   5  120.92   15.83
  -3   0  -5  126.19   17.14
   3   0   5  135.95   15.36
  -3   0  -5  120.21   14.37
   3   0   6   58.01   13.09
   3   0   6   89.31   16.21
   3   0   6   82.97   14.56
   3   0   6   77.02   17.95
   3   0   6   55.03   10.77
   3   0   6   52.07    9.52
   3   0   6   71.17   12.26
  -3   0  -6   44.46   10.52
   3   0   6   71.65   11.63
  -3   0  -6   87.16   12.49
   3   0   7  259.75   24.42
   3   0   7  297.86   32.73
   3   0   7  230.80   22.18
   3   0   7  269.16   23.07
   3   0   7  265.69   21.00
  -3   0  -7  275.86   22.58
  -3   0  -7  260.83   22.97
  -3   0  -8   61.97    7.27
   3   0   8   71.27   10.00
   3   0   8   73.30   13.75
  -3   0  -8   79.36   10.66
  -3   0  -9  282.93   16.13
   3   0   9  237.25   13.79
   3   0   9  284.96   16.02
  -3   1  10   23.68    4.46
  -3   1  10   23.52    3.72
  -3   1  10   21.12    4.18
   3   1 -10   24.20    4.70
   3   1 -10   22.13    4.02
   3   1 -10   24.46    4.85
  -3   1   9  115.11   11.36
   3   1  -9  110.33   14.90
   3   1  -9  126.85   14.26
   3   1  -9  126.31   14.88
  -3   1   9  113.37   11.94
  -3   1   9  112.36   12.36
   3   1  -9  120.64   14.92
   3   1  -8  534.86   42.48
   3   1  -8  593.69   40.41
   3   1  -8  581.34   41.50
  -3   1   8  568.11   35.48
   3   1  -8  561.11   41.80
   3   1  -7  180.12   20.10
   3   1  -7  117.15   19.57
   3   1  -7  126.54   18.74
   3   1  -7  149.63   20.54
  -3   1   7  174.68   17.42
  -3   1   7  123.52   17.86
   3   1  -7  184.30   23.73
  -3   1   7  114.43   16.83
  -3   1   7  151.75   13.84
   3   1  -7  143.79   20.82
   3   1  -6   19.62    7.96
   3   1  -6   11.84    6.19
   3   1  -6   28.30    8.83
   3   1  -6   33.31   10.15
  -3   1   6   23.13    8.12
  -3   1   6   22.94    7.61
  -3   1   6   23.45    5.32
   3   1  -6   19.20    7.93
   3   1  -5 1609.96   76.03
  -3   1   5 1584.17   66.11
   3   1  -5 1641.52   82.97
   3   1  -5 1684.94   78.42
   3   1  -5 1549.84   81.84
  -3   1   5 1587.24   65.59
  -3   1   5 1393.53   78.32
  -3   1   5 1303.08   74.22
  -3   1   5 1795.57   77.01
   3   1  -5 1561.96   79.57
   3   1  -4 1211.92   64.38
   3   1  -4 1459.58   70.92
   3   1  -4 1386.75   66.25
   3   1  -4 1475.19   71.36
  -3   1   4 1424.69   66.28
   3   1  -4 1398.61   66.41
   3   1  -4 1405.30   68.50
   3   1  -3  274.22   27.71
   3   1  -3  264.88   22.04
   3   1  -3  243.27   20.76
   3   1  -3  286.83   22.88
  -3   1   3  249.84   16.26
   3   1  -3  256.64   20.76
  -3   1   3  279.37   16.37
   3   1  -2  734.74   38.98
   3   1  -2  759.16   41.17
  -3   1   2  749.92   34.20
   3   1  -1  317.33   20.56
   3   1  -1  296.57   21.57
  -3   1   1  286.93   15.06
  -3   1   0  810.41   35.10
   3   1   0  857.16   42.26
   3   1   1   70.08   10.26
   3   1   1   64.53    9.78
  -3   1  -1   57.47    6.57
  -3   1  -1   60.61    5.99
  -3   1  -1   61.98    7.64
  -3   1  -1   65.40    7.77
   3   1   2  518.20   33.39
   3   1   2  500.15   36.80
   3   1   2  431.28   27.58
   3   1   2  473.00   29.06
  -3   1  -2  464.88   26.75
  -3   1  -2  488.05   28.45
  -3   1  -2  467.65   23.92
   3   1   3  874.38   55.15
   3   1   3  832.27   48.63
   3   1   3  707.98   40.20
   3   1   3  755.79   47.41
  -3   1  -3  790.42   40.58
  -3   1  -3  796.30   37.69
   3   1   3  715.99   40.86
   3   1   3  664.72   39.19
   3   1   3  767.16   42.42
   3   1   3  668.23   38.71
  -3   1  -3  696.84   37.58
  -3   1  -3  745.05   41.80
   3   1   3  744.61   38.32
   3   1   4  108.51   17.58
   3   1   4  120.99   15.00
   3   1   4  102.08   16.99
   3   1   4   92.12   12.93
  -3   1  -4  112.48   13.44
   3   1   4   98.15   13.12
   3   1   4  107.87   13.87
  -3   1  -4   95.64   11.47
   3   1   4  106.13   14.74
  -3   1  -4   89.35   11.64
  -3   1  -4  125.33   16.01
   3   1   4  118.68   13.19
   3   1   5   33.65    8.43
   3   1   5   53.36   12.91
   3   1   5   48.59   12.23
   3   1   5   42.05   11.68
   3   1   5   52.94   10.46
   3   1   5   57.82   10.22
  -3   1  -5   65.89   12.16
   3   1   5   59.18    9.95
  -3   1  -5   67.55   10.97
  -3   1  -6   55.33   10.28
   3   1   6   70.17   14.48
   3   1   6   36.94   10.37
   3   1   6   64.54   11.63
   3   1   6   48.87   11.90
   3   1   6   57.26   10.71
   3   1   6   53.02    9.57
  -3   1  -6   44.04    7.59
   3   1   6   57.48    9.83
  -3   1  -6   57.23   10.45
   3   1   7  150.76   17.10
   3   1   7  155.25   15.11
   3   1   7  141.73   16.58
   3   1   7  151.73   15.08
  -3   1  -7  152.85   16.60
  -3   1  -8   59.10    8.81
   3   1   8   40.50    7.15
   3   1   8   34.46    6.94
  -3   1  -8   50.24    7.76
  -3   1  -8   49.91    8.07
  -3   1  -9   96.48    8.63
   3   1   9  105.61    8.87
  -3   2  10  128.91    9.77
  -3   2  10  168.31   10.64
   3   2 -10  137.38   10.68
   3   2 -10  143.83   10.66
  -3   2   9  185.66   14.62
   3   2  -9  177.21   17.87
   3   2  -9  199.99   17.88
   3   2  -9  172.49   16.90
  -3   2   9  148.95   14.15
   3   2  -9  179.47   16.91
   3   2  -8   19.84    6.79
   3   2  -8   13.33    6.49
   3   2  -8   22.94    7.45
  -3   2   8   13.42    5.13
  -3   2   8   15.16    5.20
   3   2  -8   15.36    6.34
   3   2  -7  140.46   20.34
   3   2  -7  145.02   19.56
   3   2  -7  150.90   19.43
  -3   2   7  122.97   14.73
   3   2  -7  128.88   19.12
  -3   2   7  126.69   12.27
   3   2  -7  130.26   14.75
  -3   2   7  103.54   16.36
  -3   2   7  181.28   20.71
  -3   2   7  137.71   18.41
   3   2  -7  141.77   19.27
   3   2  -6   92.45   14.12
   3   2  -6   70.20   14.01
   3   2  -6   76.52   13.87
   3   2  -6   61.23   12.86
  -3   2   6   71.42   10.69
   3   2  -6   64.95   13.62
   3   2  -6   43.23    8.81
  -3   2   6   71.08   13.06
   3   2  -6   47.90   11.43
   3   2  -5  623.22   39.27
   3   2  -5  619.16   43.17
   3   2  -5  641.80   41.73
   3   2  -5  583.85   40.93
   3   2  -5  620.21   43.41
   3   2  -5  597.04   37.29
  -3   2   5  660.63   40.72
   3   2  -5  588.17   40.89
   3   2  -4  275.94   22.42
   3   2  -4  244.55   22.98
   3   2  -4  254.55   22.35
   3   2  -4  216.20   21.45
   3   2  -4  264.44   23.77
   3   2  -4  262.32   20.57
  -3   2   4  217.58   21.03
  -3   2   4  240.55   18.38
   3   2  -4  266.52   22.79
   3   2  -3  485.21   31.85
   3   2  -3  539.59   34.26
  -3   2   3  554.88   29.77
   3   2  -3  542.08   32.80
   3   2  -2  796.29   40.77
   3   2  -2  844.71   43.30
  -3   2   2  867.66   35.57
  -3   2   2  769.86   35.37
   3   2  -1  183.80   15.47
   3   2  -1  183.49   16.26
  -3   2   1  179.59   11.35
  -3   2   1  221.98   14.51
  -3   2   1  194.19   12.89
   3   2  -1  192.65   15.66
   3   2   0   86.58   10.37
   3   2   0   89.74   10.71
  -3   2   0   89.24    8.21
  -3   2   0   67.72    7.10
   3   2   1 2018.59   86.22
   3   2   1 1914.63   85.30
  -3   2  -1 2020.51   79.36
  -3   2  -1 2062.63   79.29
   3   2   2   98.79   13.25
   3   2   2   98.13   13.36
   3   2   2   84.51   12.36
   3   2   2   83.33   14.30
   3   2   2   88.66   11.08
  -3   2  -2   85.14    8.90
   3   2   2   98.57   11.40
  -3   2  -2   87.85    9.52
   3   2   2   85.62    9.78
   3   2   3  171.17   19.79
  -3   2  -3  207.22   19.85
   3   2   3  157.83   19.22
   3   2   3  117.17   19.28
  -3   2  -3  199.22   17.43
   3   2   3  188.15   17.30
   3   2   3  165.12   16.48
   3   2   3  190.08   18.11
   3   2   3  178.36   15.58
   3   2   4  183.28   22.39
   3   2   4  178.24   22.16
  -3   2  -4  184.64   20.87
   3   2   4  181.94   25.35
   3   2   4  164.73   17.01
   3   2   4  162.88   21.09
   3   2   4  201.29   19.74
  -3   2  -4  200.30   17.89
   3   2   4  186.93   19.38
   3   2   4  150.99   18.45
   3   2   4  191.39   19.69
   3   2   4  227.75   18.48
   3   2   5  592.80   44.79
   3   2   5  519.84   42.82
  -3   2  -5  525.51   39.39
   3   2   5  472.32   34.83
   3   2   5  605.58   45.32
   3   2   5  568.44   49.21
   3   2   5  515.94   36.96
   3   2   5  528.64   36.44
   3   2   5  620.52   38.41
   3   2   5  606.58   40.79
  -3   2  -5  535.14   34.87
  -3   2  -5  612.71   34.85
   3   2   5  582.34   34.55
  -3   2  -5  609.83   38.13
  -3   2  -6  122.24   15.92
   3   2   6  142.08   19.77
   3   2   6  123.79   18.54
   3   2   6  122.86   14.97
   3   2   6  128.74   18.91
   3   2   6  150.02   23.72
   3   2   6  118.24   15.63
   3   2   6  133.00   15.55
   3   2   6  115.19   16.01
  -3   2  -6  116.29   12.47
   3   2   6  128.95   14.35
  -3   2  -6  110.27   14.04
  -3   2  -7  302.74   23.94
   3   2   7  307.19   23.06
   3   2   7  296.20   31.09
   3   2   7  297.20   22.31
   3   2   7  330.31   22.16
  -3   2  -7  311.62   23.63
  -3   2  -7  303.47   23.23
  -3   2  -8  295.15   20.73
   3   2   8  276.18   24.96
   3   2   8  294.84   20.65
  -3   2  -8  281.42   19.53
  -3   2  -9    3.81    1.70
  -3   2  -9    3.74    1.18
  -3   3  10   24.32    3.51
   3   3 -10   24.50    3.99
   3   3  -9  195.82   15.77
   3   3  -9  198.00   16.67
  -3   3   9  197.24   15.94
   3   3  -9  188.11   15.42
   3   3  -8  181.26   19.69
   3   3  -8  184.65   19.36
  -3   3   8  192.87   14.34
   3   3  -8  173.06   15.86
   3   3  -8  173.51   18.30
   3   3  -7  177.15   21.30
   3   3  -7  177.25   20.35
  -3   3   7  198.65   19.54
  -3   3   7  188.18   17.53
   3   3  -7  180.14   21.06
   3   3  -7  170.90   18.32
  -3   3   7  116.31   17.17
  -3   3   7  169.43   19.95
  -3   3   7  160.51   19.71
   3   3  -7  168.40   19.62
   3   3  -6 1166.62   64.80
   3   3  -6 1182.87   64.02
  -3   3   6 1187.18   55.13
   3   3  -6 1122.58   63.91
   3   3  -6  924.50   56.97
  -3   3   6  939.66   61.34
  -3   3   6  947.61   60.28
   3   3  -6 1104.94   61.24
   3   3  -5 1024.99   52.00
   3   3  -5  897.71   52.74
   3   3  -5  831.83   51.19
  -3   3   5  893.73   44.33
   3   3  -5  840.77   51.82
   3   3  -5  809.72   48.87
  -3   3   5  931.38   52.38
   3   3  -5  860.99   50.21
   3   3  -4  185.49   17.51
   3   3  -4  153.02   17.38
   3   3  -4  151.95   17.95
  -3   3   4  170.32   14.01
   3   3  -4  135.76   16.46
   3   3  -4  169.06   17.14
  -3   3   4  177.37   18.96
  -3   3   4  147.74   14.93
   3   3  -4  154.27   16.28
   3   3  -3   37.52    7.17
   3   3  -3   46.71    7.45
   3   3  -3   26.86    5.86
   3   3  -3   41.53    8.01
   3   3  -3   40.77    7.36
   3   3  -3   35.78    6.88
  -3   3   3   31.54    6.51
   3   3  -3   35.24    6.64
   3   3  -2   92.38   10.70
   3   3  -2  104.97   12.19
   3   3  -2  111.39   11.80
   3   3  -2  120.16   12.72
  -3   3   2  117.98   12.75
  -3   3   2   96.16    8.76
  -3   3   2  105.56   10.08
   3   3  -1 1650.35   67.72
   3   3  -1 1676.14   69.93
  -3   3   1 1614.92   66.93
  -3   3   1 1636.14   64.29
   3   3  -1 1509.91   66.92
   3   3   0  183.25   15.22
   3   3   0  212.21   16.83
   3   3   0  224.35   17.76
   3   3   0  187.49   16.83
   3   3   0  212.92   17.60
  -3   3   0  221.62   15.53
  -3   3   0  232.17   16.29
   3   3   1  353.04   21.77
   3   3   1  308.07   22.93
   3   3   1  339.35   24.23
   3   3   1  324.66   21.68
   3   3   1  337.91   23.14
  -3   3  -1  331.61   20.88
   3   3   1  390.32   25.66
  -3   3  -1  347.53   22.26
   3   3   1  260.42   19.45
   3   3   1  429.64   25.15
   3   3   2  906.22   42.62
   3   3   2  957.24   48.76
   3   3   2  869.50   47.53
   3   3   2  867.27   52.15
   3   3   2  841.48   44.07
   3   3   2  831.49   45.73
  -3   3  -2  878.39   41.61
   3   3   2  953.68   44.79
  -3   3  -2  903.98   44.13
   3   3   2  843.87   57.92
   3   3   2  821.79   47.38
   3   3   2  790.80   41.22
   3   3   3  106.62   15.17
  -3   3  -3  125.17   16.14
   3   3   3  113.20   15.51
   3   3   3   92.40   16.31
   3   3   3   92.52   12.95
   3   3   3  118.93   13.99
   3   3   3  106.08   13.75
   3   3   3  112.54   18.73
   3   3   3   90.95   11.09
   3   3   4  206.98   26.41
   3   3   4  239.29   24.85
  -3   3  -4  228.85   24.57
   3   3   4  239.82   24.96
  -3   3  -4  261.98   21.37
   3   3   4  230.91   21.87
   3   3   4  247.69   21.02
  -3   3  -4  224.09   20.35
   3   3   4  179.64   20.67
   3   3   4  233.61   22.34
  -3   3  -4  257.91   20.37
   3   3   4  201.34   25.20
   3   3   4  236.31   19.38
   3   3   5  155.99   20.73
  -3   3  -5  145.03   20.42
   3   3   5  144.28   20.29
   3   3   5  145.04   23.40
   3   3   5  161.53   18.91
  -3   3  -5  144.44   16.00
   3   3   5  172.85   18.85
   3   3   5  188.08   20.81
  -3   3  -5  175.14   18.44
   3   3   5  186.57   20.56
  -3   3  -5  138.43   14.58
   3   3   5  190.40   17.03
  -3   3  -5  160.09   18.43
  -3   3  -6  425.45   29.86
   3   3   6  446.64   35.78
   3   3   6  409.35   34.01
   3   3   6  411.43   38.52
   3   3   6  399.02   30.42
   3   3   6  435.49   30.63
   3   3   6  456.02   33.02
  -3   3  -6  378.23   25.05
   3   3   6  480.92   28.67
  -3   3  -6  442.53   32.57
  -3   3  -7   28.80    6.53
   3   3   7   23.14    8.14
   3   3   7   24.89    5.83
   3   3   7   34.44    7.63
   3   3   7   26.34    5.48
  -3   3  -7   27.85    6.35
  -3   3  -8   80.08    9.25
   3   3   8   80.92    9.84
  -3   3  -8   65.67    7.64
   3   4  -9  106.88   11.13
  -3   4   9   78.21    6.34
   3   4  -8   31.43    6.05
  -3   4   8   29.70    6.03
   3   4  -8   37.94    8.42
  -3   4   8   36.81    6.04
   3   4  -8   35.76    7.08
   3   4  -8   33.07    6.11
   3   4  -7  350.80   26.45
   3   4  -7  345.43   27.79
   3   4  -7  393.83   31.09
  -3   4   7  363.97   27.09
   3   4  -7  367.90   28.66
   3   4  -7  357.40   26.49
   3   4  -6  428.65   31.07
   3   4  -6  441.71   33.13
   3   4  -6  515.82   37.37
  -3   4   6  531.14   33.66
   3   4  -6  455.57   34.42
  -3   4   6  415.86   35.61
  -3   4   6  452.61   28.51
   3   4  -6  457.10   31.69
   3   4  -5  160.56   16.74
   3   4  -5  166.93   18.35
   3   4  -5  160.60   19.39
  -3   4   5  175.92   17.75
  -3   4   5  154.76   14.18
   3   4  -5  152.06   18.76
   3   4  -5  182.80   16.80
  -3   4   5  189.17   20.40
  -3   4   5  155.40   16.87
   3   4  -5  156.54   16.50
   3   4  -4  208.55   18.08
   3   4  -4  213.95   18.44
   3   4  -4  217.38   19.79
   3   4  -4  224.58   21.68
   3   4  -4  243.53   22.22
  -3   4   4  259.46   23.32
   3   4  -4  196.23   19.11
  -3   4   4  233.67   20.36
   3   4  -4  181.31   16.98
   3   4  -3   13.45    4.32
   3   4  -3   22.66    6.36
   3   4  -3   21.62    5.34
   3   4  -3   18.55    5.87
   3   4  -3   24.00    6.26
  -3   4   3   21.99    6.21
  -3   4   3   16.81    5.23
   3   4  -2  691.77   39.97
   3   4  -2  695.47   39.14
   3   4  -2  823.45   43.51
   3   4  -2  714.29   37.78
  -3   4   2  785.06   41.04
  -3   4   2  686.30   36.56
   3   4  -2  643.96   35.60
   3   4  -1  349.66   24.32
   3   4  -1  421.38   28.11
  -3   4   1  371.80   24.75
  -3   4   1  408.65   22.68
  -3   4   1  367.49   24.07
   3   4   0  374.70   24.04
   3   4   0  349.21   22.68
   3   4   0  323.46   23.22
  -3   4   0  303.43   21.73
  -3   4   0  392.94   23.84
  -3   4   0  382.01   22.63
  -3   4   0  343.15   23.49
   3   4   1  814.89   39.21
   3   4   1  592.88   34.41
   3   4   1  623.46   35.87
  -3   4  -1  686.22   33.90
   3   4   1  667.89   37.90
   3   4   1  714.48   38.88
  -3   4  -1  724.07   36.53
   3   4   1  750.34   42.17
  -3   4  -1  755.15   36.91
   3   4   1  679.74   37.71
   3   4   2  294.37   21.37
  -3   4  -2  265.85   19.09
   3   4   2  261.95   21.27
   3   4   2  240.93   20.56
   3   4   2  256.56   20.77
   3   4   2  275.71   22.96
  -3   4  -2  266.88   19.62
  -3   4  -2  266.47   20.10
   3   4   2  294.72   33.72
   3   4   2  240.04   18.53
   3   4   2  244.60   21.03
   3   4   3   24.94    7.47
   3   4   3   31.03    7.17
  -3   4  -3   33.08    8.93
   3   4   3   22.26    7.00
   3   4   3   26.05    7.17
   3   4   3   22.63    6.57
  -3   4  -3   23.06    6.11
   3   4   3   32.21    7.69
   3   4   3   26.73    6.50
   3   4   3   35.09   11.76
   3   4   3   26.47    5.91
  -3   4  -4  932.49   46.97
   3   4   4  914.39   53.07
  -3   4  -4 1003.78   59.84
   3   4   4  952.64   54.56
   3   4   4  911.04   53.21
   3   4   4  856.75   56.83
  -3   4  -4 1068.07   51.01
   3   4   4  936.36   52.49
   3   4   4  942.84   50.01
  -3   4  -4 1008.25   51.91
   3   4   4  729.35   49.08
   3   4   4  920.00   52.88
  -3   4  -4  959.41   47.70
   3   4   4  772.89   61.46
   3   4   4  956.58   47.07
  -3   4  -5   93.10   12.10
   3   4   5   90.83   15.61
   3   4   5   72.06   12.31
  -3   4  -5   85.62   16.03
   3   4   5   68.51   12.12
   3   4   5   82.45   13.39
  -3   4  -5   87.90   12.02
   3   4   5   90.69   12.04
   3   4   5   91.00   13.97
  -3   4  -5   75.26   12.56
   3   4   5   82.62   13.47
  -3   4  -5   95.66   11.33
   3   4   5   91.44   11.36
   3   4   5   72.04   14.38
  -3   4  -5  106.61   14.79
  -3   4  -6   18.77    6.53
  -3   4  -6   16.82    5.35
  -3   4  -6   22.91    7.46
   3   4   6   24.72    6.72
   3   4   6   25.87    8.12
   3   4   6   24.65    7.45
   3   4   6   29.45    7.22
   3   4   6   14.48    5.56
   3   4   6   19.75    6.44
   3   4   6   26.38    7.66
   3   4   6   29.30    6.04
  -3   4  -7   79.80   10.08
   3   4   7   71.44    9.88
   3   4   7   41.57    9.28
   3   4   7   67.19    9.19
   3   4   7   54.79    8.93
   3   4   7   62.54    7.12
  -3   4  -7   58.38    8.26
  -3   4  -8   73.61    7.84
  -3   4  -8   68.19    6.65
   3   4   8   72.27    7.26
   3   4   8   77.69    8.15
  -3   5   9  157.96   10.41
   3   5  -9  178.88   12.51
  -3   5   8  295.38   20.75
   3   5  -8  366.07   24.76
  -3   5   8  324.06   19.47
   3   5  -8  311.76   21.64
  -3   5   7   41.12    8.13
   3   5  -7   32.43    8.30
  -3   5   7   38.62    7.88
   3   5  -7   36.30    8.59
   3   5  -6   95.70   14.52
  -3   5   6   77.30   11.82
   3   5  -6   90.42   13.97
  -3   5   6   70.55   12.87
   3   5  -5  266.43   25.29
  -3   5   5  290.99   23.34
   3   5  -5  283.92   26.00
   3   5  -5  300.36   24.33
  -3   5   5  275.45   25.41
  -3   5   5  303.80   27.24
  -3   5   5  256.67   23.39
   3   5  -4  973.58   54.08
  -3   5   4  963.74   48.74
   3   5  -4 1008.37   54.71
   3   5  -4  811.17   51.47
  -3   5   4 1000.90   54.52
  -3   5   4 1025.76   56.49
  -3   5   4  899.85   51.08
   3   5  -3   35.44    7.96
  -3   5   3   40.49    7.38
   3   5  -3   30.51    7.77
   3   5  -3   39.55    9.01
  -3   5   3   39.63    9.65
  -3   5   3   46.54    9.26
  -3   5   3   39.62    8.49
   3   5  -2  670.18   37.43
  -3   5   2  625.74   33.45
   3   5  -2  641.08   38.37
   3   5  -2  762.59   43.96
  -3   5   2  704.40   40.53
  -3   5   2  661.45   37.82
   3   5  -1  438.61   28.44
   3   5  -1  437.96   30.87
   3   5  -1  414.28   28.59
  -3   5   1  441.99   29.14
  -3   5   1  433.45   28.78
  -3   5   0  124.86   12.49
  -3   5   0  132.76   13.30
   3   5   0  134.84   14.54
   3   5   0  117.07   14.27
  -3   5   0  115.89   12.63
  -3   5   0  123.64   13.72
  -3   5   0  107.34   11.59
  -3   5   0  117.83   13.94
   3   5   1  473.99   29.32
   3   5   1  356.92   23.23
  -3   5  -1  420.39   25.28
   3   5   1  395.78   28.16
   3   5   1  383.51   27.47
  -3   5  -1  422.36   26.91
  -3   5  -1  420.29   26.23
   3   5   2   72.20   11.04
  -3   5  -2   69.61   10.24
   3   5   2   74.16   10.79
   3   5   2   73.13   11.37
   3   5   2   74.00   11.93
  -3   5  -2   66.61    9.61
   3   5   2   64.93   16.96
   3   5   2   63.91    8.95
  -3   5  -3  125.09   13.97
  -3   5  -3  169.16   21.39
  -3   5  -3  138.71   15.26
   3   5   3  138.51   16.21
   3   5   3  138.74   14.90
   3   5   3  134.55   25.26
   3   5   3  143.63   14.10
  -3   5  -4  528.10   41.20
  -3   5  -4  522.05   32.40
   3   5   4  476.03   34.53
   3   5   4  491.15   32.78
  -3   5  -4  556.59   36.57
   3   5   4  454.36   32.55
   3   5   4  498.37   35.32
  -3   5  -4  450.97   29.55
   3   5   4  466.27   46.52
   3   5   4  502.56   30.09
  -3   5  -5   44.18   11.72
   3   5   5   42.90    8.99
   3   5   5   55.95   10.67
   3   5   5   57.75    9.42
   3   5   5   53.82   10.06
  -3   5  -5   62.60   11.43
   3   5   5   42.61    9.03
  -3   5  -5   64.27    8.66
   3   5   5   52.65    8.15
   3   5   5   74.87   15.09
  -3   5  -6  293.13   24.72
  -3   5  -6  298.99   21.44
  -3   5  -6  287.56   28.61
   3   5   6  288.47   23.67
   3   5   6  329.14   24.30
   3   5   6  326.01   23.96
   3   5   6  291.07   23.91
  -3   5  -6  308.94   21.73
   3   5   6  342.53   20.11
  -3   5  -7  245.36   16.52
  -3   5  -7  226.44   17.42
   3   5   7  232.21   17.22
   3   5   7  238.51   17.28
  -3   5  -8   13.75    2.46
   3   5   8   16.14    2.87
   3   5   8   15.92    2.73
   3   6  -8  118.02   11.34
  -3   6   8  120.94    9.89
  -3   6   7  117.25   13.18
   3   6  -7  116.92   13.49
  -3   6   7  138.52   12.52
  -3   6   7  110.54   12.09
   3   6  -7  108.19   13.20
   3   6  -6  158.16   14.31
  -3   6   6  154.78   12.92
  -3   6   6  161.90   17.01
   3   6  -6  180.59   18.40
  -3   6   6  122.00   14.93
  -3   6   6  166.53   16.72
   3   6  -6  177.90   19.05
   3   6  -6  180.07   15.04
   3   6  -5    2.90    2.49
   3   6  -5    3.07    3.26
  -3   6   5    3.42    2.72
   3   6  -5    6.80    4.41
   3   6  -5    5.89    3.12
  -3   6   5    4.56    2.96
  -3   6   5    9.88    4.27
  -3   6   5    3.09    2.31
   3   6  -4   25.97    6.43
   3   6  -4   18.27    6.37
  -3   6   4   22.40    5.93
   3   6  -4   33.36    8.92
  -3   6   4   32.22    8.23
  -3   6   4   25.66    7.43
  -3   6   4   31.26    7.58
   3   6  -3 1449.88   66.93
  -3   6   3 1689.32   71.54
  -3   6   3 1201.66   61.93
   3   6  -3 1305.24   72.40
  -3   6   3 1626.00   73.72
  -3   6   3 1548.26   74.95
  -3   6   3 1363.68   70.28
   3   6  -2  257.65   21.23
  -3   6   2  223.80   20.41
   3   6  -2  258.90   24.58
  -3   6   2  216.52   19.06
  -3   6   2  226.47   21.81
  -3   6   2  236.96   21.48
   3   6  -1  705.79   39.84
  -3   6   1  674.20   38.33
   3   6  -1  612.96   38.93
  -3   6   1  615.71   36.62
  -3   6   1  659.13   40.53
  -3   6   1  610.06   39.43
  -3   6   1  752.60   39.89
  -3   6   0  292.17   22.06
  -3   6   0  326.93   23.30
   3   6   0  277.50   23.89
   3   6   0  294.62   24.81
  -3   6   0  298.42   25.15
   3   6   1 1011.21   52.02
  -3   6  -1 1063.87   51.06
  -3   6  -1  925.68   47.28
   3   6   1  860.40   50.34
   3   6   1  909.55   50.02
  -3   6  -1  910.14   47.99
  -3   6  -1  952.28   52.84
   3   6   2  698.91   42.63
  -3   6  -2  722.87   41.77
  -3   6  -2  734.89   39.12
   3   6   2  744.86   41.85
   3   6   2  841.45   47.61
   3   6   2  776.71   65.08
  -3   6  -2  766.70   46.67
   3   6   2  702.47   38.16
  -3   6  -3  567.26   33.73
  -3   6  -3  621.09   45.43
  -3   6  -3  595.47   35.02
  -3   6  -3  619.28   38.73
   3   6   3  530.58   36.43
   3   6   3  518.49   52.44
   3   6   3  534.02   31.69
  -3   6  -4  484.22   30.69
  -3   6  -4  521.53   41.67
   3   6   4  473.55   33.92
  -3   6  -4  434.44   28.82
   3   6   4  494.64   31.95
  -3   6  -4  475.91   34.12
   3   6   4  431.42   28.34
   3   6   4  429.96   32.06
   3   6   4  503.99   48.03
   3   6   4  491.82   28.20
  -3   6  -4  507.95   34.43
  -3   6  -5  356.11   24.66
  -3   6  -5  301.20   30.87
   3   6   5  345.51   26.72
   3   6   5  324.14   23.31
   3   6   5  307.75   22.49
  -3   6  -5  317.45   26.71
   3   6   5  308.45   24.55
   3   6   5  351.00   20.93
  -3   6  -5  320.00   26.13
  -3   6  -6  127.20   14.23
  -3   6  -6  133.08   13.19
  -3   6  -6   92.95   14.93
   3   6   6  118.30   12.96
   3   6   6  129.77   13.49
   3   6   6  114.40   11.08
  -3   6  -7   34.43    5.21
  -3   6  -7   45.18    6.35
   3   6   7   43.95    5.98
   3   6   7   28.66    3.91
  -3   7   8  234.12   12.77
   3   7  -8  204.51   13.52
  -3   7   7   67.73    8.88
  -3   7   7   74.82    8.30
   3   7  -7   66.70    8.79
   3   7  -6    9.97    2.78
  -3   7   6   11.00    2.99
  -3   7   6    9.59    4.87
   3   7  -6   10.25    4.30
   3   7  -6    9.39    3.94
  -3   7   6    8.59    4.06
   3   7  -5  841.24   42.32
  -3   7   5  844.09   42.12
  -3   7   5  787.30   46.36
  -3   7   5  917.06   46.95
   3   7  -5  908.16   47.55
   3   7  -5  791.63   46.01
   3   7  -4  298.63   22.28
  -3   7   4  286.87   24.32
   3   7  -4  226.18   22.06
   3   7  -4  259.65   25.10
  -3   7   4  269.79   24.34
  -3   7   4  280.74   24.51
  -3   7   4  321.54   25.10
  -3   7   4  274.18   24.38
   3   7  -3   59.16    9.84
  -3   7   3   63.66   11.29
  -3   7   3   72.85   11.59
   3   7  -3   59.95   12.01
  -3   7   3   49.40    8.21
  -3   7   3   41.80    9.22
  -3   7   3   51.37   10.42
  -3   7   3   48.83   10.28
   3   7  -2   68.45   11.15
  -3   7   2   46.86    8.01
  -3   7   2   69.72   11.62
  -3   7   2   70.37   11.62
   3   7  -2   73.69   12.89
  -3   7   2   76.74   10.33
  -3   7   2   65.93   11.93
  -3   7   2   55.86   10.78
   3   7  -1  424.48   29.16
  -3   7   1  316.97   25.49
  -3   7   1  352.38   26.93
   3   7  -1  401.25   30.31
  -3   7   1  284.78   23.31
  -3   7   1  362.64   28.84
   3   7   0  433.18   30.16
  -3   7   0  389.15   29.01
  -3   7   0  330.47   26.08
  -3   7   0  398.39   28.10
   3   7   0  381.71   28.99
  -3   7   0  400.43   27.27
  -3   7   0  371.60   29.98
  -3   7  -1   54.14    8.33
  -3   7  -1   58.19   10.56
  -3   7  -1   58.65    9.78
   3   7   1   73.23   11.39
  -3   7  -1   77.58   12.72
   3   7   1   58.35    8.64
  -3   7  -2  104.75   11.89
  -3   7  -2   99.24   11.52
  -3   7  -2  103.59   14.33
   3   7   2   94.14   12.53
  -3   7  -2  112.87   15.64
   3   7   2  106.77   11.43
  -3   7  -3   42.64    7.59
  -3   7  -3   34.89    7.11
  -3   7  -3   41.75   11.93
   3   7   3   37.04    8.18
  -3   7  -3   47.40    9.91
  -3   7  -3   48.36    9.76
   3   7   3   41.78   13.58
   3   7   3   31.14    6.05
  -3   7  -4   13.38    5.44
  -3   7  -4   10.19    4.15
  -3   7  -4   10.80    4.09
  -3   7  -4    9.05    5.88
   3   7   4   10.45    4.78
   3   7   4   14.18    4.81
  -3   7  -4   14.34    5.65
   3   7   4   10.07    3.31
  -3   7  -5  567.01   34.26
  -3   7  -5  582.56   31.69
  -3   7  -5  570.54   32.28
  -3   7  -5  571.21   41.65
   3   7   5  554.57   31.08
  -3   7  -6    6.58    2.59
  -3   7  -6    1.01    1.85
   3   7   6    8.59    3.41
  -3   7  -7   52.74    5.38
  -3   7  -7   43.74    5.07
   3   7   7   47.51    5.37
   3   7   7   46.18    4.98
  -3   8   7  120.23    8.97
   3   8  -7  108.82    9.49
  -3   8   6  207.96   13.51
  -3   8   6  238.01   18.48
  -3   8   6  216.58   17.12
   3   8  -6  225.50   16.97
   3   8  -5   40.81    6.25
  -3   8   5   51.95    7.59
  -3   8   5   43.74    7.09
  -3   8   5   44.64    8.66
  -3   8   5   68.12    9.90
   3   8  -5   40.28    7.65
   3   8  -5   52.30    8.54
   3   8  -4    5.76    3.11
  -3   8   4    7.31    3.67
  -3   8   4    0.92    2.68
   3   8  -4    2.53    3.09
   3   8  -4    2.85    3.26
   3   8  -3  107.24   12.74
  -3   8   3   99.74   12.84
  -3   8   3  104.35   14.09
  -3   8   3   96.33   13.22
   3   8  -3   87.31   12.66
   3   8  -3  103.10   14.53
   3   8  -2  470.86   30.40
  -3   8   2  371.02   26.18
  -3   8   2  410.29   30.85
  -3   8   2  490.07   27.85
  -3   8   2  436.50   31.23
   3   8  -2  450.73   31.32
  -3   8   1   18.56    5.28
   3   8  -1   15.42    5.43
  -3   8   1   18.84    6.14
   3   8  -1   25.25    6.93
   3   8  -1   18.44    5.98
  -3   8   1   30.35    7.65
   3   8   0 1090.59   57.59
  -3   8   0 1184.96   59.20
   3   8   0 1098.14   58.26
   3   8   0 1119.00   57.72
  -3   8   0 1171.90   61.77
  -3   8   0 1087.38   57.53
  -3   8  -1   48.41    7.36
  -3   8  -1   51.53   10.36
   3   8   1   59.48    9.67
   3   8   1   49.92    9.88
   3   8   1   39.00    6.66
  -3   8  -2  103.30   11.64
  -3   8  -2  136.24   19.45
   3   8   2  107.45   12.52
  -3   8  -2  126.43   15.30
   3   8   2  101.76   10.48
  -3   8  -3   76.91    9.85
  -3   8  -3   79.64    9.68
  -3   8  -3   93.62   16.14
   3   8   3   69.20   11.00
   3   8   3   70.20   10.53
  -3   8  -3   78.82   10.85
  -3   8  -4   29.03    6.02
  -3   8  -4   25.41    5.53
  -3   8  -4   24.65    7.96
   3   8   4   43.96    8.07
   3   8   4   32.59    6.39
  -3   8  -4   37.95    6.89
  -3   8  -5  738.08   35.10
  -3   8  -5  705.43   34.21
  -3   8  -5  622.09   41.57
   3   8   5  741.31   35.64
  -3   8  -6   53.54    5.76
   3   8   6   54.60    6.05
  -3   9   6  183.62   10.82
   3   9  -6  149.23   10.95
  -3   9   5   94.29    8.67
   3   9  -5   66.38    8.31
   3   9  -5   76.10    8.11
  -3   9   5   75.05    9.60
  -3   9   4  351.11   23.03
  -3   9   4  415.52   23.66
   3   9  -4  350.21   23.53
   3   9  -4  378.76   24.67
   3   9  -3   73.25    9.41
  -3   9   3  109.83   12.38
  -3   9   3  103.20   13.08
   3   9  -3  101.55   11.98
   3   9  -3  122.05   13.90
   3   9  -2  224.46   18.63
  -3   9   2  218.94   17.45
  -3   9   2  280.69   22.15
  -3   9   2  287.43   18.84
   3   9  -2  284.90   21.84
  -3   9   2  244.89   21.83
   3   9  -2  258.46   21.54
   3   9  -2  240.67   18.81
  -3   9   1  215.62   18.29
  -3   9   1  270.65   22.43
  -3   9   1  256.77   18.74
   3   9  -1  248.62   20.85
   3   9  -1  251.48   21.04
  -3   9   1  217.13   20.68
   3   9  -1  247.86   20.94
  -3   9   0  136.75   14.40
  -3   9   0  139.33   16.13
   3   9   0  128.71   14.57
   3   9   0  145.63   14.84
   3   9   0  170.12   17.15
  -3   9   0  141.00   13.59
   3   9   0  122.52   11.31
   3   9   1   12.71    4.93
   3   9   1   11.25    3.95
  -3   9  -1   12.41    4.83
   3   9   1    7.53    2.45
  -3   9  -2  202.64   15.04
  -3   9  -2  203.90   18.26
  -3   9  -3   30.58    5.34
   3   9   3   22.33    5.77
   3   9   3   29.54    5.96
  -3   9  -3   30.98    6.76
  -3   9  -4    5.74    2.45
   3   9   4   12.08    3.21
  -3   9  -4    8.44    2.75
   3   9   4    5.83    2.21
  -3   9  -5   33.48    4.30
   3   9   5   29.84    4.12
   3   9   5   30.61    3.74
  -3  10   4    4.39    1.86
  -3  10   4    4.43    1.23
   3  10  -4    3.21    1.80
   3  10  -4    2.10    1.58
  -3  10   3   68.39    7.63
   3  10  -3   59.10    7.36
  -3  10   2  128.30   12.91
  -3  10   2  127.35    9.83
   3  10  -2  149.45   12.72
   3  10  -2  128.50   12.06
   3  10  -2  112.20    9.02
  -3  10   1   47.50    6.25
  -3  10   1   59.27    7.31
   3  10  -1   61.54    8.11
   3  10  -1   61.76    7.59
   3  10  -1   47.82    5.43
  -3  10   0   58.03    7.21
  -3  10   0   62.19   10.33
  -3  10   0   58.82    7.57
   3  10   0   51.45    7.17
   3  10   0   67.08    8.53
  -3  10  -1  115.88   10.73
  -3  10  -1  130.22   15.03
  -3  10  -1  113.62   10.66
   3  10   1  105.80   10.82
  -3  10  -2  161.71   12.35
  -3  10  -2  174.16   12.69
   3  10   2  149.42   12.88
   3  10   3   52.03    6.36
   3  10   3   56.10    6.14
  -3  10  -3   59.39    6.31
  -3  11   1  176.28   10.57
   3  11  -1  197.19   10.99
  -4 -10   0   35.81    6.13
   4  -9  -4   74.01    8.74
  -4  -9   4   52.99    6.56
   4  -9  -3   17.26    3.52
   4  -9  -3   25.75    5.93
  -4  -9   3   21.53    4.21
  -4  -9   2  149.36   11.11
   4  -9  -2   84.11    9.81
   4  -9  -2  111.78   13.20
  -4  -9   2   95.27    9.86
  -4  -9   2  145.52   11.17
  -4  -9   1   77.13    8.29
  -4  -9   1   81.28    8.06
   4  -9  -1   63.32   10.77
   4  -9  -1   59.96    9.79
  -4  -9   1   77.53    8.26
  -4  -9   0   22.04    4.32
  -4  -9   0   29.53    5.08
   4  -9   0   16.84    5.94
   4  -9   0   24.51    5.84
  -4  -9   0   17.27    6.81
   4  -9   1   43.34    6.72
   4  -9   1   50.07    9.77
   4  -9   1   40.25    6.57
  -4  -9  -1   31.15    7.69
  -4  -9  -2  289.47   20.53
  -4  -9  -2  262.13   20.48
   4  -9   3   67.34    9.00
  -4  -9  -3   55.65    6.74
  -4  -9  -3   52.70    6.67
   4  -8  -6  111.39   10.07
   4  -8  -5   78.16    7.23
   4  -8  -5   92.08   11.05
  -4  -8   4  203.35   13.78
  -4  -8   4  190.82   14.39
   4  -8  -4  145.77   13.95
  -4  -8   4  211.21   14.90
   4  -8  -4  180.14   18.06
  -4  -8   3  221.65   15.28
   4  -8  -3  156.62   16.02
   4  -8  -3  197.91   20.41
  -4  -8   3  205.48   15.35
  -4  -8   2   91.20    9.92
   4  -8  -2   64.38   11.13
   4  -8  -2   59.65   12.43
   4  -8  -2   79.55   13.11
  -4  -8   2   77.24    9.36
   4  -8  -1   74.53   13.36
   4  -8  -1   81.60   15.08
   4  -8  -1   78.38   13.24
  -4  -8   1   87.03   10.08
  -4  -8   1   82.58    9.80
  -4  -8   1   62.94    9.20
  -4  -8   0  229.93   17.35
   4  -8   0  281.56   29.28
   4  -8   0  314.74   27.17
  -4  -8   0  299.86   20.11
  -4  -8  -1  128.82   11.95
   4  -8   1  120.39   18.69
   4  -8   1  121.53   12.67
  -4  -8  -2    0.49    1.91
  -4  -8  -2    1.53    1.76
   4  -8   2    2.83    4.49
   4  -8   2    1.51    1.73
  -4  -8  -2    1.00    3.66
  -4  -8  -2    4.19    1.81
  -4  -8  -3  229.24   15.53
  -4  -8  -3  253.08   19.56
  -4  -8  -3  187.72   17.39
  -4  -8  -3  230.11   14.80
   4  -8   3  263.96   22.18
   4  -8   4   35.53    7.42
  -4  -8  -4   32.20    5.55
  -4  -8  -4   32.21    6.12
  -4  -7   7    7.52    2.24
   4  -7  -7    6.96    2.77
  -4  -7   6   83.56    8.31
   4  -7  -6   74.64    8.04
  -4  -7   6   81.94    9.25
  -4  -7   6   58.88    6.60
   4  -7  -6   90.37   11.51
  -4  -7   6   78.62    8.27
  -4  -7   5   77.26    9.37
   4  -7  -5   66.36    9.69
  -4  -7   5   79.10    8.95
  -4  -7   5   70.69    9.37
  -4  -7   5   68.41    8.11
   4  -7  -5   76.52   11.97
  -4  -7   4   92.12   10.65
   4  -7  -4   63.00   10.70
  -4  -7   4   99.46   10.99
   4  -7  -4   93.25   14.24
  -4  -7   4   90.97    9.81
  -4  -7   3  304.63   20.26
   4  -7  -3  238.14   26.23
   4  -7  -3  292.22   27.84
  -4  -7   3  316.35   21.21
   4  -7  -2   23.40    8.72
  -4  -7   2   16.90    4.81
   4  -7  -2   20.02    9.20
   4  -7  -2   23.45    7.82
  -4  -7   1  110.68   11.22
   4  -7  -1  120.68   20.05
   4  -7  -1  112.69   14.68
   4  -7  -1  107.30   17.05
  -4  -7   1  124.44   13.21
   4  -7   0  116.07   20.41
   4  -7   0  107.18   13.68
  -4  -7   0  123.41   12.52
   4  -7   1  340.39   36.39
   4  -7   1  344.46   25.03
  -4  -7  -1  325.00   22.56
  -4  -7  -1  336.44   22.06
   4  -7   1  314.05   31.09
   4  -7   2  148.93   15.02
  -4  -7  -2  147.18   13.86
  -4  -7  -2  170.96   14.93
   4  -7   2  162.45   21.12
   4  -7   3   63.26   14.70
   4  -7   3   62.71    8.74
  -4  -7  -3   64.28   10.92
  -4  -7  -3   65.02    8.89
  -4  -7  -3   64.70    8.51
   4  -7   4   18.10    6.05
   4  -7   4   11.82    6.40
   4  -7   4   20.39    4.22
  -4  -7  -4   20.44    5.21
  -4  -7  -4   18.30    4.51
   4  -7   5  236.07   19.38
  -4  -7  -5  269.31   18.55
   4  -7   5  287.14   19.86
  -4  -6   8   88.86    7.53
   4  -6  -7  391.67   21.19
  -4  -6   7  368.97   23.09
   4  -6  -7  391.53   25.56
  -4  -6   7  386.59   21.49
  -4  -6   6  107.12   10.83
   4  -6  -6  102.02   12.19
  -4  -6   6  113.96   10.64
   4  -6  -6  123.75   15.05
   4  -6  -5  149.49   16.67
  -4  -6   5  169.23   14.63
   4  -6  -5  175.40   20.05
  -4  -6   4  317.06   21.96
   4  -6  -4  209.29   21.86
   4  -6  -4  290.04   30.70
   4  -6  -4  289.75   27.80
  -4  -6   4  275.60   19.06
   4  -6  -3  723.38   52.51
   4  -6  -3  683.67   52.39
  -4  -6   3  724.75   40.67
   4  -6  -3  740.44   49.22
  -4  -6   3  642.61   40.59
  -4  -6   3  703.65   36.37
   4  -6  -2   12.03    8.35
  -4  -6   2   17.65    5.07
  -4  -6   2   13.28    4.46
   4  -6  -2   10.47    5.27
   4  -6  -2    2.95    3.85
  -4  -6   2   12.31    4.44
   4  -6  -2   24.02    9.89
   4  -6  -1  100.60   14.02
   4  -6  -1   83.11   15.85
  -4  -6   1   87.58   10.27
   4  -6  -1   85.56   17.55
  -4  -6   0  611.67   33.94
   4  -6   0  667.13   40.77
  -4  -6   0  717.07   41.02
  -4  -6   0  698.74   37.06
   4  -6   0  690.60   49.36
  -4  -6  -1   77.86    9.78
   4  -6   1   88.70   12.50
  -4  -6  -1   86.61   12.32
  -4  -6  -1   90.36   11.14
  -4  -6  -1   86.21   11.18
   4  -6   2   73.65   18.00
   4  -6   2   54.00    9.62
  -4  -6  -2   80.76   10.75
  -4  -6  -2   80.95   10.86
   4  -6   3  195.92   27.68
   4  -6   3  169.56   16.50
  -4  -6  -3  152.69   13.72
  -4  -6  -3  168.94   15.67
  -4  -6  -3  189.72   17.41
  -4  -6  -3  167.44   19.22
   4  -6   3  225.23   26.08
   4  -6   4   64.84   13.32
   4  -6   4   84.50   16.69
   4  -6   4   59.04    8.76
  -4  -6  -4   46.79    6.93
  -4  -6  -4   50.39    9.07
  -4  -6  -4   65.67    9.40
   4  -6   5   96.62   14.29
   4  -6   5   68.99    8.07
  -4  -6  -5   66.58    8.37
  -4  -6  -5   72.20    8.10
  -4  -6  -5   97.29   10.35
  -4  -6  -5   81.47   11.08
   4  -6   5   97.15   13.37
  -4  -6  -6   38.04    5.83
   4  -6   6   37.81    5.38
   4  -5  -8   25.57    3.94
  -4  -5   8   20.28    4.66
  -4  -5   7   15.70    3.66
   4  -5  -7   17.95    5.08
   4  -5  -7    8.85    4.47
  -4  -5   7   14.07    4.19
  -4  -5   6  268.16   19.31
   4  -5  -6  258.08   22.49
  -4  -5   6  263.29   18.12
   4  -5  -6  299.68   26.33
   4  -5  -5   17.47    6.35
  -4  -5   5   11.90    4.24
   4  -5  -5   13.06    5.88
   4  -5  -5   13.56    3.86
   4  -5  -4   84.18   13.81
   4  -5  -4  108.23   19.31
  -4  -5   4  104.82   13.06
   4  -5  -4  106.01   16.64
  -4  -5   4  111.97   14.31
   4  -5  -4   89.53   11.01
  -4  -5   4  112.03   11.25
   4  -5  -3  158.93   23.58
  -4  -5   3  185.52   18.02
   4  -5  -3  188.57   25.38
   4  -5  -3  179.15   22.16
  -4  -5   3  172.17   18.21
  -4  -5   3  158.99   14.15
   4  -5  -3  184.11   15.92
   4  -5  -2  397.33   39.65
   4  -5  -2  401.49   35.18
   4  -5  -2  438.31   27.13
   4  -5  -1  287.85   24.37
   4  -5  -1  248.58   26.88
  -4  -5   1  262.95   23.04
  -4  -5   0   45.72    7.38
   4  -5   0   43.70   13.29
   4  -5   0   32.13    7.90
  -4  -5   0   37.50    8.07
  -4  -5   0   42.67    7.26
  -4  -5  -1  293.03   21.82
   4  -5   1  368.61   39.49
   4  -5   1  274.01   24.24
  -4  -5  -1  340.50   25.48
  -4  -5  -1  346.24   24.54
   4  -5   1  319.11   33.12
  -4  -5  -2  661.27   36.24
   4  -5   2  657.85   41.51
  -4  -5  -2  772.53   42.02
  -4  -5  -2  830.38   43.00
  -4  -5  -2  650.40   37.71
   4  -5   2  857.86   57.59
   4  -5   3   47.65   13.20
  -4  -5  -3   61.61    9.21
   4  -5   3   68.97   12.72
   4  -5   3   59.98   10.25
  -4  -5  -3   68.27   10.13
  -4  -5  -3   72.31   11.07
  -4  -5  -3   68.04    9.32
   4  -5   4   71.99   15.00
  -4  -5  -4   66.64    9.34
   4  -5   4   60.50   11.54
   4  -5   4   47.56    8.91
  -4  -5  -4   71.79   10.71
  -4  -5  -4   63.18   10.29
   4  -5   5  166.22   17.89
  -4  -5  -5  190.51   15.59
   4  -5   5  232.01   24.32
  -4  -5  -5  184.46   15.06
  -4  -5  -5  206.20   17.73
   4  -5   5  198.77   16.78
  -4  -5  -5  183.46   18.46
   4  -5   5  154.34   19.46
   4  -5   6  100.63   11.29
   4  -5   6   85.35    8.82
  -4  -5  -6   87.21    8.98
  -4  -5  -6   94.52   10.61
   4  -5   6   94.12   10.53
  -4  -5  -7    6.18    2.03
  -4  -4   9    3.51    1.36
  -4  -4   8  122.87   10.30
   4  -4  -8  154.66   12.62
   4  -4  -8  115.83    9.89
  -4  -4   8  138.91   11.45
  -4  -4   8  129.73   10.67
   4  -4  -8   96.49    9.24
  -4  -4   7  292.74   19.82
  -4  -4   7  256.28   17.43
   4  -4  -7  283.95   22.23
   4  -4  -7  243.95   19.68
   4  -4  -7  295.89   22.44
   4  -4  -7  223.96   19.80
   4  -4  -7  271.36   24.05
  -4  -4   7  279.25   19.54
   4  -4  -7  242.75   19.47
  -4  -4   6   74.12    9.68
  -4  -4   6   64.78    8.20
   4  -4  -6   56.94   10.74
   4  -4  -6   63.77   10.65
   4  -4  -6   79.54   12.49
   4  -4  -6   61.38   10.34
   4  -4  -6   70.77   12.87
   4  -4  -6   56.92    9.97
   4  -4  -5  105.38   13.85
  -4  -4   5  110.94   11.72
   4  -4  -5   69.42   12.88
   4  -4  -5  108.69   21.05
   4  -4  -5  104.90   14.01
   4  -4  -5  118.29   15.71
   4  -4  -5  118.89   17.34
  -4  -4   5   96.16   13.80
  -4  -4   5   88.25   11.86
  -4  -4   5  108.16   13.13
   4  -4  -5  120.63   14.52
   4  -4  -4  737.11   56.53
   4  -4  -4  839.05   45.60
   4  -4  -4  894.68   49.12
   4  -4  -4  801.67   51.89
  -4  -4   4  733.21   45.21
  -4  -4   4  819.03   43.77
   4  -4  -4  766.58   43.66
  -4  -4   4  791.99   37.55
   4  -4  -4  789.58   44.61
  -4  -4   3  132.00   14.73
   4  -4  -3  106.80   19.51
   4  -4  -3  122.99   21.00
   4  -4  -3  132.63   16.30
   4  -4  -3  106.25   16.68
  -4  -4   3  110.73   14.77
   4  -4  -3  125.30   14.42
   4  -4  -3  103.20   13.42
   4  -4  -2  320.42   25.95
   4  -4  -2  283.51   27.61
  -4  -4   2  316.52   24.52
   4  -4  -2  291.43   22.81
   4  -4  -1  600.58   34.75
   4  -4  -1  542.16   46.50
   4  -4  -1  555.71   39.33
  -4  -4   1  617.97   34.37
   4  -4  -1  553.31   33.53
  -4  -4   1  484.93   28.10
   4  -4   0  395.07   27.18
   4  -4   0  427.84   28.63
   4  -4   0  409.76   40.30
  -4  -4   0  426.93   29.25
  -4  -4   0  374.62   24.38
   4  -4   0  434.80   29.11
   4  -4   0  423.49   37.02
   4  -4   1  142.46   15.04
   4  -4   1  131.86   15.00
  -4  -4  -1  142.00   13.22
   4  -4   1  195.58   28.26
   4  -4   1  118.88   15.04
  -4  -4  -1  151.57   14.64
  -4  -4  -1  147.55   15.76
   4  -4   1  165.58   22.74
   4  -4   2  549.03   34.53
   4  -4   2  553.08   35.79
   4  -4   2  573.63   37.08
  -4  -4  -2  558.16   33.05
  -4  -4  -2  569.77   34.61
   4  -4   2  665.46   49.59
   4  -4   3  409.44   29.70
  -4  -4  -3  484.90   30.13
   4  -4   3  464.71   32.64
   4  -4   3  446.47   32.28
  -4  -4  -3  470.73   29.87
  -4  -4  -3  509.47   31.97
   4  -4   3  463.98   42.04
   4  -4   4   90.10   17.07
   4  -4   4  107.93   13.46
  -4  -4  -4  120.90   13.49
   4  -4   4  113.82   14.61
   4  -4   4  104.58   14.23
  -4  -4  -4  123.44   14.52
   4  -4   5   57.06    9.13
  -4  -4  -5   73.01    9.83
   4  -4   5   71.10   10.82
  -4  -4  -5   66.24   11.29
   4  -4   5   63.52   12.21
   4  -4   6  226.43   16.14
  -4  -4  -6  262.57   18.21
   4  -4   6  266.08   19.13
  -4  -4  -6  262.34   16.53
  -4  -4  -6  230.76   18.64
   4  -4   7  177.10   11.99
  -4  -4  -7  194.28   14.14
  -4  -3   9  162.24   11.04
   4  -3  -9  154.86   10.61
   4  -3  -9  168.64   10.80
   4  -3  -8   63.18    8.84
   4  -3  -8   51.74    8.26
   4  -3  -8   53.04    8.63
   4  -3  -8   52.12    8.76
  -4  -3   8   43.32    6.45
   4  -3  -8   41.76    7.45
  -4  -3   7   42.90    6.11
   4  -3  -7   37.56    8.65
   4  -3  -7   46.05    9.39
   4  -3  -7   43.26    9.94
   4  -3  -7   36.42    8.71
   4  -3  -7   60.79   11.50
  -4  -3   7   46.28    7.49
   4  -3  -7   40.88    8.89
  -4  -3   6   12.77    4.22
   4  -3  -6   17.11    6.80
   4  -3  -6   20.06    7.04
   4  -3  -6   31.52    8.91
   4  -3  -6   18.96    6.78
   4  -3  -6   19.33    7.50
  -4  -3   6   19.35    5.94
   4  -3  -6   16.43    6.30
   4  -3  -5  619.64   41.65
  -4  -3   5  611.33   32.64
   4  -3  -5  483.62   38.46
   4  -3  -5  686.93   54.10
   4  -3  -5  617.04   42.00
   4  -3  -5  758.09   47.87
   4  -3  -5  646.03   42.24
  -4  -3   5  653.71   37.27
   4  -3  -5  652.31   44.76
  -4  -3   5  573.96   40.48
  -4  -3   5  757.26   44.99
  -4  -3   5  543.70   35.81
   4  -3  -5  664.16   42.92
   4  -3  -4   92.57   13.92
   4  -3  -4   66.34   12.38
   4  -3  -4   91.46   19.19
   4  -3  -4  115.49   15.48
   4  -3  -4  128.53   17.49
   4  -3  -4  144.71   15.79
   4  -3  -4   84.82   14.37
  -4  -3   4  100.28   15.02
  -4  -3   4  103.61   14.91
  -4  -3   4  100.46   12.58
   4  -3  -4  103.80   14.64
   4  -3  -3  636.51   39.87
   4  -3  -3  608.43   49.51
   4  -3  -3  651.44   40.05
   4  -3  -3  655.08   42.34
   4  -3  -3  694.19   39.98
   4  -3  -3  612.10   42.31
  -4  -3   3  589.33   39.66
  -4  -3   3  729.04   41.88
   4  -3  -3  655.57   39.41
  -4  -3   3  573.58   35.83
   4  -3  -2  509.01   42.98
   4  -3  -2  492.24   32.37
   4  -3  -2  486.29   35.39
  -4  -3   2  473.97   32.58
  -4  -3   2  532.39   32.71
   4  -3  -2  506.15   32.44
   4  -3  -2  530.03   33.82
   4  -3  -1   27.40    6.48
   4  -3  -1   15.44    7.39
   4  -3  -1   15.26    5.41
  -4  -3   1    9.35    3.16
  -4  -3   1   16.65    5.03
   4  -3  -1   11.60    4.58
   4  -3   0  131.66   14.73
   4  -3   0  152.34   16.07
  -4  -3   0  137.73   12.98
   4  -3   0  114.33   19.81
   4  -3   0  136.43   15.38
  -4  -3   0  144.85   15.13
   4  -3   0  154.60   16.32
   4  -3   0  117.32   17.72
   4  -3   1  385.92   28.56
   4  -3   1  430.93   30.73
  -4  -3  -1  411.09   26.62
   4  -3   1  394.61   30.90
   4  -3   1  460.87   42.22
  -4  -3  -1  441.28   28.65
   4  -3   1  429.82   24.56
   4  -3   1  537.69   34.06
   4  -3   1  411.93   36.24
   4  -3   2   97.35   13.61
   4  -3   2  108.95   14.57
  -4  -3  -2   96.07   12.16
   4  -3   2  111.67   15.87
   4  -3   2  110.84   15.29
   4  -3   2  158.96   24.37
  -4  -3  -2  101.25   12.09
   4  -3   2  131.26   12.80
   4  -3   2  154.12   21.39
   4  -3   3 1026.60   58.44
  -4  -3  -3 1021.55   51.40
   4  -3   3 1064.01   60.63
   4  -3   3 1036.04   59.09
   4  -3   3 1027.96   56.49
  -4  -3  -3  968.09   53.30
   4  -3   3 1047.01   50.50
   4  -3   3  956.82   63.71
   4  -3   4   60.92   13.01
   4  -3   4   65.30   12.07
   4  -3   4   65.95   13.52
   4  -3   4   58.98   12.08
   4  -3   4   76.35   12.45
  -4  -3  -4   61.64   10.11
  -4  -3  -4   72.78   11.27
   4  -3   4   82.40   11.04
  -4  -3  -4   56.27    8.79
  -4  -3  -5  126.68   13.96
   4  -3   5  135.10   18.26
   4  -3   5  107.15   15.64
   4  -3   5  113.61   14.70
  -4  -3  -5   95.95   11.36
  -4  -3  -5  111.70   14.52
   4  -3   5   94.13   14.49
  -4  -3  -6  117.05   12.54
   4  -3   6  146.43   16.92
   4  -3   6  146.20   15.76
   4  -3   6  140.65   14.77
   4  -3   7   29.70    5.13
   4  -3   7   32.97    6.35
   4  -3   7   37.70    6.00
  -4  -3  -7   43.38    6.85
  -4  -2   9   27.74    4.95
   4  -2  -9   28.02    5.07
   4  -2  -9   28.47    5.50
   4  -2  -9   31.94    5.41
   4  -2  -8  151.84   14.96
  -4  -2   8  128.58   10.62
   4  -2  -8  142.95   15.73
   4  -2  -8  124.65   15.87
   4  -2  -8  149.41   16.63
  -4  -2   8  119.59   12.52
  -4  -2   8  110.10   10.71
   4  -2  -8  137.06   15.47
   4  -2  -7  587.95   37.85
   4  -2  -7  514.50   38.96
   4  -2  -7  656.34   45.38
   4  -2  -7  556.09   41.26
   4  -2  -7  714.16   43.49
  -4  -2   7  612.11   32.95
   4  -2  -7  500.06   38.38
   4  -2  -6   15.75    6.21
  -4  -2   6   20.71    4.99
   4  -2  -6   25.71    7.91
   4  -2  -6   26.29    8.82
   4  -2  -6   35.29   10.43
   4  -2  -6   24.65    8.02
   4  -2  -6   32.28    9.05
  -4  -2   6   33.00    8.42
   4  -2  -6   16.60    6.99
   4  -2  -5   92.00   15.73
   4  -2  -5  147.03   19.25
   4  -2  -5  156.33   21.22
   4  -2  -5  141.00   18.54
   4  -2  -5  118.39   17.17
  -4  -2   5  147.12   18.84
  -4  -2   5  118.05   13.66
   4  -2  -5  144.36   19.10
   4  -2  -4  654.98   43.76
   4  -2  -4  632.16   52.63
   4  -2  -4  644.42   42.96
   4  -2  -4  674.38   46.25
   4  -2  -4  710.26   42.87
   4  -2  -4  598.05   42.03
  -4  -2   4  649.10   43.87
  -4  -2   4  746.04   42.13
  -4  -2   4  614.96   36.11
   4  -2  -4  652.88   42.93
   4  -2  -3  582.68   38.31
   4  -2  -3  530.56   45.88
   4  -2  -3  611.89   39.08
   4  -2  -3  598.95   41.31
   4  -2  -3  607.54   35.50
   4  -2  -3  595.41   35.55
   4  -2  -3  524.90   37.07
  -4  -2   3  585.22   39.32
  -4  -2   3  610.83   36.30
   4  -2  -3  563.78   37.35
  -4  -2   3  559.48   33.13
   4  -2  -2  161.46   16.74
   4  -2  -2  149.55   16.44
   4  -2  -2  122.67   19.33
   4  -2  -2  152.31   15.18
  -4  -2   2  141.41   16.32
   4  -2  -2  130.58   15.22
   4  -2  -2  133.84   15.86
   4  -2  -1  600.52   34.83
   4  -2  -1  617.84   36.50
   4  -2  -1  694.52   38.71
  -4  -2   1  553.15   29.70
   4  -2  -1  593.01   45.14
  -4  -2   1  562.22   34.33
   4  -2  -1  602.11   35.89
   4  -2   0   36.78    7.62
  -4  -2   0   40.72    6.88
   4  -2   0   44.99    8.83
   4  -2   0   40.76   10.44
   4  -2   0   26.36    6.42
  -4  -2   0   31.96    6.69
   4  -2   0   37.96    7.75
   4  -2   1  140.57   16.12
   4  -2   1  152.16   17.38
   4  -2   1  146.97   16.94
   4  -2   1  150.10   17.75
   4  -2   1  196.19   24.13
   4  -2   1  160.34   16.60
  -4  -2  -1  126.21   12.27
  -4  -2  -1  147.27   14.19
   4  -2   1  143.32   13.21
   4  -2   1  153.34   17.15
   4  -2   1  149.88   18.88
   4  -2   2  438.28   33.59
   4  -2   2  424.42   32.49
   4  -2   2  406.57   33.06
   4  -2   2  448.84   38.55
   4  -2   2  401.62   30.16
  -4  -2  -2  383.03   25.39
  -4  -2  -2  404.26   28.14
   4  -2   2  437.21   26.96
   4  -2   2  456.29   35.87
   4  -2   3  787.33   50.30
  -4  -2  -3  753.91   41.34
   4  -2   3  722.51   47.68
   4  -2   3  779.58   50.40
   4  -2   3  705.36   51.02
  -4  -2  -3  712.42   41.55
  -4  -2  -3  684.03   42.09
   4  -2   3  783.57   41.19
   4  -2   3  684.48   48.51
   4  -2   4  266.62   27.29
   4  -2   4  240.02   25.52
   4  -2   4  261.57   31.87
  -4  -2  -4  232.19   20.62
  -4  -2  -4  209.07   21.05
   4  -2   4  220.63   23.12
   4  -2   4  235.16   20.17
  -4  -2  -4  231.74   19.84
   4  -2   4  237.12   26.36
   4  -2   4  201.55   23.01
   4  -2   5  203.12   22.92
   4  -2   5  166.30   21.88
   4  -2   5  240.67   29.52
   4  -2   5  181.53   20.34
   4  -2   5  195.85   18.58
  -4  -2  -5  182.20   17.18
   4  -2   6    1.17    2.63
   4  -2   6    4.28    4.38
   4  -2   6    3.65    3.74
   4  -2   6    3.10    4.49
  -4  -2  -6    4.75    2.78
  -4  -2  -7  271.18   18.23
   4  -2   7  315.62   21.89
   4  -2   7  303.17   22.27
   4  -2   7  309.29   20.96
  -4  -2  -7  332.35   20.08
  -4  -2  -7  291.44   20.40
  -4  -2  -8   27.42    3.82
   4  -2   8   33.72    3.88
  -4  -1   9  220.51   13.33
   4  -1  -9  265.30   18.92
   4  -1  -8  158.45   19.73
   4  -1  -8  200.56   20.78
  -4  -1   8  188.31   16.27
   4  -1  -7   29.63    7.90
   4  -1  -7   24.62    5.56
   4  -1  -7   28.54    9.91
   4  -1  -7   40.58   11.08
  -4  -1   7   28.74    5.82
   4  -1  -6   99.35   12.52
   4  -1  -6   86.41   17.13
   4  -1  -6   94.24   16.98
   4  -1  -6  104.43   16.04
  -4  -1   6   89.86   15.47
  -4  -1   6  154.30   17.94
   4  -1  -5    1.18    3.07
   4  -1  -5    5.88    2.88
   4  -1  -5    1.63    3.67
   4  -1  -5   -1.41    4.83
   4  -1  -5    2.42    2.21
  -4  -1   5   -1.41    4.84
  -4  -1   5   -1.17    4.01
   4  -1  -4  613.48   44.46
  -4  -1   4  900.14   42.77
   4  -1  -4  875.43   54.23
   4  -1  -4  966.75   52.16
   4  -1  -4  836.87   48.62
  -4  -1   4  704.47   49.46
  -4  -1   4  822.64   49.18
  -4  -1   3  363.64   24.02
   4  -1  -3  415.49   32.52
   4  -1  -3  424.54   29.05
   4  -1  -3  412.28   25.90
  -4  -1   3  345.83   28.31
   4  -1  -2  461.00   40.65
   4  -1  -2  567.93   34.32
   4  -1  -2  535.07   34.51
   4  -1  -2  562.41   37.14
   4  -1  -2  494.23   29.79
   4  -1  -2  466.55   32.15
   4  -1  -1  273.28   22.34
   4  -1  -1  287.98   23.46
   4  -1  -1  287.05   28.03
   4  -1  -1  290.57   20.60
   4  -1  -1  280.05   22.42
   4  -1   0   64.05   10.21
   4  -1   0   59.73   10.41
   4  -1   0   76.06   13.29
   4  -1   0   64.95    9.25
  -4  -1   0   78.05    9.18
   4  -1   0   79.03    8.66
   4  -1   0   75.06   11.19
   4  -1   1  600.99   38.48
   4  -1   1  668.29   41.36
   4  -1   1  632.33   38.48
   4  -1   1  658.93   41.80
   4  -1   1  655.43   44.31
   4  -1   1  661.01   38.05
  -4  -1  -1  676.85   35.14
  -4  -1  -1  602.67   33.03
   4  -1   1  622.81   34.02
   4  -1   1  722.10   41.45
   4  -1   1  577.52   39.22
   4  -1   2  609.04   41.91
   4  -1   2  643.49   40.09
   4  -1   2  632.13   42.95
   4  -1   2  584.40   38.02
  -4  -1  -2  620.11   34.71
  -4  -1  -2  526.06   30.54
  -4  -1  -2  687.31   37.43
  -4  -1  -2  626.67   35.36
   4  -1   2  616.63   34.46
   4  -1   2  527.09   38.01
   4  -1   3  328.25   31.59
   4  -1   3  353.04   29.83
   4  -1   3  366.63   33.54
   4  -1   3  368.89   38.23
   4  -1   3  328.36   28.43
  -4  -1  -3  350.12   25.81
  -4  -1  -3  309.29   25.43
   4  -1   3  359.77   25.31
   4  -1   4  157.98   22.17
   4  -1   4  126.43   18.47
   4  -1   4  144.29   21.49
   4  -1   4  141.39   20.54
   4  -1   4  126.46   23.48
   4  -1   4  145.74   18.65
  -4  -1  -4  109.46   13.81
  -4  -1  -4  151.60   16.82
   4  -1   4  151.84   16.31
   4  -1   5  248.44   27.35
  -4  -1  -5  232.48   19.78
   4  -1   5  203.00   23.41
   4  -1   5  176.14   24.37
   4  -1   5  234.49   26.76
   4  -1   5  266.88   33.01
  -4  -1  -5  249.42   21.30
   4  -1   6  258.65   23.44
   4  -1   6  244.82   25.67
   4  -1   6  239.35   28.76
   4  -1   6  275.42   23.68
   4  -1   6  234.91   19.27
  -4  -1  -6  238.52   19.90
  -4  -1  -7   45.88    6.70
   4  -1   7   43.24    7.44
   4  -1   7   58.55    9.76
   4  -1   7   50.31    8.19
  -4  -1  -7   42.57    6.95
  -4  -1  -7   50.05    7.70
  -4  -1  -8   80.50    7.09
   4  -1   8   79.11    7.40
   4  -1   8   69.10    6.88
   4   0  -9   70.71    9.32
   4   0  -9   63.53    8.73
   4   0  -8  225.15   18.99
   4   0  -8  184.42   19.83
   4   0  -8  181.83   21.19
   4   0  -8  180.37   15.87
  -4   0   8  173.20   15.60
   4   0  -8  168.61   19.05
   4   0  -7  216.70   25.13
   4   0  -7  236.05   27.56
   4   0  -7  209.18   20.87
  -4   0   7  278.29   21.80
   4   0  -7  222.81   25.25
   4   0  -6  354.43   29.23
   4   0  -6  273.99   29.31
   4   0  -6  251.05   29.98
   4   0  -6  271.24   25.39
   4   0  -6  323.64   31.13
  -4   0   6  345.90   21.78
  -4   0   6  287.64   29.12
  -4   0   6  369.59   30.46
   4   0  -6  277.59   29.43
   4   0  -5   60.77   12.85
   4   0  -5   54.22   10.94
   4   0  -5   61.03   13.01
   4   0  -5   62.81   11.09
   4   0  -5   59.10   14.08
   4   0  -5   64.86   13.43
   4   0  -5   53.92   10.46
  -4   0   5   49.32   12.08
  -4   0   5   33.84    9.72
   4   0  -5   49.79   11.52
   4   0  -4 2240.86  102.14
   4   0  -4 1765.87   94.04
   4   0  -4 2206.16  115.24
   4   0  -4 2344.29  102.51
   4   0  -4 2371.09   96.45
   4   0  -4 2429.35  107.00
   4   0  -4 2306.13  101.88
   4   0  -4 2233.16   96.44
  -4   0   4 1882.98   98.65
  -4   0   4 2223.37   94.35
   4   0  -4 2049.68   99.83
  -4   0   4 2205.54   88.30
   4   0  -3  652.42   40.13
   4   0  -3  616.39   48.16
  -4   0   3  601.03   31.63
   4   0  -3  598.06   38.61
   4   0  -3  669.54   42.89
  -4   0   3  647.97   36.43
   4   0  -3  567.44   37.73
   4   0  -2   68.69   10.39
   4   0  -2   61.00   13.68
   4   0  -2   75.66   11.09
   4   0  -2   79.75   11.79
   4   0  -2   76.96   12.40
   4   0  -2   77.62    9.05
   4   0  -2   73.08    8.01
   4   0  -2   57.18   10.00
   4   0  -2   93.58   12.50
   4   0  -1   57.86    9.40
   4   0  -1   57.83    9.75
   4   0  -1   49.90    7.30
   4   0  -1   50.55    6.84
   4   0  -1   56.55    9.39
   4   0  -1   60.02   10.00
   4   0   0  327.13   24.45
   4   0   0  303.99   24.61
   4   0   0  294.70   20.98
   4   0   0  274.02   19.50
   4   0   0  312.80   23.78
   4   0   1    6.80    3.78
   4   0   1    6.40    4.38
   4   0   1    8.64    3.38
   4   0   1    2.23    3.55
   4   0   1    5.48    3.05
  -4   0  -1    4.85    2.85
  -4   0  -1    3.65    2.68
   4   0   1    5.67    2.95
   4   0   1    0.91    3.11
   4   0   2  220.31   23.97
   4   0   2  242.01   21.04
   4   0   2  224.66   24.51
   4   0   2  251.50   22.13
  -4   0  -2  232.73   19.61
  -4   0  -2  246.51   20.32
   4   0   2  246.91   19.63
   4   0   3   22.98    8.68
   4   0   3   18.60    6.22
   4   0   3   24.90    8.59
   4   0   3   24.13    7.33
   4   0   3   24.70   10.01
  -4   0  -3   18.01    5.71
   4   0   3   22.37    5.52
  -4   0  -3   18.26    5.53
  -4   0  -3   17.01    5.10
   4   0   3   14.32    4.88
   4   0   4  673.04   51.80
   4   0   4  683.31   45.84
   4   0   4  761.49   54.96
   4   0   4  760.98   54.52
   4   0   4  689.58   58.97
   4   0   4  771.60   43.38
  -4   0  -4  722.99   41.85
  -4   0  -4  725.88   43.84
  -4   0  -4  806.09   41.84
   4   0   5   15.47    6.73
   4   0   5   23.78    6.93
   4   0   5   27.50    9.74
   4   0   5   18.00    9.25
   4   0   5   14.81    5.54
  -4   0  -5   23.61    6.42
   4   0   5   24.11    6.77
  -4   0  -5   25.28    7.25
   4   0   6   77.40   11.89
   4   0   6   90.84   15.59
   4   0   6   94.25   18.19
   4   0   6   96.26   11.55
  -4   0  -6   94.21   12.01
  -4   0  -7  102.56   10.17
   4   0   7  106.24   10.80
   4   0   7  118.20   16.59
  -4   0  -7   95.66   10.67
  -4   0  -7  117.70   11.43
  -4   0  -8    3.55    1.67
   4   0   8    3.00    1.95
  -4   1   9  245.46   13.89
   4   1  -9  294.52   19.53
   4   1  -9  262.98   15.93
   4   1  -9  284.07   19.05
   4   1  -8  189.55   19.52
   4   1  -8  187.33   20.78
   4   1  -8  170.85   16.88
   4   1  -8  200.47   20.22
  -4   1   8  162.01   14.82
   4   1  -8  187.93   19.24
   4   1  -7   39.68    8.77
   4   1  -7   33.49    9.42
   4   1  -7   35.66    8.86
   4   1  -7   26.48    9.32
  -4   1   7   33.11    7.39
   4   1  -7   28.12    8.75
   4   1  -6   88.02   15.12
   4   1  -6   99.23   14.33
   4   1  -6   85.93   15.37
   4   1  -6   63.28   12.47
   4   1  -6   73.97   15.36
   4   1  -6  110.69   17.12
  -4   1   6   82.75   14.31
   4   1  -6   71.36   14.16
   4   1  -5    9.74    5.42
   4   1  -5   17.33    6.74
   4   1  -5    8.20    5.33
   4   1  -5    9.42    5.08
   4   1  -5   15.82    7.40
   4   1  -5    6.92    4.76
  -4   1   5    5.59    5.14
  -4   1   5   12.07    5.06
   4   1  -5    8.14    5.29
   4   1  -4  854.38   51.65
   4   1  -4  721.87   45.96
   4   1  -4  834.32   50.83
   4   1  -4  968.94   50.67
   4   1  -4  906.00   54.51
   4   1  -4  852.77   51.43
  -4   1   4  839.69   47.41
   4   1  -4  816.91   50.29
   4   1  -3  348.15   27.23
   4   1  -3  277.22   23.52
   4   1  -3  307.67   32.76
   4   1  -3  302.46   25.71
   4   1  -3  329.59   25.08
   4   1  -3  329.10   28.11
  -4   1   3  282.60   23.67
   4   1  -3  320.35   25.90
   4   1  -2  378.63   27.45
   4   1  -2  478.04   39.74
   4   1  -2  568.58   33.27
   4   1  -2  460.20   31.51
   4   1  -2  530.07   35.15
   4   1  -2  427.38   26.00
   4   1  -2  470.97   31.31
   4   1  -2  488.57   32.34
   4   1  -1  289.74   27.62
   4   1  -1  283.53   22.57
   4   1  -1  317.33   24.12
   4   1  -1  278.29   19.46
   4   1  -1  282.42   22.47
   4   1   0   68.01   12.18
   4   1   0   46.84    8.74
   4   1   0   61.74   10.50
   4   1   0   51.18    7.42
  -4   1   0   81.40    9.55
   4   1   0   66.27    8.85
   4   1   0   66.18   10.39
   4   1   1  689.73   42.23
   4   1   1  717.94   44.33
   4   1   1  733.41   45.75
   4   1   1  740.87   38.94
  -4   1  -1  710.65   34.64
   4   1   1  779.52   41.19
  -4   1  -1  747.27   38.52
   4   1   1  671.92   37.44
   4   1   1  757.31   44.22
   4   1   2  555.50   40.75
   4   1   2  626.55   43.38
   4   1   2  621.77   37.52
  -4   1  -2  675.04   37.01
   4   1   2  537.74   36.28
  -4   1  -2  578.40   34.15
   4   1   2  586.65   34.37
   4   1   3  305.88   30.33
   4   1   3  284.65   23.02
   4   1   3  301.19   30.35
  -4   1  -3  314.31   24.40
   4   1   3  268.81   22.00
  -4   1  -3  262.11   21.72
   4   1   4   82.44   16.00
   4   1   4  101.95   13.77
   4   1   4  101.22   18.02
   4   1   4  111.62   18.72
  -4   1  -4   98.91   13.41
   4   1   4  112.50   14.28
   4   1   4  117.74   15.55
   4   1   4  101.55   15.04
   4   1   4  121.48   14.25
  -4   1  -4  110.69   13.96
   4   1   5  262.98   28.81
   4   1   5  238.90   22.03
   4   1   5  330.01   33.00
   4   1   5  222.82   27.73
   4   1   5  303.28   24.48
   4   1   5  299.44   25.09
   4   1   5  310.78   26.82
  -4   1  -5  311.08   23.25
   4   1   5  330.97   24.33
  -4   1  -5  304.97   23.96
   4   1   6  199.09   17.78
   4   1   6  286.29   27.79
   4   1   6  276.92   21.53
   4   1   6  255.68   19.54
  -4   1  -6  224.26   19.55
  -4   1  -6  230.04   18.61
  -4   1  -7   57.76    7.82
  -4   1  -7   46.61    6.36
   4   1   7   70.17   10.79
   4   1   7   75.22    9.93
  -4   1  -7   44.20    7.22
  -4   1  -8   60.13    5.78
   4   1   8   69.25    7.04
   4   1   8   78.50    7.11
  -4   2   9   27.16    3.87
   4   2  -9   26.65    4.84
   4   2  -9   21.76    4.29
   4   2  -9   33.20    5.23
   4   2  -8  141.53   15.40
   4   2  -8  138.95   15.08
   4   2  -8  158.51   16.97
  -4   2   8  132.37   13.58
  -4   2   8  120.03   11.85
   4   2  -8  122.60   14.21
   4   2  -7  604.68   40.94
   4   2  -7  558.44   42.14
   4   2  -7  578.57   39.93
  -4   2   7  558.89   33.31
   4   2  -7  585.11   40.49
   4   2  -6   32.22    8.60
   4   2  -6   44.27    9.17
   4   2  -6   26.19    8.39
   4   2  -6   33.60    9.54
   4   2  -6   27.34    8.87
  -4   2   6   29.53    6.65
  -4   2   6   27.73    7.92
   4   2  -6   41.47   10.42
   4   2  -5  140.94   17.84
   4   2  -5  122.02   15.64
   4   2  -5  125.79   17.38
   4   2  -5  108.61   16.31
   4   2  -5  109.15   17.41
  -4   2   5  123.42   13.47
  -4   2   5   92.69   15.93
  -4   2   5   78.72   11.65
  -4   2   5  127.79   16.21
   4   2  -5  128.47   17.31
   4   2  -4  689.31   44.07
   4   2  -4  743.42   42.16
   4   2  -4  650.21   43.24
   4   2  -4  785.62   45.89
   4   2  -4  753.29   47.86
  -4   2   4  659.25   42.22
   4   2  -4  667.36   43.24
   4   2  -3  619.03   38.48
   4   2  -3  588.47   35.32
   4   2  -3  597.56   38.56
   4   2  -3  653.65   39.96
   4   2  -3  674.95   42.20
   4   2  -3  601.68   33.68
  -4   2   3  536.29   36.74
   4   2  -3  579.51   37.22
   4   2  -2  129.54   19.35
   4   2  -2  159.64   16.47
   4   2  -2  140.91   15.71
   4   2  -2  140.42   14.19
  -4   2   2  129.06   13.75
   4   2  -2  149.69   15.83
   4   2  -2  142.49   15.85
   4   2  -1  600.39   43.17
   4   2  -1  648.99   37.55
   4   2  -1  680.35   39.15
  -4   2   1  688.00   33.99
   4   2  -1  575.42   33.44
   4   2  -1  618.71   37.00
   4   2   0    5.78    2.38
   4   2   0    5.14    3.35
   4   2   0    8.29    3.78
  -4   2   0    7.71    3.09
   4   2   0   13.22    3.84
  -4   2   0   12.58    4.35
   4   2   0   10.44    3.70
   4   2   0    6.65    3.74
   4   2   1  150.38   12.94
   4   2   1  118.90   15.15
   4   2   1  132.72   16.38
   4   2   1  138.33   17.15
   4   2   1  134.42   13.09
  -4   2  -1  150.92   13.11
   4   2   1  143.56   15.43
  -4   2  -1  143.58   13.22
   4   2   1  131.64   13.44
   4   2   1  133.55   16.25
   4   2   2  405.15   32.61
   4   2   2  439.45   34.69
   4   2   2  415.24   28.40
  -4   2  -2  420.89   28.70
   4   2   2  410.14   30.41
  -4   2  -2  378.92   25.38
   4   2   3  787.59   51.30
   4   2   3  831.04   52.85
  -4   2  -3  723.32   42.44
   4   2   3  784.70   43.33
   4   2   3  684.53   41.17
  -4   2  -3  697.46   38.85
   4   2   3  782.42   46.87
   4   2   3  754.22   44.38
   4   2   3  717.66   40.33
   4   2   4  236.72   27.25
   4   2   4  301.90   30.51
   4   2   4  215.13   29.53
  -4   2  -4  279.13   23.00
   4   2   4  277.33   23.45
   4   2   4  190.71   21.59
  -4   2  -4  282.65   22.97
   4   2   4  239.90   20.99
   4   2   5  208.09   24.63
   4   2   5  154.82   24.35
   4   2   5  197.45   19.35
   4   2   5  211.02   20.29
   4   2   5  203.37   21.07
   4   2   5  188.64   17.70
  -4   2  -5  190.58   18.94
  -4   2  -6   -0.78    2.68
  -4   2  -6    3.98    2.72
   4   2   6   -1.21    3.50
   4   2   6    1.55    2.84
   4   2   6   -0.77    2.23
   4   2   6    3.76    2.93
   4   2   6    0.63    2.01
  -4   2  -6    1.50    2.38
  -4   2  -7  261.20   16.98
   4   2   7  263.73   20.90
   4   2   7  251.23   18.55
  -4   3   9  211.23   12.00
   4   3  -8   50.22    7.81
   4   3  -8   55.28    9.00
   4   3  -8   51.45    8.25
  -4   3   8   36.74    6.83
   4   3  -8   55.64    8.09
   4   3  -7   35.36    7.91
   4   3  -7   41.54    9.27
   4   3  -7   40.07    8.85
  -4   3   7   33.36    7.67
  -4   3   7   36.10    5.20
  -4   3   7   34.07    5.83
   4   3  -7   34.55    7.74
   4   3  -6   56.60   10.78
   4   3  -6   44.14   10.34
   4   3  -6   50.53   10.98
  -4   3   6   45.93    7.43
  -4   3   6   51.83    9.93
   4   3  -6   37.30    8.89
   4   3  -5  548.97   37.99
   4   3  -5  600.87   39.27
   4   3  -5  627.61   42.19
   4   3  -5  632.76   42.14
  -4   3   5  637.77   40.30
   4   3  -5  549.51   37.56
   4   3  -4  109.83   14.30
   4   3  -4  128.53   14.14
   4   3  -4  116.58   15.31
   4   3  -4  118.64   16.06
   4   3  -4  112.02   15.83
  -4   3   4  101.87   14.42
  -4   3   4  122.13   16.12
   4   3  -4   97.69   13.78
   4   3  -3  596.89   37.59
   4   3  -3  662.46   41.02
   4   3  -3  637.65   36.80
   4   3  -3  630.08   36.35
  -4   3   3  643.85   38.76
   4   3  -3  590.30   37.09
   4   3  -3  622.78   38.35
   4   3  -2  473.80   29.62
   4   3  -2  521.31   33.01
  -4   3   2  534.29   31.72
   4   3  -2  482.86   31.29
   4   3  -2  485.56   32.09
   4   3  -1   16.29    5.32
   4   3  -1   18.19    5.65
   4   3  -1   18.27    4.60
   4   3  -1   13.56    5.14
   4   3  -1   21.77    5.37
  -4   3   1   17.24    4.38
   4   3  -1   18.20    5.36
   4   3   0  146.96   14.08
   4   3   0  134.78   14.78
   4   3   0  147.79   15.92
   4   3   0  130.31   13.07
   4   3   0  129.66   15.26
   4   3   0  126.88   15.22
  -4   3   0  122.52   12.97
   4   3   0  154.20   14.30
  -4   3   0  166.52   14.98
   4   3   0  137.58   13.91
   4   3   0  150.92   15.95
   4   3   1  386.96   24.82
   4   3   1  345.17   26.95
   4   3   1  357.85   28.28
   4   3   1  375.86   29.51
   4   3   1  423.62   30.45
  -4   3  -1  421.91   25.66
   4   3   1  387.61   27.94
  -4   3  -1  403.83   27.19
   4   3   2   96.66   10.75
   4   3   2   82.05   12.75
   4   3   2   95.32   14.11
   4   3   2   99.01   14.95
   4   3   2   98.38   12.49
   4   3   2  104.94   14.60
  -4   3  -2  100.11   12.88
   4   3   2   97.15   11.84
   4   3   3 1086.96   60.35
  -4   3  -3  873.17   54.41
   4   3   3 1114.41   62.35
  -4   3  -3 1075.87   55.47
   4   3   3 1003.01   55.00
   4   3   3 1064.36   55.12
  -4   3  -3 1183.93   55.05
   4   3   3 1075.47   59.57
   4   3   3 1099.93   56.11
  -4   3  -3 1140.02   55.58
   4   3   3 1074.21   52.87
   4   3   4   75.90   13.31
   4   3   4   85.00   14.90
   4   3   4   84.03   12.45
   4   3   4  100.36   13.55
  -4   3  -4   80.94   11.20
   4   3   4   54.32   10.57
  -4   3  -4   81.81   11.47
   4   3   4   81.46   11.30
  -4   3  -5   67.11    9.21
   4   3   5   72.88   13.33
   4   3   5   90.94   12.37
   4   3   5   99.77   13.63
   4   3   5   86.85   12.77
   4   3   5   81.07   10.64
  -4   3  -5   88.90   12.67
  -4   3  -6  142.42   14.98
  -4   3  -6  144.55   12.82
   4   3   6  152.30   16.62
   4   3   6  135.87   14.04
   4   3   6  146.33   14.54
  -4   3  -6  147.04   14.55
   4   3   6  153.28   13.33
  -4   3  -7   33.99    4.27
   4   3   7   31.08    5.22
   4   3   7   38.09    5.71
  -4   4   9    4.19    1.42
   4   4  -8  115.32    9.51
  -4   4   8  123.29   11.77
  -4   4   8  122.28   11.74
   4   4  -8  133.70   11.69
   4   4  -7  220.14   17.30
  -4   4   7  212.91   18.11
   4   4  -7  223.92   16.96
   4   4  -6   88.72   11.56
   4   4  -6   69.04   10.68
  -4   4   6   55.83    9.93
   4   4  -6   70.92   10.37
   4   4  -5  141.64   15.55
   4   4  -5  141.99   16.16
  -4   4   5  143.65   15.75
  -4   4   5  118.26   15.70
  -4   4   5  136.63   17.06
   4   4  -5  123.69   14.20
   4   4  -4  730.44   42.04
  -4   4   4  804.17   42.28
   4   4  -4  726.65   40.58
   4   4  -4  763.27   44.05
  -4   4   4  787.07   45.82
  -4   4   4  714.12   45.97
   4   4  -4  709.82   40.62
   4   4  -4  712.37   41.47
  -4   4   3  176.24   15.84
   4   4  -3  163.08   16.88
   4   4  -3  144.57   16.75
  -4   4   3  150.68   17.14
  -4   4   3  143.88   17.90
   4   4  -3  146.51   15.33
   4   4  -3  170.20   16.36
   4   4  -2  319.25   23.83
   4   4  -2  314.27   26.19
   4   4  -2  278.68   20.89
  -4   4   2  302.92   23.32
   4   4  -2  301.92   22.43
   4   4  -1  447.68   29.84
   4   4  -1  593.30   32.86
   4   4  -1  507.07   31.35
   4   4  -1  519.98   34.95
  -4   4   1  434.47   29.53
   4   4  -1  470.18   31.51
  -4   4   1  469.05   29.33
  -4   4   1  474.55   27.78
   4   4  -1  474.11   30.41
   4   4   0  477.30   29.52
   4   4   0  445.76   29.13
   4   4   0  482.58   30.58
   4   4   0  438.24   28.97
   4   4   0  469.90   32.95
   4   4   0  444.28   32.39
  -4   4   0  460.61   29.13
   4   4   0  466.12   28.20
  -4   4   0  466.16   28.65
  -4   4   0  399.50   26.12
   4   4   0  561.89   32.88
   4   4   1  124.31   13.41
   4   4   1  118.86   13.50
   4   4   1   97.69   12.80
   4   4   1  108.05   12.88
   4   4   1  135.55   14.65
   4   4   1  131.49   16.38
  -4   4  -1  111.07   12.59
   4   4   1  129.10   14.93
  -4   4  -1  139.94   14.45
  -4   4  -1   72.99   10.26
   4   4   1   95.49   11.80
   4   4   2  572.76   33.38
   4   4   2  529.35   34.64
   4   4   2  550.12   36.05
   4   4   2  634.70   39.06
   4   4   2  599.03   37.20
   4   4   2  535.85   38.12
  -4   4  -2  618.43   35.81
   4   4   2  567.08   33.63
   4   4   3  505.38   34.29
   4   4   3  445.70   33.84
  -4   4  -3  570.14   39.38
   4   4   3  531.77   37.05
   4   4   3  558.23   36.20
   4   4   3  583.03   37.56
  -4   4  -3  646.60   37.03
   4   4   3  570.62   39.38
  -4   4  -3  570.94   34.51
   4   4   3  555.53   32.85
   4   4   4   77.85   11.80
  -4   4  -4   81.73   13.03
   4   4   4   79.04   12.98
   4   4   4   99.65   13.30
   4   4   4   78.82   11.77
   4   4   4   97.24   14.00
  -4   4  -4   78.53   11.58
   4   4   4   62.99   10.00
  -4   4  -4   90.56   11.19
   4   4   4   70.32   10.22
   4   4   5   56.61    9.16
   4   4   5   74.85   11.16
   4   4   5   60.30    9.82
   4   4   5   64.60    9.89
   4   4   5   79.74    9.90
  -4   4  -5   76.92   11.48
  -4   4  -6  238.28   19.38
   4   4   6  205.63   15.80
   4   4   6  223.88   17.60
   4   4   6  213.57   16.11
   4   4   6  261.44   18.61
   4   4   6  267.69   19.24
   4   4   6  271.83   16.93
  -4   4  -6  264.31   18.41
  -4   4  -7  154.29   11.28
   4   4   7  148.93   10.90
   4   5  -8   23.41    4.19
   4   5  -7   15.39    3.75
  -4   5   7   15.54    4.92
  -4   5   7   13.79    4.22
   4   5  -7   17.08    4.62
   4   5  -6  236.10   18.53
  -4   5   6  265.75   20.63
   4   5  -6  271.91   22.18
  -4   5   5   21.30    5.80
   4   5  -5   23.90    6.72
  -4   5   4  114.74   13.10
   4   5  -4  132.81   15.72
   4   5  -4  123.52   14.64
  -4   5   4  106.26   14.55
   4   5  -3  187.33   18.13
   4   5  -3  229.92   20.90
   4   5  -3  170.37   19.48
  -4   5   3  225.95   20.71
   4   5  -2  388.56   28.18
   4   5  -2  361.24   29.94
  -4   5   2  401.05   28.05
   4   5  -2  387.11   25.78
  -4   5   2  376.83   27.90
   4   5  -1  323.97   24.31
  -4   5   1  330.48   23.19
   4   5  -1  280.73   23.33
   4   5  -1  320.15   27.18
  -4   5   1  272.18   22.54
   4   5  -1  310.86   25.27
   4   5   0   45.59    8.83
  -4   5   0   45.33    7.56
   4   5   0   30.19    7.20
   4   5   0   41.15    9.33
  -4   5   0   42.69    8.20
  -4   5   0   37.19    7.29
  -4   5   0   47.49    7.75
   4   5   0   31.13    6.95
   4   5   1  275.98   21.85
  -4   5  -1  274.77   20.78
   4   5   1  216.74   19.96
   4   5   1  235.80   22.14
   4   5   1  245.49   21.87
   4   5   1  252.53   24.15
  -4   5  -1  246.08   20.45
   4   5   1  269.68   22.34
  -4   5  -1  239.55   19.85
  -4   5  -1  211.46   19.11
   4   5   1  205.12   18.42
   4   5   2  691.81   38.48
   4   5   2  586.56   34.49
   4   5   2  748.27   42.31
   4   5   2  604.90   40.69
  -4   5  -2  685.24   38.64
  -4   5  -2  663.91   39.19
   4   5   2  722.76   37.68
   4   5   3   50.88    7.65
  -4   5  -3   49.79   11.25
  -4   5  -3   71.05   10.31
   4   5   3   58.14   10.46
   4   5   3   81.51   12.32
  -4   5  -3   73.14   11.37
   4   5   3   55.46   11.05
  -4   5  -3   69.34    9.95
   4   5   3   47.30    8.12
  -4   5  -4   46.50    9.72
  -4   5  -4   44.70    9.55
   4   5   4   55.18    9.65
   4   5   4   44.17    8.46
   4   5   4   50.51    9.93
  -4   5  -4   58.43   10.00
   4   5   4   51.15    7.99
   4   5   5  188.27   16.66
   4   5   5  206.65   15.39
  -4   5  -5  221.87   19.34
  -4   5  -6   93.44   10.65
  -4   5  -6   71.86    8.12
   4   5   6   84.02    8.78
   4   5   6   82.16    9.11
   4   5   6   74.39    6.75
  -4   5  -7    7.71    2.02
  -4   5  -7    7.70    1.84
   4   6  -7  299.85   17.07
  -4   6   7  350.56   18.08
   4   6  -6   96.57   10.42
  -4   6   6  105.92   12.47
  -4   6   6  117.22   12.67
   4   6  -6  129.92   13.50
   4   6  -5  171.32   15.42
  -4   6   5  146.61   11.87
  -4   6   5  203.89   18.62
   4   6  -5  201.44   18.44
   4   6  -4  249.46   20.35
  -4   6   4  293.85   23.52
   4   6  -4  260.17   22.73
   4   6  -4  234.44   21.27
   4   6  -3  772.04   40.91
  -4   6   3  837.37   43.70
   4   6  -3  818.68   43.97
  -4   6   3  669.69   39.38
  -4   6   3  677.40   44.29
   4   6  -2   12.59    5.02
  -4   6   2   11.89    5.19
   4   6  -2   13.90    5.27
  -4   6   2   19.36    6.06
   4   6  -2   21.62    7.10
   4   6  -2   19.68    4.94
  -4   6   2   16.75    5.30
  -4   6   1  129.01   13.68
  -4   6   1  138.93   14.90
   4   6  -1  103.98   13.73
   4   6  -1  115.34   15.85
   4   6  -1  121.50   15.25
  -4   6   1  133.20   14.86
   4   6   0  688.28   38.63
  -4   6   0  643.29   35.46
   4   6   0  613.92   37.78
   4   6   0  526.65   38.52
  -4   6   0  680.16   37.85
  -4   6   0  604.03   35.93
   4   6   0  581.41   34.63
   4   6   1   83.98   11.78
  -4   6  -1   54.63    9.52
   4   6   1   55.23   10.25
   4   6   1   74.03   12.45
   4   6   1   79.33   10.38
  -4   6  -1   69.76   10.29
   4   6   1   52.66    8.54
  -4   6  -2   68.62    9.79
  -4   6  -2   78.54   13.79
   4   6   2   87.67   12.47
   4   6   2   71.94   11.38
   4   6   2   67.04    9.40
  -4   6  -3  153.41   13.87
  -4   6  -3  194.41   21.66
   4   6   3  178.05   17.69
   4   6   3  220.31   19.70
  -4   6  -3  208.52   19.46
   4   6   3  177.96   18.49
   4   6   3  188.40   15.46
  -4   6  -4   60.50    8.10
  -4   6  -4   56.59   10.29
   4   6   4   64.66    9.77
   4   6   4   64.18    9.13
   4   6   4   58.93    9.70
  -4   6  -4   57.35    9.55
   4   6   4   61.55    7.80
  -4   6  -5   93.44    9.55
  -4   6  -5   70.58    8.15
   4   6   5   84.30    9.36
   4   6   5  102.43   10.88
   4   6   5   81.55    7.67
  -4   6  -6   37.40    4.87
  -4   6  -6   26.86    4.01
   4   6   6   25.78    3.66
  -4   7   7   11.41    2.21
   4   7  -7   12.85    2.74
   4   7  -6   65.44    6.83
  -4   7   6   74.72    9.39
  -4   7   6   70.74    8.79
   4   7  -6   74.62    8.91
   4   7  -5   59.33    7.98
  -4   7   5   59.38    6.47
  -4   7   5   60.48    9.38
  -4   7   5   67.96    9.69
   4   7  -5   53.00    8.58
   4   7  -4   82.12   10.38
  -4   7   4   98.62   12.26
  -4   7   4   76.38   10.91
   4   7  -4   83.40   11.33
   4   7  -4   63.88    9.99
   4   7  -3  256.75   20.87
  -4   7   3  277.46   22.50
  -4   7   3  315.93   23.62
   4   7  -3  273.96   22.40
   4   7  -3  227.47   21.86
   4   7  -2   47.17    8.42
  -4   7   2   47.24    8.72
   4   7  -2   38.58    8.11
  -4   7   2   39.65    8.47
   4   7  -2   39.23    8.71
   4   7  -2   56.60    7.85
  -4   7   1  111.22   13.66
  -4   7   1  102.68   12.68
   4   7  -1   88.64   12.30
   4   7  -1   97.20   12.75
  -4   7   0  115.22   14.06
   4   7   0   93.29   12.64
   4   7   0  100.23   13.46
   4   7   0   90.45   13.17
   4   7   0   83.41   10.56
  -4   7  -1  283.66   22.42
   4   7   1  277.11   22.30
   4   7   1  299.87   23.52
   4   7   1  305.94   25.16
   4   7   1  257.11   19.28
  -4   7  -2  162.67   13.66
  -4   7  -2  194.02   21.52
   4   7   2  155.31   16.24
  -4   7  -2  173.60   17.43
   4   7   2  161.91   14.94
   4   7   2  170.16   14.14
  -4   7  -3   50.20    7.40
  -4   7  -3   38.90    9.28
   4   7   3   50.20    8.44
   4   7   3   58.47    9.06
  -4   7  -3   58.61    9.48
   4   7   3   45.17    7.91
   4   7   3   49.26    6.63
  -4   7  -3   59.22    9.62
  -4   7  -4   16.49    4.71
  -4   7  -4   19.34    4.21
  -4   7  -4   10.84    4.09
   4   7   4   21.28    5.08
   4   7   4   14.21    3.72
   4   7   4   14.43    4.16
  -4   7  -4   10.46    4.08
   4   7   4   16.23    3.26
  -4   7  -5  284.90   16.08
   4   7   5  299.46   16.58
  -4   8   6  113.45    7.83
   4   8  -6  103.80    8.47
   4   8  -5   79.89    7.27
  -4   8   5   61.38    5.62
   4   8  -5   91.29    9.32
   4   8  -4  228.65   16.27
  -4   8   4  266.95   18.84
  -4   8   4  222.19   15.25
  -4   8   4  251.62   19.37
  -4   8   4  236.20   18.99
   4   8  -4  253.84   18.64
   4   8  -4  255.22   17.70
   4   8  -3  242.77   17.50
  -4   8   3  167.73   16.66
  -4   8   3  204.93   18.08
   4   8  -3  219.80   17.96
   4   8  -3  216.42   18.38
   4   8  -2   76.65   10.08
  -4   8   2   90.55   12.00
  -4   8   2   87.57   11.34
   4   8  -2   91.71   11.44
   4   8  -2   86.00   11.62
   4   8  -1   60.96    9.18
  -4   8   1   70.43   10.31
  -4   8   1   67.03    8.13
   4   8  -1   70.80   10.31
  -4   8   1   67.16    9.55
   4   8  -1   71.61    9.53
   4   8  -1   60.16    8.21
  -4   8   0  309.23   23.70
   4   8   0  342.85   24.11
   4   8   0  305.41   23.25
   4   8   0  313.91   20.25
  -4   8  -1  110.88   12.82
  -4   8  -1  144.73   18.05
   4   8   1  118.82   12.76
   4   8   1  128.35   13.89
   4   8   1  110.56   10.43
  -4   8  -2    4.37    3.03
  -4   8  -2    2.10    3.33
   4   8   2    3.67    2.38
   4   8   2    3.34    2.74
  -4   8  -2    5.91    3.32
   4   8   2    3.08    2.34
  -4   8  -3  221.24   13.77
  -4   8  -3  207.75   19.38
   4   8   3  194.29   15.21
   4   8   3  230.74   16.45
  -4   8  -3  228.18   17.87
   4   8   3  207.93   12.10
  -4   8  -4   47.21    5.25
   4   8   4   46.51    5.40
  -4   9   4   59.29    5.78
   4   9  -4   62.75    5.83
   4   9  -4   65.54    6.35
  -4   9   3   31.97    5.02
   4   9  -3   42.33    6.00
   4   9  -3   26.67    4.37
  -4   9   2  106.69   11.68
   4   9  -2  126.69   11.66
   4   9  -2   95.17    8.83
  -4   9   1   74.46    9.71
  -4   9   1   63.18    6.49
   4   9  -1   80.96    9.30
   4   9  -1   61.28    6.84
  -4   9   0   24.43    6.35
  -4   9   0   19.63    3.99
   4   9   0   12.53    3.46
  -4   9   0   21.15    4.90
   4   9   0   19.04    3.54
  -4   9  -1   39.17    5.70
   4   9   1   37.34    5.21
   4   9   1   47.77    6.54
   4   9   1   35.48    4.40
  -4   9  -2  278.77   15.90
   4   9   2  224.91   14.43
   4   9   2  273.20   16.44
  -4   9  -3   64.58    6.08
  -4  10   2   15.98    2.88
  -4  10   0   57.49    5.28
   5  -8  -3   13.21    3.29
   5  -8  -2  103.46   10.26
   5  -8  -1   56.39    7.69
   5  -8  -1   52.01    7.61
   5  -8   0   96.15   10.66
  -5  -8   0   28.29    6.06
   5  -8   1   36.44    6.33
   5  -7  -5   35.13    4.85
   5  -7  -4   15.34    4.03
  -5  -7   3  438.55   21.88
   5  -7  -3  353.96   24.78
   5  -7  -3  396.19   28.21
   5  -7  -2   27.59    6.50
   5  -7  -2   46.59   10.04
  -5  -7   2   44.51    5.58
   5  -7  -1   13.65    6.44
  -5  -7   1   12.02    2.83
   5  -7   0  213.64   22.39
  -5  -7   0  196.05   13.91
   5  -7   1  224.79   22.92
   5  -7   1  253.19   17.15
  -5  -7  -1  212.94   13.68
   5  -7   2   84.23   12.83
  -5  -7  -2   57.88    6.56
   5  -7   3  103.97    8.13
  -5  -7  -3   99.88    9.19
   5  -6  -6   36.85    5.20
   5  -6  -5  165.89   14.54
   5  -6  -5  180.04   14.37
  -5  -6   4   68.66    7.31
   5  -6  -4   62.19    9.66
   5  -6  -4   91.26   10.82
   5  -6  -3   67.91   10.81
   5  -6  -3   75.27   13.79
  -5  -6   3   67.05    7.02
   5  -6  -2   68.31   13.96
  -5  -6   2   47.84    6.08
   5  -6  -1  232.30   27.12
   5  -6  -1  281.71   21.96
  -5  -6   1  220.20   15.93
  -5  -6   0   14.89    3.29
   5  -6   0   11.68    7.51
   5  -6   0   11.08    4.50
  -5  -6  -1   19.28    4.23
   5  -6   1   28.79    9.75
   5  -6   1   21.39    5.86
   5  -6   2  109.39   16.88
   5  -6   2  133.16   13.09
  -5  -6  -2  101.99    9.85
   5  -6   3   79.89   11.96
   5  -6   3   91.49    9.66
  -5  -6  -3   64.93    7.28
   5  -6   4    1.63    1.47
  -5  -6  -4    4.20    1.51
   5  -5  -7  119.85    8.84
   5  -5  -6  334.03   21.28
   5  -5  -6  308.98   20.48
  -5  -5   5   32.39    5.07
  -5  -5   5   32.92    4.43
   5  -5  -5   35.66    7.48
   5  -5  -5   46.16    7.99
  -5  -5   4   59.29    7.24
   5  -5  -4   62.63   10.76
   5  -5  -4   90.88   16.32
   5  -5  -4   78.43   11.25
   5  -5  -3  343.30   34.16
   5  -5  -2   85.30   17.31
   5  -5  -2  122.40   14.85
  -5  -5   2   80.53    8.62
   5  -5  -1  205.50   27.86
   5  -5  -1  239.77   29.41
   5  -5   0   98.75   18.77
  -5  -5   0   71.40    8.58
   5  -5   1  228.83   28.62
   5  -5   1  234.59   20.77
   5  -5   2   11.34    6.66
   5  -5   2   19.39    5.57
  -5  -5  -2   15.62    3.80
   5  -5   3  134.89   17.59
   5  -5   3  160.92   15.21
  -5  -5  -3  157.89   13.22
   5  -5   4  392.06   22.70
  -5  -5  -4  318.88   20.04
   5  -5   5  123.79    9.27
   5  -4  -7   13.76    4.06
   5  -4  -6  149.27   14.73
   5  -4  -6  178.49   15.50
  -5  -4   6  136.86   11.12
   5  -4  -6  137.37   12.07
  -5  -4   5   33.31    5.33
   5  -4  -5   35.58    8.37
   5  -4  -5   42.41    8.11
   5  -4  -5   35.37    6.64
   5  -4  -4  238.47   29.08
   5  -4  -4  210.17   19.88
   5  -4  -4  220.68   18.86
   5  -4  -3   27.64    8.38
   5  -4  -3   31.31   11.50
   5  -4  -3   32.35    7.02
   5  -4  -2  812.81   60.60
   5  -4  -2  818.57   46.87
   5  -4  -2  886.03   46.10
   5  -4  -1  157.77   24.64
   5  -4  -1  127.10   15.67
   5  -4  -1  178.59   17.56
   5  -4   0  164.27   16.56
   5  -4   0  155.83   24.22
   5  -4   0  163.68   17.71
   5  -4   1   32.57    7.11
   5  -4   1   19.12    8.64
  -5  -4  -1   30.64    5.65
   5  -4   2   83.97   11.06
   5  -4   2   62.20   14.19
   5  -4   3  225.97   17.59
  -5  -4  -3  205.26   15.02
   5  -4   3  191.87   21.53
   5  -4   3  249.80   20.87
   5  -4   4  102.65    9.67
  -5  -4  -4   89.37    8.71
   5  -4   4  101.28   11.71
  -5  -4  -4  108.55   10.98
  -5  -4  -4   86.22    9.50
   5  -4   5   13.28    3.67
   5  -3  -8   10.97    2.59
  -5  -3   7  204.83   14.53
   5  -3  -7  226.37   16.47
  -5  -3   6   84.13    8.62
   5  -3  -6   87.85   11.62
   5  -3  -5  125.94   14.68
   5  -3  -5  114.41   14.34
   5  -3  -4   85.87   13.88
   5  -3  -4  112.50   20.83
   5  -3  -4  116.73   14.63
   5  -3  -3   36.82    9.08
   5  -3  -3   39.25   13.04
  -5  -3   3   31.90    6.18
  -5  -3   3   51.14    8.60
   5  -3  -3   47.12    9.43
   5  -3  -2  738.63   40.54
   5  -3  -2  712.81   40.60
   5  -3  -1   89.65   12.61
   5  -3  -1   70.95   15.87
   5  -3  -1   58.52   10.15
  -5  -3   1   49.08    8.18
   5  -3  -1   72.14   11.68
   5  -3   0  123.52   14.91
   5  -3   0  102.58   19.26
   5  -3   0  102.24   13.76
  -5  -3   0   98.46   11.38
   5  -3   1  363.01   26.77
   5  -3   1  345.74   26.69
   5  -3   1  304.39   32.83
   5  -3   1  344.12   26.84
  -5  -3  -1  259.54   19.42
   5  -3   2   29.45    7.37
   5  -3   2   29.23    8.77
   5  -3   2   33.91    8.15
   5  -3   2   34.54    5.43
   5  -3   3  388.06   27.53
  -5  -3  -3  329.60   22.05
   5  -3   4  183.12   16.84
  -5  -3  -4  175.13   14.20
   5  -3   5   66.34    8.23
  -5  -3  -5   67.77    7.54
   5  -3   5   78.81    9.67
   5  -3   6   54.64    5.99
  -5  -3  -6   40.69    4.74
   5  -2  -8  130.98   10.12
   5  -2  -8   93.95    8.82
   5  -2  -7  161.91   15.64
  -5  -2   7  134.76   11.86
   5  -2  -7  182.31   16.27
   5  -2  -6  115.30   15.05
  -5  -2   6  111.02    9.69
   5  -2  -6  110.33   14.56
   5  -2  -5  340.16   28.20
   5  -2  -5  394.57   31.19
   5  -2  -5  382.74   30.15
   5  -2  -4  112.87   15.86
   5  -2  -4  134.23   17.06
   5  -2  -4  148.97   17.98
   5  -2  -3  101.38   15.14
  -5  -2   3  134.49   12.76
  -5  -2   3  127.17   14.60
   5  -2  -3  148.06   17.52
   5  -2  -2  182.65   20.92
   5  -2  -2  282.20   33.24
   5  -2  -2  276.93   21.66
  -5  -2   2  194.59   16.79
   5  -2  -2  268.75   23.70
   5  -2  -1  840.76   61.37
   5  -2  -1  932.77   49.46
   5  -2  -1  851.10   45.77
   5  -2  -1  961.49   49.67
   5  -2   0  138.29   16.57
   5  -2   0  151.28   17.62
  -5  -2   0   96.10   10.40
   5  -2   0  109.27   18.80
   5  -2   0  121.24   14.72
  -5  -2   0  101.01   11.23
   5  -2   0  143.57   16.95
   5  -2   1  102.55   14.71
   5  -2   1  114.24   15.19
  -5  -2  -1   85.91   10.05
   5  -2   1   70.89   13.88
   5  -2   1   90.83   13.20
  -5  -2  -1  103.65   12.04
   5  -2   1   73.89    9.22
   5  -2   2   97.50   14.57
   5  -2   2  119.81   16.46
  -5  -2  -2   77.77   10.28
   5  -2   2  106.91   14.58
  -5  -2  -2  113.30   12.60
   5  -2   2  111.99   11.61
   5  -2   3  131.73   16.67
   5  -2   3  118.02   15.42
   5  -2   3  112.64   12.17
   5  -2   4  564.58   37.61
   5  -2   4  648.57   38.63
   5  -2   4  620.19   32.76
   5  -2   5  113.99   12.79
  -5  -2  -5  104.61   10.29
   5  -2   6   97.19    8.74
  -5  -2  -6   66.37    6.48
   5  -1  -7  190.37   20.07
  -5  -1   7  194.73   14.74
   5  -1  -6  208.08   19.37
   5  -1  -6  144.60   19.65
   5  -1  -5  108.38   14.70
   5  -1  -4   64.36   11.88
   5  -1  -4   74.35   17.55
  -5  -1   4   76.32   12.02
   5  -1  -4   91.07   14.25
   5  -1  -3 1052.22   56.74
   5  -1  -3 1154.92   73.22
   5  -1  -2  267.27   24.87
   5  -1  -2  283.81   33.91
   5  -1  -2  354.76   24.06
   5  -1  -1   86.01   12.82
   5  -1  -1  107.19   20.68
   5  -1  -1  104.04   14.47
   5  -1  -1  125.02   13.57
   5  -1   0  350.39   28.05
   5  -1   0  353.88   28.97
  -5  -1   0  251.24   19.24
   5  -1   0  339.66   24.90
   5  -1   0  333.01   21.42
   5  -1   1  254.95   24.38
   5  -1   1  277.22   26.35
   5  -1   1  261.19   22.60
  -5  -1  -1  242.65   20.22
   5  -1   1  254.07   19.32
   5  -1   2    7.22    4.94
   5  -1   2    6.61    3.84
  -5  -1  -2    2.79    1.82
   5  -1   2    5.09    3.74
  -5  -1  -2    4.62    2.45
   5  -1   2    6.33    3.41
   5  -1   3  143.19   18.23
   5  -1   3  160.90   20.77
   5  -1   3  149.26   17.30
  -5  -1  -3  116.33   12.63
   5  -1   3  153.65   14.90
   5  -1   4  687.38   45.41
   5  -1   4  707.54   48.03
   5  -1   4  726.09   44.00
   5  -1   4  839.14   40.45
  -5  -1  -4  798.83   38.72
   5  -1   5  259.21   22.28
   5  -1   5  283.06   24.53
   5  -1   5  316.48   22.85
   5  -1   5  279.59   18.70
  -5  -1  -5  257.94   17.31
   5  -1   6   17.92    4.35
   5  -1   6   18.85    4.37
   5   0  -8  458.28   26.76
   5   0  -8  491.80   26.81
   5   0  -7   12.99    4.66
   5   0  -7   24.00    6.59
   5   0  -7   23.71    7.01
  -5   0   7   20.78    4.10
   5   0  -7   15.07    5.43
   5   0  -6   26.09    8.22
   5   0  -6   28.92    8.83
   5   0  -6   33.01    8.69
   5   0  -5    1.97    3.37
   5   0  -5    2.58    2.90
   5   0  -5    1.49    3.35
   5   0  -5    3.71    3.93
   5   0  -4   84.25   12.99
   5   0  -4  110.22   16.28
  -5   0   4   70.07   12.09
  -5   0   4   76.28   11.72
   5   0  -4   78.14   13.46
   5   0  -4  125.37   16.76
   5   0  -3  234.93   22.23
   5   0  -3  227.23   30.10
  -5   0   3  196.24   21.39
   5   0  -3  316.60   26.33
   5   0  -3  281.89   26.23
   5   0  -2   69.61   10.93
   5   0  -2   90.02   18.80
   5   0  -2  115.49   15.13
   5   0  -2   75.34   12.39
   5   0  -1  329.50   35.18
   5   0  -1  336.35   27.61
   5   0  -1  305.06   22.29
   5   0  -1  351.16   22.45
   5   0  -1  394.45   28.98
   5   0   0   25.86    9.85
   5   0   0   55.39   10.45
   5   0   0   52.72   10.94
   5   0   0   43.91    7.80
  -5   0   0   39.47    7.04
   5   0   0   38.83    7.25
   5   0   0   45.25    9.72
   5   0   1  137.13   20.18
   5   0   1  140.05   17.76
   5   0   1  149.65   18.98
   5   0   1  133.99   15.11
  -5   0  -1  117.53   13.09
  -5   0  -1  144.25   14.43
   5   0   1  163.04   15.28
   5   0   2  831.61   49.81
   5   0   2  868.54   51.61
   5   0   2  797.53   44.86
  -5   0  -2  728.49   40.29
   5   0   2  846.62   42.46
   5   0   3   -1.27    3.31
   5   0   3    4.42    4.27
   5   0   3    6.11    3.96
   5   0   3    4.41    2.86
   5   0   4    4.69    3.73
   5   0   4    5.44    4.32
   5   0   4    3.84    3.94
   5   0   4    5.32    3.11
  -5   0  -4    1.95    2.23
   5   0   5    0.91    2.65
   5   0   5    5.32    4.14
   5   0   5    6.07    3.41
  -5   0  -5    2.08    2.02
   5   0   6   65.47    8.38
   5   0   6   64.09    7.42
   5   1  -8   98.08    9.83
   5   1  -7  209.51   19.69
   5   1  -7  197.18   18.76
   5   1  -6  203.35   21.36
   5   1  -6  164.21   20.75
  -5   1   6  165.73   13.94
   5   1  -6  189.33   20.20
   5   1  -5   88.92   12.61
   5   1  -5  101.01   15.50
   5   1  -5  102.64   15.34
   5   1  -4   58.68   10.02
  -5   1   4   57.89   10.54
   5   1  -4   76.39   12.83
   5   1  -4   69.78   12.29
   5   1  -3 1250.50   61.92
   5   1  -3 1359.30   67.63
   5   1  -2  318.56   34.00
  -5   1   2  248.10   20.90
   5   1  -2  304.88   21.01
   5   1  -2  338.33   26.97
   5   1  -1   97.93   10.65
   5   1  -1  101.80   18.00
   5   1  -1  141.41   16.76
   5   1  -1  116.96   12.61
   5   1  -1  151.60   16.93
   5   1   0  250.15   26.55
   5   1   0  324.01   27.42
  -5   1   0  252.87   20.03
  -5   1   0  265.73   20.13
   5   1   0  296.79   21.82
   5   1   0  301.41   25.55
   5   1   1  287.25   21.83
  -5   1  -1  288.11   22.13
   5   1   1  314.43   23.18
   5   1   2    2.67    2.45
   5   1   2    5.12    2.71
  -5   1  -2    3.82    2.22
   5   1   2    0.76    2.43
   5   1   3  128.14   18.77
   5   1   3  129.65   15.15
   5   1   3  124.88   13.53
  -5   1  -3  116.66   12.63
   5   1   4  763.29   47.40
   5   1   4  579.10   36.99
   5   1   5  312.56   25.61
   5   1   5  258.23   20.17
  -5   1  -5  301.36   19.71
   5   1   6   22.07    4.76
   5   1   6   18.80    3.78
   5   2  -8  111.62    9.08
  -5   2   7  141.83   12.54
   5   2  -7  168.90   15.26
   5   2  -6  131.40   13.22
   5   2  -6  111.97   14.61
   5   2  -6  120.42   14.61
   5   2  -5  409.26   26.90
   5   2  -5  410.41   31.77
   5   2  -5  392.04   30.28
   5   2  -4   99.13   11.53
   5   2  -4   79.68    9.24
   5   2  -4  113.30   14.92
  -5   2   3  117.64   13.81
   5   2  -3  143.53   13.74
   5   2  -3  144.03   16.95
   5   2  -2  214.57   18.51
   5   2  -2  252.96   22.41
   5   2  -1  663.64   36.82
   5   2  -1  868.57   46.76
  -5   2   1  623.48   35.74
   5   2  -1  796.40   40.65
   5   2  -1  852.81   45.44
   5   2   0  118.19   12.02
   5   2   0  143.08   17.17
   5   2   0  167.73   18.81
  -5   2   0  149.91   13.99
   5   2   0  149.42   15.08
   5   2   0  171.02   18.48
   5   2   1  125.33   16.01
   5   2   1  138.01   16.99
  -5   2  -1   92.49   11.89
  -5   2  -1  114.50   12.64
   5   2   1  113.58   13.05
   5   2   2   83.20   13.15
   5   2   2   70.78   12.37
   5   2   2   59.70    8.51
  -5   2  -2   61.20    9.32
   5   2   2   70.26   10.10
   5   2   3  145.67   17.83
   5   2   3  126.45   13.58
   5   2   4  449.35   32.97
   5   2   4  582.00   38.83
   5   2   4  440.04   29.14
   5   2   4  598.89   31.47
  -5   2  -4  568.06   30.65
   5   2   5   81.20   10.80
   5   2   5   75.83    8.78
  -5   2  -5   82.84    9.40
   5   2   5   91.46    9.60
   5   2   6   81.41    8.06
   5   2   6   82.16    7.27
   5   3  -8    5.97    1.68
   5   3  -7  241.80   16.16
  -5   3   6   60.65    8.29
   5   3  -6   74.71    9.97
  -5   3   5   90.42   11.14
   5   3  -5  115.31   13.84
   5   3  -4  102.50   11.46
   5   3  -4  135.75   15.11
  -5   3   3   17.04    5.11
   5   3  -3   21.99    5.77
   5   3  -3   18.89    5.87
   5   3  -2  624.65   35.79
  -5   3   2  538.94   33.52
   5   3  -2  668.81   37.31
   5   3  -1   45.31    8.07
   5   3  -1   83.16   12.05
  -5   3   1   55.03    8.04
   5   3  -1   66.47   10.05
   5   3  -1   64.34   11.02
   5   3   0  125.85   12.82
   5   3   0  163.26   17.19
  -5   3   0  142.72   13.06
  -5   3   0  136.99   13.18
   5   3   0  142.62   14.83
   5   3   1  220.88   17.02
   5   3   1  298.18   24.18
   5   3   1  322.36   25.53
  -5   3  -1  265.59   20.72
  -5   3  -1  291.47   20.76
   5   3   1  242.76   20.29
   5   3   2   36.60    8.58
  -5   3  -2   41.98    6.96
   5   3   3  333.75   26.22
   5   3   3  358.50   23.85
   5   3   4  153.03   15.79
   5   3   4  185.60   15.18
  -5   3  -4  211.13   16.71
  -5   3  -5  101.29    9.99
   5   3   5  117.02   10.08
   5   4  -7   16.54    3.57
   5   4  -6  132.71   12.55
  -5   4   6  131.62   11.21
   5   4  -6  153.68   11.59
   5   4  -5   48.68    7.94
   5   4  -5   38.51    5.90
   5   4  -5   56.01    7.76
   5   4  -4  136.29   14.24
   5   4  -4  210.02   16.98
   5   4  -3   28.01    6.64
   5   4  -3   24.92    5.39
   5   4  -3   25.15    6.26
   5   4  -3   26.95    6.40
   5   4  -2  746.19   41.45
   5   4  -2  757.75   40.15
   5   4  -2  776.07   42.87
   5   4  -1  146.69   14.44
   5   4  -1  148.18   15.44
   5   4   0  135.97   13.60
   5   4   0  159.13   15.96
   5   4   0  145.05   14.88
   5   4   1   21.97    4.75
   5   4   1   27.95    6.42
   5   4   2   59.33    9.18
  -5   4  -2   65.41    9.03
   5   4   2   69.57    9.68
   5   4   3  208.31   17.05
   5   4   3  215.47   16.96
   5   4   4  115.90   10.65
  -5   4  -4  120.61   11.89
  -5   4  -5    5.62    1.48
   5   4   5   10.65    2.78
   5   5  -7   70.72    5.91
   5   5  -6  316.05   18.60
  -5   5   6  279.43   18.65
   5   5  -5   28.96    5.83
  -5   5   5   29.31    6.05
   5   5  -5   25.04    5.03
   5   5  -4   54.20    8.00
   5   5  -4   40.86    7.22
   5   5  -3  291.54   21.70
  -5   5   3  284.32   20.93
   5   5  -3  303.31   21.49
   5   5  -3  265.05   21.01
   5   5  -2  104.36   12.14
  -5   5   2   72.23    9.91
   5   5  -2   95.07   11.13
   5   5  -2   86.61   11.38
   5   5  -1  198.45   17.26
   5   5  -1  209.70   17.96
   5   5   0   84.26   10.40
  -5   5   0   74.22    9.17
   5   5   1  155.33   13.97
  -5   5  -1  185.80   17.01
   5   5   1  197.77   16.38
  -5   5  -2   23.17    5.57
   5   5   2   24.57    5.32
  -5   5  -3  148.32   12.98
   5   5   3  184.44   14.11
  -5   5  -3  175.11   15.59
   5   5   4  376.66   20.30
  -5   5  -4  360.67   22.31
  -5   5  -5   89.71    6.96
   5   6  -6   18.22    3.43
   5   6  -5  191.54   13.58
  -5   6   5  164.89   13.53
   5   6  -5  150.33   11.61
   5   6  -4   61.86    8.24
  -5   6   4   47.96    6.98
  -5   6   4   50.01    7.82
   5   6  -4   50.72    7.12
   5   6  -4   40.62    6.66
  -5   6   3   68.15    8.25
  -5   6   3   71.78    9.29
   5   6  -3   67.77    8.88
   5   6  -3   68.53    9.29
   5   6  -2   89.87   11.04
  -5   6   2   87.91    9.89
   5   6  -2   98.58   11.07
   5   6  -2   89.50   10.81
   5   6  -1  216.73   17.45
  -5   6   1  215.72   17.25
   5   6   0   16.54    4.72
  -5   6   0   23.26    4.66
   5   6   0   25.41    5.59
  -5   6  -1   26.66    5.93
   5   6   1   32.24    5.80
  -5   6  -2   82.77    9.86
   5   6   2  104.10    9.87
  -5   6  -3   72.67    6.80
   5   6   3  104.20    8.84
  -5   6  -3  100.90   10.48
  -5   6  -4    3.39    1.10
   5   6   4    1.93    1.21
   5   7  -5   32.36    4.33
   5   7  -4    5.58    2.65
   5   7  -4   11.14    2.61
   5   7  -4    5.00    2.35
   5   7  -3  478.85   25.53
  -5   7   3  416.21   24.95
   5   7  -3  446.02   24.50
   5   7  -3  463.65   25.21
  -5   7   2   36.42    6.35
   5   7  -1    7.29    3.25
  -5   7   1   11.68    3.24
   5   7  -1    9.01    3.19
  -5   7   0  207.58   17.70
   5   7   0  215.90   15.21
  -5   7  -1  275.96   18.79
   5   7   1  272.44   16.85
   5   7   2  109.54    8.72
   5   8  -2  132.29    9.75
   5   8  -1   49.41    5.57
   5   8   0  120.80    8.79
   5   8   1   46.56    4.56
   6  -6  -2  119.27   10.05
   6  -6  -1   71.02   10.59
   6  -6   0   54.52    9.19
   6  -5  -4  366.96   20.76
   6  -5  -3   46.67    7.18
   6  -5  -2   58.63    8.52
   6  -5  -2   60.60   12.12
   6  -5  -1  221.15   17.61
   6  -5  -1  322.37   27.39
   6  -5   0  197.80   14.41
   6  -5   1    2.90    3.07
   6  -5   1    3.75    2.20
   6  -4  -5  115.38    9.88
   6  -4  -4   10.09    3.65
   6  -4  -3   45.85    7.84
   6  -4  -2   96.75   12.01
   6  -4  -1   16.54    4.61
   6  -4  -1   27.52    9.41
   6  -4   0  220.45   25.44
   6  -4   0  255.56   18.90
   6  -4   1   30.99    9.32
   6  -4   1   42.44    7.17
   6  -4   2  130.87   16.00
   6  -4   2  176.19   13.72
   6  -4   3   64.70    6.72
   6  -3  -5  107.72   10.39
   6  -3  -5   82.78    8.61
   6  -3  -4  216.77   17.60
   6  -3  -4  229.85   17.32
   6  -3  -3  125.59   14.13
   6  -3  -3  150.74   14.28
   6  -3  -2  157.36   16.06
   6  -3  -2  231.84   26.41
   6  -3  -1  626.35   46.39
   6  -3  -1  684.18   33.46
   6  -3   0   65.66   14.47
   6  -3   0   55.72    8.49
   6  -3   1   35.40   10.32
   6  -3   1   71.29    9.40
   6  -3   2    8.69    3.76
   6  -3   2    2.34    2.52
   6  -3   3  179.99   13.46
   6  -2  -6   85.59    7.99
   6  -2  -6   81.44    8.12
   6  -2  -5   66.02    8.74
   6  -2  -5   79.14    9.75
   6  -2  -4  135.72   13.75
   6  -2  -4  162.56   15.56
   6  -2  -3   91.74   11.97
   6  -2  -3  127.51   14.32
   6  -2  -2   45.34    8.00
   6  -2  -2   53.91   13.60
   6  -2  -2   77.59   11.36
   6  -2  -1  151.35   22.38
   6  -2  -1  163.80   14.63
   6  -2   0   17.34    9.17
   6  -2   0   25.15    5.81
   6  -2   1  137.40   20.25
   6  -2   1  182.56   16.18
   6  -2   2  157.24   14.85
   6  -2   2  106.28   11.70
   6  -2   3   15.61    4.27
   6  -2   3   10.76    3.38
   6  -1  -6   67.02    6.94
   6  -1  -5   90.33    9.95
   6  -1  -4  339.39   22.65
   6  -1  -2   65.38   15.53
   6  -1  -1  242.41   27.93
   6  -1   0  357.45   33.91
   6  -1   0  387.80   24.69
   6  -1   1  266.19   22.08
   6  -1   1  205.17   16.85
   6  -1   2  175.80   17.13
   6  -1   2  166.16   14.30
   6  -1   3   44.88    7.60
   6  -1   3   29.03    5.14
   6  -1   4  169.83   12.69
   6   0  -6  206.68   15.74
   6   0  -5    7.51    4.02
   6   0  -4    3.18    1.56
   6   0  -4    4.31    3.36
   6   0  -3   23.65    6.82
   6   0  -2  223.11   21.31
   6   0   0  419.28   30.16
   6   0   1   37.14    8.42
   6   0   1   31.37    5.43
   6   0   2  332.50   25.03
   6   0   2  317.65   19.13
   6   0   3    0.70    2.40
   6   0   3   -0.36    1.54
   6   0   4   25.08    4.77
   6   1  -6   49.82    6.06
   6   1  -6   60.86    7.80
   6   1  -5   43.60    6.59
   6   1  -5   63.49    9.38
   6   1  -4  241.39   17.79
   6   1  -4  393.20   25.87
   6   1  -3   17.26    3.74
   6   1  -3   31.39    7.27
   6   1  -2   78.33   11.73
   6   1   0  576.14   35.05
   6   1   0  444.92   26.09
   6   1   1  196.95   15.23
   6   1   2  172.27   16.71
   6   1   2  150.63   12.62
   6   1   3   76.78   10.00
   6   1   3   93.19    8.61
   6   1   4  115.21    9.86
   6   1   4  100.07    7.70
   6   2  -6   54.12    6.23
   6   2  -6   65.31    7.05
   6   2  -5   55.46    7.28
   6   2  -5   73.45    9.21
   6   2  -4   99.59   10.49
   6   2  -4  167.02   15.24
   6   2  -3   97.31   10.09
   6   2  -3  131.34   14.27
   6   2  -2  113.42   13.84
   6   2  -1  124.21   11.62
   6   2   0   24.01    5.29
   6   2   1  231.18   19.44
   6   2   1  190.11   15.29
   6   2   2  106.33   12.24
   6   2   2  106.41   10.29
   6   2   3   12.19    3.74
   6   2   3   19.00    3.84
   6   2   4   34.82    4.11
   6   3  -6  115.81    8.59
   6   3  -5   74.50    7.98
   6   3  -5   86.62    8.13
   6   3  -4  177.70   14.47
   6   3  -4  289.98   18.34
   6   3  -3  102.64   10.43
   6   3  -3  125.88   12.81
   6   3  -2  149.51   12.16
   6   3  -2  157.04   12.52
   6   3  -1  595.90   31.37
   6   3   0   71.50    8.81
   6   3   1   83.32    9.29
   6   3   2   12.56    3.66
   6   3   3  169.62   11.56
   6   4  -5   75.43    7.32
   6   4  -4    5.70    2.43
   6   4  -3   34.11    5.53
   6   4  -2  132.74   10.94
   6   4  -2  112.10   10.58
   6   4  -1   28.99    5.40
   6   4   0  206.41   15.17
   6   4   1   51.96    6.87
   6   4   2  154.35   11.31
   6   5  -4  252.32   14.76
   6   5  -3   37.31    5.66
   6   5  -3   50.42    4.85
   6   5  -2   43.19    5.80
   6   5  -2   53.50    6.22
   6   5  -1  311.82   18.47
   6   5   0  439.74   23.07
   6   6  -1   93.09    7.53
   6   6   0   66.60    6.03
   0   0   0    0.00    0.00


TITL FASAC10 in P2(1)
REM P2(1) (#4 in standard setting)
CELL 1.54184   5.511509   9.715229   8.768101  90.0000  96.8640  90.0000
ZERR    2.00   0.000146   0.000211   0.000197   0.0000   0.0021   0.0000
LATT -1
SYMM -x, y+1/2,-z
SFAC C H O Cl
UNIT 22.00 18.00 4.00 2.00
TREF
HKLF 4
END
_computing_structure_solution     'SHELXT 2018/2 (Sheldrick, 2018)'
;
_shelx_hkl_checksum              91302
_olex2_submission_original_sample_id fasac10
_olex2_submission_special_instructions 'No special instructions were received'
_oxdiff_exptl_absorpt_empirical_details
;
Empirical correction (ABSPACK) includes:
- Absorption correction using spherical harmonics
- Frame scaling
;
_oxdiff_exptl_absorpt_empirical_full_max 2.977
_oxdiff_exptl_absorpt_empirical_full_min 0.530
loop_
_space_group_symop_operation_xyz
'x, y, z'
'-x, y+1/2, -z'
loop_
_atom_site_label
_atom_site_type_symbol
_atom_site_fract_x
_atom_site_fract_y
_atom_site_fract_z
_atom_site_U_iso_or_equiv
_atom_site_adp_type
_atom_site_occupancy
_atom_site_site_symmetry_order
_atom_site_calc_flag
_atom_site_refinement_flags_posn
Cl1 Cl 0.13156(11) 0.28894(6) 1.13758(6) 0.02297(19) Uani 1 1 d .
O1 O 0.8564(3) 0.5620(2) 0.3401(2) 0.0210(4) Uani 1 1 d .
O2 O 0.9814(4) 0.7324(2) 0.5017(2) 0.0249(4) Uani 1 1 d .
C1 C 0.6258(5) 0.4571(3) 0.5917(3) 0.0171(5) Uani 1 1 d .
H1 H 0.784484 0.412210 0.589193 0.021 Uiso 1 1 calc R
C2 C 0.6120(5) 0.6064(3) 0.5328(3) 0.0171(5) Uani 1 1 d .
H2 H 0.514638 0.675775 0.579202 0.021 Uiso 1 1 calc R
C3 C 0.4916(5) 0.4914(3) 0.4364(3) 0.0171(5) Uani 1 1 d .
H3 H 0.313048 0.484750 0.418276 0.021 Uiso 1 1 calc R
C4 C 0.6440(5) 0.4744(3) 0.3049(3) 0.0212(5) Uani 1 1 d .
H4A H 0.693254 0.379175 0.296287 0.025 Uiso 1 1 calc R
H4B H 0.551400 0.502131 0.208766 0.025 Uiso 1 1 calc R
C5 C 0.8317(5) 0.6452(3) 0.4618(3) 0.0184(5) Uani 1 1 d .
C6 C 0.4951(5) 0.4180(3) 0.7240(3) 0.0163(5) Uani 1 1 d .
C7 C 0.2864(5) 0.4863(3) 0.7610(3) 0.0187(5) Uani 1 1 d .
H7 H 0.223331 0.559696 0.700619 0.022 Uiso 1 1 calc R
C8 C 0.1721(5) 0.4460(3) 0.8867(3) 0.0186(5) Uani 1 1 d .
H8 H 0.032926 0.491518 0.910303 0.022 Uiso 1 1 calc R
C9 C 0.2685(5) 0.3368(3) 0.9764(3) 0.0191(5) Uani 1 1 d .
C10 C 0.4742(5) 0.2675(3) 0.9424(3) 0.0197(5) Uani 1 1 d .
H10 H 0.536647 0.194356 1.003384 0.024 Uiso 1 1 calc R
C11 C 0.5868(5) 0.3082(3) 0.8163(3) 0.0182(5) Uani 1 1 d .
H11 H 0.725250 0.261738 0.793034 0.022 Uiso 1 1 calc R
loop_
_atom_site_aniso_label
_atom_site_aniso_U_11
_atom_site_aniso_U_22
_atom_site_aniso_U_33
_atom_site_aniso_U_23
_atom_site_aniso_U_13
_atom_site_aniso_U_12
Cl1 0.0249(4) 0.0260(3) 0.0186(3) 0.0023(2) 0.0055(2) -0.0039(3)
O1 0.0196(11) 0.0242(10) 0.0201(9) -0.0002(7) 0.0064(7) -0.0014(7)
O2 0.0238(11) 0.0236(9) 0.0267(9) 0.0025(8) 0.0013(7) -0.0075(8)
C1 0.0154(13) 0.0167(12) 0.0188(12) 0.0001(9) 0.0006(9) 0.0002(9)
C2 0.0172(14) 0.0148(12) 0.0192(12) 0.0001(9) 0.0014(10) -0.0009(9)
C3 0.0164(13) 0.0161(11) 0.0184(12) -0.0005(9) 0.0003(9) -0.0018(10)
C4 0.0234(14) 0.0215(13) 0.0189(12) -0.0026(10) 0.0036(9) -0.0018(11)
C5 0.0180(13) 0.0177(12) 0.0190(12) 0.0034(9) 0.0001(9) 0.0013(10)
C6 0.0157(13) 0.0167(12) 0.0159(11) -0.0017(9) 0.0001(9) -0.0022(9)
C7 0.0197(13) 0.0160(11) 0.0197(12) 0.0006(9) -0.0001(9) 0.0018(10)
C8 0.0160(13) 0.0188(12) 0.0209(12) -0.0014(9) 0.0019(9) 0.0023(9)
C9 0.0213(15) 0.0209(13) 0.0148(12) -0.0013(9) 0.0016(10) -0.0058(10)
C10 0.0196(13) 0.0172(14) 0.0212(11) 0.0013(10) -0.0015(9) 0.0005(10)
C11 0.0194(14) 0.0167(13) 0.0181(11) -0.0016(10) 0.0006(9) 0.0018(10)
loop_
_atom_type_symbol
_atom_type_description
_atom_type_scat_dispersion_real
_atom_type_scat_dispersion_imag
_atom_type_scat_source
C C 0.0181 0.0091 'International Tables Vol C Tables 4.2.6.8 and 6.1.1.4'
H H 0.0000 0.0000 'International Tables Vol C Tables 4.2.6.8 and 6.1.1.4'
Cl Cl 0.3639 0.7018 'International Tables Vol C Tables 4.2.6.8 and 6.1.1.4'
O O 0.0492 0.0322 'International Tables Vol C Tables 4.2.6.8 and 6.1.1.4'
loop_
_geom_angle_atom_site_label_1
_geom_angle_atom_site_label_2
_geom_angle_atom_site_label_3
_geom_angle
C5 O1 C4 111.3(2)
C2 C1 H1 114.9
C3 C1 H1 114.9
C3 C1 C2 59.26(16)
C6 C1 H1 114.9
C6 C1 C2 119.6(2)
C6 C1 C3 122.0(2)
C1 C2 H2 121.1
C3 C2 C1 59.37(16)
C3 C2 H2 121.1
C5 C2 C1 111.9(2)
C5 C2 H2 121.1
C5 C2 C3 106.4(2)
C1 C3 H3 120.5
C1 C3 C4 114.0(2)
C2 C3 C1 61.37(16)
C2 C3 H3 120.5
C2 C3 C4 105.1(2)
C4 C3 H3 120.5
O1 C4 C3 106.3(2)
O1 C4 H4A 110.5
O1 C4 H4B 110.5
C3 C4 H4A 110.5
C3 C4 H4B 110.5
H4A C4 H4B 108.7
O1 C5 C2 110.1(2)
O2 C5 O1 121.2(2)
O2 C5 C2 128.7(2)
C7 C6 C1 123.2(2)
C11 C6 C1 118.2(2)
C11 C6 C7 118.6(2)
C6 C7 H7 119.6
C8 C7 C6 120.9(2)
C8 C7 H7 119.6
C7 C8 H8 120.5
C9 C8 C7 119.1(2)
C9 C8 H8 120.5
C8 C9 Cl1 119.4(2)
C10 C9 Cl1 119.4(2)
C10 C9 C8 121.2(2)
C9 C10 H10 120.4
C9 C10 C11 119.3(2)
C11 C10 H10 120.4
C6 C11 H11 119.5
C10 C11 C6 120.9(2)
C10 C11 H11 119.5
loop_
_geom_bond_atom_site_label_1
_geom_bond_atom_site_label_2
_geom_bond_distance
Cl1 C9 1.743(3)
O1 C4 1.450(3)
O1 C5 1.358(3)
O2 C5 1.205(3)
C1 H1 0.9800
C1 C2 1.538(3)
C1 C3 1.507(3)
C1 C6 1.486(3)
C2 H2 0.9800
C2 C3 1.506(3)
C2 C5 1.476(4)
C3 H3 0.9800
C3 C4 1.514(4)
C4 H4A 0.9700
C4 H4B 0.9700
C6 C7 1.399(4)
C6 C11 1.397(4)
C7 H7 0.9300
C7 C8 1.390(4)
C8 H8 0.9300
C8 C9 1.388(4)
C9 C10 1.382(4)
C10 H10 0.9300
C10 C11 1.389(4)
C11 H11 0.9300
loop_
_geom_torsion_atom_site_label_1
_geom_torsion_atom_site_label_2
_geom_torsion_atom_site_label_3
_geom_torsion_atom_site_label_4
_geom_torsion
Cl1 C9 C10 C11 -178.30(19)
C1 C2 C3 C4 -109.4(2)
C1 C2 C5 O1 60.4(3)
C1 C2 C5 O2 -116.9(3)
C1 C3 C4 O1 -57.3(3)
C1 C6 C7 C8 -179.6(2)
C1 C6 C11 C10 179.4(2)
C2 C1 C3 C4 94.7(3)
C2 C1 C6 C7 26.8(4)
C2 C1 C6 C11 -152.7(2)
C2 C3 C4 O1 7.7(3)
C3 C1 C2 C5 -96.6(2)
C3 C1 C6 C7 -43.5(4)
C3 C1 C6 C11 137.0(3)
C3 C2 C5 O1 -2.6(3)
C3 C2 C5 O2 -179.9(3)
C4 O1 C5 O2 -174.6(2)
C4 O1 C5 C2 7.9(3)
C5 O1 C4 C3 -9.8(3)
C5 C2 C3 C1 106.1(2)
C5 C2 C3 C4 -3.3(2)
C6 C1 C2 C3 -111.8(3)
C6 C1 C2 C5 151.6(2)
C6 C1 C3 C2 107.8(3)
C6 C1 C3 C4 -157.4(2)
C6 C7 C8 C9 0.3(4)
C7 C6 C11 C10 -0.1(4)
C7 C8 C9 Cl1 178.1(2)
C7 C8 C9 C10 -0.4(4)
C8 C9 C10 C11 0.2(4)
C9 C10 C11 C6 0.1(4)
C11 C6 C7 C8 -0.1(4)
