#------------------------------------------------------------------------------
#$Date: 2019-11-03 13:33:15 +0200 (Sun, 03 Nov 2019) $
#$Revision: 221533 $
#$URL: file:///home/coder/svn-repositories/cod/cif/4/12/84/4128413.cif $
#------------------------------------------------------------------------------
#
# This file is available in the Crystallography Open Database (COD),
# http://www.crystallography.net/
#
# All data on this site have been placed in the public domain by the
# contributors.
#
data_4128413
loop_
_publ_author_name
'von Grotthuss, Esther'
'Prey, Sven E.'
'Bolte, Michael'
'Lerner, Hans-Wolfram'
'Wagner, Matthias'
_publ_section_title
;
 Dual Role of Doubly Reduced Arylboranes as Dihydrogen- and
 Hydride-Transfer Catalysts.
;
_journal_issue                   14
_journal_name_full               'Journal of the American Chemical Society'
_journal_page_first              6082
_journal_page_last               6091
_journal_paper_doi               10.1021/jacs.9b01998
_journal_volume                  141
_journal_year                    2019
_chemical_formula_moiety         'C16 H18 B2'
_chemical_formula_sum            'C16 H18 B2'
_chemical_formula_weight         231.92
_space_group_crystal_system      triclinic
_space_group_IT_number           2
_space_group_name_Hall           '-P 1'
_space_group_name_H-M_alt        'P -1'
_atom_sites_solution_hydrogens   geom
_audit_creation_method           SHELXL-2014/7
_cell_angle_alpha                76.716(9)
_cell_angle_beta                 74.826(9)
_cell_angle_gamma                84.882(9)
_cell_formula_units_Z            1
_cell_length_a                   5.1697(6)
_cell_length_b                   7.5135(9)
_cell_length_c                   9.1628(11)
_cell_measurement_reflns_used    5472
_cell_measurement_temperature    173(2)
_cell_measurement_theta_max      26.68
_cell_measurement_theta_min      4.02
_cell_volume                     334.15(7)
_computing_cell_refinement       'X-Area (Stoe & Cie, 2001)'
_computing_data_collection       'X-Area (Stoe & Cie, 2001)'
_computing_data_reduction        'X-Area (Stoe & Cie, 2001)'
_computing_molecular_graphics    'XP in SHELXTL-Plus (Sheldrick, 2008)'
_computing_publication_material  SHELXL
_computing_structure_refinement  'SHELXL-2014/7 (Sheldrick, 2014)'
_computing_structure_solution    'SHELXS (Sheldrick, 2008)'
_diffrn_ambient_temperature      173(2)
_diffrn_measured_fraction_theta_full 0.997
_diffrn_measured_fraction_theta_max 0.996
_diffrn_measurement_device_type  'STOE IPDS II two-circle-diffractometer'
_diffrn_measurement_method       \w
_diffrn_radiation_type           MoK\a
_diffrn_radiation_wavelength     0.71073
_diffrn_reflns_av_R_equivalents  0.0193
_diffrn_reflns_av_unetI/netI     0.0145
_diffrn_reflns_Laue_measured_fraction_full 0.997
_diffrn_reflns_Laue_measured_fraction_max 0.996
_diffrn_reflns_limit_h_max       6
_diffrn_reflns_limit_h_min       -6
_diffrn_reflns_limit_k_max       9
_diffrn_reflns_limit_k_min       -9
_diffrn_reflns_limit_l_max       11
_diffrn_reflns_limit_l_min       -11
_diffrn_reflns_number            5472
_diffrn_reflns_point_group_measured_fraction_full 0.997
_diffrn_reflns_point_group_measured_fraction_max 0.996
_diffrn_reflns_theta_full        25.000
_diffrn_reflns_theta_max         26.337
_diffrn_reflns_theta_min         4.021
_diffrn_source                   'Genix 3D I\mS microfocus X-ray source'
_exptl_absorpt_coefficient_mu    0.062
_exptl_absorpt_correction_T_max  1.000
_exptl_absorpt_correction_T_min  0.411
_exptl_absorpt_correction_type   multi-scan
_exptl_absorpt_process_details   'X-Area (Stoe & Cie, 2001)'
_exptl_crystal_colour            colourless
_exptl_crystal_density_diffrn    1.153
_exptl_crystal_description       plate
_exptl_crystal_F_000             124
_exptl_crystal_size_max          0.280
_exptl_crystal_size_mid          0.210
_exptl_crystal_size_min          0.050
_refine_diff_density_max         0.265
_refine_diff_density_min         -0.165
_refine_diff_density_rms         0.039
_refine_ls_extinction_method     none
_refine_ls_goodness_of_fit_ref   1.114
_refine_ls_hydrogen_treatment    constr
_refine_ls_matrix_type           full
_refine_ls_number_parameters     82
_refine_ls_number_reflns         1364
_refine_ls_number_restraints     0
_refine_ls_restrained_S_all      1.114
_refine_ls_R_factor_all          0.0534
_refine_ls_R_factor_gt           0.0473
_refine_ls_shift/su_max          0.000
_refine_ls_shift/su_mean         0.000
_refine_ls_structure_factor_coef Fsqd
_refine_ls_weighting_details
'w=1/[\s^2^(Fo^2^)+(0.0663P)^2^+0.1135P] where P=(Fo^2^+2Fc^2^)/3'
_refine_ls_weighting_scheme      calc
_refine_ls_wR_factor_gt          0.1360
_refine_ls_wR_factor_ref         0.1397
_reflns_Friedel_coverage         0.000
_reflns_number_gt                1197
_reflns_number_total             1364
_reflns_threshold_expression     'I > 2\s(I)'
_cod_data_source_file            ja9b01998_si_002.cif
_cod_data_source_block           wa2362
_cod_database_code               4128413
_shelx_shelxl_version_number     2014/7
_shelx_space_group_comment
; 
The symmetry employed for this shelxl refinement is uniquely defined 
by the following loop, which should always be used as a source of 
symmetry information in preference to the above space-group names. 
They are only intended as comments. 
;
_shelx_estimated_absorpt_t_min   0.983
_shelx_estimated_absorpt_t_max   0.997
_shelx_res_file
; 
  
    wa2362.res created by SHELXL-2014/7 
  
  
TITL wa2362 in P-1 
CELL .71073    5.1697   7.5135   9.1628  76.716  74.826  84.882 
ZERR 1         0.0006   0.0009   0.0011   0.009   0.009   0.009 
LATT 1 
SFAC C H B 
UNIT 16 18 2 
TEMP-100 
SIZE .28 .21 .05 
REM colourless plate 
CONF 
ACTA 50 
L.S. 8 
BOND$H 
FMAP 2 
PLAN 10 
WGHT    0.066300    0.113500 
FVAR       2.08827 
B1    3    0.366565    0.410728    0.907358    11.00000    0.02603    0.02758 = 
         0.02879   -0.00991   -0.01054    0.00430 
C1    1    0.594930    0.552298    0.823877    11.00000    0.02803    0.02833 = 
         0.02528   -0.00870   -0.00884    0.00303 
C2    1    0.725609    0.632564    0.910791    11.00000    0.02617    0.02504 = 
         0.02762   -0.00836   -0.00835    0.00210 
C3    1    0.934832    0.752484    0.830296    11.00000    0.03275    0.03031 = 
         0.03304   -0.00869   -0.00979   -0.00306 
AFIX  43 
H3    2    1.023857    0.805887    0.887431    11.00000   -1.20000 
AFIX   0 
C4    1    1.015316    0.795229    0.669213    11.00000    0.03534    0.03305 = 
         0.03454   -0.00281   -0.00512   -0.00545 
AFIX  43 
H4    2    1.157702    0.876358    0.617558    11.00000   -1.20000 
AFIX   0 
C5    1    0.886413    0.718694    0.585105    11.00000    0.04088    0.03973 = 
         0.02480   -0.00420   -0.00597   -0.00129 
AFIX  43 
H5    2    0.939061    0.747621    0.475164    11.00000   -1.20000 
AFIX   0 
C6    1    0.679543    0.599289    0.661858    11.00000    0.03594    0.03788 = 
         0.02695   -0.00909   -0.01120   -0.00116 
AFIX  43 
H6    2    0.592526    0.547768    0.602604    11.00000   -1.20000 
AFIX   0 
C7    1    0.257664    0.300622    0.809510    11.00000    0.03268    0.03689 = 
         0.02873   -0.01144   -0.01098   -0.00378 
AFIX  23 
H7A   2    0.078421    0.253829    0.867759    11.00000   -1.20000 
H7B   2    0.240082    0.382292    0.710854    11.00000   -1.20000 
AFIX   0 
C8    1    0.453564    0.139774    0.776143    11.00000    0.05000    0.04071 = 
         0.05596   -0.02536   -0.01483    0.00011 
AFIX  33 
H8A   2    0.386380    0.071219    0.715412    11.00000   -1.50000 
H8B   2    0.630144    0.186911    0.717633    11.00000   -1.50000 
H8C   2    0.468897    0.058777    0.874137    11.00000   -1.50000 
AFIX   0 
HKLF 4 
  
REM  wa2362 in P-1 
REM R1 =  0.0473 for    1197 Fo > 4sig(Fo)  and  0.0534 for all    1364 data 
REM     82 parameters refined using      0 restraints 
  
END 
  
WGHT      0.0661      0.1138 
  
REM Highest difference peak  0.265,  deepest hole -0.165,  1-sigma level  0.039 
Q1    1   0.4864  0.4783  0.8636  11.00000  0.05    0.27 
Q2    1   0.3038  0.3644  0.8624  11.00000  0.05    0.24 
Q3    1   0.6684  0.6173  0.9979  11.00000  0.05    0.22 
Q4    1   0.6541  0.5916  0.8651  11.00000  0.05    0.22 
Q5    1   0.6356  0.1335  0.7931  11.00000  0.05    0.19 
Q6    1   0.6287  0.5830  0.7480  11.00000  0.05    0.18 
Q7    1   0.8217  0.6721  0.8739  11.00000  0.05    0.16 
Q8    1   0.7360  0.6984  0.6227  11.00000  0.05    0.15 
Q9    1   0.9237  0.8247  0.7421  11.00000  0.05    0.13 
Q10   1   0.9297  0.7639  0.6368  11.00000  0.05    0.12 
;
_shelx_res_checksum              91517
_shelx_hkl_file
; 
  -2   1  -9   25.53    1.96   0 
  -1   0  -9    4.67    2.02   0 
  -1   6   6   51.27    2.01   0 
   0  -1  -7    0.33    1.73   0 
   0  -1  -4  152.08    3.06   0 
   4   4   8  114.41    2.71   0 
  -4   6  -2    0.67    2.44   0 
  -3   2  -8   17.17    2.20   0 
  -3   4   0  175.00    3.58   0 
  -3   5   1    0.41    1.95   0 
   0   1   2  637.61    7.37   0 
   0   6   7   20.02    1.66   0 
   1   6   8   13.09    1.63   0 
   2  -1  -9   10.64    2.24   0 
   3  -1  -8   -0.76    1.68   0 
   4  -1  -1   41.46    2.44   0 
   6   0  -1   30.66    2.40   0 
   6   3   6   29.63    3.69   0 
  -2   1 -10    2.91    2.12   0 
  -2   6   4   13.43    1.64   0 
  -1   5   5   12.79    1.61   0 
   0  -1  -8    9.76    1.58   0 
   1  -1  -9   16.11    1.75   0 
   2   5   8    1.25    1.42   0 
   3   6   9    3.95    1.75   0 
  -3   2  -9    9.92    2.16   0 
  -3   7   2    8.30    1.75   0 
  -1   0 -10    9.79    1.83   0 
  -1   0  -2 1120.77   13.61   0 
  -1   4   4   -0.13    1.47   0 
  -1   7   6    1.93    1.63   0 
   0  -1  -9    9.05    1.92   0 
   0  -1  -3 1048.18    7.66   0 
   1   1   3  722.78    7.29   0 
   3   1   4  466.56    7.09   0 
   4   1   4   20.57    3.55   0 
   5  -1  -4    2.48    1.75   0 
   5  -1  -3    0.71    2.07   0 
  -4   5  -4    1.97    2.82   0 
  -2   3   1  178.46    3.52   0 
  -2   5   3    6.68    1.58   0 
  -2   7   4    2.23    1.94   0 
   0   5   6   26.18    1.78   0 
   0   7   7    3.97    1.77   0 
   1  -1 -10    1.96    1.66   0 
   1   5   7  256.49    3.09   0 
   1   7   8    0.19    1.62   0 
   2   3   6   17.91    1.98   0 
   3  -1   0   72.76    2.89   0 
   6   0   0   27.90    2.47   0 
  -3   6   1   93.83    2.93   0 
  -2   4   2   49.24    1.96   0 
  -1   0 -11    4.03    2.24   0 
   2  -2  -6    1.96    1.46   0 
   2  -2  -5   49.73    1.88   0 
   3   5   8   23.09    1.86   0 
  -4   6  -3    1.06    2.50   0 
  -2   0  -8    4.98    2.04   0 
  -2   0  -7  341.55    4.10   0 
  -2   8   4   -1.53    1.69   0 
  -1  -1  -7   33.51    2.08   0 
  -1   6   5   44.35    1.94   0 
   0   4   5   19.35    1.65   0 
   0   8   7    0.98    1.74   0 
   1  -2  -6   82.75    2.43   0 
   1  -1  -1 2146.24   12.86   0 
   1   4   6    1.15    1.38   0 
   2  -2  -8   25.02    2.19   0 
   2  -2  -4   47.26    1.91   0 
   3  -2  -7    2.48    1.93   0 
   3  -2  -6   82.78    2.14   0 
   3  -2  -5   11.78    1.53   0 
   3  -2  -4  115.89    2.46   0 
   4  -1   0  227.02    4.05   0 
  -3   5   0  765.24    6.17   0 
  -2   0  -9   17.48    2.18   0 
  -1  -1  -8    0.95    1.49   0 
  -1  -1  -6   74.55    2.27   0 
   0   2   3  100.56    2.84   0 
   1  -2  -8  190.42    2.64   0 
   1  -2  -5    3.39    1.57   0 
   1   2   4   70.62    2.43   0 
   2  -1   0  529.56    7.18   0 
   3  -2  -8    0.52    1.98   0 
   3   4   7    7.79    2.03   0 
   4   5   8   26.65    1.96   0 
   5  -1  -1    1.62    1.95   0 
   5   2   5   28.10    3.44   0 
  -3   4  -1 1132.87    8.41   0 
  -3   7   1   37.02    2.43   0 
  -2   6   3    2.88    1.55   0 
  -1  -1  -9    7.34    1.66   0 
  -1  -1  -5  256.29    3.86   0 
  -1   7   5   11.25    1.90   0 
   0   6   6   92.67    2.17   0 
   1  -2  -9    7.30    1.65   0 
   1   6   7    0.90    1.50   0 
   2  -2  -9    2.33    1.74   0 
   2  -2  -3  765.79    5.57   0 
   3  -2  -3   22.69    1.77   0 
   4  -2  -6   49.56    2.04   0 
   4  -2  -5  112.76    2.51   0 
   4  -2  -4  309.54    3.79   0 
   5   0   2  193.14    5.85   0 
   5   4   7    4.23    2.22   0 
  -2   0 -10   56.42    2.10   0 
  -2   0  -5   47.59    2.45   0 
  -1  -1 -10   64.91    2.19   0 
  -1   5   4    7.85    1.52   0 
   1  -2  -4 1126.57    6.28   0 
   2   5   7   14.94    1.67   0 
   2   7   8   92.20    2.24   0 
   3   2   5    4.59    1.91   0 
   3   6   8   51.67    2.41   0 
   4   4   7   18.71    2.16   0 
   6   0   1   21.40    3.08   0 
  -2   7   3   58.42    2.19   0 
  -1   8   5    4.04    1.67   0 
   0  -2  -8    9.13    1.63   0 
   0  -2  -7   19.22    1.67   0 
   0   7   6   -0.04    1.58   0 
   1   7   7    6.97    2.01   0 
   4  -2  -3   18.87    1.69   0 
   5   3   6   11.51    2.43   0 
  -4   5  -5   19.64    3.72   0 
  -4   6  -4   33.16    3.35   0 
  -3   1  -9   26.01    2.61   0 
  -3   1  -8    8.12    2.03   0 
  -3   6   0  249.30    3.85   0 
  -2   0 -11   62.37    2.39   0 
  -2   5   2    8.91    1.61   0 
  -2   8   3  141.76    2.65   0 
  -1  -1 -11    1.46    1.76   0 
   0  -2  -9   -0.92    1.62   0 
   0  -2  -6    3.21    1.54   0 
   0   5   5  305.06    3.24   0 
   1   5   6   -0.12    1.50   0 
   3  -2  -2   31.66    2.16   0 
   4   2   5    9.52    2.21   0 
   4   3   6   68.18    2.58   0 
   4   6   8    9.55    2.22   0 
   5  -1   0   34.18    2.67   0 
  -1   6   4   15.81    1.61   0 
   0  -2 -10   -0.14    1.57   0 
   1   8   7  127.24    2.39   0 
   2   4   6   11.99    1.90   0 
   3   7   8   16.36    2.04   0 
   4  -2  -2   98.05    2.73   0 
   5  -2  -4   50.84    2.59   0 
  -3   1 -10    4.55    2.07   0 
  -3   7   0   25.34    2.25   0 
  -1  -1  -4   82.04    2.61   0 
  -1   3   2  491.00    4.91   0 
   0  -2 -11    0.09    1.54   0 
   1  -2  -3  103.58    2.54   0 
   2  -2  -2   85.30    2.57   0 
   2   6   7   23.20    1.70   0 
   5  -2  -3   88.81    2.75   0 
  -2   2  -1 1096.75   10.24   0 
  -2   6   2   19.05    1.61   0 
  -1   2   1 1212.06    8.58   0 
  -1   7   4   45.87    2.07   0 
   0   4   4   62.89    2.32   0 
   2  -3  -7  192.62    2.62   0 
   2  -3  -6    1.72    1.47   0 
   3  -3  -8    1.34    1.64   0 
   3  -3  -7   35.78    1.85   0 
   3  -3  -6    0.36    1.40   0 
  -3   1  -6   37.08    2.82   0 
  -3   5  -1  125.88    3.07   0 
  -2  -1  -9  254.90    3.41   0 
  -1  -2  -9   16.67    1.89   0 
  -1   8   4    3.44    2.04   0 
   0   6   5   14.68    1.62   0 
   1  -3  -9    0.92    1.57   0 
   1  -3  -8   10.60    1.56   0 
   1  -3  -7    7.75    1.51   0 
   1   4   5   35.43    1.74   0 
   2   3   5    1.31    1.46   0 
   4   5   7    9.06    2.06   0 
  -2  -1 -10   22.30    1.83   0 
  -2  -1  -8   68.57    2.21   0 
  -2   7   2   30.20    1.93   0 
  -2   8   2   16.49    2.14   0 
  -1  -2  -8   86.13    2.14   0 
  -1  -2  -7  999.81    5.68   0 
  -1   5   3  328.04    3.48   0 
   0  -2  -4    4.10    1.67   0 
   1  -3 -10    6.90    1.71   0 
   1  -3  -6   58.26    1.86   0 
   2  -3  -5  116.93    2.27   0 
   4  -3  -6    3.31    1.74   0 
   5  -2  -2    0.44    1.94   0 
   5   5   7    4.65    1.91   0 
  -2  -1 -11   71.11    2.31   0 
  -2  -1  -7 2218.54    9.26   0 
  -2   0  -4  261.33    5.26   0 
  -1  -2 -11   54.22    2.05   0 
   0   7   5   95.75    2.15   0 
   1   7   6   18.72    1.72   0 
   2   2   4 1272.40    8.03   0 
   2   5   6  102.71    2.41   0 
   2   8   7   57.94    2.04   0 
   3  -3  -4    3.20    1.50   0 
   3  -2  -1   16.12    1.97   0 
   3   4   6   43.97    2.25   0 
   3   6   7   15.06    1.76   0 
   4  -3  -5  196.23    2.90   0 
   4  -1   1    2.28    2.31   0 
  -3   4  -2    0.69    1.84   0 
  -3   6  -1   18.20    2.11   0 
  -2   5   1  468.91    4.47   0 
   0  -3 -10   96.19    2.50   0 
   0  -3  -9   11.54    1.57   0 
   0  -3  -8    1.36    1.52   0 
   0   8   5    4.77    1.55   0 
   0   9   5    6.37    1.63   0 
   1  -3  -5  195.22    2.89   0 
   1   3   4   84.43    2.38   0 
   1   8   6    8.50    1.58   0 
   2   1   3 1378.85   10.70   0 
   4  -3  -4    0.76    2.00   0 
   4  -2  -1  187.41    3.43   0 
  -3   7  -1   11.52    1.99   0 
  -1   6   3  386.32    3.54   0 
   0  -3  -7   71.48    2.01   0 
   1   5   5    5.14    1.73   0 
   3  -1   1  149.39    4.58   0 
   3   7   7   -1.55    1.53   0 
   4   6   7    9.91    1.95   0 
   6   3   5   20.97    2.98   0 
  -4   3  -8    2.76    4.30   0 
  -3   0 -10   24.02    2.11   0 
  -3   0  -9  107.68    2.86   0 
  -3   3  -3   22.11    2.60   0 
  -2  -1  -6   63.16    2.40   0 
  -1   9   3   22.57    2.19   0 
   1  -2  -2  357.30    4.33   0 
   3   8   7    1.10    1.92   0 
   5   4   6    7.23    1.96   0 
   6  -1   0    1.20    2.33   0 
  -3   0  -8  612.30    5.62   0 
  -2   6   1    1.44    1.43   0 
  -1   7   3   23.65    1.59   0 
  -1   8   3    7.24    1.49   0 
   0  -3  -6  198.71    2.66   0 
   0   2   2  117.86    3.29   0 
   2  -4  -9    2.86    1.55   0 
   2  -4  -8   10.22    1.65   0 
   2  -2  -1   32.26    2.23   0 
   2   6   6   84.34    2.09   0 
   3   3   5   22.13    1.97   0 
   4  -3  -3    1.07    1.89   0 
   4   7   7    1.56    1.99   0 
   5  -2  -1    0.43    2.08   0 
   6   2   4    0.07    3.15   0 
  -2   7   1    1.13    1.62   0 
  -2   8   1   12.40    1.67   0 
  -1  -1  -3  771.52    7.26   0 
   0   6   4   -0.22    1.39   0 
   1  -3  -4    7.92    1.57   0 
   1   2   3 2299.82   10.39   0 
   1   6   5  117.05    2.18   0 
   2  -4  -7    0.37    1.51   0 
   2  -3  -3  321.83    3.62   0 
   2   4   5  158.48    2.55   0 
   2   7   6   38.54    1.71   0 
   3  -4  -7   82.04    2.12   0 
   3   5   6   -0.16    1.44   0 
   5  -1   1   15.43    3.05   0 
  -3   5  -2    0.06    1.77   0 
  -2  -2 -11   13.01    1.97   0 
  -2  -2 -10    2.11    1.57   0 
  -2  -2  -9   90.58    2.45   0 
  -2   4   0 1300.10    7.63   0 
  -1  -3 -10    7.92    1.46   0 
  -1  -3  -9  172.94    2.52   0 
  -1  -2  -5    5.46    1.65   0 
   0  -2  -3   96.41    2.64   0 
   0   7   4   -1.65    1.44   0 
   0   8   4    5.26    1.84   0 
   0   9   4    9.56    1.61   0 
   1  -4 -10   33.56    1.83   0 
   1  -4  -8   29.29    1.66   0 
   2  -4  -6    2.50    1.79   0 
   2   8   6    1.17    1.51   0 
   3  -4  -6   16.41    1.59   0 
  -3   0  -7  609.66    6.14   0 
  -3   6  -2    2.65    2.08   0 
  -3   7  -2    3.90    2.01   0 
  -1  -3  -8  159.22    2.51   0 
   0  -3  -5   16.58    1.77   0 
   0   4   3  761.53    4.96   0 
   1  -4  -7   22.96    1.62   0 
   1   7   5   37.93    1.71   0 
   1   8   5    5.26    1.59   0 
   1   9   5    6.63    1.55   0 
   4   3   5  128.27    3.17   0 
   5  -3  -3   26.42    2.27   0 
   5   3   5   14.59    2.22   0 
  -2  -2  -8  380.56    3.78   0 
  -1   5   2   45.46    1.78   0 
  -1   9   2    9.22    2.03   0 
   0  -4  -9  127.31    2.49   0 
   1   4   4  511.10    4.11   0 
   3  -4  -5   12.61    1.47   0 
   3   6   6    8.32    1.51   0 
   4   5   6    8.04    1.63   0 
   5   5   6  145.55    3.10   0 
  -2  -1  -5   21.52    1.98   0 
  -1  -3  -7 1209.03    5.74   0 
  -1   3   1  779.70    5.95   0 
   1  -4  -6   18.73    1.55   0 
   1   1   2   95.04    3.52   0 
   2  -4  -5  161.43    2.45   0 
   2   5   5   -0.49    1.28   0 
   3  -3  -2   44.59    1.95   0 
   3   2   4   99.76    2.83   0 
   3   7   6   11.94    1.77   0 
   4  -4  -5    0.84    1.53   0 
   4  -3  -2    6.51    1.83   0 
  -4   2  -9   55.80    4.10   0 
  -3  -1 -11   15.04    1.82   0 
  -3  -1 -10    4.46    1.89   0 
  -3   1  -5    0.99    2.77   0 
  -2  -2  -7  177.55    3.03   0 
  -2   5   0   19.57    1.72   0 
  -2   8   0    5.06    1.51   0 
  -1   6   2  139.89    2.36   0 
  -1   7   2   17.10    1.51   0 
  -1   8   2    2.59    1.35   0 
   3   8   6   84.91    2.14   0 
   4  -2   0  461.16    5.47   0 
  -3  -1  -9    6.64    1.78   0 
  -2   6   0   14.25    1.92   0 
  -2   7   0    1.40    1.54   0 
   0  -4  -7 1328.29    5.75   0 
   0   5   3  939.50    5.19   0 
   1  -3  -3  212.35    3.06   0 
   1   5   4    8.79    1.39   0 
   2   3   4    7.77    1.64   0 
   3  -4  -4    1.53    1.43   0 
   3   4   5   62.09    2.04   0 
   4  -4  -4    6.92    1.83   0 
   5   6   6  131.31    3.03   0 
  -3   4  -3   19.21    2.22   0 
  -2  -3 -11    4.10    1.98   0 
  -2   3  -1 1423.69    8.94   0 
  -1  -4 -11    0.84    1.93   0 
  -1  -3  -6    1.09    1.70   0 
  -1  -2  -4   69.21    2.56   0 
   0   6   3   52.48    2.06   0 
   1   9   4   78.62    2.08   0 
   2  -5  -8    1.81    1.50   0 
   2  -4  -4  208.32    2.86   0 
   2   7   5    8.44    1.53   0 
   2   8   5   15.63    1.57   0 
   3  -2   0   39.00    2.27   0 
   4   7   6   92.05    2.23   0 
   5  -3  -2    3.88    1.80   0 
   6   4   5    1.77    1.88   0 
  -3   7  -3    3.18    1.88   0 
  -2  -3 -10    1.05    1.53   0 
  -1  -4 -10    2.33    1.50   0 
   0  -3  -4  127.24    2.37   0 
   0   7   3   90.88    2.09   0 
   1  -5  -9    4.19    1.69   0 
   1   6   4  112.27    2.18   0 
   1   8   4    6.66    1.54   0 
   2  -5  -7    7.31    1.46   0 
   3  -5  -7   30.47    1.85   0 
   4   2   4    2.71    1.94   0 
   5  -2   0   55.86    2.76   0 
   5   2   4  150.32    4.10   0 
  -3   5  -3    5.65    1.94   0 
  -3   6  -3    7.55    2.21   0 
  -2  -3  -9   37.52    1.74   0 
  -1  -4  -9   49.57    1.66   0 
  -1   4   1    3.24    1.86   0 
   0   3   2  297.63    3.66   0 
   1  -5  -8   89.14    2.03   0 
   1   3   3 2113.76    8.70   0 
   1   7   4  137.13    2.23   0 
   3  -5  -6    6.06    1.83   0 
   3   5   5    7.78    1.61   0 
   4   4   5   28.19    2.00   0 
   5   4   5   -0.69    1.75   0 
  -3   0  -6   16.21    2.20   0 
  -2  -2  -6   28.41    1.92   0 
  -2   8  -1   80.81    2.54   0 
  -1  -4  -8  386.95    3.49   0 
   0  -5 -10    9.89    1.55   0 
   1  -5  -7  140.63    2.23   0 
   2  -5  -6    3.15    1.45   0 
   3   1   3   17.28    2.50   0 
   4  -4  -3    7.58    1.87   0 
   6  -1   1   13.18    3.36   0 
  -3  -2 -11   10.74    1.71   0 
  -2  -3  -8  200.42    2.96   0 
   2   4   4   63.81    1.89   0 
   3   6   5   11.40    1.37   0 
   3   7   5    0.85    1.69   0 
   3   8   5   25.39    1.66   0 
   4  -3  -1   21.41    1.90   0 
  -3  -2 -10    1.97    1.43   0 
  -2   4  -1    0.95    1.77   0 
  -1  -3  -5  192.57    3.00   0 
  -1   5   1   50.80    1.77   0 
  -1   6   1   11.51    1.66   0 
  -1   7   1    8.36    1.38   0 
   0  -5  -8   54.56    1.79   0 
   0  -2  -2  117.18    3.25   0 
   1  -4  -4    1.71    1.39   0 
   1   9   3  134.92    2.51   0 
   2   9   4    0.01    1.46   0 
   3  -5  -5    0.10    1.37   0 
   4   5   5   20.50    1.88   0 
  -3  -1  -7   -0.60    1.92   0 
  -2   6  -1    2.68    1.70   0 
  -1  -4  -7   52.42    1.79   0 
   0  -4  -5   19.82    1.49   0 
   0   4   2    5.67    1.80   0 
   0   8   2  169.64    2.48   0 
   1  -5  -6  542.06    3.80   0 
   2  -5  -5   77.10    1.90   0 
   2  -4  -3   89.03    2.05   0 
   2   8   4  166.43    2.72   0 
   3   3   4  118.43    2.72   0 
   4  -5  -5    1.30    1.51   0 
   4   6   5   40.68    2.21   0 
   5  -4  -3    8.61    1.98   0 
   5   5   5   13.03    1.57   0 
  -4   1  -9    2.62    2.70   0 
  -3  -2  -9   43.73    1.81   0 
  -2  -4 -11   16.48    1.68   0 
  -2   5  -1  162.06    2.80   0 
  -1  -5 -10    4.79    1.87   0 
   0  -5  -7  334.95    3.28   0 
   1  -3  -2  504.02    4.61   0 
   1   4   3    3.24    1.36   0 
   1   8   3  223.89    2.71   0 
   2   5   4    4.92    1.29   0 
   2   6   4   48.56    1.92   0 
   2   7   4    3.80    1.40   0 
   4   7   5   33.08    1.72   0 
   5  -3  -1    3.30    1.81   0 
   5   6   5   15.56    1.98   0 
   6   3   4    2.76    2.12   0 
  -2  -4 -10   10.29    1.54   0 
  -2  -3  -7  196.36    2.82   0 
  -2   8  -2    2.19    1.84   0 
   0  -3  -3    8.96    1.90   0 
   0   5   2   -0.78    1.32   0 
   0   6   2   13.90    1.69   0 
   0   7   2   37.34    1.61   0 
   1   7   3   86.10    2.19   0 
   6  -2   0    1.73    2.55   0 
  -3   6  -4   17.34    1.91   0 
  -2  -4  -9    1.74    1.67   0 
  -2  -1  -4  351.18    4.78   0 
  -1  -5  -9   68.74    1.81   0 
  -1   8   0   52.66    1.90   0 
   0   9   1    1.68    1.90   0 
   1  -6  -8   -1.27    1.47   0 
   1   5   3   24.55    1.53   0 
   2  -6  -7    1.81    1.38   0 
   3  -5  -4  165.55    2.53   0 
   4  -5  -4    0.23    1.45   0 
   4  -4  -2   11.45    1.83   0 
  -4   0 -10    4.18    2.27   0 
  -3  -3 -11    2.63    1.48   0 
  -3  -2  -8   26.65    1.90   0 
  -2  -2  -5  375.19    4.23   0 
  -1  -4  -6    0.20    1.18   0 
   2  -3  -1  184.71    3.17   0 
   2   9   3    5.74    1.46   0 
   3  -6  -6    4.10    1.83   0 
   3  -4  -2    3.38    1.41   0 
   3   8   4    0.55    1.39   0 
   4   3   4    3.00    1.75   0 
   5   3   4   68.04    2.68   0 
  -3  -3 -10  112.74    2.61   0 
  -3   5  -4  229.72    3.92   0 
  -2   0  -3  199.65    5.85   0 
  -2   7  -2   20.28    1.94   0 
  -1  -5  -8   20.10    1.44   0 
  -1  -2  -3 2251.62   10.15   0 
  -1   7   0  193.52    2.67   0 
   0  -6  -9   10.95    1.53   0 
   0  -5  -6   25.04    1.59   0 
   1  -6  -7  385.22    3.28   0 
   1  -4  -3  197.77    2.71   0 
   1   9   2   55.83    1.86   0 
   2  -6  -6   50.88    2.05   0 
   3   7   4    4.84    1.33   0 
   4   1   3    3.12    2.11   0 
   5  -4  -2   11.47    1.84   0 
   6   4   4   12.51    2.31   0 
  -3   4  -4  110.57    3.19   0 
  -2  -4  -8   10.53    1.36   0 
  -1   3   0  491.91    4.99   0 
   0  -6  -8  326.09    3.32   0 
   0  -4  -4   65.12    1.92   0 
   0   2   1 1811.45   10.06   0 
   0   8   1   74.05    1.93   0 
   1   2   2    7.34    1.86   0 
   2   8   3   19.14    1.66   0 
   3   5   4    7.46    1.45   0 
   3   6   4  184.44    2.51   0 
  -4   3  -8    2.58    3.73   0 
  -2  -3  -6   16.89    1.42   0 
  -1  -3  -4   79.51    2.15   0 
  -1  -1  -2   96.84    3.69   0 
   1   8   2   64.78    1.88   0 
   2   3   3  138.74    2.67   0 
   3  -6  -5   39.56    2.10   0 
   4   4   4   56.29    2.23   0 
   4   7   4    0.27    1.72   0 
  -4   0  -9    9.97    2.42   0 
  -3  -3  -9   -0.07    1.39   0 
  -2  -5 -10  106.31    2.08   0 
  -2   6  -2   64.58    2.01   0 
  -1  -6 -10   76.58    1.94   0 
  -1  -5  -7  245.05    2.70   0 
  -1   4   0  858.68    5.61   0 
  -1   5   0    4.48    1.29   0 
  -1   8  -1    0.99    1.41   0 
   0   7   1   10.78    1.41   0 
   0   9   0    3.27    1.36   0 
   1  -6  -6   49.14    1.75   0 
   1  -5  -4    6.91    1.61   0 
   2   7   3  318.67    2.96   0 
   3  -5  -3   36.04    1.73   0 
   4   5   4   95.94    2.37   0 
   4   6   4    1.58    1.79   0 
   5   4   4   16.50    1.90   0 
  -3  -2  -7  199.33    3.18   0 
  -3  -1  -6   60.87    2.49   0 
  -3   6  -5    3.93    1.70   0 
  -1  -4  -5   36.58    1.60   0 
   0  -6  -7   18.37    1.44   0 
   0  -5  -5  307.73    2.97   0 
   1   7   2  914.88    4.73   0 
   1   9   1    7.80    1.41   0 
   2  -6  -5   -0.07    1.24   0 
   2   6   3  864.07    4.78   0 
   5   5   4   17.99    1.90   0 
   5   6   4   11.84    1.60   0 
  -4  -1 -10    8.28    2.11   0 
  -2  -5  -9    1.16    1.37   0 
  -2  -4  -7   12.73    1.37   0 
  -2   5  -2   34.82    1.79   0 
  -2   7  -3    0.21    1.70   0 
   0   6   1  145.82    2.21   0 
   1  -7  -8   92.08    2.03   0 
   2  -5  -3    7.52    1.37   0 
   2   4   3   57.66    1.83   0 
   2   5   3   17.66    1.33   0 
   3   2   3   23.63    1.85   0 
   3   8   3    3.03    1.37   0 
   4  -3   0    1.08    1.74   0 
   6   2   3   87.51    3.18   0 
  -3  -4 -10  134.88    2.70   0 
  -3  -3  -8   12.45    1.62   0 
  -2   4  -2  101.79    2.56   0 
  -1   7  -1   22.55    1.56   0 
   0   8   0    4.51    1.27   0 
   1   3   2   25.88    1.75   0 
   4  -2   1    0.86    1.95   0 
  -1  -6  -8   10.20    1.36   0 
  -1  -5  -6    0.42    1.25   0 
   1  -7  -7  146.48    2.25   0 
   1   4   2   58.09    2.01   0 
   1   5   2   38.94    1.53   0 
   1   8   1   -1.46    1.58   0 
   3  -6  -4   34.83    1.68   0 
   3   7   3  127.12    2.20   0 
   5  -3   0  144.86    3.64   0 
  -3   0  -5   24.70    2.91   0 
  -3   5  -5   55.43    2.60   0 
  -2  -5  -8    4.03    1.27   0 
  -1   8  -2   -0.17    1.37   0 
   0  -7  -8    9.07    1.50   0 
   2  -7  -6  190.89    2.54   0 
   2  -6  -4   13.51    1.69   0 
   3  -4  -1  122.20    2.47   0 
   5  -2   1    6.20    2.70   0 
  -4  -1  -9    1.79    1.98   0 
  -3  -4  -9    4.43    1.51   0 
  -2  -6 -10  141.40    2.43   0 
  -2  -3  -5    2.96    1.28   0 
  -2   6  -3   -0.13    1.62   0 
  -1   6  -1  143.31    2.30   0 
   0  -4  -3  772.15    4.72   0 
   0  -3  -2  307.30    3.56   0 
   0   7   0   76.55    2.13   0 
   1  -4  -2  113.83    2.29   0 
   1  -3  -1  778.73    5.68   0 
   3  -5  -2    5.40    1.60   0 
   3   3   3   86.68    2.37   0 
   3   6   3   33.45    1.55   0 
   4  -5  -2    0.12    1.57   0 
   4   7   3   -0.52    1.28   0 
   5  -4  -1   59.94    2.38   0 
   6   3   3    3.84    1.93   0 
  -4  -2 -10   83.87    2.55   0 
  -2  -4  -6   12.83    1.41   0 
  -2  -2  -4 1232.35    7.47   0 
  -2   7  -4    1.36    1.83   0 
  -1  -6  -7    2.79    1.27   0 
   0  -5  -4  150.81    2.26   0 
   1  -7  -6    3.28    1.63   0 
   1  -5  -3  320.61    3.04   0 
   1   7   1   21.93    1.72   0 
   2   1   2  355.36    5.51   0 
   2   7   2    5.06    1.29   0 
   3   4   3  812.67    5.03   0 
   3   5   3  711.80    4.42   0 
   4   2   3  289.89    4.04   0 
   5   2   3  365.27    4.93   0 
   6   4   3   10.95    1.87   0 
  -2  -6  -9    1.83    1.34   0 
  -1  -7  -9   57.06    1.80   0 
  -1  -4  -4  498.57    3.85   0 
   0  -7  -7    5.48    1.38   0 
   0   8  -1   10.22    1.32   0 
   3  -2   1  173.54    4.31   0 
   4   6   3    6.45    1.42   0 
   5   6   3    2.81    1.37   0 
  -4   0  -8    6.50    2.66   0 
  -3  -5 -10    4.15    1.43   0 
  -3  -3  -7    9.23    1.48   0 
  -3  -2  -6    6.70    1.80   0 
  -3   4  -5   46.30    2.49   0 
  -2  -5  -7   16.40    1.37   0 
  -1  -5  -5    4.01    1.26   0 
  -1   5  -1  200.73    2.64   0 
  -1   7  -2   29.90    1.68   0 
  -1   8  -3   20.54    1.64   0 
   0  -6  -5   16.38    1.42   0 
   1  -6  -4   14.86    1.45   0 
   1   8   0   22.77    1.73   0 
   2  -5  -2    7.69    1.62   0 
   2  -4  -1   55.38    2.13   0 
   2   6   2  486.99    3.55   0 
   2   8   1    4.98    1.42   0 
   3  -6  -3    5.02    1.52   0 
   4  -6  -3   51.55    1.89   0 
   4   5   3  200.86    2.88   0 
   5   5   3    1.81    1.62   0 
  -3  -4  -8   12.57    1.44   0 
  -2   5  -3    0.78    1.67   0 
  -1  -7  -8    0.11    1.27   0 
   0  -2  -1 1757.02    9.72   0 
   0   6   0  165.60    2.33   0 
   1   6   1    2.32    1.56   0 
   3   0   2   48.11    3.94   0 
   3   7   2    9.09    1.36   0 
   4   3   3 1678.10    8.05   0 
   4   4   3  123.96    2.60   0 
   5   3   3   12.33    1.69   0 
   5   4   3  136.43    2.76   0 
  -4  -2  -9   10.84    2.05   0 
  -2  -6  -8   30.19    1.54   0 
  -1  -6  -6  144.87    2.19   0 
   2  -6  -3    1.76    1.37   0 
   2   5   2  801.20    4.49   0 
  -3  -5  -9   14.88    1.55   0 
  -3   5  -6   13.03    1.95   0 
  -2   6  -4   47.77    2.10   0 
  -1   4  -1    0.97    1.43   0 
   0  -7  -6    1.42    1.25   0 
   0   7  -1   19.99    1.46   0 
   0   8  -2   46.37    1.93   0 
   3  -7  -4    9.64    1.53   0 
   4   7   2   44.64    1.65   0 
  -2  -4  -5  153.45    2.51   0 
  -1   6  -2   27.93    1.57   0 
   0   5   0  128.80    2.25   0 
   1   5   1   18.08    1.39   0 
   1   7   0   11.32    1.36   0 
   2  -7  -4   -1.19    1.34   0 
   2   2   2   69.84    2.50   0 
   2   7   1    7.97    1.31   0 
  -4  -1  -8   39.12    2.50   0 
  -3   3  -5    1.49    1.79   0 
  -2  -7  -9    0.74    1.33   0 
  -2  -5  -6  103.50    2.00   0 
  -2   4  -3   71.62    2.27   0 
  -1  -2  -2    3.97    1.72   0 
  -1   7  -3    5.70    1.35   0 
   0  -5  -3  912.57    4.91   0 
   1  -8  -6    3.52    1.68   0 
   1   8  -1   90.05    1.92   0 
   2   8   0    1.66    1.45   0 
   4  -5  -1    6.91    1.70   0 
   5   6   2   48.25    2.13   0 
  -3  -5  -8   23.86    1.85   0 
  -3  -4  -7    7.65    1.43   0 
  -3  -1  -5    2.34    1.89   0 
  -2  -6  -7   20.60    1.54   0 
  -2  -3  -4    8.81    1.79   0 
  -2  -1  -3 1335.86    9.80   0 
   0  -8  -7    3.47    1.38   0 
   0  -6  -4    1.01    1.25   0 
   0  -4  -2    6.62    1.44   0 
   1  -5  -2   47.03    1.65   0 
   3  -6  -2   22.31    1.93   0 
   3  -5  -1    0.98    1.69   0 
   3   5   2    2.05    1.54   0 
   4  -6  -2   16.28    1.96   0 
   4  -4   0   16.00    2.17   0 
   6   1   2    1.37    2.23   0 
  -4  -4 -10   13.41    1.97   0 
  -4  -3  -9    7.00    1.68   0 
  -3  -3  -6  250.51    3.32   0 
  -1  -8  -8    6.11    1.47   0 
  -1  -6  -5  114.08    2.02   0 
  -1  -5  -4    7.39    1.31   0 
  -1   2  -1  168.47    3.81   0 
   0  -7  -5   92.87    1.88   0 
   0   6  -1   66.93    1.96   0 
   0   8  -3    1.17    1.73   0 
   1  -7  -4   43.41    1.90   0 
   2   6   1   30.77    1.50   0 
   3   7   1    1.49    1.27   0 
   3   8   0   10.54    1.46   0 
  -3  -6  -9    3.09    1.37   0 
  -3   5  -7    2.94    1.97   0 
  -2  -7  -8   94.47    1.94   0 
  -2   5  -4    8.69    1.71   0 
  -2   6  -5    4.74    1.68   0 
  -1  -7  -6   17.88    1.65   0 
  -1  -4  -3    0.88    1.29   0 
  -1   5  -2  153.26    2.63   0 
   0   7  -2    8.16    1.26   0 
   1  -4  -1    3.27    1.42   0 
   1   6   0    0.93    1.27   0 
   3  -4   0  180.35    3.09   0 
   4   5   2   85.76    2.17   0 
   4   7   1   13.20    1.40   0 
   5  -5  -1    0.27    1.85   0 
   5   0   2  194.33    5.38   0 
   5   5   2  107.54    2.25   0 
   6   2   2    2.34    1.95   0 
   6   3   2   24.32    2.17   0 
  -4  -2  -8   12.83    1.76   0 
  -3   4  -6   11.62    2.01   0 
  -1   7  -4  140.75    2.34   0 
   0  -8  -6   19.26    1.47   0 
   1  -8  -5    1.82    1.35   0 
   1   3   1  228.73    3.09   0 
   1   8  -2   51.88    1.72   0 
   2  -6  -2   20.36    1.47   0 
   2   7   0    0.59    1.25   0 
   3   4   2 1210.18    5.84   0 
   5  -4   0   47.05    2.63   0 
  -2   3  -3   22.88    1.88   0 
   1   7  -1   73.76    1.86   0 
   2  -7  -3   61.46    1.82   0 
   2  -5  -1  458.55    3.95   0 
   3   6   1    9.05    1.33   0 
   5   4   2    1.72    1.65   0 
  -4  -4  -9    7.48    1.73   0 
  -3  -5  -7  183.66    2.52   0 
  -3  -2  -5    3.78    1.79   0 
  -3   2  -5   27.13    2.83   0 
  -2  -6  -6   90.25    1.98   0 
  -2  -5  -5    0.24    1.15   0 
   1   1   1 1055.40    9.53   0 
   1   2   1 1035.24    7.17   0 
   2  -8  -4    0.71    1.71   0 
   2   5   1   22.03    1.46   0 
   3   3   2  392.70    3.83   0 
   3   7   0    0.20    1.56   0 
   4   4   2   21.05    1.52   0 
   5   6   1    5.56    1.47   0 
  -4  -3  -8   14.24    1.98   0 
  -3  -6  -8   46.11    1.65   0 
  -3  -4  -6   43.51    2.00   0 
  -2  -7  -7   74.83    1.78   0 
  -2   6  -6    1.79    1.76   0 
   0  -7  -4   -0.59    1.26   0 
   0  -6  -3   54.14    1.69   0 
   1   5   0   32.27    1.70   0 
   1   8  -3    4.02    1.28   0 
   2   8  -2    5.06    1.71   0 
   3   1   2   27.30    2.19   0 
   3   2   2   64.74    2.27   0 
   4  -3   1   14.65    2.19   0 
   4   0   2   40.03    3.08   0 
   4   7   0    1.62    1.37   0 
   5   3   2   13.29    1.76   0 
  -2  -4  -4   62.40    1.78   0 
  -2  -2  -3  956.67    6.71   0 
  -1  -7  -5   36.04    1.53   0 
  -1  -6  -4  112.49    2.05   0 
  -1  -3  -2   27.61    1.72   0 
  -1   4  -2   24.12    1.79   0 
  -1   7  -5   71.82    2.01   0 
   0  -8  -5    6.09    1.35   0 
   0   7  -3   42.34    1.65   0 
   1  -7  -3   25.24    1.52   0 
   1  -6  -2  136.88    2.34   0 
   2  -4   0 1261.46    6.99   0 
   2  -2   1 1141.61    9.46   0 
   2   6   0   -0.83    1.28   0 
   4   3   2  133.68    2.69   0 
   5   1   2  213.17    4.04   0 
   5   2   2   25.44    2.00   0 
  -1  -8  -6    8.66    1.43   0 
   0  -5  -2    0.04    1.28   0 
   1  -8  -4    1.79    1.38   0 
   1  -3   0  497.31    4.72   0 
   1   6  -1   28.35    1.75   0 
   2   4   1    4.54    1.60   0 
   2   7  -1  101.70    1.99   0 
   3  -7  -2    7.56    1.70   0 
   3   5   1    2.16    1.23   0 
   4  -6  -1   22.24    1.89   0 
   5   5   1   34.24    1.89   0 
  -4  -5  -9   17.68    1.96   0 
  -2   4  -4  474.62    4.53   0 
  -2   5  -5    5.82    1.71   0 
  -1  -5  -3   22.30    1.42   0 
   1  -5  -1   49.90    1.92   0 
   3  -6  -1   92.94    2.18   0 
   3  -3   1   77.84    2.82   0 
   4   5   1   17.51    1.71   0 
  -4  -4  -8  117.48    2.52   0 
  -4  -1  -7    8.75    2.36   0 
  -3  -7  -8   16.02    1.76   0 
  -3  -6  -7   15.41    1.43   0 
  -3  -3  -5   19.12    1.61   0 
  -3   4  -7    0.83    1.87   0 
  -2  -7  -6   39.70    1.56   0 
  -2  -6  -5   59.06    1.66   0 
  -2   2  -3   62.67    2.83   0 
  -1   5  -3   98.21    2.13   0 
   0   7  -4    7.52    1.36   0 
   3   6   0    4.50    1.33   0 
   3   7  -1   35.58    1.64   0 
   4  -5   0    0.52    1.81   0 
   4   1   2  178.63    3.63   0 
   5  -3   1   21.92    3.21   0 
  -4  -2  -7  101.28    2.87   0 
  -3  -5  -6   -0.61    1.26   0 
  -3   3  -6    1.67    1.97   0 
  -2  -8  -7   58.41    1.80   0 
   0   4  -1  821.02    4.96   0 
   1   4   0  865.70    4.84   0 
   4   6   0    9.35    1.33   0 
   6   3   1   17.65    2.03   0 
  -2  -5  -4    6.52    1.22   0 
  -1  -4  -2   59.65    2.00   0 
   0  -8  -4    2.76    1.36   0 
   0  -7  -3   93.33    1.88   0 
   0  -4  -1  119.23    2.35   0 
   0   6  -3    1.86    1.52   0 
   2   3   1  252.21    3.29   0 
   2   5   0    1.88    1.29   0 
   2   7  -2    2.08    1.39   0 
   3   4   1   12.41    1.30   0 
   5   4   1   -0.12    1.34   0 
  -4  -5  -8   27.08    1.94   0 
  -4  -3  -7   68.85    2.39   0 
  -3  -4  -5   62.37    2.11   0 
  -1  -8  -5    5.76    1.39   0 
  -1  -7  -4  133.19    2.10   0 
  -1   6  -5  580.33    4.27   0 
   0  -9  -5    7.30    1.38   0 
   0   5  -2   -0.02    1.18   0 
   1   6  -2    9.61    1.58   0 
   2   6  -1  103.97    1.96   0 
   3   7  -2    2.79    1.33   0 
   5  -5   0    0.86    2.20   0 
   6   2   1    3.24    1.92   0 
  -4   2  -9   55.71    3.61   0 
  -3  -7  -7   -0.56    1.58   0 
  -1   3  -2   70.16    2.20   0 
   0  -6  -2   14.09    1.33   0 
   2  -5   0   18.91    1.85   0 
   5   5   0   24.93    1.62   0 
  -3  -6  -6    7.41    1.36   0 
  -3   4  -8   27.48    2.02   0 
  -2  -8  -6    0.72    1.34   0 
  -2  -7  -5    6.94    1.33   0 
  -1   5  -4   14.86    1.71   0 
   1  -4   0  846.25    5.41   0 
   1   7  -4    1.42    1.32   0 
   2   7  -3   10.30    1.40   0 
   3   5   0    4.69    1.25   0 
   3   6  -1    2.11    1.28   0 
   4   5   0    7.50    1.29   0 
   4   6  -1   35.04    1.58   0 
   5   3   1   13.25    1.76   0 
   6  -1   1   12.53    2.90   0 
  -4  -4  -7   18.82    1.83   0 
  -2  -6  -4   48.00    1.59   0 
  -2   4  -5    0.96    1.66   0 
  -1   4  -3    6.26    1.56   0 
  -1   6  -6    2.87    1.39   0 
   0   6  -4  243.81    2.87   0 
   1  -6  -1   12.46    1.30   0 
   2  -3   1 1405.09    8.49   0 
   3  -7  -1   34.75    1.76   0 
   6   1   1   18.67    1.95   0 
  -4  -6  -8    9.62    1.49   0 
  -3  -5  -5    7.12    1.30   0 
  -2   3  -4  421.22    4.55   0 
  -1  -5  -2   39.16    1.56   0 
   1   3   0  103.38    2.26   0 
   2  -8  -2   16.75    1.46   0 
   2   2   1  344.22    4.13   0 
   2   4   0   11.28    1.38   0 
   2   6  -2   56.87    1.66   0 
   3   3   1   46.49    1.70   0 
   4  -4   1    0.09    1.87   0 
   4   3   1   81.64    2.33   0 
   6   0   1   19.17    2.36   0 
  -4   1  -8  257.01    7.20   0 
  -3  -8  -7    1.70    1.71   0 
  -1  -9  -5    4.78    1.38   0 
  -1  -8  -4    8.19    1.38   0 
  -1  -1  -1 1064.06    9.49   0 
   0  -9  -4   11.72    1.44   0 
   0  -8  -3    5.11    1.32   0 
   0   3  -1    1.72    1.48   0 
   1   6  -3    1.59    1.32   0 
   2  -7  -1    0.28    1.42   0 
   2   5  -1   35.46    1.56   0 
   3  -6   0  246.22    3.34   0 
   3  -4   1 1119.67    7.36   0 
   3   6  -2   19.33    1.70   0 
   4  -6   0  165.48    3.27   0 
   4   6  -2   18.02    1.56   0 
   5   4   0   13.46    1.48   0 
   5   5  -1    6.64    1.46   0 
  -4  -5  -7   10.35    1.51   0 
  -3  -7  -6   12.12    1.23   0 
  -3  -2  -4   99.42    2.64   0 
  -2  -8  -5   15.08    1.63   0 
  -1  -7  -3   84.27    1.85   0 
  -1  -2  -1  997.99    7.00   0 
   0  -2   0 2030.38   10.38   0 
   0   5  -3   18.67    1.41   0 
   1  -9  -3   24.99    1.56   0 
   1  -8  -2    3.63    1.55   0 
   5   2   1    7.20    1.69   0 
  -3  -3  -4  118.15    2.55   0 
  -3  -1  -4  449.31    6.08   0 
  -3   3  -7   50.61    2.27   0 
  -2  -7  -4    2.05    1.60   0 
  -2  -5  -3   16.09    1.38   0 
  -1   5  -5   73.86    2.06   0 
   0   4  -2    2.36    1.41   0 
   0   6  -5    5.30    1.37   0 
   1   4  -1   -0.18    1.24   0 
   3   5  -1  205.31    2.52   0 
   4   4   0   39.20    1.70   0 
   4   5  -1   36.31    1.54   0 
  -4  -6  -7   10.64    1.74   0 
  -3  -6  -5   12.70    1.35   0 
  -1  -6  -2  107.07    2.24   0 
  -1  -3  -1  229.15    3.08   0 
   1  -7  -1    7.71    1.27   0 
   1   6  -4   56.24    1.62   0 
   2  -6   0   13.73    1.44   0 
   2   6  -3    5.27    1.34   0 
   6   2   0   10.27    1.72   0 
  -4  -3  -6   61.98    2.21   0 
  -4  -2  -6  163.26    3.57   0 
  -3  -4  -4  199.12    2.73   0 
  -1  -9  -4   75.11    2.06   0 
   0   6  -6    5.85    1.32   0 
   2  -4   1    0.34    1.64   0 
   3   2   1    0.74    1.55   0 
   3   6  -3   15.69    1.46   0 
   4   2   1   21.15    1.79   0 
   5   3   0   14.68    1.77   0 
  -4  -4  -6   63.67    2.15   0 
  -3  -8  -6   81.42    1.93   0 
  -3   1  -5    0.33    2.73   0 
  -3   2  -6   62.52    2.85   0 
  -2  -6  -3  864.31    4.49   0 
  -1  -8  -3  228.96    2.54   0 
  -1   2  -2    0.86    1.85   0 
  -1   4  -4   14.50    1.84   0 
  -1   5  -6   24.38    1.90   0 
   0  -9  -3   80.80    1.84   0 
   0   5  -4  544.85    3.89   0 
   2  -8  -1   10.34    1.79   0 
   2   5  -2   93.77    1.93   0 
   2   6  -4    2.37    1.64   0 
   5  -4   1    1.98    2.49   0 
   5   1   1   34.06    1.95   0 
   5   4  -1    7.33    1.41   0 
  -5  -3  -9    5.21    2.11   0 
  -4  -7  -7    0.99    1.70   0 
  -3  -7  -5    2.03    1.29   0 
  -3  -5  -4    6.51    1.61   0 
  -2  -8  -4  164.70    2.51   0 
  -2  -2  -2   66.33    2.46   0 
  -1  -4  -1   24.86    1.46   0 
   0  -8  -2  170.13    2.29   0 
   1   2   0   12.35    2.28   0 
   1   5  -3   63.36    1.92   0 
   1   6  -5    7.14    1.37   0 
   2   1   1  309.44    4.65   0 
   2   3   0   98.39    2.17   0 
   2   4  -1   63.21    1.95   0 
   3  -7   0   26.29    1.85   0 
   3  -5   1  126.37    2.74   0 
   3   5  -2   12.72    1.38   0 
   4  -5   1  105.51    3.03   0 
   4   5  -2    4.39    1.34   0 
  -4  -5  -6    8.03    1.42   0 
  -3   3  -8    1.18    1.57   0 
  -2  -3  -2  233.05    3.11   0 
  -1  -7  -2  899.70    4.68   0 
  -1   3  -3  273.34    3.50   0 
   1  -9  -2    8.70    1.43   0 
   1  -6   0   12.09    1.37   0 
   1  -2   1  167.35    3.77   0 
   1   6  -6   -0.50    1.68   0 
   2   6  -5   44.96    1.88   0 
   4   3   0   25.66    1.69   0 
   4   4  -1   86.83    1.90   0 
   6   1   0   39.73    2.31   0 
  -2  -4  -2   99.51    2.11   0 
  -2   1  -3   -0.04    2.19   0 
  -2   3  -5   44.75    2.02   0 
  -2   4  -7   20.07    1.54   0 
  -1  -5  -1   19.45    1.70   0 
  -1   5  -7   13.24    1.42   0 
   0  -7  -1    8.32    1.44   0 
   1  -8  -1    7.37    1.40   0 
   2  -7   0   -0.39    1.34   0 
   3   3   0    7.82    1.37   0 
   3   4  -1  174.22    2.31   0 
   4   5  -3   13.35    1.72   0 
   5   4  -2    1.54    1.71   0 
  -5  -2  -9    8.55    2.71   0 
  -4  -6  -6   37.22    1.61   0 
  -3  -8  -5   28.22    1.53   0 
  -2  -7  -3  312.40    2.84   0 
  -1  -9  -3  132.25    2.41   0 
  -1   5  -8    4.55    1.70   0 
   0  -5   0  125.18    2.40   0 
   0   2  -1  189.43    3.52   0 
   0   4  -3    0.99    1.26   0 
   0   5  -5  418.55    3.36   0 
   1  -3   1   67.40    2.16   0 
   2  -5   1  162.77    2.69   0 
   2   5  -3   -0.95    1.31   0 
   4   1   1    3.39    1.77   0 
   5   2   0   16.27    1.78   0 
  -4  -1  -6    8.37    2.50   0 
  -3   3  -9    2.80    1.74   0 
  -2  -9  -4    0.35    1.38   0 
  -2  -1  -2  344.51    5.22   0 
  -1   4  -5   15.11    1.86   0 
   0  -9  -2  217.24    2.59   0 
   0   3  -2  277.74    3.44   0 
   1   5  -4   32.86    1.54   0 
   3   5  -3   28.18    1.45   0 
   5   3  -1    7.58    1.46   0 
  -5  -5  -8    6.85    1.89   0 
  -5  -4  -8   18.33    1.85   0 
  -4  -7  -6   90.27    2.06   0 
  -3  -7  -4    3.98    1.59   0 
  -2   2  -4   15.97    2.16   0 
  -1  -8  -2   71.17    1.76   0 
  -1  -6  -1    3.17    1.32   0 
   0   5  -6   62.10    2.01   0 
   1  -4   1    1.69    1.43   0 
   3  -6   1   19.19    1.85   0 
   3   1   1   13.66    1.77   0 
   4   4  -2   18.29    1.75   0 
   6   0   0   31.28    2.34   0 
  -5  -3  -8   19.30    2.41   0 
  -4  -4  -5   28.88    1.95   0 
  -2  -8  -3   17.68    1.52   0 
  -2  -6  -2  486.54    3.48   0 
   0  -8  -1   83.80    1.88   0 
   2   4  -2    5.40    1.36   0 
   2   5  -4    2.03    1.33   0 
   3   5  -4    2.58    1.38   0 
   4  -6   1  284.84    4.28   0 
  -4  -5  -5   19.93    1.54   0 
  -4   1  -9    2.62    2.57   0 
  -3  -4  -3  777.41    4.72   0 
  -3  -3  -3   86.36    2.42   0 
   0  -6   0  164.30    2.31   0 
   0   5  -7    1.73    1.34   0 
   1  -9  -1    0.50    1.51   0 
   1  -5   1  212.78    2.88   0 
   1   5  -5  149.93    2.24   0 
   2  -8   0    5.83    1.44   0 
   2  -6   1    0.48    1.39   0 
   3   4  -2   25.49    1.46   0 
   4   2   0    4.45    1.80   0 
   4   3  -1  134.94    2.45   0 
   5  -5   1    7.70    2.72   0 
  -3   2  -7   75.93    2.85   0 
  -2   3  -6   35.20    2.04   0 
  -1   4  -6    2.41    1.40   0 
   0   4  -4    4.44    1.31   0 
   1   4  -3    0.24    1.29   0 
   2   2   0  679.37    5.15   0 
   2   3  -1  464.34    3.73   0 
   2   5  -5    4.63    1.37   0 
   3   5  -5   71.59    1.88   0 
   4   4  -3    5.23    1.72   0 
   5  -1   1   15.87    2.63   0 
   5   3  -2    1.80    1.38   0 
   6   1  -1    6.82    1.94   0 
  -3  -6  -3   31.14    1.60   0 
  -2  -9  -3    4.84    1.44   0 
  -2  -7  -2    3.23    1.36   0 
  -1  -9  -2   56.87    1.83   0 
  -1   3  -4    5.01    1.70   0 
   1   5  -7    1.42    1.75   0 
   2   5  -6   47.14    1.77   0 
   3   2   0   82.89    2.33   0 
   3   3  -1   45.09    1.63   0 
   5   2  -1   92.34    2.46   0 
   6  -1   0    0.85    2.31   0 
  -5  -5  -7    3.88    2.01   0 
  -4  -7  -5   31.92    1.66   0 
  -3  -2  -3   24.09    1.98   0 
  -1   4  -7    9.73    1.89   0 
   0  -9  -1    0.37    1.45   0 
   0  -7   0   76.42    1.90   0 
   1  -6   1  141.05    2.61   0 
   2   4  -3   23.04    1.56   0 
   3  -7   1   11.11    1.82   0 
   3   4  -3   34.85    1.64   0 
   4   4  -4   37.78    1.91   0 
  -5  -4  -7    4.47    1.67   0 
  -4  -2  -5    8.86    2.01   0 
  -3  -7  -3  139.97    2.20   0 
  -1  -8  -1    2.16    1.64   0 
  -1  -4   0  860.17    4.84   0 
  -1  -3   0  106.46    2.57   0 
   0   4  -5  760.11    4.40   0 
   2  -7   1   26.63    1.67   0 
   4   0   1   39.41    2.38   0 
   5   3  -3    7.53    1.57   0 
  -2  -5  -1   23.63    1.76   0 
  -2  -4  -1    2.21    1.43   0 
  -2   3  -7    1.55    1.65   0 
  -1  -5   0   30.87    1.58   0 
  -1   4  -8   15.29    1.48   0 
   0   3  -3   65.10    1.98   0 
   1   3  -2    3.99    1.44   0 
   1   4  -4  635.28    4.00   0 
   3  -4   2    0.43    1.92   0 
   3  -3   2   48.04    2.85   0 
  -5  -2  -8   15.43    2.92   0 
  -3  -8  -3    1.19    1.71   0 
  -3   2  -8   14.68    2.11   0 
  -2  -3  -1  252.77    3.16   0 
  -1  -6   0    2.50    1.72   0 
   0  -8   0    3.89    1.35   0 
   0  -4   1  820.17    5.00   0 
   0   4  -6   20.06    1.76   0 
   1  -7   1   21.82    1.82   0 
   2   4  -4  125.87    2.10   0 
   5   2  -2    7.38    1.76   0 
   6   0  -1   31.91    2.12   0 
  -5  -3  -7    9.08    2.14   0 
  -4  -6  -4    1.43    1.44   0 
  -4  -5  -4   93.79    2.06   0 
  -4  -4  -4   55.38    2.20   0 
  -2  -6  -1   29.64    1.62   0 
  -2   3  -8  104.63    2.54   0 
  -1   2  -3   45.96    2.32   0 
   0  -5   1  385.47    3.36   0 
   0  -3   1    2.35    1.56   0 
   1   2  -1 2812.79   10.13   0 
   1   4  -5    6.34    1.39   0 
   2  -8   1   81.11    2.35   0 
   2  -4   2  103.80    2.68   0 
   2   0   1  119.91    4.26   0 
   2   3  -2   14.71    1.42   0 
   3  -5   2   -1.10    1.89   0 
   3   3  -2   12.06    1.41   0 
   3   4  -5   92.75    2.05   0 
   4   2  -1   34.53    1.78   0 
   6  -2   0    0.74    2.44   0 
  -4  -7  -4    0.62    1.68   0 
  -3  -5  -2   -0.34    1.61   0 
  -3   2  -9   12.23    2.09   0 
  -2  -9  -2    4.85    1.43   0 
  -2  -7  -1    6.98    1.69   0 
  -2   2  -5  180.60    3.49   0 
  -2   3  -9    7.96    1.83   0 
  -1  -9  -1    5.97    1.43   0 
  -1  -7   0   12.12    1.73   0 
  -1  -2   0   12.24    2.06   0 
   0  -6   1   63.63    2.02   0 
   0   4  -7   26.82    1.58   0 
   2  -5   2   40.61    2.14   0 
   2  -3   2  265.19    4.04   0 
   2   4  -5   61.16    1.77   0 
   3   0   1    7.78    2.06   0 
   3   4  -6   31.49    1.60   0 
   4   1   0    2.39    1.37   0 
   4   3  -3   28.09    1.55   0 
   5  -2   1    5.85    2.86   0 
   5   0   0    4.08    1.70   0 
   5   1  -1  134.97    2.78   0 
  -5  -6  -6  136.57    2.53   0 
  -5  -5  -6  153.97    2.89   0 
  -3  -4  -2 1255.29    5.88   0 
   0  -9   0    3.48    1.51   0 
   1  -8   1    2.88    1.73   0 
   1   4  -6   18.78    1.57   0 
   2   4  -6   24.80    1.66   0 
   4  -4   2   21.53    2.92   0 
   5   2  -3    7.19    1.79   0 
  -4  -3  -4    3.52    1.81   0 
  -2  -8  -1    6.31    1.77   0 
  -2  -2  -1  318.50    3.89   0 
   0  -7   1   18.94    1.74   0 
   0  -2   1  196.07    3.83   0 
   0   3  -4   20.14    1.85   0 
   1   3  -3  130.23    2.29   0 
   1   4  -8   98.33    2.18   0 
   1   4  -7    5.90    1.39   0 
   2  -6   2   65.44    2.14   0 
   2   4  -7    1.91    1.36   0 
   3  -6   2    3.13    1.71   0 
   3   2  -1  108.21    2.21   0 
   3   3  -3   37.09    1.53   0 
   4   3  -4   14.21    1.48   0 
  -5  -4  -6    7.92    1.78   0 
  -1  -8   0   23.73    1.53   0 
  -1   3  -6   27.72    1.63   0 
   2   2  -1  476.18    4.12   0 
   2   3  -3    1.05    1.40   0 
   4  -5   2    8.46    2.14   0 
   4   3  -5   98.63    2.03   0 
  -3  -1  -3   18.96    2.57   0 
  -3   1  -6   37.12    2.66   0 
   1  -5   2  146.11    2.53   0 
   1  -4   2   21.97    1.61   0 
   2   1   0  965.44    7.00   0 
   3   1   0  563.48    4.74   0 
  -4  -5  -3  200.84    2.86   0 
  -1  -9   0    1.79    1.36   0 
  -1   1  -2  391.06    6.28   0 
  -1   3  -7   75.16    1.87   0 
   0  -8   1   10.59    1.36   0 
   1  -6   2   29.55    1.59   0 
   2  -7   2   19.99    1.54   0 
   3   3  -4   83.73    1.91   0 
   4  -6   2    0.44    1.97   0 
   5   1  -2   -0.28    1.45   0 
  -5  -6  -5   13.60    1.54   0 
  -4  -7  -3    1.22    1.35   0 
  -2  -6   0    0.93    1.38   0 
  -2   2  -6    1.67    1.67   0 
  -1  -6   1   28.24    1.89   0 
  -1  -5   1   87.76    1.90   0 
  -1   3  -8    1.73    1.39   0 
   0   1  -1   35.52    2.91   0 
   0   3  -5   42.69    1.59   0 
   1  -3   2   70.54    2.32   0 
   1   3  -4  676.49    4.12   0 
   2   3  -4  195.32    2.53   0 
   3   3  -5    1.24    1.33   0 
   4  -1   1    1.73    2.33   0 
   4   2  -3    2.59    1.58   0 
  -5  -5  -5   14.76    1.48   0 
  -4  -4  -3  126.97    2.38   0 
  -2  -7   0    0.54    1.29   0 
  -2  -4   0   11.43    1.49   0 
  -1  -4   1    1.56    1.32   0 
   1  -7   2   32.27    1.71   0 
   2  -8   2    0.33    1.77   0 
   3   3  -6    1.69    1.38   0 
   4   1  -1    6.28    1.52   0 
   5   0  -1    0.52    1.64   0 
   5   1  -3   24.96    1.86   0 
  -4  -2  -4    0.91    1.99   0 
  -3  -7  -1    0.75    1.34   0 
  -3  -6  -1   10.47    1.44   0 
  -3  -5  -1    2.90    1.27   0 
  -3  -2  -2   61.22    2.38   0 
   0   3  -9    3.28    1.38   0 
   0   3  -7   32.14    1.85   0 
   0   3  -6   17.27    1.46   0 
   2   3  -5   49.95    1.68   0 
   4   2  -4    1.82    1.56   0 
  -5  -4  -5    1.48    1.69   0 
  -3  -8  -1   53.11    2.10   0 
  -3  -4  -1   13.86    1.71   0 
  -2  -3   0   95.41    2.51   0 
  -2   2  -7    2.18    1.76   0 
  -1  -3   1  908.52    5.35   0 
   0  -6   2    5.02    1.40   0 
   0  -5   2    0.93    1.30   0 
   0   3  -8   26.43    1.58   0 
   1  -8   2   -0.51    1.41   0 
   1   3  -6   76.89    1.88   0 
   2   2  -2   14.95    1.62   0 
   2   3  -7    5.09    1.39   0 
   2   3  -6   16.19    1.44   0 
   4   0   0    0.42    1.70   0 
   4   2  -5   25.28    1.87   0 
  -4   0  -8    8.01    2.73   0 
  -2   2 -10   20.36    1.65   0 
  -2   2  -9   24.30    2.03   0 
  -2   2  -8    6.31    1.90   0 
  -1  -1   0 2684.11   13.49   0 
   0  -7   2    6.31    1.44   0 
   0  -4   2    3.61    1.51   0 
   3   2  -3   18.54    1.79   0 
   4   2  -6   27.76    1.67   0 
  -5  -6  -4   13.26    1.96   0 
  -4  -7  -2   45.07    1.71   0 
  -4  -6  -2   10.51    1.57   0 
  -4  -3  -3 1692.59    7.99   0 
  -4  -1  -5    0.03    3.00   0 
  -3   1  -7  858.19    6.94   0 
   4   1  -2   14.75    1.86   0 
   5   0  -2   34.47    2.06   0 
  -5  -5  -4   17.71    1.98   0 
  -4  -5  -2   87.02    2.06   0 
  -2   1  -4   82.39    3.10   0 
  -1   2  -5    5.04    1.71   0 
   0  -8   2   47.74    1.71   0 
   1  -2   2    1.48    2.06   0 
   2  -6   3    1.59    1.76   0 
   2  -5   3   -0.22    1.75   0 
   3   1  -1    4.89    1.46   0 
   3   2  -4    3.06    1.35   0 
   5  -3   1   21.37    3.37   0 
  -4   0 -10    4.27    2.20   0 
  -4   0  -9    9.87    2.41   0 
  -3  -3  -1   46.01    1.80   0 
  -3   1 -10    5.37    1.82   0 
  -3   1  -9   24.22    2.29   0 
  -3   1  -8    7.91    1.75   0 
  -2  -7   1  103.36    2.23   0 
  -2  -6   1  103.26    2.02   0 
  -2  -1  -1  299.82    4.73   0 
   0  -3   2  273.09    3.37   0 
   1   2  -3  197.03    2.68   0 
   2   2  -3    3.27    1.42   0 
   3  -6   3    6.97    2.08   0 
   3   2  -7    9.34    1.80   0 
  -4  -4  -2   20.06    1.87   0 
  -3  -7   0    0.80    1.34   0 
  -3  -6   0    6.45    1.45   0 
  -2  -8   1   18.34    1.58   0 
  -2  -5   1   35.34    1.63   0 
  -1  -7   2   53.84    1.99   0 
  -1  -6   2    8.81    1.48   0 
  -1  -5   2    7.13    1.79   0 
   0   2  -4   47.97    2.23   0 
   1  -5   3   98.48    2.39   0 
   2  -7   3    2.40    1.45   0 
   3  -5   3    4.73    1.71   0 
   3   2  -6   23.24    1.53   0 
   4   1  -3    2.73    1.43   0 
   5   0  -3   31.13    1.73   0 
  -5  -3  -5   14.48    2.16   0 
  -3  -5   0    5.05    1.38   0 
  -2  -4   1   60.72    2.08   0 
  -1  -8   2   50.96    2.10   0 
  -1  -2   1 2780.64   10.31   0 
  -1   2  -9    1.33    1.45   0 
  -1   2  -8  148.60    2.62   0 
  -1   2  -7    4.58    1.81   0 
   0   2 -10    6.03    1.46   0 
   1  -7   3    6.62    1.47   0 
   1   1  -1  235.56    3.95   0 
   2   1  -1 2129.15    9.14   0 
   2   2  -8   86.42    2.27   0 
   2   2  -4 1718.67    6.40   0 
   3  -7   3    2.33    1.79   0 
   4   1  -4   81.79    2.26   0 
   5  -1  -1    3.17    1.68   0 
   5   0  -4   13.08    1.82   0 
  -5  -6  -3    2.82    1.73   0 
  -5  -4  -4   16.40    1.83   0 
  -4  -7  -1   13.41    1.76   0 
  -2  -2   0  665.65    5.21   0 
  -1  -4   2   49.96    1.81   0 
   0   2  -9    1.43    1.72   0 
   1  -8   3   21.78    1.59   0 
   1  -4   3    5.65    1.47   0 
   1   2  -9   40.91    1.71   0 
   1   2  -4   14.56    1.58   0 
   2   2  -5  126.55    2.17   0 
   3  -4   3   18.85    2.24   0 
   4   0  -1  111.72    2.45   0 
   4   1  -6    4.88    1.54   0 
   4   1  -5    1.12    1.43   0 
   5  -2   0   56.28    2.87   0 
  -4  -6  -1   78.65    1.95   0 
  -3  -4   0   46.46    1.68   0 
   0  -7   3   42.83    1.88   0 
   0  -6   3    1.00    1.39   0 
   0   2  -8   42.98    1.94   0 
   1   2  -8   12.31    1.47   0 
   2   2  -6  196.84    2.47   0 
   3   0   0  602.45    5.52   0 
   3   1  -2    1.91    1.39   0 
  -5  -5  -3    3.10    1.73   0 
  -4  -5  -1   15.17    1.80   0 
   0  -8   3    3.35    1.77   0 
   0  -5   3   19.48    1.49   0 
   0   2  -7    2.95    1.39   0 
   0   2  -6   39.20    1.68   0 
   1   2  -7   19.03    1.56   0 
   1   2  -6   -0.40    1.38   0 
   1   2  -5  408.94    3.41   0 
   5  -1  -2   58.49    2.20   0 
  -4  -3  -2  130.24    2.81   0 
  -4  -2  -3  295.28    4.07   0 
  -2  -3   1  451.59    3.79   0 
  -2   1 -10    1.10    1.80   0 
  -2   1  -5    1.02    2.00   0 
   2  -3   3   23.63    2.31   0 
   3   1  -3   98.92    2.23   0 
   4  -6   3    0.47    2.41   0 
  -5  -2  -6    1.36    2.83   0 
  -3  -7   1   34.02    1.62   0 
  -3  -6   1    4.15    1.34   0 
  -3  -2  -1    1.28    1.36   0 
  -2  -8   2    7.24    1.46   0 
  -2  -7   2    0.78    1.39   0 
  -2  -6   2   56.42    1.77   0 
  -1  -3   2    2.78    1.45   0 
   0  -4   3    1.04    1.35   0 
   0  -2   2   84.01    2.50   0 
   1  -3   3  272.48    3.71   0 
   4  -1   0  236.35    3.88   0 
   4   0  -2   37.57    1.80   0 
  -5  -6  -2   49.71    2.10   0 
  -4  -4  -1   71.97    2.16   0 
  -3  -3   0    3.96    1.76   0 
  -2  -5   2   89.33    2.00   0 
  -2   1  -9   25.13    2.00   0 
  -1  -7   3   -0.09    1.31   0 
  -1  -6   3    2.13    1.40   0 
  -1   1  -3   58.93    2.45   0 
   0   1  -2 1195.77    8.26   0 
   2   1  -9   52.71    1.83   0 
   2   1  -2  157.81    2.74   0 
   3  -1   1  152.50    4.55   0 
   3   1  -6    2.86    1.35   0 
   3   1  -5   53.23    1.74   0 
   4  -5   3    1.68    2.51   0 
   5  -1  -4    3.39    1.84   0 
   5  -1  -3   -0.78    1.44   0 
  -5  -4  -3  137.39    2.76   0 
  -5  -3  -4   68.19    2.44   0 
  -4  -7   0    1.69    1.40   0 
  -4  -6   0   11.44    1.67   0 
  -3  -5   1  214.05    2.64   0 
  -3  -1  -2   26.72    2.36   0 
  -2   1  -8    6.80    1.78   0 
  -2   1  -6   30.90    2.03   0 
  -1  -8   3    3.60    1.42   0 
  -1  -5   3   60.78    2.03   0 
  -1   1 -10   81.05    2.32   0 
   1  -6   4   46.64    2.11   0 
   2  -7   4   -0.05    1.85   0 
   2  -6   4   47.77    2.10   0 
   4   0  -6   16.00    1.57   0 
  -2  -4   2    2.65    1.77   0 
  -2   1  -7   61.80    2.36   0 
   0   1 -10    2.89    1.44   0 
   1   1  -2  136.92    2.84   0 
   2  -5   4    9.35    1.76   0 
   2   1  -8   23.20    1.53   0 
   4   0  -5    8.25    1.58   0 
   4   0  -4   14.01    1.47   0 
   5  -2  -1   -1.01    1.76   0 
  -4  -5   0    6.58    1.68   0 
  -3  -4   1  173.97    2.63   0 
   0  -7   4    6.14    1.72   0 
   1  -5   4   14.43    1.58   0 
   1   1  -9   20.25    1.59   0 
   2   0   0   60.52    2.80   0 
   2   1  -7    6.49    1.38   0 
   2   1  -3    6.31    1.48   0 
   3   0  -1  212.75    3.36   0 
   4  -2   1    1.12    2.37   0 
  -3   0 -10   24.10    1.92   0 
  -1  -4   3    0.88    1.34   0 
   0  -6   4  245.85    2.84   0 
   0   1  -9    5.05    1.38   0 
   2   1  -5  769.42    4.48   0 
   2   1  -4  205.26    2.64   0 
   3  -6   4   16.94    1.89   0 
   3  -3   3   21.55    2.91   0 
   3   0  -8   62.70    1.87   0 
  -5  -6  -1    5.30    1.91   0 
  -4  -3  -1   82.86    2.41   0 
  -3  -6   2   19.95    1.54   0 
  -2  -7   3    8.42    1.52   0 
  -2  -6   3    4.09    1.38   0 
  -1   1  -8  172.95    2.55   0 
  -1   1  -4 1048.01    7.07   0 
   4  -1  -1   42.92    2.22   0 
   5  -3   0  151.38    4.00   0 
   5  -2  -2    1.23    1.76   0 
  -5  -4  -2    2.27    1.85   0 
  -4  -4   0   37.89    2.05   0 
  -3   0  -9  106.86    2.94   0 
  -2   0 -11   57.30    2.11   0 
  -1  -2   2   93.70    2.34   0 
  -1   1  -7    5.50    1.84   0 
   0   1  -8  102.12    2.02   0 
   0   1  -3 1689.55    8.54   0 
   1  -4   4   13.89    1.69   0 
   1   1  -7   -0.20    1.37   0 
   1   1  -3  103.59    2.31   0 
   2  -4   4  472.64    4.75   0 
   3  -5   4  233.96    3.84   0 
   3   0  -7   12.28    1.52   0 
   3   0  -2   13.17    1.76   0 
  -5  -3  -3   13.78    1.86   0 
  -5  -2  -5   26.61    3.05   0 
  -4  -6   1   36.83    1.71   0 
  -4  -2  -2  498.53    4.89   0 
  -4  -1  -4   19.32    3.24   0 
  -3  -5   2   13.43    1.53   0 
  -2  -5   3   -0.12    1.40   0 
  -2  -3   2   14.18    1.52   0 
  -1  -6   4   56.36    1.75   0 
  -1  -1   1  227.30    4.03   0 
  -1   0 -11    3.42    1.94   0 
  -1   1  -6  143.31    2.68   0 
  -1   1  -5   73.09    2.24   0 
   0   1  -7   61.05    1.83   0 
   1   0 -10    2.85    1.87   0 
   1   1  -5   35.05    1.64   0 
   1   1  -4   79.36    2.04   0 
   2   0  -9   27.53    1.72   0 
   3   0  -6  146.52    2.37   0 
   5  -4   1    2.26    2.85   0 
   5  -2  -4   54.18    2.16   0 
  -5  -5  -1   32.77    1.73   0 
  -4  -1 -10    8.25    2.25   0 
  -3  -3   1   43.98    1.68   0 
  -3  -2   0   78.96    2.17   0 
  -3   0  -5   25.06    3.12   0 
  -1  -3   3  128.57    2.36   0 
   0   1  -6   33.24    1.63   0 
   0   1  -4  872.01    5.69   0 
   3   0  -4 1070.80    5.49   0 
   3   0  -3    3.41    1.39   0 
   4  -1  -6   63.20    1.92   0 
   4  -1  -2   15.61    1.66   0 
  -4  -5   1   37.86    1.67   0 
  -3   0  -8  610.58    5.42   0 
  -2  -4   3   21.26    1.87   0 
  -2   0 -10   53.68    1.91   0 
  -1  -5   4   33.09    1.69   0 
   1  -7   5   69.64    2.05   0 
   1  -6   5  597.87    4.68   0 
   2   0  -8   12.39    1.56   0 
   4  -1  -5    6.63    1.47   0 
   4  -1  -4  743.25    4.63   0 
   4  -1  -3  114.77    2.29   0 
  -3  -4   2   26.99    1.54   0 
  -3   0  -7  593.68    5.95   0 
  -2  -7   4   16.87    1.91   0 
  -1   0 -10   10.00    1.62   0 
   0  -7   5   88.74    2.14   0 
   1   0   0   25.37    3.48   0 
   2  -6   5    5.20    1.83   0 
   3  -1  -8   -1.59    1.75   0 
   5  -3  -1    5.45    2.08   0 
  -6  -4  -4    9.83    2.26   0 
  -4  -3   0   28.35    1.96   0 
  -3  -6   3   16.71    1.57   0 
  -3   0  -6   17.23    2.21   0 
  -2  -6   4    2.52    1.44   0 
  -1  -4   4  623.83    4.18   0 
   0  -6   5    4.25    1.57   0 
   1  -5   5   72.95    2.27   0 
   1  -3   4    3.57    1.73   0 
   2   0  -7   11.31    1.44   0 
   2   0  -1   82.96    2.83   0 
   3  -4   4  112.28    3.31   0 
  -5  -4  -1   -0.58    1.46   0 
  -4  -6   2   20.10    1.64   0 
  -4  -4   1   81.80    2.04   0 
  -4  -1  -9    2.62    2.23   0 
  -3  -1 -11   15.05    2.07   0 
  -3  -1  -1   10.67    1.86   0 
  -2   0  -9   17.75    1.61   0 
   0  -5   5  412.69    3.73   0 
   0  -3   4   20.42    1.86   0 
   1  -1   2  385.23    6.50   0 
   1   0  -8    0.31    1.69   0 
   2  -5   5    7.18    1.79   0 
   2  -2   3   61.60    3.00   0 
   2   0  -6   29.62    1.93   0 
   4  -6   4   33.78    3.15   0 
   5  -3  -2    3.13    1.87   0 
  -5  -5   0   26.49    1.70   0 
  -5  -3  -2   14.12    1.99   0 
  -3  -5   3   27.63    1.55   0 
  -1  -6   5    8.71    1.73   0 
  -1   0  -9    4.79    1.43   0 
   0  -1   2 1170.82    8.58   0 
   2  -3   4  422.27    4.85   0 
   2  -1  -9   12.52    1.49   0 
   3  -1  -7    2.82    1.41   0 
   3  -1   0   69.77    2.80   0 
   4  -2   0  439.51    5.18   0 
   5  -3  -3   25.69    2.23   0 
  -6  -3  -6   29.75    3.38   0 
  -5  -2  -4  143.26    3.93   0 
  -4  -5   2    1.14    1.57   0 
  -4  -2  -1   17.95    1.64   0 
  -3  -3   2   11.78    1.71   0 
  -2  -3   3    1.86    1.44   0 
  -2  -2   2   14.53    1.60   0 
  -2   0  -8    4.06    1.85   0 
   1  -1 -10    1.67    1.51   0 
   2   0  -5  210.51    2.74   0 
   2   0  -2   13.19    2.16   0 
   3  -6   5    3.24    1.83   0 
   3  -1  -6   28.96    1.92   0 
   4  -2  -6   49.72    1.89   0 
  -5  -2  -9    8.79    3.25   0 
  -2  -1 -11   66.78    2.15   0 
  -1  -5   5  146.90    2.34   0 
  -1  -2   3  195.50    2.79   0 
  -1  -1 -11    2.27    1.64   0 
   0  -4   5  759.40    4.79   0 
   0   0  -8  231.35    2.80   0 
   1  -4   5   17.83    1.64   0 
   1   0  -7   78.40    1.95   0 
   2   0  -4   33.44    1.70   0 
   2   0  -3   15.61    1.67   0 
  -5  -4   0   15.28    1.95   0 
  -4  -1  -8   36.69    2.81   0 
  -3  -6   4   43.28    1.72   0 
  -3  -4   3   32.61    1.67   0 
  -3  -1 -10    2.63    1.90   0 
   2  -4   5    1.51    1.83   0 
   2  -1  -8   28.59    1.65   0 
   3  -2  -8    2.97    1.73   0 
   4  -2  -4  304.88    3.52   0 
   4  -2  -1  183.20    3.36   0 
   5  -4   0   48.79    2.82   0 
  -5  -5   1    8.48    1.98   0 
  -4  -4   2   17.37    1.90   0 
  -4  -3   1  124.92    2.32   0 
  -4  -1  -3    2.21    2.22   0 
   0  -1 -10   36.19    1.70   0 
   1  -6   6    5.10    1.55   0 
   1  -1  -9   15.83    1.59   0 
   1   0  -6   11.22    1.54   0 
   3  -5   5   57.59    2.82   0 
   3  -1  -4   90.79    2.32   0 
   3  -1  -1  912.96    6.49   0 
   4  -2  -3   16.45    1.88   0 
   4  -2  -2   97.96    2.59   0 
  -6  -3  -5   20.67    2.62   0 
  -5  -3  -1   12.54    1.62   0 
  -3  -5   4    0.65    1.44   0 
  -1  -4   5    4.88    1.45   0 
  -1  -1   2  133.50    2.94   0 
   0   0  -7  104.16    2.25   0 
   2  -6   6    2.23    2.06   0 
   2  -1  -7   -0.92    1.74   0 
   3  -1  -3   52.76    2.02   0 
   3  -1  -2   17.67    1.93   0 
   4  -5   4    1.56    3.10   0 
   5  -4  -1   60.72    2.82   0 
  -5  -2  -3  379.68    5.16   0 
  -4  -5   3   12.19    1.61   0 
  -2  -5   5    4.64    1.55   0 
  -2  -1 -10   22.78    1.71   0 
  -1  -6   6    0.11    1.45   0 
  -1  -1 -10   61.08    1.94   0 
  -1   0  -7   89.92    2.11   0 
   0  -5   6   63.47    1.95   0 
   1   0  -5   26.52    1.63   0 
   2  -2  -9    1.18    1.90   0 
   3  -2  -7    3.98    1.50   0 
   4  -3  -6    5.01    2.00   0 
   5  -4  -2   14.01    2.03   0 
  -4  -1  -7    8.61    2.50   0 
  -3  -1  -9    5.14    1.87   0 
  -2  -3   4  181.75    2.59   0 
  -2  -2   3    2.51    1.79   0 
  -2   0  -6   72.84    2.54   0 
   0  -3   5   42.66    1.69   0 
   0  -2 -11    2.01    2.05   0 
   0  -2   4   47.18    2.03   0 
   0   0  -6   81.68    2.15   0 
   1  -3   5   25.28    2.04   0 
   1  -2   4 1539.75    8.33   0 
   1  -1  -8   99.64    2.33   0 
   1   0  -4   16.36    1.90   0 
   1   0  -1  286.14    5.25   0 
  -6  -3  -4    2.46    2.23   0 
  -5  -4   1   10.54    1.71   0 
  -3  -4   4    1.37    1.45   0 
   0  -1  -9    8.74    1.52   0 
   2  -1  -6    2.51    1.42   0 
   5  -5   1    6.93    3.05   0 
  -5  -3   0   15.98    2.06   0 
  -5  -2  -8   15.77    3.20   0 
  -4  -4   3    7.18    1.80   0 
  -4  -3   2   -1.62    1.38   0 
  -3  -2 -11   13.80    2.16   0 
  -1  -3   5 1259.98    6.03   0 
   1  -4   6    4.26    1.88   0 
   1   0  -2    3.01    2.00   0 
   3  -3  -8    0.38    1.53   0 
   3  -2  -6   82.96    1.96   0 
   4  -3  -5  202.33    2.87   0 
  -4  -2 -10   84.99    2.95   0 
  -4  -1  -2  180.78    3.98   0 
  -2  -1  -9  262.48    3.38   0 
  -2   0  -5   45.45    2.34   0 
  -1  -1  -9    8.15    1.57   0 
   2  -1  -5   57.66    2.10   0 
   4  -3  -4   -1.23    1.95   0 
   4  -3   1   15.09    2.73   0 
  -6  -3  -3    3.81    1.94   0 
  -4  -2   1   34.10    2.15   0 
  -2  -5   6   49.17    1.87   0 
  -2  -2 -11   11.33    1.65   0 
   0  -2 -10    1.64    1.92   0 
   0  -1  -8    7.40    1.54   0 
   1  -2  -9    5.64    1.92   0 
   1  -1  -7   89.65    2.12   0 
   3  -4   5   46.85    2.80   0 
   3  -3   4   80.10    3.80   0 
   3  -2  -5    9.53    1.49   0 
  -3  -3   4   82.93    2.14   0 
  -3  -1  -8  194.17    3.43   0 
  -1   0  -5   63.58    2.30   0 
  -1   0   0   24.02    3.62   0 
   0  -5   7    0.23    1.88   0 
   2  -4   6   31.68    2.11   0 
   4  -3  -3    0.19    1.90   0 
   5  -5   0    0.77    2.40   0 
  -5  -3   1    6.58    1.90   0 
  -4  -1  -6    8.87    2.98   0 
  -3  -4   5   95.94    2.19   0 
  -3  -2   3   17.44    1.63   0 
  -3  -1   1    5.61    1.55   0 
  -2  -3   5   53.38    1.89   0 
  -2  -2   4 1685.71    6.87   0 
  -2   0  -4  267.16    5.28   0 
  -2   0  -1  115.95    4.74   0 
  -1  -1   3  107.45    2.49   0 
   1  -5   7   13.75    1.72   0 
   2  -1  -4    0.74    1.47   0 
   3  -2  -4  132.91    2.69   0 
   4  -3  -2    6.40    1.87   0 
   5  -5  -1    0.76    2.00   0 
  -6  -3  -2   25.17    2.14   0 
  -5  -2  -1    6.27    1.92   0 
  -4  -3   3   25.01    1.76   0 
  -4  -1  -1    1.80    1.83   0 
  -2  -4   6   23.36    1.68   0 
  -1  -5   7   -0.34    1.59   0 
  -1  -2 -10   30.44    1.83   0 
  -1  -1  -8    1.29    1.47   0 
   0  -2   5  118.51    2.40   0 
   1  -3 -10    8.06    1.67   0 
   1  -1  -6    5.30    1.50   0 
   2  -2   4   16.84    2.16   0 
   3  -5   6   15.04    2.17   0 
   4  -4  -5    1.59    1.98   0 
   4  -3  -1   21.58    2.08   0 
   4  -3   0    1.92    1.80   0 
  -3  -2 -10    3.49    1.61   0 
  -2  -2 -10    0.95    1.96   0 
  -1  -3   6   76.79    2.06   0 
  -1  -2   5  395.74    3.78   0 
   0  -4   7   27.48    2.05   0 
   0   0  -3  639.69    6.04   0 
   1  -2  -8  198.81    2.65   0 
   2  -5   7   21.82    2.21   0 
   2  -1  -3   25.65    1.83   0 
   3  -3  -6    0.21    1.55   0 
   3  -2  -3   23.32    2.01   0 
  -4  -2  -9   10.29    2.40   0 
  -4  -2   2   86.23    2.17   0 
  -2  -1   3    7.41    1.96   0 
   0  -2  -9   -0.01    1.46   0 
   1  -4   7    7.93    1.67   0 
   1  -2   5    6.70    1.46   0 
   2  -3  -8   78.54    2.07   0 
   2  -2  -6    1.41    1.46   0 
   2  -1   1   55.84    4.20   0 
  -6  -3  -1   20.04    2.25   0 
  -5  -3   2    5.63    1.94   0 
  -5  -2   0   16.57    2.14   0 
  -3  -3   5    1.16    1.46   0 
  -3  -1   2    0.08    1.80   0 
  -1  -4   7    5.93    1.57   0 
   0   0  -2 3137.90   15.42   0 
   2  -4  -9    2.85    1.87   0 
   2  -1  -2    1.02    2.15   0 
   3  -2  -2   34.39    2.15   0 
   4  -4  -4    8.51    1.68   0 
  -4  -3   4   14.58    1.59   0 
  -4  -1   0    1.68    1.88   0 
  -3  -3 -11    1.15    2.12   0 
  -3  -2   4    1.73    1.51   0 
  -3  -1  -7   -0.18    1.91   0 
  -2  -3 -11    4.28    2.06   0 
  -2  -3   6   14.64    1.62   0 
  -2  -2   5  129.35    2.39   0 
  -2   0  -3  210.64    6.37   0 
  -1  -1  -7   32.57    2.01   0 
  -1  -1   4   82.60    2.37   0 
   0  -3 -10   94.12    2.22   0 
   0  -1   4  913.17    6.24   0 
   1  -3  -9    2.58    1.60   0 
  -2  -4   7   -0.27    1.64   0 
  -1  -2  -9   15.55    1.61   0 
   0  -1  -6    2.59    1.90   0 
   1  -5   8    5.00    1.81   0 
   1  -4 -10   34.31    1.89   0 
   1  -2  -7   32.12    1.84   0 
   2  -4   7   21.03    2.21   0 
   2  -3   6   35.29    2.35   0 
   2  -1  -1   20.97    2.41   0 
   3  -2  -1   18.91    2.15   0 
   3  -2   1  182.19    4.88   0 
   4  -5  -5    2.07    2.05   0 
   4  -4  -3    8.25    2.06   0 
  -5  -2   1   96.07    2.86   0 
  -4  -2   3    1.32    1.41   0 
  -3  -2  -9   46.35    2.31   0 
  -2  -1  -7 2284.08    9.44   0 
  -1   0  -3  184.72    4.53   0 
   0  -2  -8    9.93    1.60   0 
   0  -2   6   40.39    1.84   0 
   2  -3  -7  199.86    2.69   0 
   2  -2  -5   49.27    1.93   0 
   2  -1   0  541.85    7.06   0 
   3  -4   6   13.01    2.43   0 
   3  -2   0   37.80    2.71   0 
  -5  -3   3    7.00    1.80   0 
  -4  -1   1    6.80    2.10   0 
  -2  -2  -9   85.56    2.31   0 
  -2  -1   4  213.82    2.93   0 
  -1  -2   6    0.31    1.58   0 
   0  -4   8    7.40    1.66   0 
   1  -3   7   77.68    2.33   0 
   2  -4  -8    8.14    2.05   0 
   3  -4  -6   19.57    1.71   0 
   3  -3  -4    4.57    1.80   0 
  -4  -3   5  103.45    2.42   0 
  -3  -3   6    2.76    1.56   0 
  -3  -2   5   35.70    1.83   0 
  -1  -4   8   99.47    2.48   0 
   1  -4   8   16.14    1.78   0 
   1  -3  -8   10.95    1.64   0 
   1  -2   6   83.75    2.54   0 
   3  -5   7    1.89    2.02   0 
   4  -5  -4    0.22    2.05   0 
   4  -4  -2   10.93    1.76   0 
  -2  -3   7    6.74    1.77   0 
  -1  -4 -11    1.62    1.77   0 
   0  -3  -9   11.26    1.66   0 
  -6  -3  -1   19.71    1.86   0 
  -5  -2  -9    8.78    1.73   0 
  -5  -2   0   16.65    2.08   0 
  -3   0  -3  306.32    3.48   0 
   0   0  -4 1317.87   18.25   0 
   3  -3  -6    0.83    1.92   0 
   4  -6   4   31.12    2.18   0 
   4  -4  -4    6.82    2.05   0 
   4  -4   2   23.01    1.69   0 
  -6  -2  -6   -0.18    1.63   0 
  -6  -2  -4   -0.80    1.60   0 
  -5  -1  -5   24.22    1.96   0 
  -5  -1  -4    6.92    1.88   0 
  -4  -1  -8   40.35    1.86   0 
  -4  -1   0    2.68    1.38   0 
  -3  -2 -11   13.52    2.26   0 
  -3   0  -2   49.21    1.94   0 
  -2  -1  -9  264.95    3.92   0 
  -2   0   0   61.78    2.51   0 
   2  -1  -2    1.07    2.02   0 
   3  -3   3   19.64    1.80   0 
   3  -2  -2   33.97    1.73   0 
   3  -2  -1   17.03    1.98   0 
   3  -2   0   37.58    1.85   0 
   4  -5   3   -1.11    1.52   0 
  -5  -3   2    3.34    1.70   0 
  -5  -1  -3  840.77    4.84   0 
  -3  -1  -9    8.87    1.74   0 
  -3  -1   2    1.00    1.87   0 
  -3   0  -5   25.90    1.68   0 
  -2  -2 -11   11.09    2.24   0 
   2  -5   6   34.20    2.22   0 
   2  -1  -1   21.68    2.07   0 
   4  -4  -3    6.71    1.57   0 
   4  -4   1   -0.54    1.49   0 
  -6  -2  -2    2.45    1.96   0 
  -5  -1  -7  102.17    2.14   0 
  -3   0  -6   18.35    1.94   0 
  -3   0  -1    7.34    1.69   0 
   1  -4   6    1.42    1.84   0 
   2  -2  -6    2.42    2.13   0 
   4  -6   3    2.80    1.60   0 
   4  -5  -5   -0.50    2.06   0 
   4  -5   2    8.16    1.66   0 
   4  -4  -2   10.64    1.63   0 
   4  -4  -1    3.70    1.54   0 
  -5  -2   1   90.00    2.42   0 
  -4  -1  -9    1.76    1.69   0 
  -4  -1   1    5.65    1.90   0 
  -2  -1   3    6.13    1.94   0 
  -1   0  -6   80.78    3.11   0 
   0  -1   3 1719.58   16.66   0 
   1  -2   4 1496.54    8.80   0 
   2  -6   6    4.28    2.27   0 
   3  -6   5    3.25    1.66   0 
   3  -4  -7   82.20    2.76   0 
   3  -3  -5    5.27    1.91   0 
   3  -3   2   47.99    1.90   0 
  -6  -2  -1    3.44    1.94   0 
  -5  -1  -1   34.73    1.73   0 
  -4   0  -5   10.29    1.47   0 
  -4   0  -4   17.31    1.69   0 
  -1   0   1  282.40    6.04   0 
   1  -3   5   26.45    2.09   0 
   1  -1   2  395.90    5.25   0 
   2  -4   5    2.26    1.56   0 
   2  -3   4  417.12    3.90   0 
   4  -6   2    0.57    1.98   0 
   4  -5  -4    0.35    1.59   0 
   4  -5   1  103.75    2.23   0 
  -4  -3   4   13.83    2.12   0 
  -4  -2   3    1.58    1.93   0 
  -4   0  -6    9.20    1.61   0 
  -3   0   0  615.45    4.81   0 
  -2   0  -7  350.97    4.23   0 
  -2   0   1   80.91    2.95   0 
  -1  -1  -9    8.90    2.74   0 
   1  -2  -8  195.27    5.73   0 
   3  -5   4  238.20    3.05   0 
   3  -4   3   20.28    1.58   0 
   3  -3  -4    3.64    1.94   0 
   3  -3   1   75.18    2.32   0 
   4  -5  -3   49.34    1.91   0 
   4  -5   0    1.31    1.53   0 
  -6  -1  -6   12.92    1.59   0 
  -6  -1  -5    8.80    1.66   0 
  -5  -1  -9   12.67    1.80   0 
  -3  -2   4    2.29    2.12   0 
  -3  -1 -10    3.94    1.99   0 
   0  -4   6   19.83    2.41   0 
   2  -2   2   62.65    2.54   0 
   4  -6   1  283.11    3.13   0 
   4  -5  -2    0.04    1.58   0 
   4  -5  -1    6.23    1.58   0 
  -6  -1  -3    4.48    1.52   0 
  -5  -3   3    9.03    1.82   0 
  -5  -1   0   27.52    1.71   0 
  -4  -1 -10    8.47    1.78   0 
  -4   0  -7   36.51    1.75   0 
  -4   0  -1   38.87    1.73   0 
  -3  -3   5    0.81    2.50   0 
  -1  -2 -11   54.75    4.20   0 
   1  -5   6   25.25    2.07   0 
   2  -5   5    7.64    1.91   0 
   2  -4  -9    0.08    2.05   0 
   3  -6   4   17.87    1.73   0 
   3  -4  -6   19.34    2.07   0 
   3  -3  -3  115.93    2.63   0 
   3  -3   0   19.73    1.75   0 
   4  -6   0  166.59    2.57   0 
  -5   0  -5    3.03    1.51   0 
  -5   0  -4    7.99    1.49   0 
  -4  -1   2   14.54    2.00   0 
  -3   0  -8  613.73    4.94   0 
  -2  -1 -10   23.39    2.19   0 
   2  -2  -5   49.52    2.27   0 
   3  -4   2    0.63    1.48   0 
   3  -3  -2   44.15    1.72   0 
   3  -3  -1  100.15    2.09   0 
   4  -6  -3   49.84    1.92   0 
   4  -6  -2   16.27    1.62   0 
  -5   0  -6  109.44    2.13   0 
  -4   0  -8    8.26    1.90   0 
  -4   0   0    0.61    1.71   0 
  -3  -1   3  103.04    2.77   0 
  -3   0   1  207.84    3.08   0 
   1  -6   6    4.29    1.98   0 
   2  -4   4  474.66    4.20   0 
   2  -3   3   23.14    1.66   0 
   3  -5  -7   35.59    2.37   0 
  -6  -1  -1   16.66    1.99   0 
  -5  -1   1  134.97    2.47   0 
  -5   0  -7   26.16    1.61   0 
  -5   0  -2  195.70    2.69   0 
  -2   0  -8    3.96    1.85   0 
  -1  -4   6   20.08    3.23   0 
   2  -3  -7  192.48    3.48   0 
   2  -2   1 1171.44    6.32   0 
   3  -6   3    9.24    1.43   0 
   3  -4  -5   12.89    1.59   0 
   3  -4   1 1128.98    5.50   0 
  -1   0  -7   92.11    3.21   0 
   1  -4   5   18.12    2.06   0 
   3  -7   3    5.04    1.51   0 
  -5   0  -8    2.50    1.49   0 
  -5   0  -1   31.43    1.75   0 
  -3  -1 -11   14.63    2.04   0 
  -3   1  -4   17.90    1.59   0 
  -3   1  -3  692.45    4.67   0 
  -2   1  -3   -0.48    2.03   0 
   0  -5   6   64.57    2.81   0 
   0  -3   5   42.80    2.60   0 
   1  -2   3   44.67    2.47   0 
   1  -1  -5  107.96    3.94   0 
   2  -2  -4   48.64    2.05   0 
   2  -2   0   53.73    2.26   0 
   3  -5  -6    4.89    1.94   0 
   3  -4  -4    1.94    1.45   0 
   3  -4   0  173.59    2.53   0 
  -6   0  -6   17.67    1.59   0 
  -6   0  -5   37.40    1.79   0 
  -5  -2   3    9.51    2.07   0 
  -3   0  -9  104.68    2.37   0 
  -3   1  -5    0.95    1.42   0 
  -3   1  -2    2.05    1.39   0 
  -2   0   2   13.59    2.10   0 
  -2   1  -4   81.33    2.33   0 
  -2   1  -2    1.08    1.66   0 
   1  -3   4    6.10    1.85   0 
   2  -5   4   10.26    1.50   0 
   3  -6   2    2.30    1.50   0 
   3  -5   1  130.22    2.53   0 
   3  -4  -3  101.45    2.15   0 
   3  -4  -2    3.46    1.77   0 
   3  -4  -1  120.31    2.22   0 
  -5  -1   2    1.42    1.87   0 
  -5   0   0    5.52    1.39   0 
  -4  -2   4    1.14    1.83   0 
  -4   1  -5    8.77    1.53   0 
  -4   1  -3   23.07    1.61   0 
  -3   0   2   11.39    1.73   0 
  -3   1  -1  148.95    2.74   0 
   0  -2   4   48.37    2.92   0 
   2  -6   4   48.83    2.24   0 
   2  -4  -8    8.98    1.93   0 
   2  -4   3   71.53    1.92   0 
   2  -3   2  263.28    3.17   0 
   2  -2  -2   89.83    2.70   0 
   2  -2  -1   31.81    1.98   0 
   3  -7   2    4.12    1.54   0 
   3  -5  -5    0.28    1.90   0 
  -6   0  -2    1.17    1.50   0 
  -4  -1   3    2.80    1.45   0 
  -4   1  -2   23.19    1.63   0 
  -3   1  -6   38.36    1.80   0 
  -2   1  -5    0.68    1.43   0 
   0  -6   6    5.12    1.91   0 
   2  -7   4    2.11    1.55   0 
   2  -3  -6   -0.80    1.72   0 
   3  -6  -6    3.69    1.91   0 
   3  -6   1   20.40    1.58   0 
   3  -5   0  785.48    4.52   0 
  -6  -1   1   10.15    1.98   0 
  -5   1  -5   11.64    1.44   0 
  -4   0 -10    3.91    2.08   0 
  -4   1  -1    1.31    1.38   0 
   1  -6   5  574.47    4.79   0 
   1  -3  -9    0.56    2.47   0 
   3  -7   1    8.79    1.65   0 
   3  -5  -4  161.95    2.52   0 
   3  -5  -1   -0.90    1.43   0 
  -5   0   1    2.82    1.88   0 
  -5   1  -6    0.56    1.40   0 
  -5   1  -3   45.61    1.75   0 
  -4  -3   5  100.89    3.54   0 
  -4   1  -7   12.87    1.52   0 
  -3   1  -7  866.42    5.52   0 
  -3   1   0   73.66    2.07   0 
  -2  -1 -11   68.72    3.12   0 
  -2   0  -9   16.23    2.00   0 
   1  -7   5   72.74    2.28   0 
   2  -5   3   -0.14    1.34   0 
   2  -3   1 1420.82    6.51   0 
   3  -6   0  252.03    2.82   0 
   3  -5  -2    5.05    1.42   0 
  -5   1  -2    3.99    1.44   0 
  -4   0   2   36.32    1.84   0 
  -3   0 -10   22.40    2.05   0 
  -2   1  -6   30.29    1.77   0 
  -2   1   0  514.84    4.88   0 
  -1  -5   6    7.72    2.61   0 
   2  -4   2   99.40    2.32   0 
   3  -6  -4   30.46    2.04   0 
   3  -6  -1   94.52    2.10   0 
  -6   0   0   27.61    1.75   0 
  -6   1  -5    4.98    1.51   0 
  -6   1  -4    7.97    1.91   0 
  -5   1  -1   13.78    1.93   0 
  -4   1  -8  268.35    3.17   0 
  -4   1   0  231.78    2.77   0 
  -3  -1   4  502.63    5.62   0 
  -2  -1   4  207.72    4.85   0 
   1  -4 -10   35.03    2.74   0 
   1  -4   4   14.19    1.58   0 
   1  -2  -7   30.23    2.65   0 
   2  -7   3    1.49    1.42   0 
   2  -6   3    0.19    1.34   0 
   2  -4  -7    1.59    1.81   0 
   2  -3  -5  118.87    2.75   0 
   3  -7  -1   37.23    1.79   0 
   3  -6  -3    6.34    1.44   0 
   3  -6  -2   20.99    1.59   0 
  -5  -1   3   25.99    2.15   0 
  -5   1  -8   26.78    1.80   0 
  -3   1  -8    9.80    1.84   0 
  -1  -6   6    1.80    2.22   0 
  -1  -1 -10   64.64    4.40   0 
  -1   0   2    2.21    2.20   0 
  -1   1  -3   54.20    2.45   0 
  -1   1  -2  380.03    5.21   0 
   0  -4   5  746.34    6.37   0 
   1  -2   2    1.79    1.72   0 
   2  -5  -8    1.83    1.99   0 
   3  -7  -4   10.05    1.61   0 
   3  -7  -3    9.73    1.58   0 
   3  -7  -2    5.61    1.50   0 
  -6   1  -2   49.50    1.85   0 
  -3  -2   5   34.36    3.23   0 
  -3   1   1  871.92    5.38   0 
  -2   1  -7   62.27    2.37   0 
  -1   0  -8   17.66    2.54   0 
  -1   1  -4 1039.66    7.85   0 
   1  -3   3  275.36    3.73   0 
   2  -5   2   37.79    1.66   0 
   2  -3  -4  134.60    2.82   0 
  -6   0   1   32.68    2.16   0 
  -5   0   2   34.84    1.86   0 
  -5   1   0   33.73    1.64   0 
  -4   1  -9    5.21    2.01   0 
  -4   1   1   42.75    2.00   0 
  -3   0   3    3.72    1.78   0 
   1  -5   4   12.77    1.56   0 
   2  -8   2   -0.78    1.63   0 
   2  -7   2   21.24    1.89   0 
   2  -4  -6    2.72    1.76   0 
   2  -4   1    0.10    1.43   0 
  -6   1  -1   13.80    1.59   0 
  -4  -1   4   80.07    2.57   0 
  -4   2  -5    4.45    1.78   0 
  -4   2  -4  202.14    2.63   0 
  -4   2  -3   83.70    2.00   0 
  -2   0   3   14.92    2.12   0 
  -2   1   1   20.60    2.21   0 
   0  -5   5  409.91    4.53   0 
   1  -7   4  141.80    2.56   0 
   1  -6   4   47.45    1.89   0 
   1  -1  -3  563.18    6.63   0 
   1  -1  -2    5.03    2.32   0 
   2  -3  -2  250.54    3.11   0 
  -5   2  -4   45.19    1.73   0 
  -5   2  -3    0.80    1.33   0 
  -4   0   3   12.13    1.60   0 
  -4   2  -6   -0.04    1.67   0 
  -4   2  -2   84.00    2.05   0 
  -3   2  -4   66.88    1.86   0 
  -3   2  -3    3.21    1.43   0 
  -3   2  -2   43.26    2.04   0 
  -2  -5   6   49.99    3.71   0 
  -1   1  -5   72.95    2.85   0 
   0  -7   5   87.67    2.79   0 
   0  -6   5    4.39    1.94   0 
   2  -5  -7    5.54    1.61   0 
   2  -5   1  163.81    2.46   0 
   2  -4   0 1256.68    6.06   0 
  -5   1   1    2.69    1.46   0 
  -5   2  -6   36.09    1.76   0 
  -5   2  -2    6.86    1.47   0 
  -4  -2   5   24.44    2.73   0 
  -4   2  -1    1.65    1.67   0 
  -3   1  -9   26.36    2.03   0 
  -3   2  -5   25.23    1.60   0 
  -2   0 -10   57.60    2.87   0 
  -1  -3   5 1288.02   12.00   0 
   2  -8   1   77.59    2.00   0 
   2  -7   1   25.50    1.90   0 
   2  -6   1    0.65    1.42   0 
   2  -4  -5  165.96    2.94   0 
  -6   2  -4   -0.27    1.45   0 
  -4   2  -7  578.27    4.22   0 
  -3   1   2   14.29    1.82   0 
  -3   2  -6   65.11    2.27   0 
  -3   2  -1  175.71    2.57   0 
  -2   1  -8    7.92    2.03   0 
   0  -3   4   19.03    2.30   0 
   1  -4   3    6.00    1.39   0 
   1  -3  -8   11.50    2.11   0 
   1  -2   1  170.54    3.52   0 
   2  -6  -7    1.33    1.83   0 
   2  -5  -6    2.78    1.81   0 
   2  -4  -1   57.01    1.90   0 
  -6   2  -3    1.40    1.59   0 
  -5  -1   4   10.58    1.97   0 
  -5   0   3   32.21    2.14   0 
  -5   2  -1    5.08    1.53   0 
  -4   1   2   18.12    1.56   0 
   1  -4  -9   10.87    2.21   0 
   2  -8   0    3.24    1.45   0 
   2  -5   0   17.75    1.59   0 
   2  -4  -4  184.60    2.75   0 
   2  -4  -3   91.61    2.25   0 
   2  -4  -2   48.88    1.79   0 
  -4   2  -8  246.77    3.31   0 
  -4   2   0  452.46    3.67   0 
  -2   2  -4   17.40    1.98   0 
  -2   2  -3   58.02    2.12   0 
  -2   2  -2   60.94    2.66   0 
   1  -7   3    5.19    1.60   0 
   1  -6   3   35.16    2.12   0 
   1  -5   3   94.58    2.26   0 
   2  -7   0   -0.51    1.34   0 
   2  -5  -5   79.05    2.39   0 
   2  -5  -1  448.28    3.84   0 
  -6   2  -1    1.40    1.86   0 
  -5   1   2   55.23    2.02   0 
  -5   2   0   56.64    1.91   0 
  -3   2  -7   76.53    2.15   0 
  -1   1  -6  147.92    3.63   0 
   2  -8  -1   12.96    1.67   0 
   2  -7  -6  200.54    3.08   0 
   2  -7  -1    1.00    1.44   0 
  -3   1 -10    6.67    1.94   0 
  -2   1   2    0.67    1.90   0 
  -2   2  -5  174.88    2.84   0 
  -2   2  -1 1128.75    6.21   0 
   0  -1   2 1166.94   12.71   0 
   1  -8   2   -0.84    1.79   0 
   2  -8  -4   -1.22    1.77   0 
   2  -8  -3  137.19    2.67   0 
   2  -8  -2   16.76    1.64   0 
   2  -7  -5    3.64    1.72   0 
   2  -7  -2   30.47    1.94   0 
   2  -6  -5    0.08    1.47   0 
   2  -6  -2   19.11    1.83   0 
   2  -5  -4   49.51    1.71   0 
   2  -5  -3    7.39    1.42   0 
   2  -5  -2    6.29    1.47   0 
  -4   0   4   14.77    1.96   0 
  -3   0   4 1100.19    7.61   0 
   0  -7   4    5.60    1.56   0 
   0  -4   4    3.44    1.74   0 
   0  -2   3   30.07    2.35   0 
   1  -4   2   23.70    1.97   0 
   2  -7  -4    0.20    1.45   0 
   2  -6  -4   12.71    1.46   0 
   2  -6  -3    1.47    1.41   0 
  -6   2   0    1.94    1.63   0 
  -5   2   1   -0.98    1.44   0 
  -5   3  -5    4.83    1.50   0 
  -5   3  -4   81.45    1.96   0 
  -5   3  -3   -1.89    1.51   0 
  -4   2  -9   58.55    2.19   0 
  -4   3  -5    0.04    1.77   0 
  -4   3  -4   28.70    1.65   0 
  -4   3  -3   95.77    2.03   0 
  -3   2  -8   15.07    2.07   0 
  -3   2   1   17.30    1.57   0 
  -2   2  -6    0.79    1.86   0 
  -1  -6   5    6.52    2.17   0 
  -1  -4   5    4.46    2.11   0 
   0  -6   4  246.60    3.54   0 
   0  -5   4  544.58    4.94   0 
   1  -7   2   32.47    1.62   0 
   1  -5  -9    5.08    2.11   0 
   1  -3  -7    6.79    2.18   0 
  -5   0   4   15.34    1.97   0 
  -5   3  -6    4.68    1.49   0 
  -5   3  -2   11.92    1.55   0 
  -4  -1   5    0.15    2.21   0 
  -4   3  -6    4.20    1.92   0 
  -4   3  -2   83.98    2.05   0 
  -3   1   3   49.96    1.98   0 
  -2   1  -9   27.38    2.39   0 
  -2   2   0   54.84    2.34   0 
  -1  -5   5  144.44    3.55   0 
   1  -6   2   26.75    1.56   0 
   1  -5   2  150.37    2.41   0 
   1  -4  -8   27.67    2.02   0 
   1  -3   1   69.21    2.21   0 
   1  -2  -5    3.69    1.85   0 
  -5   1   3   -0.84    1.54   0 
  -5   3  -1   22.04    1.63   0 
  -4   3  -1   13.94    1.46   0 
  -3  -1   5   53.33    3.13   0 
  -3   3  -4   81.68    2.21   0 
  -3   3  -3   18.49    1.71   0 
   0  -8   3    2.55    1.87   0 
   1  -6  -9   24.82    2.16   0 
  -4   2   2   96.73    2.17   0 
  -3   3  -5    1.07    1.68   0 
  -3   3  -2   50.84    1.83   0 
  -1   0  -9    3.24    3.33   0 
  -1   1   1 2086.98   11.81   0 
   0  -2  -9    0.45    2.90   0 
   1  -7   1   20.38    1.61   0 
  -5   2   2   -0.61    1.53   0 
  -5   3   0  149.22    2.42   0 
  -4   3   0    0.33    1.43   0 
  -3   2  -9   11.34    2.00   0 
  -3   2   2   32.02    1.95   0 
  -2   0 -11   61.39    3.56   0 
  -2   2  -7    2.17    1.85   0 
   0  -3 -10   93.82    3.71   0 
   1  -9  -1   -0.86    1.53   0 
   1  -6   1  140.36    2.54   0 
   1  -4   1    0.63    1.55   0 
   1  -2  -4 1121.49    7.57   0 
  -3   3  -6    2.91    1.58   0 
  -2   2   1   30.18    1.98   0 
  -1   1  -7    4.92    2.07   0 
   0  -7   3   43.12    1.94   0 
   1  -5  -8   92.19    2.36   0 
   1  -5   1  202.90    2.70   0 
   1  -3  -6   55.11    2.28   0 
   1  -3   0  484.82    4.54   0 
   1  -2  -3  101.89    3.01   0 
  -3   3   0   15.27    1.71   0 
  -2   0   4   33.85    2.58   0 
   0  -6   3    3.82    1.78   0 
   0  -3   3   65.27    2.53   0 
   1  -9  -2    8.66    1.59   0 
   1  -8  -1    9.77    1.63   0 
   1  -7   0  189.75    2.61   0 
   1  -6  -8    1.68    1.63   0 
   1  -4  -7   24.58    2.02   0 
  -5   3   1    4.15    1.32   0 
  -5   4  -5    4.24    1.63   0 
  -5   4  -4   18.25    1.71   0 
  -5   4  -3   82.31    1.98   0 
  -4   1   4  726.19    5.50   0 
  -4   3   1   22.65    1.67   0 
  -2   1   3   26.00    1.81   0 
  -1  -7   4    0.88    1.93   0 
   0  -8   2   43.20    1.90   0 
   1  -9  -3   23.62    1.69   0 
   1  -6   0   15.24    1.85   0 
  -5   1   4    2.84    1.61   0 
  -5   2   3   93.50    2.33   0 
  -5   4  -2    0.84    1.54   0 
  -4   2   3   17.29    1.68   0 
  -4   4  -3   38.39    1.69   0 
  -2   3  -3   24.22    1.96   0 
  -1   2  -3   45.82    2.50   0 
  -1   2  -2    0.89    2.04   0 
   0  -5   3   18.83    1.75   0 
   0  -4   3   -0.97    1.74   0 
   1  -8  -2    1.61    1.50   0 
   1  -7  -7  149.12    2.81   0 
   1  -7  -1    8.94    1.47   0 
   1  -5  -7  145.41    2.96   0 
   1  -5   0    3.03    1.46   0 
   1  -4   0  856.07    5.26   0 
   1  -3  -5  194.96    3.28   0 
  -5   4  -1    3.40    1.50   0 
  -4   0   5   10.14    1.96   0 
  -4   4  -5    4.13    1.49   0 
  -4   4  -2   22.86    1.62   0 
  -3   1   4   90.87    2.75   0 
  -3   3   1  108.57    2.16   0 
  -2  -6   5   47.32    2.77   0 
  -2   2  -8    6.59    2.00   0 
  -2   3  -4  407.83    3.80   0 
  -2   3  -2  261.83    3.21   0 
  -1   2  -4 1443.24    8.56   0 
   0  -7   2    7.94    1.89   0 
   1  -8  -5    0.95    1.59   0 
   1  -8  -4    3.52    1.52   0 
   1  -8  -3   11.09    1.50   0 
   1  -6  -7  390.20    3.80   0 
   1  -4  -6   19.59    2.12   0 
   1  -3  -1  854.33    5.70   0 
  -5   3   2    4.64    1.51   0 
  -4   3   2    5.74    1.53   0 
  -4   4  -6   30.63    1.80   0 
  -4   4  -1    0.79    1.41   0 
  -3   2   3   22.34    1.80   0 
  -2   1 -10   -0.28    2.21   0 
  -2   2   2   88.76    2.80   0 
  -2   3  -5   46.27    2.33   0 
  -2   3  -1 1376.41    6.55   0 
  -1  -8   3    2.89    2.04   0 
  -1  -6   4   56.87    2.36   0 
  -1   2  -1  169.14    3.65   0 
   0  -9   0    3.84    1.97   0 
   1  -7  -6    3.96    1.51   0 
   1  -7  -2   17.69    1.61   0 
   1  -6  -1   11.06    1.57   0 
   1  -3  -4    8.55    1.93   0 
   1  -3  -2  477.22    4.70   0 
  -5   4   0   46.00    1.80   0 
  -3   3  -8    1.38    1.52   0 
  -3   4  -3   19.44    1.89   0 
  -1  -2   4   14.49    3.18   0 
  -1   0   3  927.65   11.83   0 
   0  -8   1    9.93    1.71   0 
   0  -4 -10   25.13    2.24   0 
   1  -7  -5    9.23    1.51   0 
   1  -7  -4   43.33    1.80   0 
   1  -7  -3   25.90    1.70   0 
   1  -6  -2  138.00    2.37   0 
   1  -5  -1   51.59    1.84   0 
   1  -4  -5  178.30    3.07   0 
   1  -3  -3  209.44    3.25   0 
  -4  -2   6   25.94    3.97   0 
  -4   4   0   13.15    1.68   0 
  -3   0   5  307.96    4.93   0 
  -3   4  -4  118.62    2.30   0 
  -3   4  -2    2.17    1.45   0 
  -2  -5   5    4.68    2.44   0 
  -2   3   0 5039.13   12.29   0 
  -1   2  -5    5.76    2.23   0 
   0  -6   2    5.30    1.48   0 
   1  -6  -5   42.37    1.75   0 
   1  -6  -3  394.69    3.46   0 
   1  -5  -5   14.42    1.54   0 
   1  -5  -2   46.45    1.80   0 
   1  -4  -4    0.78    1.78   0 
  -5   2   4   50.50    2.62   0 
  -5   4   1   61.07    2.04   0 
  -4   2   4  301.04    3.86   0 
  -3   3   2   43.74    1.73   0 
  -3   4  -5   49.08    1.92   0 
  -2   3  -6   31.90    2.24   0 
   0  -9  -1    0.69    1.53   0 
   0  -5 -10    8.87    2.08   0 
   0  -2   2   80.88    3.25   0 
   1  -5  -4    7.36    1.46   0 
   1  -5  -3  314.49    3.20   0 
  -5   3   3   26.89    1.87   0 
  -4   3   3    1.53    1.90   0 
  -4   4   1    4.13    1.54   0 
  -3   4  -6   12.34    2.16   0 
  -1  -7   3    1.52    1.57   0 
  -1  -4   4  643.11    6.39   0 
   0  -8   0    4.31    1.53   0 
   0  -7   1   17.91    1.62   0 
   0  -5   2    0.72    1.42   0 
   0  -3  -9   10.36    2.39   0 
  -4   1   5    6.90    2.13   0 
  -3   4   0  179.74    2.66   0 
  -2  -4   5   61.52    3.54   0 
  -2   3   1  177.25    2.88   0 
  -1  -8   2   48.48    2.08   0 
  -1  -3   4  687.30    7.40   0 
  -1   1  -8  190.46    5.46   0 
   0  -4   2    2.79    1.97   0 
   0  -1  -7    0.07    2.73   0 
  -5   4   2   13.43    1.76   0 
  -5   5  -1    9.88    1.66   0 
  -4   5  -4    1.07    1.65   0 
  -4   5  -3    0.48    1.52   0 
  -4   5  -2    8.42    1.65   0 
  -2  -2   5  129.13    7.75   0 
  -2   2  -9   27.69    2.67   0 
   0  -9  -4   12.53    2.00   0 
   0  -9  -3   82.06    2.21   0 
   0  -8  -1   76.32    2.10   0 
   0  -6   1   64.05    2.28   0 
   0  -3   2  267.64    4.00   0 
   0  -2  -8   10.61    2.53   0 
  -5   5   0   -1.54    1.58   0 
  -4  -1   6    5.32    3.05   0 
  -4   4   2   11.73    1.54   0 
  -4   5  -5   17.57    1.79   0 
  -4   5  -1  106.92    2.28   0 
  -3   2   4  126.14    2.73   0 
  -3   4  -7    2.17    1.94   0 
  -3   4   1  117.87    2.33   0 
  -2   1   4    0.96    2.19   0 
  -2   2   3  731.29    5.74   0 
  -2   3  -7    2.20    1.95   0 
  -1  -2 -11   54.31    4.29   0 
  -1   2  -6   83.68    3.02   0 
   0  -9  -5    8.55    1.61   0 
   0  -7   0   76.39    2.10   0 
  -4   5  -6    2.01    1.67   0 
  -4   5   0    1.34    1.85   0 
  -2  -3   5   56.34    3.97   0 
  -2   4  -3   73.60    2.28   0 
  -1  -9   0    2.16    2.01   0 
   0  -8  -7    2.60    2.13   0 
   0  -8  -2  166.65    2.59   0 
   0  -6  -9    9.38    1.82   0 
   0  -5  -9   68.33    2.60   0 
  -4   3   4    0.29    1.99   0 
  -3   1   5  365.77    4.78   0 
  -2   3   2  251.82    3.49   0 
  -2   4  -4  484.41    4.43   0 
  -2   4  -1    1.06    1.53   0 
  -1  -8   1   98.25    2.54   0 
  -1   2   1 1216.89    7.90   0 
   0  -8  -3    4.98    1.59   0 
   0  -7  -8    9.54    1.74   0 
   0  -7  -1    8.54    1.64   0 
   0  -5   1  390.33    3.77   0 
  -4   2   5  112.31    3.01   0 
  -4   5   1    6.27    1.91   0 
  -3   4   2    1.65    1.50   0 
  -3   5  -4  237.41    3.08   0 
  -3   5  -3    4.86    1.70   0 
  -3   5  -2   -1.83    1.57   0 
  -2  -6   4    3.24    2.00   0 
   0  -8  -5    5.56    1.54   0 
   0  -8  -4    4.33    1.52   0 
   0  -6   0  161.88    2.52   0 
   0  -1   1   36.12    4.00   0 
  -4   0   6   19.38    2.94   0 
  -4   4   3    6.62    1.67   0 
  -2   3  -8  106.07    3.29   0 
  -2   4  -5    2.63    1.56   0 
  -2   4   0 1214.95    6.16   0 
  -1  -9  -1    5.54    1.73   0 
  -1  -5   3   62.37    2.52   0 
   0  -7  -7    6.51    1.46   0 
   0  -6  -8  328.00    3.64   0 
   0  -4   1  840.44    5.95   0 
   0  -3  -8    0.62    2.16   0 
  -2  -7   3   11.62    2.26   0 
  -1   3  -3  268.14    3.78   0 
  -1   3  -1   70.48    2.68   0 
   0  -7  -6    1.77    1.57   0 
  -4   5   2    1.32    1.54   0 
  -4   6  -4   34.80    1.96   0 
  -4   6  -3    1.58    1.59   0 
  -4   6  -2    0.72    1.66   0 
  -3  -5   5   69.42    3.50   0 
  -3   3   4    5.05    1.94   0 
  -3   5  -6   12.74    1.76   0 
  -2   4  -6   32.97    2.24   0 
  -2   4   1   56.92    2.36   0 
  -1  -8   0   22.30    1.74   0 
  -1  -6   2   10.27    2.00   0 
  -1   3  -4    5.10    2.05   0 
   0  -7  -5   93.23    2.27   0 
   0  -6  -7   21.89    2.08   0 
   0  -6  -1  153.95    2.56   0 
   0  -5   0  124.01    2.54   0 
   0  -4  -8   32.27    1.93   0 
   0  -3   1    2.62    2.21   0 
  -4   6  -1  291.32    3.32   0 
  -3   4   3  105.35    2.32   0 
  -3   5   1    1.83    1.58   0 
  -1  -7   1   77.68    2.19   0 
  -1  -3 -11   78.07    3.52   0 
  -1   2  -7    5.05    2.23   0 
   0  -2   1  190.65    4.19   0 
  -4   1   6   61.09    3.13   0 
  -4   4   4    6.79    1.81   0 
  -4   6   0  181.59    2.77   0 
  -3   2   5   10.81    2.04   0 
  -2   2 -10   21.14    3.19   0 
  -2   2   4   50.44    2.46   0 
  -2   3   3  314.74    3.71   0 
  -1  -9  -4   77.66    2.27   0 
  -1  -8  -1    0.98    1.95   0 
  -1  -4   3    0.36    1.98   0 
  -1   2   2  370.03    4.93   0 
  -1   3   0  500.64    4.71   0 
   0  -6  -6   94.00    2.22   0 
   0  -6  -2   14.89    1.71   0 
   0  -5  -7  334.55    3.94   0 
   0  -2  -7   19.55    2.45   0 
  -4   3   5  194.42    3.31   0 
  -4   5   3   46.61    2.05   0 
  -4   6   1   21.96    2.25   0 
  -1  -9  -5    7.99    1.63   0 
  -1  -4 -11    1.49    2.20   0 
  -1  -1 -10   63.16    4.89   0 
  -1   3  -5   27.01    2.25   0 
   0  -6  -5   15.55    1.65   0 
   0  -6  -4    2.10    1.60   0 
   0  -6  -3   53.59    2.04   0 
   0  -5  -1  155.23    2.63   0 
   0  -4  -7 1336.02    7.65   0 
   0  -4   0   39.24    2.33   0 
  -3   6  -3    8.00    1.53   0 
  -3   6  -2    1.92    1.59   0 
  -2  -8   1   19.06    2.23   0 
  -2   0   5  218.54    5.88   0 
  -2   4  -7   19.91    2.19   0 
  -2   4   2   51.61    1.99   0 
  -2   5  -3    1.22    1.51   0 
  -2   5  -2   37.44    1.85   0 
  -2   5  -1  164.80    2.69   0 
  -1  -7   0   12.98    1.68   0 
  -1   1   3  582.02    7.27   0 
   0  -5  -6   25.44    2.12   0 
   0  -3  -7   69.40    2.72   0 
  -3  -6   4   45.39    2.61   0 
  -3   6   0  258.51    3.36   0 
  -2  -7   2    1.74    2.12   0 
  -2   3  -9    7.65    2.46   0 
  -2   5  -4    9.79    1.74   0 
  -2   5   0   20.28    1.81   0 
  -1  -6   1   30.54    2.06   0 
  -1  -5   2    8.60    2.22   0 
  -1   3   1  844.17    6.01   0 
   0  -5  -2    1.60    1.48   0 
   0  -1  -6    1.12    2.63   0 
  -4   2   6   49.99    2.77   0 
  -3   0   6  152.27    5.52   0 
  -3   4   4    2.40    1.66   0 
  -3   6  -5    1.88    1.67   0 
  -2   5  -5    6.83    2.06   0 
  -1  -8  -7  129.05    2.55   0 
  -1  -8  -3  224.75    3.03   0 
  -1  -7  -9   57.81    2.17   0 
   0  -5  -5  301.67    3.34   0 
   0  -5  -4  149.15    2.60   0 
   0  -5  -3  939.28    5.60   0 
   0  -4  -6  396.30    4.40   0 
   0  -4  -1  118.36    2.56   0 
   0  -3   0   12.53    2.26   0 
   0   1  -2 1183.19   13.88   0 
  -4   4   5    1.84    2.15   0 
  -4   5   4    0.98    1.71   0 
  -3  -4   5   99.09    4.20   0 
  -3   3   5    5.11    1.66   0 
  -3   5   3   36.40    1.80   0 
  -2  -9  -2    0.43    2.05   0 
  -2   5   1  442.89    3.94   0 
  -1  -8  -6    8.80    1.67   0 
  -1  -8  -5    5.17    1.69   0 
  -1  -8  -4    8.05    1.76   0 
  -1  -7  -1   21.40    1.83   0 
  -1   3  -6   27.92    2.38   0 
  -1   4  -2   24.02    2.28   0 
   0   1  -3 1705.80   17.43   0 
  -4   6   3   54.40    2.53   0 
  -2  -4   4  130.81    3.69   0 
  -2   1   5   55.16    3.04   0 
  -2   3   4  132.37    2.92   0 
  -2   4   3   89.76    2.27   0 
  -1  -7  -8   -0.25    1.76   0 
  -1  -5 -10    3.22    1.87   0 
  -1   4  -3    4.91    1.66   0 
  -1   4  -1    2.63    1.70   0 
   0  -4  -5   19.40    2.17   0 
   0  -3  -6  200.00    3.68   0 
  -3   1   6   29.55    2.95   0 
  -3   6   2   19.74    1.86   0 
  -2  -9  -3    7.68    1.81   0 
  -2   4  -8   78.19    2.96   0 
  -2   5  -6   33.44    2.43   0 
  -1  -7  -2  917.41    5.35   0 
  -1  -6  -9   -1.75    1.75   0 
  -1  -6   0   -0.25    1.64   0 
  -1  -4 -10    1.87    2.48   0 
  -1   3   2  494.01    5.14   0 
  -1   4  -4   16.08    2.32   0 
   0  -4  -4   63.29    2.64   0 
   0  -4  -3  797.16    5.78   0 
   0  -2  -6    5.89    2.21   0 
   0  -2   0 1990.10   11.99   0 
  -4   3   6    2.54    2.25   0 
  -3   7  -3    4.16    2.15   0 
  -3   7  -2    3.02    1.78   0 
  -2  -9  -4    4.05    1.86   0 
  -2  -7   1   99.07    2.61   0 
  -2   5   2    8.35    1.74   0 
  -2   6  -2   65.39    2.52   0 
  -1  -7  -7    5.25    1.68   0 
  -1  -7  -3   84.01    2.58   0 
  -1  -2 -10   27.82    3.22   0 
   0  -3  -1  147.86    3.28   0 
   0   1  -1   34.83    4.29   0 
  -3   4   5   12.11    2.28   0 
  -3   5   4  165.89    2.87   0 
  -3   7  -1   10.33    1.98   0 
  -3   7   0   25.81    1.89   0 
  -2  -8  -1    7.32    1.68   0 
  -2  -6   2   57.80    2.59   0 
  -2  -5   3    0.20    2.03   0 
  -2   6  -3    0.40    1.67   0 
  -2   6  -1    1.98    1.71   0 
  -1  -7  -5   35.41    1.89   0 
  -1  -7  -4  131.35    2.54   0 
  -1  -4   2   49.06    2.25   0 
  -1   2  -8  152.85    5.19   0 
   0  -3  -5   19.03    2.22   0 
  -4   5   5    2.59    1.81   0 
  -3  -5   4    2.21    2.52   0 
  -3   2   6   72.60    2.98   0 
  -3   6   3    6.90    1.66   0 
  -2   2   5   51.08    2.62   0 
  -2   5  -7   21.66    2.47   0 
  -2   6  -4   49.06    2.19   0 
  -1  -6  -8    9.81    1.99   0 
  -1  -6  -1    0.02    1.62   0 
  -1  -5  -9   67.43    2.60   0 
  -1   4  -5   17.01    2.41   0 
  -3  -7   2    2.29    1.99   0 
  -3   7   1   38.14    2.10   0 
  -2  -8  -2  162.05    2.74   0 
  -2   4   4  197.81    3.16   0 
  -2   5   3    6.13    1.63   0 
  -2   6   1    0.66    1.62   0 
   0  -3  -4  126.48    3.10   0 
   0  -2  -5   84.31    3.04   0 
   0   1  -4  892.28   14.82   0 
  -3   7   2    6.49    2.18   0 
  -2  -8  -3   16.58    2.23   0 
  -2  -7   0    0.67    1.69   0 
  -2   6  -5    4.02    1.83   0 
  -1  -6  -7    2.04    1.56   0 
  -1  -6  -2  110.62    2.51   0 
  -1  -2   3  199.33    5.13   0 
  -1   5  -2  151.33    2.98   0 
   0  -2  -1 1709.76   11.13   0 
   0  -1  -5  583.90    8.10   0 
  -3  -8   0    9.72    1.93   0 
  -3   3   6   -1.03    1.65   0 
  -2  -8  -7   58.04    2.20   0 
  -2   3   5  121.85    3.30   0 
  -2   6   2   21.21    1.84   0 
  -1  -6  -6  141.13    2.67   0 
  -1  -5  -8   18.39    2.31   0 
  -1  -5   0   28.77    1.96   0 
  -1  -4  -9   50.73    2.70   0 
  -1   3   3  210.23    3.62   0 
  -1   4   2  113.06    2.69   0 
  -1   5   0    5.09    2.02   0 
  -2  -8  -6    0.57    1.83   0 
  -2  -8  -5   14.17    1.94   0 
  -2  -6   1  105.59    2.95   0 
  -2   6  -6    2.12    2.41   0 
  -1  -6  -5  112.99    2.52   0 
  -1  -6  -3   53.35    2.12   0 
  -1   4  -6    0.89    2.14   0 
   0  -2  -4    3.54    2.48   0 
  -3  -7   1   35.97    2.53   0 
  -3   4   6   17.90    2.49   0 
  -3   7   3    8.98    2.01   0 
  -2  -7  -1    7.51    1.82   0 
  -2  -3   4  196.64    4.69   0 
  -2   5   4   48.65    2.16   0 
  -2   7  -3    2.63    1.69   0 
  -2   7  -2   20.51    1.94   0 
  -2   7  -1   27.45    1.85   0 
  -2   7   0    0.77    1.70   0 
  -1  -4   1    1.10    1.85   0 
  -1   5  -4   14.95    2.00   0 
  -1   5   1   49.58    2.06   0 
   0  -2  -3   98.30    3.57   0 
   0   2  -2   83.31    3.69   0 
  -3  -8  -1   54.97    2.33   0 
  -3  -3   5    0.50    3.30   0 
  -2  -6 -10  144.35    3.03   0 
  -2   6   3    3.76    1.81   0 
  -2   7  -4    0.82    2.33   0 
  -2   7   1    1.19    1.71   0 
  -1  -5  -7  248.88    3.41   0 
  -1  -3  -9  167.04    3.63   0 
  -1  -3   2    2.70    2.22   0 
   0   2  -3   31.16    3.10   0 
  -3   6   5   43.57    2.16   0 
  -2  -7  -8  103.06    2.49   0 
  -2  -7  -2    3.42    1.89   0 
  -2  -4   3   22.73    2.53   0 
  -1  -4  -8  385.57    4.56   0 
  -1   1   4  562.14    7.97   0 
  -1   4   3  200.20    3.27   0 
  -1   5  -5   75.68    2.94   0 
  -3  -8  -2   23.99    2.04   0 
  -3   7   4    9.16    2.05   0 
  -2  -7  -7   75.67    2.35   0 
  -2  -7  -3  315.40    3.46   0 
  -2  -6   0    0.15    2.01   0 
  -2   7   2   29.96    1.92   0 
  -1  -5  -2   36.26    2.05   0 
  -1  -2  -9   15.67    2.65   0 
  -1   2   4 1129.50    8.63   0 
  -1   6  -1  144.75    2.69   0 
   0  -1  -4  155.80    4.96   0 
  -3  -7   0    0.69    2.40   0 
  -3   5   6    3.95    1.94   0 
  -2  -7  -5    9.41    1.81   0 
  -2  -7  -4    3.09    1.75   0 
  -2  -6  -9    2.66    1.86   0 
  -2  -4 -11   17.09    2.62   0 
  -2   6   4   12.58    1.77   0 
  -1  -5  -5    4.50    2.02   0 
  -1  -5  -3   22.04    2.32   0 
  -1   3   4    9.09    2.30   0 
  -1   6   0   13.57    1.87   0 
   0   2   0 2040.37   12.64   0 
  -3  -8  -3    1.96    1.88   0 
  -3  -5   3   27.75    2.16   0 
  -3  -4   4   -0.09    2.19   0 
  -2  -5 -10  109.92    3.33   0 
  -2   7   3   59.59    2.21   0 
  -2   8  -2    3.20    2.04   0 
  -2   8  -1   75.27    2.43   0 
  -1  -5  -4    9.15    1.86   0 
  -1  -4   0  854.43    6.25   0 
  -1   0  -9    3.26    4.12   0 
  -1   3  -8    1.70    3.02   0 
  -1   4  -7    8.36    2.36   0 
  -1   6   1   11.64    1.90   0 
   0   2  -4   47.38    3.75   0 
   0   3  -2  265.38    4.63   0 
   0   3  -1    3.61    2.54   0 
  -3  -8  -7    0.82    1.86   0 
  -3  -8  -5   27.84    2.25   0 
  -3  -8  -4    1.76    1.77   0 
  -2   3   6    0.33    2.61   0 
  -2   8   1   14.40    1.92   0 
  -1  -4  -7   51.75    2.42   0 
  -1  -1  -9    8.92    3.16   0 
  -1   5  -6   23.45    2.50   0 
  -1   5   3  321.81    3.67   0 
  -1   6  -4   44.92    2.72   0 
   0  -1  -3 1072.77   11.43   0 
  -3   2   7    2.79    2.73   0 
  -3   3   7   34.49    2.75   0 
  -3   6   6    3.19    2.00   0 
  -2  -6  -8   29.51    2.12   0 
  -2  -5   1   35.06    2.14   0 
  -2  -3 -11    3.38    2.71   0 
  -1  -3  -8  162.69    3.43   0 
  -1   4   4    1.61    1.71   0 
  -1   6   2  142.00    2.81   0 
   0  -1  -2  661.74    9.52   0 
   0   3  -3   65.06    2.99   0 
   0   3   0   10.79    2.44   0 
  -4  -2   6   25.78    4.96   0 
  -3   4   7   81.56    3.37   0 
  -2  -6  -7   22.59    2.31   0 
  -2   4   6    1.85    2.25   0 
  -2   6   5   -0.45    1.91   0 
  -2   7   4   -0.63    1.93   0 
  -1  -4  -6    1.91    2.07   0 
  -1  -4  -1   24.12    2.14   0 
  -1   7  -1   19.87    2.01   0 
   0   2   1 1775.38   12.04   0 
  -4  -6   2   22.10    2.90   0 
  -2  -5  -9    1.21    2.02   0 
  -2  -4 -10    9.51    2.51   0 
  -2   1   6    2.50    2.90   0 
  -2   8   3  136.54    2.97   0 
  -1  -3   1  913.11    7.50   0 
  -1   5   4    6.53    2.14   0 
  -1   6  -5  587.70    5.44   0 
  -1   6   3  387.12    3.91   0 
  -1   7  -2   32.48    2.09   0 
  -1   7   1    8.35    1.91   0 
  -3  -7  -8   15.58    2.03   0 
  -3  -7  -2    8.19    1.89   0 
  -3   1   7    1.15    3.69   0 
  -3   5   7   34.43    2.59   0 
  -2  -6  -6   91.35    2.52   0 
  -2  -6  -5   58.46    2.55   0 
  -2  -4   2    3.64    2.33   0 
  -1  -4  -5   34.38    2.54   0 
  -1   7  -3    5.72    2.03   0 
   0   0  -4 1330.18   20.45   0 
   0   3  -4   22.11    2.91   0 
   0   3   1  149.34    3.52   0 
   0   4  -2    2.86    1.96   0 
   0   4   0   36.31    2.57   0 
  -3  -7  -7   -0.12    2.36   0 
  -3  -7  -3  133.24    2.70   0 
  -3  -5   2   14.18    2.44   0 
  -2  -2 -11   12.95    3.02   0 
  -2   7   5    3.83    1.97   0 
  -2   8   4    1.55    2.36   0 
  -1  -4  -4  495.19    5.01   0 
  -1  -4  -3    1.80    2.25   0 
  -1  -3  -7 1190.44    8.11   0 
  -1  -2  -8   87.24    3.53   0 
  -1   0   4   16.61    5.82   0 
  -1   5  -7   13.43    2.94   0 
  -1   7  -4  139.92    3.50   0 
  -1   7   2   19.00    1.99   0 
   0   4  -3   -1.33    2.26   0 
  -4  -5   3   14.52    2.85   0 
  -3  -7  -5    1.39    2.38   0 
  -3  -7  -4    4.04    1.87   0 
  -3  -6   0    5.93    1.78   0 
  -2  -5  -8    2.31    1.93   0 
  -2   6   6   49.98    2.89   0 
  -1  -2   2   91.80    3.91   0 
  -1   3   5  191.14    3.95   0 
  -1   4   5  182.74    3.65   0 
  -1   6  -6    4.06    2.60   0 
  -1   6   4   15.98    1.93   0 
  -1   7   3   25.61    2.45   0 
   0   4   1  121.11    2.88   0 
  -4  -7  -1   13.25    2.20   0 
  -4  -4   4   37.11    3.31   0 
  -4  -3   5  103.75    4.74   0 
  -2  -3   3    2.44    2.34   0 
  -1   2   5    5.28    2.83   0 
  -1   8  -1    1.50    1.97   0 
  -1   8   0   52.71    2.34   0 
  -1   8   1    7.19    2.07   0 
   0   3   2  309.25    4.87   0 
   0   5  -2    1.04    2.21   0 
   0   5  -1  394.71    4.32   0 
   0   5   0  125.02    2.86   0 
  -4  -6   1   32.42    2.53   0 
  -2  -5  -7   14.92    2.38   0 
  -2  -5  -1   21.12    2.02   0 
  -2  -4  -9    1.19    2.50   0 
  -2  -3 -10    2.25    2.41   0 
  -2  -2   4 1728.29   14.20   0 
  -2  -1 -11   70.00    4.34   0 
  -1   5   5   14.28    1.99   0 
  -1   7  -5   68.06    3.42   0 
  -1   8   2    1.59    2.11   0 
   0   2  -5  117.08    5.37   0 
   0   2   2  110.42    4.44   0 
   0   4  -4    3.15    2.31   0 
   0   4   2    6.43    2.03   0 
   0   5   1  150.29    2.98   0 
  -4  -7  -2   42.85    2.39   0 
  -3  -6  -1    9.02    1.98   0 
  -2   7   6  199.81    3.49   0 
  -1  -3  -6    1.39    2.26   0 
  -1   7   4   42.26    2.27   0 
  -1   8  -3   21.82    2.28   0 
   0   5  -3   18.82    2.65   0 
  -3  -5 -10    4.66    2.11   0 
  -3  -5   1  214.77    3.86   0 
  -2  -5  -6  104.22    2.61   0 
  -2  -5  -2  753.99    5.50   0 
  -2   3   7  186.15    4.73   0 
  -2   4   7    2.68    1.98   0 
  -2   5   7    7.30    2.44   0 
  -1   6   5   45.47    2.23   0 
   0   3  -5   43.12    3.32   0 
   0   5   2    1.63    1.81   0 
  -4  -7  -3    1.71    2.08   0 
  -3  -6  -7   13.77    2.45   0 
  -3  -6  -2  144.93    3.09   0 
  -3  -3   4   82.18    3.62   0 
  -3  -2   5   33.93    4.33   0 
  -2  -5  -5    0.77    1.94   0 
  -2   6   7    1.85    2.70   0 
  -1  -1  -8    3.14    2.70   0 
  -1   9   1   -0.78    2.02   0 
   0   6  -2    4.89    2.07   0 
   0   6   1  151.02    3.02   0 
  -4  -7  -7    0.93    2.08   0 
  -4  -7  -6   90.68    2.77   0 
  -4  -7  -5   32.66    2.36   0 
  -4  -7  -4   -2.10    1.96   0 
  -4  -6   0   11.16    2.11   0 
  -4  -5   2    2.68    2.54   0 
  -3  -6  -3   29.87    2.25   0 
  -3   3   8   -0.40    2.98   0 
  -2  -5  -4    7.15    1.98   0 
  -2  -4  -8    8.85    2.12   0 
  -2   0 -11   60.44    4.56   0 
  -1  -3  -5  185.47    3.64   0 
  -1  -3  -1  226.03    4.09   0 
  -1  -2  -7  999.72    8.21   0 
  -1   7   5   10.78    1.99   0 
  -1   8   4    4.67    2.11   0 
  -1   9   2    9.40    2.12   0 
   0   3   3    6.67    2.43   0 
   0   4   3  783.53    6.15   0 
   0   5  -4  544.29    5.93   0 
   0   6   2   14.97    2.11   0 
  -3  -6  -6    8.62    2.05   0 
  -3  -6  -5   13.21    2.06   0 
  -3  -6  -4  174.15    3.09   0 
  -3  -5  -9   15.18    2.75   0 
  -2  -2 -10   -0.70    2.91   0 
  -1  -3  -4   80.73    3.37   0 
  -1   4   6   19.77    2.27   0 
  -1   5  -8    6.33    3.28   0 
  -1   5   6  541.91    5.13   0 
  -1   9   3   25.94    2.24   0 
   0   4  -5  727.91    7.47   0 
   0   6  -3    3.37    1.92   0 
   0   7  -1   17.46    2.42   0 
   0   7   1   10.68    2.44   0 
  -3  -5   0    5.14    2.23   0 
  -2  -4   0   12.95    2.50   0 
  -2  -3  -9   37.26    2.83   0 
  -2   2   7   87.17    4.51   0 
  -1  -3  -3 1990.77   10.03   0 
  -1  -3  -2   28.06    2.52   0 
  -1   3   6   57.60    2.97   0 
  -1   6   6   47.62    2.46   0 
  -1   8   5    2.54    2.59   0 
   0   7   2   37.95    2.61   0 
  -4  -6  -1   80.37    2.79   0 
  -3  -4   2   27.87    2.85   0 
  -2  -4  -7   13.59    2.02   0 
  -1   1   5  112.99    5.09   0 
  -1   7   6    1.95    2.51   0 
   0   6  -4  244.90    4.42   0 
  -4  -4   3    6.42    2.58   0 
  -3  -4 -10  142.38    3.47   0 
  -3  -3 -11    4.49    2.90   0 
  -2  -3   2   13.55    2.18   0 
  -1  -2   1 2744.80   15.47   0 
   0   1   2  706.30   10.55   0 
   0   2   3   99.77    3.54   0 
   0   4   4   63.66    2.65   0 
   0   5  -5  418.95    5.60   0 
   0   5   4  156.06    3.05   0 
   0   6   4   -0.68    2.28   0 
   0   7  -3   44.75    3.08   0 
   0   8   0    4.33    2.45   0 
  -4  -6  -8    9.59    2.20   0 
  -4  -6  -2   11.24    2.08   0 
  -4  -5   1   36.81    2.47   0 
  -3  -5  -1    0.35    2.32   0 
  -3   2   8    2.08    4.41   0 
  -2  -4  -6   13.29    2.36   0 
  -2   5   8    2.79    2.91   0 
  -1  -2  -6  671.26    6.91   0 
  -1   8   6    3.91    2.75   0 
  -5  -6  -1    5.72    2.87   0 
  -3  -5  -7  184.05    3.32   0 
  -2   4   8    7.74    2.62   0 
   0   0  -3  641.27   15.89   0 
   0   7   4    0.57    2.00   0 
   0   8  -2   48.04    2.58   0 
   0   8   3    6.43    2.00   0 
  -4  -6  -6   36.91    2.30   0 
  -4  -6  -5   41.03    2.37   0 
  -4  -6  -4    0.03    1.94   0 
  -3  -5  -2    0.27    1.95   0 
  -3  -4  -9    4.03    2.68   0 
  -2  -4  -2   99.68    2.84   0 
  -2  -1 -10   20.41    3.27   0 
  -1   5   7  138.08    3.47   0 
  -1   6   7  398.88    4.83   0 
  -1   7   7  150.50    3.62   0 
   0   6  -5    5.74    2.71   0 
   0   7  -4    5.78    2.32   0 
  -5  -6  -2   45.41    3.23   0 
  -5  -5   1    7.78    2.86   0 
  -4  -5   0    8.85    2.66   0 
  -3  -5  -5    4.53    2.57   0 
  -3  -5  -3  762.20    5.87   0 
  -2  -4  -4   64.52    2.56   0 
  -2  -4  -3   51.77    2.43   0 
  -2  -2  -9   87.65    3.33   0 
  -1   0  -8   18.72    3.50   0 
  -1   2   6   80.79    3.60   0 
  -1   4   7   23.58    2.73   0 
   0   3  -6   16.21    3.50   0 
   0   4  -6   21.06    3.33   0 
   0   5   5  309.60    3.91   0 
   0   8  -3    2.86    2.25   0 
   0   9   0    4.79    2.24   0 
   0   9   1    1.51    2.10   0 
   0   9   2  216.15    3.65   0 
  -4  -5  -9   16.16    2.33   0 
  -3  -5  -4    8.01    2.14   0 
  -3  -4   1  180.08    3.55   0 
  -3  -3 -10  119.97    3.63   0 
  -3  -3   3   37.03    2.95   0 
  -3  -2 -11   11.39    3.46   0 
  -1  -2  -5    5.86    2.71   0 
  -1  -1  -7   32.38    2.95   0 
   0   4   5   19.90    2.07   0 
   0   7   5   92.31    2.60   0 
   0   9   3   81.36    2.79   0 
  -4  -4   2   16.23    2.81   0 
  -2  -3   1  446.32    5.66   0 
  -2   3   8   76.45    4.25   0 
  -1  -2   0   10.10    3.57   0 
   0   5  -6   59.80    3.32   0 
   0   7  -5   82.65    3.73   0 
   0   9   4   11.06    2.29   0 
  -5  -6  -4   14.14    2.38   0 
  -4  -5  -1   16.97    2.48   0 
  -4  -2   5   21.54    3.55   0 
  -3  -4  -8   13.40    2.30   0 
  -2  -3  -7  200.86    3.73   0 
  -2  -2   3    2.82    2.98   0 
   0   6   6   95.15    3.12   0 
  -5  -5   0   26.91    2.41   0 
  -4  -4 -10   14.27    2.41   0 
  -3  -4   0   47.22    2.76   0 
  -1   3   7    6.77    2.57   0 
  -1   6   8    2.17    2.77   0 
  -1   7   8   84.65    3.56   0 
   0   2   4    4.20    2.37   0 
   0   5   6   24.20    2.37   0 
   0   6  -6    4.95    3.10   0 
   0   7   6    1.86    2.01   0 
  -5  -4   2    3.55    2.97   0 
  -4  -5  -7   11.76    2.19   0 
  -4  -1   6    3.67    4.20   0 
  -3  -4  -7    8.07    2.48   0 
  -1  -2  -4   65.98    3.11   0 
  -1   5   8   89.02    3.53   0 
   0   8   6   19.39    2.31   0 
   1   5  -1   87.13    3.05   0 
   1   5   1   18.03    2.20   0 
   1   6  -1   28.92    2.68   0 
   1   6   0    2.71    1.95   0 
   1   6   1    2.15    2.02   0 
   1   6   2  105.99    2.89   0 
  -4  -5  -6    9.39    2.01   0 
  -4  -5  -3  197.21    3.46   0 
  -3  -3  -9    3.12    2.75   0 
  -2  -3  -6   15.89    2.14   0 
  -2  -3   0   98.54    3.60   0 
  -2  -2  -8  370.77    5.35   0 
  -2   0 -10   56.79    4.17   0 
  -1  -2  -1 1048.48    9.26   0 
   1   4  -1    2.11    2.73   0 
   1   4   0  868.59    6.96   0 
   1   4   1   24.25    2.51   0 
   1   5   2   39.02    2.37   0 
   1   7   0    9.38    2.01   0 
   1   7   1   23.10    2.35   0 
   1   7   2  891.84    6.13   0 
  -5  -5  -8    5.96    2.17   0 
  -4  -5  -5   21.53    2.23   0 
  -4  -4  -9    6.56    2.25   0 
  -4  -4   1   77.84    2.83   0 
  -3  -4  -6   46.92    2.80   0 
  -3  -4  -1   12.16    2.05   0 
  -3  -2   4    1.49    2.99   0 
  -1  -2  -3 2333.31   12.72   0 
  -1  -2  -2    2.16    3.05   0 
   0   7   7    5.72    2.74   0 
   1   5  -2    8.98    2.33   0 
   1   5   3   23.14    2.26   0 
   1   6  -2    7.70    2.69   0 
   1   6   3   53.64    2.53   0 
   1   8   0   21.41    2.71   0 
   1   8   1   -0.09    1.98   0 
   1   8   2   67.25    2.57   0 
  -5  -5  -2  104.90    2.97   0 
  -4  -3   3   26.13    2.93   0 
  -3  -3   2   13.99    2.72   0 
  -3  -2 -10    3.64    2.70   0 
  -2  -3  -5    5.22    2.64   0 
  -2  -1  -9  245.48    4.79   0 
  -1  -1  -6   74.91    3.88   0 
  -1   4   8   28.68    3.19   0 
   0   6   7   20.97    2.44   0 
   0   8   7    3.51    2.25   0 
   1   7   4  136.16    3.37   0 
   1   8  -1   94.80    3.42   0 
   1   8   3  233.20    3.72   0 
  -5  -4   1    7.51    3.01   0 
  -3  -4  -5   59.25    2.59   0 
  -3  -4  -2 1252.04    7.25   0 
  -2   4   9    2.18    2.91   0 
   0   5   7  345.33    4.91   0 
   1   3   0  105.75    4.03   0 
   1   9   1    4.20    2.36   0 
   1   9   2   53.51    2.79   0 
  -5  -5  -5   15.34    2.33   0 
  -5  -5  -4   17.74    2.32   0 
  -5  -3   3    7.57    3.19   0 
  -4  -4  -8  113.39    3.05   0 
  -4  -4   0   41.18    3.06   0 
  -4  -3 -10   69.88    2.76   0 
  -3  -4  -3  845.47    6.15   0 
  -3  -3  -8    8.86    2.20   0 
  -2  -3  -4    6.59    2.22   0 
  -2  -3  -2  243.95    4.31   0 
  -1   6   9   21.01    3.33   0 
   1   4   3    1.76    2.04   0 
   1   5  -3   61.66    3.27   0 
   1   5   4   10.35    2.12   0 
   1   6  -3    2.89    2.67   0 
   1   8  -2   50.00    3.28   0 
   1   9   0    1.10    2.26   0 
  -2  -3  -3  132.03    3.19   0 
   0   5  -7    0.81    3.28   0 
   0   7   8    7.43    2.77   0 
   1   4  -3    1.58    2.56   0 
   1   7  -3    1.13    2.68   0 
   1   9   4   77.83    2.90   0 
  -4  -4  -7   17.78    2.28   0 
  -2  -2   2   14.57    2.79   0 
   0   3   6  195.22    4.20   0 
   0   4  -7   25.97    4.65   0 
   1   3  -2    1.84    2.69   0 
   1   3   2   28.97    2.72   0 
   1   9   5    6.06    2.25   0 
  -4  -3   2   -1.30    2.66   0 
  -3  -3  -7    9.99    2.61   0 
  -3  -2  -9   49.09    3.23   0 
  -1   0  -7   90.66    4.38   0 
  -1   1  -8  181.19    6.88   0 
  -1   5   9    4.22    3.02   0 
   0   2   5   84.85    3.67   0 
   0   4   7 1287.37    8.79   0 
   0   6   8  320.72    4.59   0 
   1   5   5    5.71    1.96   0 
   1   7   6   17.97    2.38   0 
   1   8  -3    5.72    2.46   0 
   1   8   6    8.68    2.34   0 
  -5  -4  -8   18.20    2.44   0 
  -4  -4  -2   19.91    2.39   0 
  -4  -2   4    2.08    2.87   0 
  -3  -1   5   52.29    4.45   0 
  -2  -1   4  205.53    6.38   0 
  -2   1 -10    2.07    3.47   0 
  -2   2   8   26.20    5.06   0 
  -1   2   7   31.24    3.95   0 
   1   5  -4   32.39    3.12   0 
   1   6  -4   57.93    3.31   0 
  -5  -3   2    5.16    3.08   0 
  -4  -4  -5   29.66    2.42   0 
  -4  -4  -4   52.82    2.71   0 
  -3  -1 -10    4.94    2.48   0 
  -1  -1  -5  248.12    5.22   0 
  -1   3   8   11.27    3.41   0 
   0   5   8   53.03    3.41   0 
   1   7  -4    0.05    3.14   0 
  -3  -3   0    4.60    2.72   0 
  -3  -2   3   18.07    3.03   0 
  -2  -2  -6   29.17    2.39   0 
  -2  -1  -8   71.89    3.68   0 
   1   5   6   -0.72    2.69   0 
   1   7   7    4.26    2.67   0 
   1   8   7  124.27    3.38   0 
  -5  -4  -6    9.80    2.30   0 
  -5  -4  -5   -0.52    2.84   0 
  -5  -4  -3  144.23    3.60   0 
  -5  -4  -2   -0.28    2.16   0 
  -5  -3  -9    7.35    3.05   0 
  -4  -3  -8   15.27    2.28   0 
  -2   0  -9   15.21    2.89   0 
  -2   3   9   55.41    5.51   0 
   1   4  -4  604.84    7.53   0 
  -5  -4  -4   18.87    2.31   0 
  -4  -3   1  126.58    3.30   0 
  -3  -3  -5   19.90    2.23   0 
  -3  -2  -8   24.37    2.55   0 
  -2  -2   1  463.88    6.52   0 
  -1   1   6    4.25    4.64   0 
  -1   4   9   10.39    3.00   0 
   1   2   0   10.38    3.77   0 
   1   3   4   85.13    3.78   0 
   2   8   2  163.87    3.81   0 
  -5  -3   1    8.86    2.99   0 
  -4  -3  -7   70.98    3.24   0 
  -3  -3  -4  119.85    3.46   0 
  -2  -2  -5  384.74    5.41   0 
   1   6  -5    8.66    3.37   0 
   1   8   8    8.09    2.49   0 
   2   6   1   30.80    2.74   0 
   2   6   2  502.40    5.26   0 
   2   8   3   16.98    2.35   0 
   2   8   4  161.96    3.41   0 
   2   9   2    3.29    2.23   0 
   2   9   3    5.62    2.43   0 
  -5  -3  -8   16.94    2.59   0 
  -4  -2  -9   11.97    2.95   0 
  -4  -1   5    1.30    3.48   0 
  -3  -3  -2  382.47    4.72   0 
   0   3   7   69.56    3.53   0 
   0   4   8   32.82    3.14   0 
   2   6   0   -0.47    2.61   0 
   2   6   3  860.62    6.23   0 
   2   7   4    2.29    2.16   0 
   2   9   4    4.24    2.49   0 
  -5  -2   3    8.56    3.26   0 
  -4  -3   0   22.55    2.38   0 
  -4  -2   3    1.39    2.87   0 
  -3  -1  -9    6.10    2.98   0 
  -1  -1  -4   79.85    3.67   0 
   1   2   2    4.76    3.21   0 
   1   4   6    0.86    2.12   0 
   2   7   5    6.30    2.35   0 
   2   8  -1   19.82    3.09   0 
  -5  -3  -7   10.53    2.37   0 
  -5  -3   0   12.92    2.59   0 
  -3  -2  -7  205.54    3.76   0 
  -3   0 -10   25.41    3.14   0 
  -2  -2  -4 1235.01    8.53   0 
  -2  -2   0  693.09    7.50   0 
  -2  -1  -7 2299.90   12.32   0 
  -2   2 -10   20.51    4.58   0 
   0   2   6    5.57    3.30   0 
   2   5   0    2.10    2.58   0 
   2   5   3   17.61    2.84   0 
  -6  -3  -1   15.19    2.64   0 
  -5  -2  -9    9.30    3.12   0 
  -4  -3  -1   81.18    2.82   0 
  -3  -2   2  104.74    3.82   0 
   1   3   5  188.24    4.04   0 
   2   6   5   59.65    2.69   0 
  -6  -3  -6   28.91    2.68   0 
  -5  -3  -6   14.00    2.32   0 
  -5  -3  -1   11.75    2.19   0 
  -4  -3  -4    4.32    2.42   0 
  -4  -2  -8   12.43    2.56   0 
  -2  -2  -1  312.14    5.04   0 
   1   2  -2   95.21    4.57   0 
   1   3  -4  672.30    9.44   0 
   2   5  -1   35.73    3.28   0 
   2   7  -2    2.27    2.42   0 
  -6  -3  -5   19.94    2.57   0 
  -6  -3  -4    0.67    2.94   0 
  -6  -3  -3    4.13    2.47   0 
  -5  -3  -5   14.17    2.30   0 
  -5  -3  -2   15.88    2.44   0 
  -3  -2  -6    9.13    2.65   0 
  -2  -2  -2   67.93    3.18   0 
  -1  -1  -3  820.21    9.38   0 
   1   4  -5    5.89    3.68   0 
   2   6  -2   57.28    2.91   0 
  -5  -3  -3   12.95    2.53   0 
  -5  -2   2    6.14    2.47   0 
  -4   0   6   18.08    4.25   0 
  -2   0  -8    5.08    2.95   0 
  -2   1  -9   27.64    3.71   0 
   1   4   7   51.54    2.89   0 
   2   4   1    2.66    2.35   0 
   2   5   5    0.43    2.20   0 
   2   7   7   74.19    2.80   0 
  -4  -2  -7   98.07    2.94   0 
  -4  -1  -9    2.93    2.49   0 
  -3  -2   1  105.54    3.67   0 
   1   6  -6    1.50    3.60   0 
   1   6   9    0.50    2.36   0 
   2   4   0   11.86    2.35   0 
   2   4   3   57.12    2.69   0 
   2   5  -2   89.19    3.71   0 
   2   7  -3   11.87    3.17   0 
  -3  -2  -5    4.37    2.16   0 
  -3   1 -10    4.97    3.64   0 
  -2  -1  -6   61.02    2.90   0 
  -2  -1   3    6.18    2.84   0 
  -1  -1  -2   93.06    4.76   0 
   1   3   6    1.89    2.68   0 
   2   6  -3    6.46    2.87   0 
   2   6   7   21.84    2.27   0 
  -6  -2   0   10.28    3.14   0 
  -5  -2  -7   73.68    2.89   0 
  -5  -2   1   94.73    3.83   0 
  -5  -1  -9   10.35    3.32   0 
  -3   0  -9  107.84    3.89   0 
  -1   3   9    0.61    3.59   0 
   0   3   8    1.66    2.70   0 
   0   5  10    8.34    3.03   0 
   1   2   4   69.28    3.39   0 
   2   4  -1   62.90    2.91   0 
  -4  -2  -6  161.41    3.45   0 
  -4  -2   1   35.80    2.77   0 
  -1   1  -7    5.95    3.57   0 
  -1   2  -8  148.61    6.80   0 
   1   5  -6    8.01    4.00   0 
   3   8   2   25.70    2.63   0 
   3   8   4    0.42    2.37   0 
   3   8   5   25.71    3.25   0 
  -6  -2  -6    2.08    2.45   0 
  -6  -2  -1    3.33    2.40   0 
  -5  -2  -6   -0.38    2.25   0 
  -3  -1  -7    0.34    2.74   0 
   1   5   9   65.61    3.00   0 
   2   4   5  158.95    3.42   0 
   2   6   8   31.48    3.31   0 
   3   7   2    9.20    2.27   0 
  -6  -2  -3   84.84    3.52   0 
  -6  -2  -2    3.40    2.45   0 
  -5  -2   0   14.85    2.53   0 
  -4  -2  -5    7.66    2.26   0 
  -4  -2   0    5.12    2.23   0 
  -3  -2  -3   23.48    2.43   0 
  -3  -2  -1    2.16    2.36   0 
  -2  -1  -5   21.76    3.16   0 
  -1   2   8  199.77    7.77   0 
   1   6  10   77.72    3.51   0 
   2   4  -2    3.71    2.91   0 
   2   5   7   17.03    2.38   0 
   2   7   9    3.59    2.50   0 
   3   8   0    9.13    3.14   0 
   3   8   6   84.01    3.20   0 
  -5  -2  -5   29.79    2.51   0 
  -5  -1  -8    0.67    2.50   0 
  -4  -2  -4    3.73    2.32   0 
   0   2   7   19.78    3.42   0 
   2   3   2  246.20    4.14   0 
   3   6   3   32.55    2.50   0 
   3   6   4  177.36    3.47   0 
   3   7   0   -0.45    2.43   0 
   3   7   6   13.13    2.44   0 
   3   8   7    1.98    2.39   0 
  -5  -2  -2   23.61    2.62   0 
  -4   0  -9    9.95    2.55   0 
  -2   0  -7  340.61    5.56   0 
  -1   0  -5   64.98    4.24   0 
   0   1   5  601.30    9.78   0 
   1   2   5    6.77    3.14   0 
   1   3   7 1240.28    9.41   0 
   2   3   3  139.33    3.41   0 
   2   4   6   12.34    2.18   0 
   3   6   1   10.29    2.20   0 
   3   6   5   10.56    2.31   0 
  -6  -1   1   10.36    3.13   0 
  -3  -1  -6   65.03    3.09   0 
  -2   0   5  217.49    7.34   0 
   2   5   8    2.43    2.68   0 
   2   6   9    1.56    2.49   0 
   3   6   0    4.70    2.69   0 
   3   7  -1   33.75    3.21   0 
   3   7   7   -1.31    2.35   0 
  -5  -1  -7   93.44    2.98   0 
  -5  -1   2   -2.65    3.03   0 
  -3   1  -9   21.96    3.25   0 
  -3   1   7    1.56    4.18   0 
  -2  -1   2  154.54    4.63   0 
   2   3  -1  467.08    6.19   0 
   2   3   4    7.01    2.43   0 
   3   5   2    1.59    2.19   0 
   3   6   6    7.85    2.37   0 
  -6  -1   0   38.18    3.50   0 
  -4   0   5   10.79    3.07   0 
  -2   1  -8    4.77    2.95   0 
   0   4  10   28.03    3.74   0 
   1   5  10    3.59    3.14   0 
   2   4  -3   21.61    3.14   0 
   2   4   7   14.80    2.76   0 
   2   5  -4    2.02    3.30   0 
   3   5   1    1.16    2.17   0 
   3   5   4    5.40    2.47   0 
   3   6  -1    2.80    2.97   0 
   3   7   8   17.66    3.13   0 
  -6  -1  -5    8.07    2.59   0 
  -5  -1  -6   30.24    2.51   0 
  -4  -1  -6    9.08    2.31   0 
  -4   0  -8    6.82    3.19   0 
   1   3  -5 1257.50   15.47   0 
   1   4   9   45.35    3.41   0 
   2   3   5    5.02    2.85   0 
   3   5   5    8.21    2.24   0 
  -6  -1  -4   44.16    2.79   0 
  -6  -1  -3    5.17    3.00   0 
  -6  -1  -2   -1.04    3.13   0 
  -5  -1   1  126.02    4.04   0 
  -4  -1   2   13.37    3.10   0 
  -3  -1  -5    2.31    2.32   0 
  -3   0   5  298.53    6.43   0 
   0   3   9   10.76    3.64   0 
   1   1   1 1098.41   11.88   0 
   3   5   0    4.43    2.31   0 
   3   7  -2    3.80    2.67   0 
  -5  -1  -5   22.51    2.44   0 
  -4   1  -9    5.54    2.82   0 
  -3  -1   2   -0.18    2.39   0 
  -2  -1   1 2091.17   13.45   0 
   1   1   0 2686.20   18.70   0 
   2   5   9    0.72    2.53   0 
   3   5   6   -1.68    2.27   0 
   3   6   8   51.11    3.22   0 
  -5  -1  -4    6.05    2.86   0 
  -5  -1   0   24.84    2.56   0 
  -4  -1  -5   -0.46    2.21   0 
  -2   0  -6   75.15    3.23   0 
   1   3   8  165.14    4.06   0 
   2   3  -2   14.78    2.56   0 
   2   6  -5   43.78    4.28   0 
   3   4   3  745.50    6.09   0 
   3   5  -1  205.95    4.43   0 
   3   6  -2   19.34    3.00   0 
  -6   0  -6   15.97    3.25   0 
  -5  -1  -1   28.77    2.58   0 
  -5   0  -7   26.90    2.51   0 
  -4   0  -7   40.52    3.00   0 
  -3  -1  -4  456.68    5.22   0 
  -2  -1   0  977.60    9.14   0 
   2   4   8   11.57    2.55   0 
   3   4   1   10.78    2.76   0 
   3   4   4  198.56    3.69   0 
   4   7   3   -0.55    2.45   0 
   4   7   4   -0.44    2.43   0 
   4   7   5   32.62    2.71   0 
  -4  -1  -4   21.54    2.47   0 
  -3  -1   1    3.64    2.30   0 
   3   4   5   62.14    2.77   0 
  -5   1  -8   25.47    1.30   0 
  -4   5  -5   16.70    1.22   0 
  -3  -8  -1   52.17    1.81   0 
  -3   1  -6   35.12    1.26   0 
  -2  -7   0    1.88    1.33   0 
  -2   7   0    0.71    1.02   0 
  -1  -6   3    2.32    1.19   0 
  -1   6   1    9.80    1.17   0 
  -1   8   5    3.36    1.80   0 
   0  -4   4    4.02    0.98   0 
   0  -4   5  730.07    3.65   0 
   0   3   1  144.92    3.05   0 
   0   5   3  894.25    6.92   0 
  -4   2  -7  464.27    3.19   0 
  -3  -7  -3  127.91    2.88   0 
  -3   6  -3    8.38    1.10   0 
   0  -3   8   25.56    1.20   0 
   0   6   9    9.02    2.17   0 
  -4   4  -6   29.80    1.40   0 
  -2  -7   1  102.13    2.04   0 
  -2  -1  -5   20.23    1.52   0 
  -2   3  -4  418.70    2.94   0 
  -2   8   1   11.01    1.50   0 
  -1   7   2   17.93    1.44   0 
   0  -3   2  275.05    2.84   0 
   0  -2   9    0.34    1.11   0 
  -5  -5  -8    5.43    2.03   0 
  -3  -8   0    9.32    1.27   0 
  -2  -7   2    1.48    1.40   0 
  -2  -7   3   10.28    1.43   0 
  -2  -7   4   18.27    1.31   0 
  -2   0  -5   46.71    1.52   0 
  -1  -5   7    1.06    1.06   0 
   0  -3   7   34.53    1.26   0 
   0  -2   1  190.47    3.23   0 
  -5  -1  -9    9.43    1.61   0 
  -4  -2  -8   12.47    1.51   0 
  -4  -1  -8   33.71    1.63   0 
  -4   3  -7  222.21    2.28   0 
  -3  -4  -6   40.60    2.35   0 
  -2  -5  -3   15.40    2.14   0 
  -2  -2  -5  370.79    4.04   0 
  -2   1  -5    0.73    1.08   0 
  -2   5  -3    1.32    1.03   0 
  -2   6  -2   64.51    1.54   0 
  -2   7  -1   24.06    1.61   0 
  -1  -5   6    6.10    1.15   0 
  -1  -1  -3  752.27    6.77   0 
  -1   1  -3   55.80    1.98   0 
  -1   8   4    3.59    1.63   0 
   0  -3   3   64.93    1.59   0 
   0  -3   5   44.32    1.59   0 
   0  -3   6   17.24    1.22   0 
   0  -2   8   44.27    1.59   0 
   0   2  11    1.90    1.45   0 
   0   5  10    7.93    1.81   0 
  -5  -2  -9    8.05    1.31   0 
  -4   0  -8    6.41    1.28   0 
  -4   5  -6   -0.67    1.14   0 
  -3   3  -6    1.53    1.17   0 
  -3   6  -4   15.92    1.49   0 
  -1  -5   1   91.21    1.76   0 
  -1  -4  -1   23.17    1.64   0 
  -1  -4   8   96.49    1.72   0 
  -1   6   0   13.05    1.53   0 
   0  -3   4   20.42    1.17   0 
   0  -1   9    5.26    1.13   0 
   0   0  10   26.47    1.32   0 
   0   6   8  313.25    6.26   0 
  -5  -3  -9    6.48    1.53   0 
  -4  -5  -7   10.52    2.24   0 
  -3  -1  -7    2.02    1.42   0 
  -3   0  -7  596.66    3.91   0 
  -3   5  -5   55.27    1.52   0 
  -3   7  -3    1.53    1.17   0 
  -2   2  -5  176.75    2.13   0 
  -1  -3  -2   23.96    2.55   0 
  -1   4  -2   20.64    1.51   0 
   0  -2   7    3.21    1.09   0 
  -4   4  -7   -0.20    1.23   0 
  -3  -7  -2    9.55    1.69   0 
  -3   1  -7  848.63    4.33   0 
  -2  -6  -1   28.86    1.67   0 
  -2   8   0    4.88    1.20   0 
  -1  -5   3   60.87    1.50   0 
  -1  -4   7    5.30    1.17   0 
  -1   2  -3   47.83    1.56   0 
  -1   7   1    8.23    1.41   0 
   0   1  10   38.23    1.46   0 
   0   4  10   24.97    1.92   0 
   0   6   4    1.05    1.75   0 
  -4   2  -8  240.39    2.48   0 
  -3  -6  -4  183.12    4.30   0 
  -3  -2  -7  194.27    2.81   0 
  -3   4  -6   10.84    1.23   0 
  -2  -6   5   45.21    1.56   0 
  -1   8   3    9.65    1.50   0 
   0  -2   2   82.96    2.02   0 
   0  -2   6   38.32    1.42   0 
   0  -1   8   95.46    1.73   0 
   0   0   9   20.50    1.36   0 
   0   2  10    2.23    1.15   0 
   0   3  10   94.93    2.26   0 
   0   4   1  119.32    2.55   0 
   0   5   2    0.91    1.57   0 
  -3   2  -7   74.47    1.58   0 
  -2  -6   0    0.86    1.44   0 
  -2  -6   4    1.93    1.12   0 
  -2   3  -5   44.94    1.45   0 
  -2   6  -3    1.71    1.10   0 
  -1  -4   6   18.74    1.27   0 
  -1  -3   8   63.26    1.75   0 
   0   5   9   65.24    2.62   0 
  -4   3  -8    2.80    1.21   0 
  -3  -7  -1    1.74    1.42   0 
  -3   6  -5    2.44    1.23   0 
  -2  -6   1  104.22    2.06   0 
  -2  -6   3    4.89    1.19   0 
  -2   5  -4   10.05    1.22   0 
  -2   8  -1   78.50    2.03   0 
  -1  -2   9   44.55    1.72   0 
  -1   3  -3  271.89    2.65   0 
   0  -2   3   30.91    1.47   0 
   0  -2   4   49.93    1.48   0 
   0  -1   7   61.56    1.51   0 
   0   1   9    8.06    1.18   0 
  -3  -7   2    2.35    1.43   0 
  -3   5  -6   14.45    1.50   0 
  -2  -6   2   57.57    1.57   0 
  -1  -4   5    6.11    1.15   0 
  -1   5  -2  147.94    2.02   0 
  -1   8   2    1.97    1.44   0 
   0   0   8  223.53    2.46   0 
  -4  -1  -9    3.74    1.44   0 
  -4   0  -9    7.20    1.26   0 
  -4   1  -9    2.32    1.50   0 
  -3  -7   0    0.16    1.22   0 
  -3  -7   1   32.90    1.52   0 
  -3  -3  -7    8.46    1.53   0 
  -2  -3  -5    3.23    1.98   0 
  -2   0  -6   72.66    1.74   0 
  -2   1  -6   32.45    1.34   0 
  -2   4  -5    1.00    1.12   0 
  -1  -3   7   37.76    1.40   0 
  -1   7   0  193.03    2.41   0 
   0   2   9    0.88    1.20   0 
   0   3   9   12.39    1.59   0 
   0   4   9  124.68    2.53   0 
   0   6   7   20.62    3.43   0 
  -4  -7  -4   -0.23    1.93   0 
  -2  -1  -6   62.92    1.91   0 
  -2   2  -6    1.24    1.14   0 
  -2   7  -3    0.66    1.51   0 
  -1  -4   1    0.52    1.16   0 
  -1   4  -3    7.56    1.16   0 
   0   1   8    8.12    1.38   0 
  -4  -2  -9   11.59    1.29   0 
  -4   2  -9   55.40    1.68   0 
  -3   1  -8    6.78    1.44   0 
  -3   4  -7    2.17    1.26   0 
  -2  -5   5    6.23    1.20   0 
  -2  -4   7    1.79    1.18   0 
  -2   6  -4   47.77    1.49   0 
  -2   8  -2    1.91    1.54   0 
  -1  -4   2   49.15    1.53   0 
  -1  -2   8   14.16    1.28   0 
  -1   1  -4 1072.66    5.48   0 
  -1   8   1    8.22    1.54   0 
   0  -1   5  160.96    2.25   0 
   0   5   1  150.93    2.72   0 
  -3  -1  -8  191.30    2.74   0 
  -2  -5  -2  790.25    6.19   0 
  -2   3  -6   34.23    1.40   0 
  -2   5  -5    7.66    1.24   0 
  -1   0  -4  388.42    3.87   0 
  -1   6  -2   27.53    1.57   0 
   0   2   8   11.27    1.60   0 
   0   4   0   42.20    2.20   0 
   0   5   8   54.90    2.51   0 
  -3  -6   4   44.44    1.61   0 
  -3   5  -7    3.29    1.59   0 
  -2  -5   4    2.70    1.18   0 
  -2  -3   8   37.18    1.56   0 
  -1   1  10    1.68    1.30   0 
  -1   3  -4    5.21    1.23   0 
  -1   5  -3   97.33    1.83   0 
  -1   7  -1   21.82    1.38   0 
   0  -1   2 1221.60    7.35   0 
   0   0   6   90.92    2.13   0 
   0   6   2   13.62    1.58   0 
  -4  -3  -9    7.00    1.64   0 
  -3  -6  -3   31.48    2.09   0 
  -3   3  -8    0.31    1.21   0 
  -2  -5   3    0.72    1.15   0 
  -2  -4   6   23.85    1.37   0 
  -2  -2  -6   31.13    2.06   0 
  -1  -3   5 1287.22    5.19   0 
  -1  -2   7   18.83    1.34   0 
  -1  -1   8   28.12    1.64   0 
  -1   0   9    5.87    1.55   0 
  -1   9   3   23.54    1.96   0 
   0   1   7    0.53    1.20   0 
   0   3   8    1.37    1.50   0 
   0   4   8   33.21    1.86   0 
  -4  -7  -3    0.07    1.56   0 
  -3  -6   3   15.37    1.39   0 
  -3  -2  -8   27.24    1.50   0 
  -2  -5  -1   20.71    1.73   0 
  -2   6  -5    4.85    1.32   0 
  -2   7  -4    0.75    1.31   0 
  -1   2  10   53.19    2.03   0 
  -1   4  -4   13.59    1.30   0 
  -1   8   0   51.92    1.73   0 
   0   2  -1  192.63    3.34   0 
  -4  -7  -2   42.72    2.19   0 
  -4  -7   0    1.22    1.63   0 
  -4   0 -10    5.05    1.34   0 
  -3  -6   2   17.56    1.44   0 
  -3   4  -8   24.81    1.47   0 
  -2  -5   1   37.74    1.84   0 
  -2  -5   2   95.94    1.88   0 
  -2  -3   7    7.45    1.42   0 
  -2   1  -7   62.14    1.63   0 
  -2   2  -7    1.87    1.52   0 
  -1  -3   4  701.42    4.02   0 
  -1  -1  -4   81.34    2.66   0 
  -1   9   2    8.62    1.78   0 
   0   0   5   71.01    2.05   0 
   0   3  -1    2.38    1.40   0 
   0   5   0  127.73    2.55   0 
   0   7   4    0.45    2.24   0 
  -4  -1 -10    8.88    1.52   0 
  -3  -6  -2  145.21    2.89   0 
  -3  -6   1    4.55    1.62   0 
  -3  -5   5   70.29    1.76   0 
  -2  -5   0    1.97    1.23   0 
  -2  -4   5   62.74    1.70   0 
  -2   0  -7  350.59    3.22   0 
  -2   5  -6   32.29    1.50   0 
  -1  -3  -1  225.09    4.26   0 
  -1   3  10    7.67    1.52   0 
  -1   6  -3   34.42    1.47   0 
  -1   7  -2   30.40    1.58   0 
   0   1   6    0.49    1.48   0 
   0   2   7   19.59    1.50   0 
   0   6   1  146.17    2.69   0 
   0   7   5   91.76    4.60   0 
  -3  -6  -1    8.27    1.65   0 
  -3  -6   0    6.42    1.55   0 
  -3   0  -9  109.00    2.37   0 
  -3   1  -9   22.87    1.54   0 
  -3   2  -9   11.38    1.60   0 
  -2  -1   9   56.32    1.83   0 
  -2   3  -7    1.88    1.22   0 
  -1  -3   3  130.06    2.11   0 
  -1  -1   7    0.85    1.22   0 
  -1   0   8    0.44    1.49   0 
  -1   2  -5    6.89    1.24   0 
  -1   4  10   34.27    2.02   0 
  -1   5  -4   14.62    1.35   0 
  -1   8  -1    0.21    1.29   0 
  -1   9   1    0.58    1.77   0 
   0   4  -1  837.68    5.15   0 
   0   7   3   94.21    2.74   0 
  -4  -2 -10   85.43    2.60   0 
  -3  -5   4    3.69    1.33   0 
  -3   3  -9    1.47    1.58   0 
  -2  -4   4  126.30    2.01   0 
  -2  -1  -7 2297.70    8.53   0 
  -2   4  -7   22.81    1.42   0 
  -1  -3   2    2.90    1.67   0 
  -1   3  -5   27.31    1.42   0 
   0   0   4 1387.22    6.98   0 
   0   3   7   67.44    2.22   0 
   0   5   7  348.47    5.33   0 
  -3  -4  -7    7.49    2.20   0 
  -3  -3  -8   10.85    1.87   0 
  -3  -1  -9    7.72    1.40   0 
  -2   6  -6    0.43    1.38   0 
  -1   0  -5   67.81    2.26   0 
  -1   2   9    6.42    1.73   0 
  -1   4  -5   16.59    1.34   0 
  -1   7  -3    5.31    1.70   0 
   0   4   7 1360.00    8.16   0 
   0   5  -1  392.27    3.59   0 
   0   6   0  167.90    2.81   0 
   0   7   2   36.28    1.93   0 
  -4  -4  -9    4.58    2.02   0 
  -2  -2   7    2.33    1.25   0 
  -2   0   9   26.05    1.59   0 
  -2   5  -7   23.12    1.80   0 
  -1   6  -4   46.06    1.60   0 
  -1   8  -2   -0.38    1.64   0 
   0   0   3  661.59    5.81   0 
   0   1   5  603.02    4.84   0 
   0   2   6    5.47    1.66   0 
   0   3  -2  265.70    3.17   0 
  -2   1  -8    6.42    1.56   0 
  -2   2  -8    4.00    1.26   0 
  -1  -1   6   53.18    1.69   0 
  -1   1   8   94.38    2.04   0 
  -1   3   9    1.21    1.70   0 
   0   2  -2   85.68    2.27   0 
   0   4  -2    3.08    1.35   0 
   0   7   1    9.03    1.67   0 
  -4  -3 -10   70.87    2.39   0 
  -3  -4   5   95.53    1.89   0 
  -3  -2  -9   44.16    1.95   0 
  -2  -3   5   56.64    1.64   0 
  -2   3  -8  106.19    1.98   0 
  -1  -2   4   14.91    1.33   0 
  -1   0   7   79.83    1.78   0 
   0   6  -1   65.79    2.10   0 
  -4  -6   1   37.90    1.93   0 
  -4  -5  -8   27.89    3.81   0 
  -3  -5   2   15.18    1.62   0 
  -3   1 -10    4.62    1.45   0 
  -2  -4   2    3.47    1.21   0 
  -2  -2  -7  176.51    2.97   0 
  -2   0  -8    3.83    1.23   0 
  -2   4  -8   77.85    1.90   0 
  -1   2  -6   84.88    1.80   0 
  -1   4   9   10.58    1.73   0 
  -1   6   9   20.58    2.09   0 
  -1   8  -3   22.31    1.92   0 
   0   0   2 3126.63   14.30   0 
   0   5  -2    0.83    1.19   0 
  -3  -5  -5    7.05    2.82   0 
  -3   0 -10   23.21    1.54   0 
  -2  -3  -6   17.92    2.14   0 
  -2  -2   6  191.02    2.37   0 
  -2   1   9   10.67    1.52   0 
  -1   1  -6  148.19    2.27   0 
  -1   2   8  199.38    2.90   0 
  -1   4  -6    1.87    1.22   0 
  -1   5   9    3.90    1.75   0 
  -1   6  -5  581.73    3.92   0 
   0   1  -2 1215.97    7.77   0 
   0   3   6  199.49    3.34   0 
   0   6   6   92.00    4.86   0 
   0   8   3    4.72    2.29   0 
  -4  -6  -5   43.20    2.90   0 
  -4  -6   0   10.89    1.80   0 
  -3  -4   4    0.98    1.26   0 
  -3  -2   7    9.69    1.43   0 
  -2  -3   4  182.66    2.43   0 
  -2  -1  -8   69.94    2.28   0 
  -2   0   8   12.26    1.44   0 
  -1  -1  -5  244.00    3.44   0 
  -1  -1   5   37.00    1.58   0 
   0   3  -3   65.50    1.90   0 
   0   4  -3    0.42    1.52   0 
   0   8   2  162.92    3.10   0 
  -3  -5   1  211.08    2.64   0 
  -3  -1 -10    3.72    1.34   0 
  -2   2  -9   26.62    1.78   0 
  -1   0  -6   79.68    1.98   0 
  -1   0   6   12.07    1.27   0 
  -1   1   7   93.72    2.02   0 
  -1   5  -6   25.64    1.50   0 
   0   2  -3   31.50    1.66   0 
   0   2   5   86.73    2.43   0 
   0   6  -2    3.36    1.27   0 
   0   7  -1   19.74    1.82   0 
   0   8   1   81.60    2.38   0 
   0   8   4    3.31    2.21   0 
  -2  -4   0   11.52    1.62   0 
  -2   1  -9   26.92    1.52   0 
  -2   2   9    2.76    1.41   0 
  -2   3  -9    7.82    1.44   0 
  -1   3   8   12.98    1.77   0 
  -1   7  -5   70.82    1.97   0 
   0   4   6  405.73    5.16   0 
   0   5  -3   18.17    1.38   0 
  -4  -6  -4    1.63    1.83   0 
  -4  -6  -2   10.93    1.71   0 
  -3  -5   0    3.36    1.28   0 
  -3  -4   3   33.26    1.66   0 
  -3  -3  -9    0.94    1.83   0 
  -3  -3   5    1.49    1.31   0 
  -2  -4  -3   53.11    3.04   0 
  -1   2  -7    4.11    1.31   0 
  -1   3  -7   75.51    1.83   0 
  -1   4  -7    8.95    1.69   0 
  -1   6  -6    3.73    1.49   0 
   0   5   6   25.76    2.55   0 
   0   8   0    5.22    1.81   0 
  -4  -6  -3    6.01    1.67   0 
  -4  -5   2    4.33    1.42   0 
  -4  -4   4   35.82    1.62   0 
  -3  -2 -10    3.16    1.68   0 
  -3  -2   6   22.69    1.81   0 
  -3   0   8   62.64    2.29   0 
  -2  -4  -1    2.76    1.60   0 
  -2  -3   3    3.27    1.23   0 
  -2  -1   6   40.68    1.86   0 
  -2   0  -9   15.73    1.44   0 
  -2   1   8   29.70    1.64   0 
  -2   3   9   55.70    2.25   0 
  -1  -2  -4   69.63    3.15   0 
  -1   1  -7    5.40    1.30   0 
   0   3  -4   21.17    1.48   0 
   0   4  -4    3.59    1.26   0 
   0   6  -3    2.13    1.29   0 
   0   7  -2    6.38    1.42   0 
  -3  -5  -1    1.42    1.44   0 
  -3  -1   7    3.41    1.34   0 
  -2  -4  -2  100.35    2.84   0 
  -2   0   7   13.25    1.45   0 
  -1   2   7   31.72    1.93   0 
  -1   4   8   27.10    1.88   0 
  -1   5  -7   15.34    1.46   0 
  -1   7   8   88.80    3.67   0 
   0   2  -4   50.46    1.75   0 
   0   5  -4  530.32    3.77   0 
   0   8  -1   10.39    1.51   0 
  -4  -4 -10   11.52    2.38   0 
  -3  -5  -4    6.54    2.21   0 
  -2   2 -10   21.75    1.93   0 
  -2   4   9    0.80    1.97   0 
  -1  -1  -6   75.36    2.23   0 
  -1   5   8   87.17    2.88   0 
   0   1   3 1080.60    8.56   0 
   0   9   2  219.80    3.85   0 
  -4  -2   6   24.10    1.97   0 
  -3  -5  -3  718.37    6.22   0 
  -3  -4  -8   13.46    2.78   0 
  -3  -4   2   26.72    1.53   0 
  -3  -3   4   85.39    1.95   0 
  -3  -1 -11   13.29    1.99   0 
  -2  -1  -9  254.21    3.08   0 
  -2   1 -10    0.65    1.69   0 
  -2   2   8   25.94    2.06   0 
  -1   1   6    3.90    1.29   0 
  -1   2  -8  146.60    2.56   0 
  -1   3  -8   -0.06    1.32   0 
  -1   6   8    0.34    1.76   0 
   0   3   5   17.31    1.87   0 
   0   6  -4  242.09    2.72   0 
   0   8  -2   42.68    1.80   0 
   0   9   1    2.48    1.85   0 
   0   9   3   75.90    3.16   0 
  -5  -6  -2   47.13    2.33   0 
  -3   1   8    0.17    1.87   0 
  -1   4  -8   15.04    1.63   0 
   0   1  -4  874.84    5.34   0 
   0   2   4    3.44    2.12   0 
   0   3  -5   44.93    1.69   0 
   0   4  -5  777.79    4.43   0 
   0   9   0    1.82    1.66   0 
  -3  -2   5   34.53    1.56   0 
  -2  -3  -7  203.64    3.89   0 
  -2  -1   5  842.49    4.84   0 
  -2   0 -10   54.29    1.93   0 
  -2   1   7   -0.62    1.63   0 
  -1  -1   3  106.87    2.32   0 
  -1   1  -8  182.16    2.48   0 
  -1   3   7    7.34    1.82   0 
  -1   5  -8    4.47    1.53   0 
   0   2  -5  119.51    2.15   0 
   0   8  -3    0.83    1.81   0 
  -5  -6  -3    2.86    1.91   0 
  -5  -5   1   10.23    1.62   0 
  -4  -5   0    7.30    1.54   0 
  -4  -3   4   13.66    1.77   0 
  -3  -4   1  166.53    2.45   0 
  -3  -1   6    1.15    1.31   0 
  -3   0   7   13.28    1.50   0 
  -2   0   6   29.21    1.58   0 
   0   6  -5    4.39    1.39   0 
   0   9   4   10.73    2.99   0 
  -4  -4   2   18.22    1.84   0 
  -3  -3 -10  119.15    3.12   0 
  -3  -3   3   37.47    1.60   0 
  -3  -2 -11   12.21    2.01   0 
  -2  -3   1  459.36    4.19   0 
  -2   3   8   77.55    2.11   0 
  -1  -2  -5    6.02    1.96   0 
  -1   3  -9   16.99    1.60   0 
   0   3  -6   15.65    1.53   0 
   0   4  -6   21.59    1.49   0 
  -5  -6  -6  127.11    4.02   0 
  -5  -6  -5   13.51    2.31   0 
  -5  -6  -4   12.81    1.95   0 
  -4  -5  -1   17.52    1.88   0 
  -4  -2   5   22.08    1.61   0 
  -4  -1   6    4.55    1.82   0 
  -3   2   8    0.45    1.50   0 
  -2  -2  -9   90.72    2.44   0 
  -2  -2   3    4.07    1.40   0 
  -2  -1 -10   20.44    1.92   0 
  -1  -2   0   10.02    1.89   0 
  -1  -1  -7   32.47    1.68   0 
  -1   0  -8   20.06    1.52   0 
  -1   0   4   16.59    1.66   0 
  -1   2  -9    0.88    1.28   0 
  -1   2   6   83.56    2.17   0 
   0   0  -3  660.46    5.97   0 
   0   1  -5  157.13    2.51   0 
   0   2  -6   39.63    1.99   0 
   0   7  -5   84.57    2.19   0 
  -5  -5   0   25.03    1.72   0 
  -3  -2   4    1.63    1.70   0 
  -2   4   8    7.37    1.90   0 
  -1   1  -9   15.43    1.74   0 
  -1   1   5  113.64    2.34   0 
  -1   4   7   21.82    1.91   0 
   0   4   5   20.40    2.49   0 
  -3   1   7    0.90    1.41   0 
  -2   0 -11   58.71    2.32   0 
  -2   2   7   85.10    2.09   0 
   0   4  -7   27.10    1.60   0 
   1   5   0   29.30    1.94   0 
  -4  -3   3   25.47    1.55   0 
  -3  -3   2   12.10    1.71   0 
  -3   0   6  144.84    2.41   0 
  -3   3   8   -2.00    1.49   0 
  -2   1   6    2.77    1.68   0 
  -1  -1   2  130.58    2.88   0 
  -1   5   7  138.32    3.29   0 
   0   1  -6   32.83    1.58   0 
   0   3  -7   33.81    1.59   0 
   0   5  -7    2.82    1.40   0 
   1   4  -1    1.04    1.75   0 
   1   5  -1   89.06    2.12   0 
   1   5   1   20.74    2.19   0 
   1   6  -1   30.21    2.06   0 
   1   6   0    1.04    1.48   0 
   1   6   1    1.19    1.94   0 
  -5  -5  -1   32.86    2.13   0 
  -5  -3   3    9.59    1.55   0 
  -2  -3  -8  206.33    3.65   0 
  -2   5   8    2.85    1.68   0 
  -1  -2  -6  694.62    5.98   0 
  -1  -1  -8    1.72    1.78   0 
  -1   0  -9    2.91    1.42   0 
  -1   2 -10    3.00    1.48   0 
   0   2  -7    3.35    1.43   0 
   1   4  -2   46.99    1.78   0 
   1   5  -2    9.01    1.36   0 
   1   6  -2    9.60    1.71   0 
   1   7   0   11.08    1.86   0 
  -5  -4   1    9.24    1.87   0 
  -4  -2   4   -0.66    1.40   0 
  -4  -1   5   -0.10    1.83   0 
  -4   0   6   17.92    1.72   0 
  -3  -4  -9    6.19    2.49   0 
  -2  -2   2   14.93    1.87   0 
  -2  -1 -11   69.68    2.56   0 
  -1   3   6   56.93    2.30   0 
  -1   6   7  379.24    5.28   0 
  -1   7   7  145.98    4.21   0 
   0   0  -5   71.41    2.28   0 
   1   4  -3   -0.24    1.61   0 
   1   7  -1   75.11    2.08   0 
  -3  -4  -1   12.03    1.53   0 
  -3  -3 -11    3.00    2.01   0 
  -3   2   7    1.11    1.35   0 
  -2  -2 -10    0.18    1.39   0 
  -2   3   7  185.89    2.81   0 
  -1   1 -10   76.99    2.04   0 
   0   1   2  692.74    9.30   0 
   0   3  -8   26.33    1.64   0 
   0   4  -8    7.16    1.58   0 
   1   3  -2    4.66    1.84   0 
   1   3  -1  920.57    6.32   0 
   1   4   1   26.05    2.15   0 
   1   6  -3    1.46    1.35   0 
   1   6   2  110.74    3.19   0 
   1   7  -2   53.44    2.00   0 
  -4  -4   0   41.19    2.16   0 
  -4  -3   2    0.42    1.40   0 
  -3  -2   3   18.95    1.51   0 
  -1  -2  -1 1031.21   10.29   0 
   0   2  -8   43.98    1.68   0 
   1   3  -3  131.33    2.43   0 
   1   5  -4   32.67    1.69   0 
   1   6  -4   59.05    2.23   0 
   1   7  -3    1.01    1.50   0 
   1   7   2  901.70    7.33   0 
   1   8  -1   89.11    2.29   0 
   1   8   0   21.05    2.07   0 
  -5  -3   2    4.53    1.88   0 
  -3  -1   4  493.44    3.78   0 
  -3   1   6   31.03    1.71   0 
  -1  -2  -7 1013.72    6.75   0 
  -1  -1  -9    9.58    1.83   0 
  -1   0 -10   11.10    1.94   0 
  -1   0   3  964.12    6.22   0 
  -1   2   5    3.46    1.72   0 
   0   0  -6   85.99    2.21   0 
   0   3   4  133.86    3.89   0 
   0   5   5  313.76    6.10   0 
   1   3   0  108.39    3.08   0 
   1   5   2   37.14    2.61   0 
   1   8  -2   50.79    2.03   0 
   1   8   1    1.71    1.84   0 
  -5  -4   0   16.14    1.86   0 
  -4  -5  -4   91.69    2.93   0 
  -4   1   6   56.47    2.23   0 
  -3   0   5  307.47    3.17   0 
  -3   3   7   33.49    2.19   0 
  -2  -3  -9   39.03    2.37   0 
  -2  -1   3    7.21    1.40   0 
  -2   2   6    2.42    1.40   0 
  -2   4   7    1.06    1.81   0 
  -1   1   4  578.25    4.91   0 
   0   3  -9    1.59    1.92   0 
   1   3  -4  684.03    4.41   0 
   1   4  -5    4.06    1.46   0 
   1   5  -5  148.64    2.46   0 
   1   6  -5    7.22    1.56   0 
   1   7  -4   -1.26    1.55   0 
   1   8  -3    4.07    1.66   0 
  -5  -5  -3    2.59    1.87   0 
  -5  -2   3    8.46    1.51   0 
  -4  -2   3    0.28    1.46   0 
  -3  -4  -2 1206.18    7.27   0 
  -2   1   5   55.89    1.79   0 
  -1   4   6   20.04    2.10   0 
   0   1  -8   89.54    2.13   0 
   0   2   3   98.10    3.83   0 
   1   3  -5 1315.27    6.09   0 
   1   8   2   69.03    2.94   0 
  -5  -1   4   12.05    1.66   0 
  -4  -1   4   79.79    1.93   0 
  -4   0   5    9.45    1.58   0 
  -2  -2 -11   11.70    1.62   0 
   0   0  -7  103.23    2.30   0 
   1   4  -6   17.74    1.55   0 
   1   5  -6    7.11    1.54   0 
   1   6  -6    2.35    1.80   0 
   1   9   1    7.51    1.99   0 
  -4  -5  -5   18.51    2.42   0 
  -4  -4  -1   73.56    2.10   0 
  -4  -3   1  116.76    2.24   0 
  -3  -4 -10  144.26    4.18   0 
  -3  -2   2  105.56    2.22   0 
  -3   2   6   66.61    2.28   0 
  -2  -2   1  446.69    4.30   0 
  -2   5   7    5.11    1.85   0 
  -1  -2  -8   85.36    2.35   0 
  -1  -1 -10   59.58    2.45   0 
  -1  -1   1  236.49    4.18   0 
  -1   0 -11    2.55    1.96   0 
   1   2  -4   14.42    1.52   0 
   1   3  -6   78.29    2.27   0 
  -5  -4  -1   -1.08    1.97   0 
  -5  -3   1    9.58    1.54   0 
  -2   3   6    0.45    1.81   0 
   0  -1  -4  152.19    3.46   0 
   0   1  -9    6.30    1.56   0 
   1   2  -5  401.92    3.56   0 
   1   2  -1 2791.73   11.50   0 
   1   5  -7    0.60    1.67   0 
   1   9   2   54.72    3.01   0 
  -4   2   6   49.55    1.99   0 
  -3  -3   0    6.38    1.55   0 
  -3  -1   3   99.87    2.20   0 
  -3   1   5  357.78    3.49   0 
  -2  -3 -10    2.36    1.94   0 
  -2   6   7    0.60    1.92   0 
  -1   5   6  536.69    5.76   0 
   0   2 -10    6.05    1.50   0 
   0   6   5   15.29    3.08   0 
   1   3   1  218.66    4.81   0 
   1   4  -7    5.15    1.61   0 
   1   4   2   56.05    3.39   0 
   1   7   3   81.05    3.78   0 
  -5  -2   2    4.57    1.56   0 
  -4  -5  -8   26.47    4.38   0 
  -4  -5  -6    8.07    2.49   0 
  -4  -2   2   82.13    2.06   0 
  -4   1   5    5.56    1.87   0 
  -3  -4  -3  755.87    6.51   0 
  -3   5   7   29.87    2.43   0 
  -1   3   5  190.97    3.36   0 
   0  -1  -6    1.34    1.76   0 
   0  -1  -3 1045.22    9.01   0 
   1   2  -6   -0.34    1.52   0 
   1   3  -7   37.62    1.73   0 
   1   6   3   50.77    3.46   0 
  -4  -5  -7    9.52    3.24   0 
  -4  -4  -2   21.70    2.11   0 
  -4  -1   3    2.69    1.49   0 
  -4   0   4   14.22    1.57   0 
  -2   2   5   49.97    2.09   0 
  -1  -1 -11    1.99    2.07   0 
   0   0  -9   19.24    2.03   0 
   0   1 -10    2.95    1.60   0 
   1   8   3  231.37    5.27   0 
  -5  -5  -5   13.11    2.07   0 
  -5  -3   0   16.12    1.92   0 
  -4  -3   0   22.84    1.61   0 
  -4   3   6    2.84    1.54   0 
  -3   3   6    0.06    1.61   0 
   0  -1  -7   -0.05    1.38   0 
   1   1  -4   78.18    2.07   0 
   1   3  -8   60.50    1.99   0 
  -5  -4  -2    2.38    1.69   0 
  -3  -2   1  112.94    2.49   0 
  -2   0   3   14.66    1.73   0 
  -2   1   4    0.73    1.43   0 
  -2   4   6    0.34    1.61   0 
  -1   0   2    3.09    2.03   0 
  -1   2   4 1123.15    7.35   0 
  -1   6   6   49.70    2.63   0 
   0   7   5   92.76    5.60   0 
   1   1  -6   55.32    2.12   0 
   1   2   0   11.63    2.52   0 
  -3   2   5   10.83    1.89   0 
  -2  -3 -11    2.91    1.97   0 
  -1  -2 -10   28.65    1.87   0 
  -1   1   3  587.99    5.62   0 
  -1   7   6    1.83    2.28   0 
  -1   8   6    3.96    2.87   0 
   0  -1  -8    8.54    1.56   0 
   0   0 -10   26.24    2.10   0 
   1   9   3  133.60    4.81   0 
   2   6  -3    6.27    1.48   0 
   2   7  -3    9.23    1.99   0 
   2   7  -2    1.55    1.99   0 
  -6  -4  -3   11.54    2.19   0 
  -6  -3  -1   17.15    2.27   0 
  -5  -5  -6  139.04    3.51   0 
  -5   1   4    3.48    1.64   0 
  -4  -2   1   34.31    2.02   0 
  -4   2   5  109.95    2.28   0 
  -3  -3  -1   46.65    1.90   0 
  -3   4   6   15.11    2.14   0 
   1   1  -7    0.56    1.47   0 
   2   5  -4    2.28    1.57   0 
   2   5  -3    1.68    1.44   0 
   2   5  -2   91.63    2.15   0 
   2   7  -4   15.92    1.91   0 
   2   7  -1   97.09    2.76   0 
   2   8  -2    4.28    1.93   0 
  -5  -1   2   -3.13    1.52   0 
  -4  -4  -3  125.72    2.97   0 
  -3  -4  -4  201.56    4.21   0 
  -3  -1   2    0.91    1.51   0 
  -3   1   4   89.26    2.19   0 
  -2   5   6    2.08    1.94   0 
   2   4  -3   21.02    1.58   0 
   2   5  -5    4.26    1.54   0 
   2   5  -1   35.63    2.17   0 
   2   6  -5   46.69    2.06   0 
   2   8  -1   16.37    2.28   0 
  -5  -5  -7    5.86    2.74   0 
  -5  -3  -1   10.50    1.94   0 
  -4  -3  -1   81.85    2.45   0 
  -4   0   3   11.06    1.93   0 
  -4   1   4  741.12    4.67   0 
  -3   0   3    4.30    1.42   0 
  -2   3   5  120.78    2.80   0 
  -1  -2 -11   54.39    2.64   0 
   1   1  -8   26.44    1.71   0 
   2   4  -2    5.21    1.48   0 
   2   5  -6   48.92    2.02   0 
   2   6   0    1.13    1.91   0 
   2   7   0    0.66    1.58   0 
   2   8   0    2.29    2.07   0 
  -6  -2   0   11.47    1.65   0 
  -3   5   6    3.59    1.97   0 
  -1  -3  -6    1.75    2.23   0 
   1   5   3   23.29    3.89   0 
   2   4  -6   25.44    1.78   0 
  -6  -4  -4   11.85    2.32   0 
  -1  -3  -8  159.95    3.42   0 
   0  -1 -10   35.51    1.97   0 
   0  -1  -2  683.70    9.76   0 
   1   0  -6   13.13    1.54   0 
   1   0  -5   26.14    1.80   0 
   1   0  -4   18.52    2.14   0 
   1   1  -9   21.45    1.81   0 
   2   3  -5   52.90    1.88   0 
   2   3  -4  189.87    2.69   0 
   2   3  -3    1.01    1.42   0 
   2   4  -1   59.46    2.00   0 
   2   5   0    2.18    1.59   0 
  -6  -3  -2   24.23    1.95   0 
  -5  -5  -8    6.24    3.03   0 
  -5  -2   0   16.79    1.64   0 
  -3  -2   0   78.59    2.53   0 
  -3   6   6    5.54    2.29   0 
  -2  -4  -8   11.21    2.98   0 
  -2   2   4   47.29    2.21   0 
  -1  -3  -9  171.39    3.58   0 
  -1  -2  -2    2.83    3.68   0 
  -1  -1   0 2720.70   15.27   0 
   1   0  -7   77.61    2.10   0 
   1   1  -1  234.26    4.33   0 
   2   3  -6   14.50    1.65   0 
   2   3  -2   13.33    1.97   0 
   2   7   1    5.71    2.01   0 
   2   8   1    5.94    2.38   0 
  -4  -2   0    5.26    1.87   0 
  -2  -4  -9    1.37    2.43   0 
  -2  -4  -7   12.70    4.07   0 
   0  -2  -7   21.47    2.15   0 
   0  -2  -6    4.47    1.97   0 
   1   0  -8   -0.50    1.53   0 
   2   3  -7    4.75    1.70   0 
   2   6   1   28.57    2.27   0 
  -6  -2  -1    3.55    2.09   0 
  -5  -3  -2   14.12    2.09   0 
  -5  -1   1  127.33    2.47   0 
  -4   4   5    0.80    1.66   0 
  -3   2   4  115.31    2.38   0 
  -2   0   2   14.07    1.70   0 
  -2   1   3   27.76    1.91   0 
  -2   4   5  157.89    3.32   0 
  -1   3   4    8.99    2.10   0 
  -1   5   5   12.32    2.41   0 
   0  -2  -8   11.06    2.07   0 
   1   0  -3  945.32    6.50   0 
   2   2  -6  195.33    3.03   0 
   2   2  -5  122.45    2.46   0 
   2   2  -4 1766.25    7.16   0 
   2   3  -8   36.67    2.37   0 
  -4  -3  -2  132.32    3.00   0 
  -4  -1   1    7.07    1.94   0 
  -3  -1   1    3.49    1.90   0 
  -2  -3  -3  129.80    4.14   0 
  -1  -3 -10    8.22    2.08   0 
  -1  -3  -5  189.42    5.76   0 
   0  -2  -9    0.60    2.07   0 
   0  -2  -5   84.74    2.83   0 
   1   0  -9    7.72    1.66   0 
   2   2  -7    2.53    1.56   0 
   2   2  -3    1.87    1.95   0 
   2   3  -1  455.50    4.58   0 
   2   4   0   12.99    1.62   0 
  -6  -3  -3    4.20    1.63   0 
  -6  -1   0   36.63    1.92   0 
  -6   0   1   28.47    1.89   0 
  -3  -4  -5   64.33    3.38   0 
  -3   0   2   11.36    1.88   0 
  -2  -4 -10    9.42    2.63   0 
   2   5   1   21.04    2.12   0 
  -5  -2  -1    6.69    1.88   0 
  -5   2   3   83.44    2.44   0 
  -4   5   5   -1.66    1.71   0 
  -2  -2  -1  327.53    4.59   0 
  -1  -3 -11   73.83    2.83   0 
   0  -2 -10    1.75    2.03   0 
   1   0 -10    2.08    1.73   0 
   2   2  -8   87.45    2.39   0 
  -5  -4  -5    1.13    1.96   0 
  -4   3   4   -0.52    1.52   0 
  -3   5   5    0.45    2.03   0 
  -2  -4 -11   15.46    3.14   0 
  -2   5   5   75.14    2.64   0 
   1  -1  -7   85.35    2.21   0 
   1  -1  -6    3.43    1.83   0 
   2   1  -6   40.51    2.13   0 
   2   2  -2   14.29    1.72   0 
   2   7   2    3.02    2.13   0 
   2   8   2  160.35    4.18   0 
  -6  -2  -2    2.28    1.64   0 
  -5  -3  -3   15.21    2.09   0 
  -4  -4  -5   29.03    2.52   0 
  -3   3   4    3.82    1.48   0 
  -2   3   4  134.62    2.61   0 
  -1   2   3  101.49    2.90   0 
  -1   6   5   42.75    2.42   0 
   0  -2 -11    0.81    2.20   0 
   0   3   3   10.08    2.98   0 
   1  -1  -8   94.43    2.38   0 
   1  -1  -5  108.04    2.84   0 
   1   0  -2    1.88    2.16   0 
   2   1  -7    6.53    1.65   0 
   2   1  -5  804.38    5.01   0 
   2   9   2    2.56    2.49   0 
   3   5  -4    0.86    1.67   0 
   3   5  -3   29.00    2.17   0 
   3   7  -2    1.22    1.61   0 
  -6  -3  -4    5.42    2.20   0 
  -4  -2  -1   19.79    1.66   0 
  -4   2   3   17.67    1.77   0 
  -1   0   1  291.32    5.19   0 
   0  -2  -4    4.81    2.17   0 
   1  -1  -9   17.21    1.81   0 
   2   1  -8   20.83    1.77   0 
   2   1  -4  208.61    2.89   0 
   2   6   2  486.07    6.02   0 
   3   4  -5   96.14    2.52   0 
  -6  -1  -1   17.07    1.78   0 
  -6   0   0   24.39    2.00   0 
  -5   3   3   25.15    1.90   0 
  -3   6   5   35.73    2.24   0 
  -2   6   5    1.74    2.12   0 
  -1   1   2    6.74    2.17   0 
   1  -1 -10    2.84    2.23   0 
   2   1  -9   54.65    2.33   0 
   2   3   0   92.19    2.67   0 
   2   4   1    4.62    2.04   0 
   3   4  -6   33.45    1.98   0 
   3   4  -4    2.03    1.48   0 
   3   5  -2   13.64    1.68   0 
   3   6  -1    5.22    2.14   0 
   3   7  -1   35.89    2.14   0 
  -5  -4  -6    8.45    2.41   0 
  -4  -1   0    1.41    1.58   0 
  -4   1   2   15.88    1.79   0 
  -3   2   3   21.77    1.94   0 
  -1   7   5   10.33    2.43   0 
   0   5   4  153.19    4.79   0 
   1  -1  -4  566.23    5.44   0 
   2   1  -3    5.31    1.59   0 
   2   2  -1  462.37    4.83   0 
  -5  -2  -2   23.38    1.81   0 
  -5   2   2   -0.37    2.00   0 
  -4   0   1  114.20    2.40   0 
  -2   2   3  701.75    5.48   0 
  -2   7   5    2.01    2.07   0 
  -1   4   4    1.27    2.03   0 
  -1   8   5    2.37    2.51   0 
   1   3   2   26.20    3.58   0 
   2   0  -7   14.89    2.05   0 
   3   3  -6    2.88    1.75   0 
   3   3  -5    1.56    1.53   0 
   3   7   0    0.96    2.13   0 
   3   8   0    9.69    2.37   0 
  -6  -3  -5   23.09    2.45   0 
  -6  -2  -3   86.19    2.43   0 
  -4   5   4    1.69    1.77   0 
  -3  -1   0  559.59    4.74   0 
  -3   1   2   14.70    1.71   0 
  -3   4   4   -0.28    1.63   0 
   2   0  -6   27.82    1.83   0 
   3   3  -3   39.39    2.12   0 
   3   6   0    6.85    2.01   0 
  -6  -1  -2    2.00    2.16   0 
  -5  -3  -4   61.84    2.31   0 
  -5  -1  -1   31.57    1.92   0 
  -5   1   1    2.30    1.58   0 
  -4  -4  -6   65.26    3.01   0 
  -4   3   3    1.05    1.61   0 
  -3   0   1  217.36    3.07   0 
  -2   0   1   83.44    2.60   0 
  -2   1   2    1.53    1.67   0 
   0  -3  -9   11.09    2.16   0 
   0  -3  -8    1.20    2.10   0 
   2   0  -9   28.95    2.01   0 
   2   0  -5  212.95    2.90   0 
  -6   0  -1   18.38    1.85   0 
  -6   1   0    0.77    1.74   0 
  -3  -4  -6   40.77    3.32   0 
   2   1  -2  163.65    2.89   0 
   2   5   2  772.66    7.40   0 
   3   2  -7    7.96    1.78   0 
   3   2  -5   35.98    1.87   0 
  -5  -4  -7    5.18    2.02   0 
  -5   3   2    3.46    1.72   0 
  -4  -2  -2  480.32    4.38   0 
   1  -2 -10   53.78    2.68   0 
   1  -2  -9    5.05    1.79   0 
   1  -2  -7   32.48    2.01   0 
   2   0  -4   34.42    1.90   0 
   3   2  -4    2.29    1.59   0 
   3   3  -2   12.71    1.67   0 
   3   5   0    3.93    1.75   0 
   3   8   1   48.94    3.05   0 
  -6  -3  -6   26.74    2.61   0 
  -6  -2  -4    0.83    1.76   0 
  -4   4   3    6.36    1.75   0 
  -3   3   3  117.49    2.48   0 
  -1  -4 -10    0.86    2.48   0 
   1  -2  -6   77.42    2.68   0 
   1  -1  -3  577.95    5.68   0 
   3   7   1    0.27    2.00   0 
  -6   2   0    3.21    2.21   0 
  -5  -2  -3  368.01    3.92   0 
  -5   2   1   -0.48    1.96   0 
  -4  -3  -4    3.22    1.83   0 
  -4  -1  -1    3.68    1.52   0 
  -4   1   1   40.35    2.00   0 
  -3   6   4   31.71    2.49   0 
  -2   5   4   47.46    2.59   0 
  -1  -4 -11   -0.41    2.64   0 
  -1  -4  -9   47.00    3.07   0 
  -1   5   4    7.28    2.35   0 
   0   2   2  113.94    5.42   0 
   2  -1  -7    0.98    1.89   0 
   2   8   3   19.22    3.23   0 
   3   1  -7    4.58    1.72   0 
   3   1  -6    1.98    1.55   0 
   3   6   1   10.94    2.08   0 
  -6  -1  -3    2.22    1.70   0 
  -5  -3  -5   15.19    1.88   0 
  -5   4   2   12.10    1.83   0 
  -4   0   0    1.45    1.68   0 
  -3  -2  -2   60.81    2.36   0 
  -2  -2  -2   65.08    3.21   0 
  -2   3   3  305.84    3.88   0 
  -1   3   3  216.76    4.01   0 
   2  -1  -9   12.42    1.89   0 
   2  -1  -6    1.42    1.92   0 
   2   0  -3   14.65    1.87   0 
   2   2   0  689.10    6.05   0 
   2   3   1  248.68    4.25   0 
   2   9   3    6.13    3.57   0 
   3   1  -5   51.49    1.98   0 
   3   3  -1   45.47    2.18   0 
  -6   1  -1   10.47    1.83   0 
  -5  -1  -2  205.96    2.98   0 
  -5   0  -1   32.07    2.37   0 
  -5   1   0   32.63    1.87   0 
  -4   5   3   43.70    2.20   0 
  -3   2   2   31.53    1.84   0 
   1  -2  -5    3.33    1.97   0 
   2   7   3  317.75    6.53   0 
   3   4   0   45.80    2.23   0 
   4   6  -2   20.06    1.96   0 
  -6  -2  -5    1.02    2.20   0 
  -4  -4  -7   17.65    2.70   0 
  -4   3   2    5.31    1.75   0 
  -2   6   4   13.08    2.22   0 
   0   6   4    1.78    2.56   0 
   2   1  -1 2099.51    9.62   0 
   3   1  -4  508.50    4.25   0 
   3   2  -2  108.83    2.38   0 
   4   5  -2    2.04    2.10   0 
  -3  -1  -1   10.82    1.91   0 
  -3   1   1  882.45    5.97   0 
  -2  -3  -4    7.84    2.77   0 
   0  -2  -3   94.83    4.30   0 
   3   5   1    2.74    1.77   0 
   4   3  -5   96.99    2.49   0 
   4   4  -3    6.29    1.67   0 
  -6   2  -1   -1.26    2.17   0 
  -5  -2  -4  146.88    3.16   0 
  -3   0   0  591.87    4.89   0 
  -2   7   4    0.07    2.20   0 
  -1   6   4   15.08    2.54   0 
   3   0  -8   61.62    2.52   0 
   3   0  -7   11.29    1.85   0 
   3   8   2   26.94    2.89   0 
  -6  -1  -4   44.17    2.17   0 
  -5  -3  -6   10.93    2.24   0 
  -5   2   0   53.13    2.45   0 
  -4   2   1  186.55    2.92   0 
  -4   4   2   11.70    2.10   0 
  -2   8   4    0.92    2.30   0 
   1  -3 -10    7.81    2.55   0 
   1  -3  -9    0.41    2.28   0 
   2  -1  -4    0.26    1.99   0 
   2   0  -2   13.58    2.24   0 
   3   0  -5  312.13    3.84   0 
   3   7   2    9.27    2.19   0 
   4   4  -2   18.83    1.95   0 
   4   7   0    1.29    2.40   0 
  -6   0  -3  455.02    4.38   0 
  -6   1  -2   44.87    2.19   0 
  -4  -3  -5  131.82    3.37   0 
  -4  -1  -2  182.06    3.11   0 
  -2   4   3   91.34    2.87   0 
  -1   2   2  372.96    5.35   0 
   1  -3  -8   12.07    1.87   0 
   2  -2  -9    1.13    1.78   0 
   2  -2  -8   24.41    2.14   0 
   2   6   3  869.36   10.45   0 
   3   2  -1   96.03    2.42   0 
   3   3   0    5.93    1.74   0 
   4   2  -5   26.94    1.94   0 
  -6  -2  -6    2.93    1.97   0 
  -5  -1  -3  863.13    5.52   0 
  -5   1  -1   13.84    1.75   0 
  -4   0  -1   39.25    1.85   0 
  -4   1   0  225.76    3.16   0 
  -3  -4  -7    7.19    3.00   0 
  -3   3   2   43.00    1.97   0 
  -2  -1  -1  308.92    4.67   0 
  -2   1   1   21.70    2.04   0 
  -1  -4  -7   51.73    4.02   0 
  -1   7   4   41.02    2.91   0 
   0  -3  -5   16.38    2.63   0 
   0   7   4   -0.03    2.85   0 
   1  -3  -7    5.94    2.23   0 
   1  -2  -4 1103.82    7.72   0 
   1  -1  -2    5.10    2.79   0 
   2  -2  -7   85.80    2.57   0 
   3   4   1   12.10    2.15   0 
   3   6   2  144.52    3.78   0 
   4   2  -4    1.06    1.69   0 
   4   6   0   10.14    1.93   0 
  -5   5   1    1.98    1.84   0 
  -4  -4  -8  115.16    4.34   0 
  -4   5   2    1.72    1.74   0 
  -3   6   3    5.10    1.98   0 
  -2   0   0   60.62    3.03   0 
  -1  -1  -1 1158.35   12.78   0 
  -1   8   4    2.80    2.72   0 
   0  -4 -10   21.91    2.48   0 
   0  -4  -9  120.22    3.69   0 
   0   9   4    8.96    3.65   0 
   3  -1  -8    1.48    2.26   0 
   3   0  -4 1102.53    5.96   0 
   3   1  -2    0.60    1.61   0 
   4   3  -2    0.02    1.61   0 
   4   4  -1   82.65    2.38   0 
  -6  -1  -5    6.20    1.89   0 
  -6   2  -2   68.19    2.46   0 
  -4   3   1   19.30    1.87   0 
  -3   7   3   10.24    2.47   0 
  -1   4   3  202.94    3.94   0 
   0   8   4    2.82    3.12   0 
   2  -2  -6    3.59    1.61   0 
   3  -1  -7    3.13    1.70   0 
   4   1  -6    5.59    1.78   0 
   4   5   0    6.99    1.87   0 
  -6   0  -4   86.88    2.87   0 
  -6   1  -3  193.01    3.29   0 
  -5  -3  -7    8.70    2.35   0 
  -5  -2  -5   24.68    2.03   0 
  -4   6   2   14.72    2.02   0 
  -3  -2  -3   22.38    2.04   0 
  -3   2   1   15.55    2.23   0 
   0   4   3  799.43    9.77   0 
   3  -1  -6   29.75    2.08   0 
   4   1  -5   -1.21    1.94   0 
  -5   2  -1    7.18    2.21   0 
  -4  -2  -4    2.43    2.19   0 
  -2   5   3    8.35    1.97   0 
  -1   1   1 2212.89   13.05   0 
   1  -3  -6   56.73    2.54   0 
   2  -2  -5   51.12    2.41   0 
   3   0  -3    5.25    1.78   0 
   3   5   2    0.29    2.62   0 
   4   1  -4   77.33    2.36   0 
   4   3  -1  134.53    3.06   0 
  -5  -1  -4    3.25    2.19   0 
  -5   4   0   46.58    2.21   0 
  -2   3   2  239.45    3.69   0 
   2   1   0  977.86    7.28   0 
   3  -1  -5  366.35    3.91   0 
   4   2  -2   82.27    2.38   0 
   4   6   1   78.30    2.59   0 
  -6  -1  -6   10.90    2.37   0 
  -5   0  -3  102.41    2.56   0 
  -5   1  -2    2.17    1.74   0 
  -4  -3  -6   64.91    2.90   0 
  -4   4   1    4.06    1.82   0 
  -3  -3  -5   22.09    2.36   0 
  -3  -1  -2   28.47    2.56   0 
  -3   1   0   77.05    2.36   0 
  -2   6   3    1.85    2.10   0 
  -1   0   0   25.33    3.61   0 
   2  -3  -9   57.97    2.93   0 
   3   1  -1    4.50    1.76   0 
   3   2   0   83.02    2.50   0 
   4   0  -6   17.07    2.03   0 
  -5  -3  -8   20.34    2.54   0 
  -5   5   0   -0.42    1.95   0 
  -4  -4  -9    6.60    3.08   0 
  -4  -1  -3    2.30    1.60   0 
  -4   1  -1    2.54    1.82   0 
  -3   0  -1    7.99    1.91   0 
  -3   5   2    4.75    2.15   0 
   2  -3  -8   77.41    2.91   0 
   2   0  -1   84.12    2.73   0 
   3  -2  -8    2.21    2.34   0 
   3   3   1   48.20    2.16   0 
   5   4  -2    1.50    2.52   0 
  -6   0  -5   39.99    2.17   0 
  -6   1  -4    7.11    1.91   0 
  -5  -2  -6    0.14    1.89   0 
  -5   3  -1   20.49    1.97   0 
  -4   0  -2   41.61    1.99   0 
  -4   5   1    6.45    1.78   0 
   0  -4  -7 1330.28   10.24   0 
   1  -4 -10   32.76    2.84   0 
   1  -2  -3  104.19    3.51   0 
   3  -2  -7    1.11    1.73   0 
   3   0  -2   10.68    2.03   0 
   3   8   3    2.30    2.99   0 
   5   3  -3    8.07    1.88   0 
   5   5  -1    8.13    2.00   0 
  -4   3   0   -0.35    1.72   0 
  -3   3   1  105.02    2.47   0 
  -3   6   2   21.60    2.54   0 
  -1   5   3  316.86    4.80   0 
   1  -4  -9   10.07    2.41   0 
   2  -3  -7  199.45    3.32   0 
   2  -2  -4   50.65    2.25   0 
   2   5   3   16.91    3.06   0 
   4   0  -4   13.52    2.21   0 
   4   3   0   26.02    1.91   0 
  -5   2  -2    8.59    1.84   0 
  -5   4  -1    1.54    2.31   0 
  -3   7   2    7.76    2.41   0 
  -2   2   1   34.06    2.37   0 
   2  -1  -2    2.81    1.80   0 
   2   3   2  240.59    4.78   0 
   3  -2  -6   74.35    2.43   0 
   3   4   2 1305.80    8.58   0 
   3   7   3  133.12    4.50   0 
   4   1  -2   13.35    1.84   0 
   5   3  -2    2.35    1.85   0 
   5   4  -1   10.19    1.91   0 
  -6   2  -4    1.79    1.85   0 
  -5  -3  -9    8.36    2.57   0 
  -5   1  -3   43.99    2.55   0 
  -4  -2  -5    9.33    2.41   0 
  -2  -2  -3  956.72    9.10   0 
  -2   4   2   49.88    2.18   0 
  -1   3   2  497.31    6.11   0 
   1  -4  -8   25.94    2.61   0 
   2  -3  -6   -1.18    2.13   0 
   4   4   1   75.09    2.42   0 
   4   6   2   11.54    2.47   0 
   5   2  -3    7.39    1.91   0 
   5   5   0   25.89    2.54   0 
  -6   0  -6   19.21    2.30   0 
  -6   1  -5    5.52    1.88   0 
  -5   5  -1    6.26    1.92   0 
  -4  -4 -10   12.50    3.41   0 
  -4  -3  -7   68.90    2.83   0 
  -4   2  -1   -0.44    1.80   0 
  -4   4   0   13.89    2.48   0 
  -3  -4  -8   11.14    3.32   0 
   3  -2  -5    9.79    2.21   0 
   3  -1  -3   52.46    2.23   0 
  -5  -2  -7   70.36    2.46   0 
  -5   3  -2    9.42    1.94   0 
  -3  -2  -4   98.13    3.21   0 
  -2  -4  -7   11.64    4.71   0 
  -1   6   3  379.35    5.29   0 
   3   6   3   30.60    2.92   0 
   4  -1  -5    7.16    1.84   0 
   5   1  -4   10.82    1.91   0 
  -4  -1  -4   18.33    2.01   0 
  -4   1  -2   21.45    1.94   0 
  -1  -5 -10    1.45    3.76   0 
   0  -3  -4  131.48    4.65   0 
   1  -4  -7   22.44    2.41   0 
   3  -3  -8   -1.24    1.89   0 
   3   1   0  575.62    5.07   0 
   3   2   1    1.63    2.27   0 
   4   5   2   84.23    2.98   0 
   5   2  -2    4.87    1.86   0 
   5   4   0   14.99    1.96   0 
  -5  -1  -6   34.81    2.67   0 
  -5   2  -3    1.41    2.09   0 
  -4   0  -3    3.12    1.67   0 
  -2   5   2    7.05    2.00   0 
  -1   8   3    6.69    2.38   0 
   2  -4  -9    1.28    2.44   0 
   2  -2  -3  732.86    5.95   0 
   4   1  -1    8.21    1.81   0 
   4   3   1   83.45    2.86   0 
   5   1  -3   24.33    1.99   0 
  -5   4  -2    1.24    1.88   0 
  -4   3  -1   14.25    1.83   0 
  -4   6   0  152.57    3.16   0 
  -3  -1  -3   15.66    2.49   0 
  -3   1  -1  151.90    2.93   0 
  -3   5   1    2.69    1.73   0 
  -2  -1  -2  351.72    5.25   0 
  -2   0  -1  118.44    3.36   0 
   0  -5 -10    8.74    3.11   0 
   0  -4  -6  404.92    6.48   0 
   1  -1  -1 2219.39   13.54   0 
   2  -4  -8   10.66    2.44   0 
   3  -2  -4  123.52    2.68   0 
   4   0  -2   37.42    2.10   0 
   5   5   1   31.71    2.72   0 
  -5  -2  -8   12.97    2.17   0 
  -5   1  -4   11.23    1.93   0 
  -5   5  -2   11.83    2.10   0 
  -3  -3  -6  252.39    4.80   0 
  -3   6   1   91.95    3.09   0 
   1  -3  -4    8.98    1.99   0 
   1   1   1 1198.84   13.07   0 
   3  -1  -2   17.19    1.91   0 
   4  -2  -6   48.10    2.35   0 
   5   0  -4   13.00    2.10   0 
   5   3   0   14.62    2.35   0 
  -5   3  -3   -2.04    1.88   0 
  -4  -3  -8   14.95    2.39   0 
  -4  -2  -6  158.10    3.70   0 
  -3   3   0   14.71    2.04   0 
  -2   7   2   29.02    2.74   0 
  -2   8   2   16.11    2.34   0 
   3  -3  -6    0.19    1.83   0 
   3   3   2  390.90    4.87   0 
   3   5   3  770.67    8.11   0 
   4  -1  -3  114.05    3.00   0 
   4   4   2   22.26    2.61   0 
   5   1  -2    2.41    1.86   0 
  -4   2  -2   81.30    2.54   0 
  -4   4  -1    2.08    1.88   0 
  -2  -3  -5    2.29    3.05   0 
   0  -5  -9   64.35    4.16   0 
   1  -4  -6   20.82    2.65   0 
   2  -4  -7    2.09    1.93   0 
   2   1   1  319.85    5.10   0 
   4  -2  -5  110.71    2.75   0 
   4   7   3    0.98    2.81   0 
   5   0  -3   30.16    2.64   0 
  -5  -2  -9    8.16    2.66   0 
  -5   2  -4   40.87    2.12   0 
  -1   4   2  115.29    3.13   0 
   2  -1  -1   20.83    2.21   0 
   4   1   0    4.15    1.68   0 
  -5   0  -6  107.25    3.31   0 
  -5   1  -5   11.27    2.37   0 
  -4  -1  -5   -1.31    1.85   0 
  -4   1  -3   21.06    2.06   0 
  -3  -4  -9    6.50    3.64   0 
  -3   4   0  170.68    3.33   0 
  -1  -5  -9   69.10    5.84   0 
   0   6   3   52.88    3.33   0 
   1  -2  -2  376.92    5.72   0 
   3  -3  -5    5.02    1.88   0 
   4   0  -1  111.35    2.64   0 
   4   2   1   17.96    1.93   0 
   4   6   3    5.71    2.32   0 
   5   1  -1  121.24    3.06   0 
  -4   0  -4   15.70    1.97   0 
  -3   2  -1  181.39    3.14   0 
  -2   4   1   56.39    2.79   0 
   2  -4  -6    0.91    2.33   0 
   2   4   3   55.98    4.30   0 
   5   5   2  106.76    3.47   0 
  -5   3  -4   77.15    2.53   0 
  -4  -3  -9    7.35    2.38   0 
  -4   3  -2   86.52    2.45   0 
  -3  -2  -5    2.75    2.30   0 
   0   3   2  312.95    7.10   0 
   0   7   3   92.70    3.84   0 
   2  -2  -2   88.52    2.95   0 
   3   1   1   12.60    2.11   0 
   4  -3  -6    3.06    2.57   0 
   4  -1  -2   18.62    2.05   0 
   4   3   2  132.86    3.43   0 
   5   0  -2   32.59    2.11   0 
  -5  -1  -8    1.90    2.01   0 
  -4  -2  -7   97.74    3.26   0 
  -3   5   0  774.70    5.59   0 
  -1   9   2    7.56    2.74   0 
   4   5   3  200.76    4.28   0 
   5  -1  -3    0.35    2.48   0 
  -5   0  -7   24.86    2.58   0 
  -5   2  -5   13.43    1.97   0 
  -4   2  -3   87.11    2.83   0 
  -3   6   0  245.27    3.82   0 
  -3   7   0   25.49    2.25   0 
  -2   5   1  470.64    5.19   0 
  -1   5   2   47.06    2.46   0 
   0  -5  -8   53.88    3.77   0 
   3  -3  -4    2.04    1.78   0 
   3   4   3  837.84    7.97   0 
   5   4   2   -0.29    2.05   0 
  -5   1  -6    0.25    1.74   0 
  -4   5  -2    6.77    1.93   0 
  -3  -3  -7    9.75    2.71   0 
  -3  -1  -4  452.01    5.28   0 
  -3   3  -1   77.37    2.78   0 
  -2   8   1   12.32    2.59   0 
   1  -4  -5  181.82    3.98   0 
   3  -4  -6   15.07    2.53   0 
   3  -2  -2   34.60    2.03   0 
   3   2   2   64.58    2.61   0 
   5   0  -1    0.87    2.23   0 
   5   1   0   25.71    1.99   0 
  -5  -1  -9   11.08    2.16   0 
  -5   3  -5    3.12    1.86   0 
  -4  -1  -6    7.84    1.96   0 
  -4   1  -4  284.91    3.74   0 
  -4   6  -2    2.94    1.97   0 
  -2   6   1    1.99    1.84   0 
  -2   7   1   -0.02    1.96   0 
  -1   6   2  136.64    3.76   0 
  -1   7   2   18.43    2.53   0 
   2  -5  -8    3.03    2.61   0 
   2  -4  -5  157.65    3.72   0 
   2  -3  -3  318.58    4.45   0 
   4   0   0    1.85    1.87   0 
   4   1   1    1.91    1.68   0 
   5   2   1    5.97    1.86   0 
   5   6   3    1.34    2.45   0 
  -5   4  -5    2.63    1.98   0 
  -2   1  -1   57.37    2.67   0 
   1  -3  -3  216.66    4.12   0 
   4  -1  -1   43.93    2.23   0 
   4   4   3  126.90    3.59   0 
   5  -1  -2   57.66    2.41   0 
  -5   0  -8    2.47    2.08   0 
  -5   1  -7   13.66    2.03   0 
  -4  -2  -8   10.19    2.50   0 
   0  -2  -2  115.37    6.01   0 
   1  -5  -7  144.11    4.10   0 
   3  -3  -3  115.77    3.10   0 
   4  -3  -4    0.04    1.87   0 
   4   2   2  472.02    5.08   0 
   5   3   2   14.11    2.06   0 
   6   3   1   14.85    2.24   0 
  -5   3  -6    3.70    2.45   0 
  -3   2  -2   45.62    2.58   0 
   0  -4  -5   20.77    3.10   0 
   2  -5  -7    6.18    2.48   0 
   3  -4  -5   11.72    2.15   0 
   4  -2  -2  101.11    2.69   0 
   5  -2  -3   82.91    2.88   0 
   5   5   3    2.50    2.18   0 
  -4   2  -4  199.90    3.26   0 
  -4   5  -3   -0.12    1.92   0 
  -4   6  -3    0.03    2.00   0 
  -3   5  -1  123.52    3.01   0 
  -3   6  -1   19.02    2.11   0 
  -3   7  -1    8.85    2.11   0 
  -2   0  -2  516.00    5.98   0 
   5   0   0    6.69    2.08   0 
   5   1   1   30.91    2.54   0 
  -5   1  -8   24.02    2.38   0 
  -5   2  -7    4.03    2.03   0 
  -4  -1  -7    7.63    2.09   0 
  -3  -2  -6    8.06    2.38   0 
  -2  -1  -3 1412.06   10.32   0 
   1   5   3   23.74    4.86   0 
   2  -1   0  555.39    5.73   0 
   3  -1   0   77.51    2.49   0 
   3   0   1    8.36    2.06   0 
   3   3   3   87.14    3.42   0 
   5  -1  -1    2.99    1.80   0 
   6   0  -1   29.05    2.26   0 
  -4  -2  -9   10.56    2.53   0 
  -4   0  -6    9.09    1.91   0 
  -4   3  -4   28.03    2.49   0 
  -3  -3  -8    9.71    2.69   0 
  -2   4   0 1309.68    7.76   0 
  -2   8   0    5.57    2.12   0 
  -1   9   1   -0.56    2.66   0 
   0  -5  -7  337.70    6.99   0 
   2  -4  -4  199.42    3.64   0 
   2  -2  -1   33.98    2.54   0 
   2   0   1  117.46    3.50   0 
   3  -5  -7   29.98    2.68   0 
   3   7   4    4.57    4.58   0 
   4  -4  -5    0.35    2.00   0 
   4  -3  -3    0.46    1.93   0 
   4   3   3 1660.32    9.80   0 
   4   7   4    0.91    3.20   0 
   5   2   2   23.81    2.19   0 
  -3   3  -2   50.02    2.21   0 
  -2   7   0    0.06    2.59   0 
   1   8   3  225.11    6.37   0 
   2  -5  -6    3.19    2.44   0 
   3  -4  -4    0.50    1.80   0 
   4  -1   0  231.16    3.47   0 
   5  -2  -2   -0.90    1.93   0 
   6   3   2   22.58    2.27   0 
  -4   4  -4   26.43    2.38   0 
  -4   6  -4   30.10    2.34   0 
  -3  -1  -5    2.19    1.80   0 
  -3   0  -4  374.05    4.52   0 
  -2   5   0   20.68    2.02   0 
  -2   6   0   13.78    2.39   0 
   1  -4  -4    1.95    2.42   0 
   1   2   2    4.41    4.56   0 
   3  -3  -2   43.38    2.57   0 
   3   1   2   27.39    2.30   0 
   3   6   4  176.47    6.44   0 
   4  -2  -1  187.82    3.18   0 
   4   1   2  177.37    3.50   0 
  -4   2  -5    3.67    1.94   0 
  -3   4  -2    0.88    1.91   0 
  -3   7  -2    3.32    1.97   0 
  -2  -4  -8   10.26    3.75   0 
  -1   0  -1 1992.83   15.17   0 
  -1   4   1    3.34    2.04   0 
  -1   8   1    8.51    2.59   0 
   0   4   2    4.05    2.64   0 
   1  -5  -6  536.83    6.52   0 
   2  -3  -2  244.88    3.96   0 
   3  -5  -6    3.95    2.08   0 
   5   3   3   12.09    2.51   0 
   6   1   1   18.43    2.23   0 
  -4   1  -6   15.02    2.04   0 
  -3   5  -2    1.39    1.92   0 
  -3   6  -2    0.65    1.81   0 
  -2  -3  -6   18.08    3.39   0 
   0   8   2  167.19    4.48   0 
   1  -6  -9   17.10    3.39   0 
   5  -1   0   34.57    2.16   0 
   6   2   2    1.18    2.03   0 
   6   4   3    8.66    2.30   0 
  -4   3  -5    1.58    1.90   0 
  -4   4  -5    1.92    2.55   0 
  -3   2  -3    2.94    1.87   0 
  -1   5   1   53.09    2.92   0 
  -1   7   1    7.98    2.00   0 
   1   6   3   53.19    4.38   0 
   1   7   3   84.08    4.79   0 
   5  -2  -1   -1.61    1.91   0 
   5   1   2  210.05    3.42   0 
  -4  -1  -9    4.33    2.50   0 
  -4   5  -5   18.24    2.18   0 
  -3  -3  -9    1.34    2.32   0 
  -3  -2  -7  199.71    4.38   0 
  -1   6   1   12.36    2.18   0 
   0  -3  -3    8.48    3.23   0 
   1  -2  -1 1199.03    9.85   0 
   1  -1   0 9999.99   29.97   0 
   2  -5  -5   74.63    3.06   0 
   3  -4  -3  104.32    2.77   0 
   3   5   4    6.63    3.25   0 
   4   2   3  287.20    4.37   0 
  -3   7  -3    3.30    2.21   0 
   0   5   2    0.30    2.83   0 
   0   7   2   34.83    2.89   0 
   2  -4  -3   89.93    2.87   0 
   3   2   3   24.21    2.54   0 
   4  -4  -3    4.89    1.97   0 
   5  -3  -2    4.15    2.13   0 
   6  -1   0    0.01    2.07   0 
   6   0   1   17.47    2.24   0 
  -4  -1 -10   10.61    3.04   0 
  -4   0  -8    5.13    2.27   0 
  -4   1  -7    9.51    2.07   0 
  -4   3  -6    3.84    2.09   0 
  -3   1  -4   19.84    2.21   0 
  -3   6  -3    7.32    2.00   0 
  -2   1  -2    0.03    2.26   0 
  -2   7  -1   24.95    2.42   0 
  -1  -1  -2  100.37    5.33   0 
   0   6   2   13.31    2.58   0 
   1  -6  -8    0.34    3.00   0 
   1  -3  -2  491.32    6.42   0 
   3  -2   0   38.97    2.26   0 
   4  -5  -5   -1.37    2.20   0 
   4  -2   0  451.42    4.58   0 
   4  -1   1    2.68    1.93   0 
   6   1   2    2.52    2.14   0 
  -4   4  -6   28.55    2.39   0 
  -3  -1  -6   56.17    2.68   0 
  -3   4  -3   19.26    2.10   0 
  -3   5  -3    6.73    2.00   0 
  -2   4  -1    1.06    1.99   0 
   2  -6  -7    3.58    3.09   0 
   4  -3  -1   20.47    2.19   0 
   4   0   2   39.58    2.15   0 
   5  -2   0   53.65    2.78   0 
   5  -1   1   14.45    2.07   0 
   5   4   4   15.59    2.36   0 
  -4   0  -9    9.66    2.20   0 
  -4   1  -8  263.78    4.34   0 
  -4   2  -7  519.42    5.04   0 
  -2   5  -1  164.74    3.15   0 
   1  -5  -5   12.90    3.15   0 
   3   0   2   50.23    2.61   0 
  -4   3  -7  218.34    3.54   0 
  -4   4  -7   -0.25    2.17   0 
  -3  -2  -8   23.69    2.74   0 
  -3   2  -4   63.83    2.56   0 
  -2   8  -2    0.82    2.18   0 
  -1   8   0   51.67    2.58   0 
   0   9   1   -0.33    2.75   0 
   2  -2   0   55.42    3.39   0 
   2   9   3    4.16    4.09   0 
   3   4   4  199.22    5.12   0 
   4  -5  -4    1.25    2.58   0 
   4   1   3    0.89    2.31   0 
   6   4   4   11.61    2.93   0 
  -4   0 -10    5.12    2.29   0 
  -4   1  -9    5.93    2.68   0 
  -3  -3 -11    3.37    2.70   0 
   0  -6  -9   10.13    4.26   0 
   1   0   1 1854.59   14.77   0 
   2  -3  -1  172.14    4.01   0 
   3  -6  -6    5.57    2.81   0 
   3  -4  -2    3.95    1.98   0 
   4   3   4    3.22    2.64   0 
   5   1   3  886.49    6.16   0 
   6  -2   0    2.47    2.07   0 
   6  -1   1   12.65    2.17   0 
   6   0   2    0.89    2.09   0 
  -4   3  -8    2.87    2.08   0 
  -3   1  -5    1.06    2.22   0 
  -3   3  -4   83.35    2.72   0 
  -3   4  -4  107.21    2.80   0 
  -3   5  -4  227.83    3.44   0 
  -2  -4  -9    2.06    3.30   0 
  -2   2  -2   59.96    2.74   0 
  -1   7   0  188.16    3.85   0 
   0  -5  -6   25.16    3.59   0 
   1  -6  -7  393.80    6.52   0 
   1  -4  -3  194.43    4.38   0 
   1   9   2   52.92    3.41   0 
   2  -1   1   55.16    2.90   0 
   5  -4  -2   13.47    2.20   0 
  -3   0  -6   15.19    2.47   0 
  -1   3   0  481.98    5.85   0 
   2  -6  -6   50.35    3.01   0 
   3   1   3   15.67    2.73   0 
   4  -2   1   -0.37    2.42   0 
   6   1   3    2.35    2.06   0 
  -3  -2  -9   46.79    3.07   0 
  -2   6  -2   65.09    2.49   0 
  -1   6   0   15.08    2.60   0 
   0   8   1   74.92    3.31   0 
   2  -4  -2   50.21    2.36   0 
   3  -5  -3   37.50    2.82   0 
   4  -5  -3   44.40    2.50   0 
   4  -1   2   20.54    2.17   0 
   5  -2   1    5.72    1.87   0 
   5  -1   2    3.59    1.93   0 
  -3   2  -5   25.55    2.11   0 
  -2  -3  -7  194.40    5.01   0 
  -2   3  -2  259.50    3.78   0 
  -2   4  -2  101.28    3.05   0 
  -1   4   0  833.90    7.33   0 
  -1   5   0    5.46    2.36   0 
   0  -4  -4   65.14    4.52   0 
   2   2   3  975.16    9.95   0 
   3  -6  -5   39.28    3.02   0 
   3  -2   1  176.07    3.59   0 
   5   0   3  109.58    3.23   0 
   6   2   4   -0.94    2.54   0 
  -3  -2 -10    3.12    2.58   0 
  -3   3  -5    2.37    2.14   0 
  -3   4  -5   43.36    2.32   0 
  -2   7  -3    1.58    2.55   0 
   2   0   2  540.59    6.24   0 
   3   3   4  121.92    3.94   0 
   4   0   3    2.87    2.25   0 
   4   2   4    2.37    2.07   0 
  -3  -1  -8  192.87    3.79   0 
  -2  -4 -10   10.41    3.77   0 
  -2   1  -3   -0.66    2.11   0 
   3  -1   2    1.68    1.97   0 
   6   0   3  431.71    4.87   0 
  -3  -2 -11   12.92    2.61   0 
  -3   5  -6   11.34    2.18   0 
   0   7   1    8.90    2.61   0 
   1  -5  -4    5.74    2.46   0 
   2  -6  -5   -0.21    2.23   0 
   2  -5  -3    7.11    2.73   0 
   5   1   4    5.59    2.60   0 
   5   4   5    2.64    2.46   0 
  -3   2  -6   64.04    2.57   0 
  -3   3  -6    3.20    2.18   0 
  -2  -4 -11   13.60    3.93   0 
  -2   7  -4    0.98    2.63   0 
  -1   7  -1   23.73    2.32   0 
   1  -6  -6   49.64    3.39   0 
   4   5   5   19.46    3.34   0 
   5  -2   2    6.53    2.38   0 
  -3   5  -7    2.54    2.08   0 
  -2  -2  -6   27.56    3.36   0 
  -2   0  -4  271.37    4.90   0 
   2   8   3   16.89    3.89   0 
   3  -5  -2    5.63    2.13   0 
   3   0   3  306.04    4.67   0 
   4   1   4   18.37    2.60   0 
   5   3   5   14.80    2.86   0 
   6  -2   2   67.28    2.67   0 
  -3  -1 -10    5.57    2.65   0 
  -3   0  -8  590.91    5.54   0 
  -3   2  -7   73.71    3.09   0 
  -3   3  -7   48.75    2.75   0 
  -3   4  -7    2.69    2.16   0 
  -2   3  -3   22.22    2.23   0 
  -1   6  -1  141.22    3.59   0 
   2  -3   0 5229.06   16.17   0 
   4  -4   0   11.53    2.34   0 
   5  -4   0   49.39    2.54   0 
   6  -1   3  207.83    3.61   0 
  -3  -1 -11   13.92    2.36   0 
  -3   0  -9  106.26    3.57   0 
  -3   4  -8   24.54    2.36   0 
  -2  -3  -8  198.19    5.00   0 
  -2  -1  -5   20.08    2.29   0 
  -2   6  -4   46.49    2.45   0 
   1  -3  -1  805.81    7.75   0 
   1   9   1    5.28    2.72   0 
   2  -4  -1   58.20    3.06   0 
   4  -6  -3   46.26    2.67   0 
  -3   0 -10   25.34    2.79   0 
  -3   2  -8   15.91    2.15   0 
  -3   3  -8    1.30    2.10   0 
  -1   2  -1  174.13    4.71   0 
   0   5   1  151.01    4.05   0 
   1   7   2  910.30    9.02   0 
   3  -3   1   75.36    2.97   0 
   4  -5  -1    7.15    2.15   0 
   5   0   4    8.04    2.01   0 
   5   2   5   25.29    2.91   0 
   6   0   4   80.73    2.93   0 
   6   2   5    3.03    2.18   0 
  -3   3  -9    4.08    2.23   0 
  -2   1  -4   81.18    3.29   0 
  -1  -5  -9   68.44    6.47   0 
  -1   5  -1  212.30    3.63   0 
  -1   7  -2   30.92    2.49   0 
  -1   8  -3   22.50    2.50   0 
   0   3   1  150.24    4.95   0 
   1  -4  -2  117.32    3.75   0 
   3  -6  -3    4.66    2.30   0 
   4   3   5  122.86    3.95   0 
   4   7   5   30.67    6.57   0 
  -3   1 -10    7.53    2.39   0 
  -2   6  -5    6.57    2.15   0 
  -1   4  -1    1.45    2.19   0 
   0   4   1  119.34    3.97   0 
   2  -7  -6  182.67    4.50   0 
   2  -5  -2    7.58    2.79   0 
   2  -1   2   -0.88    2.79   0 
   2   1   3 1382.32   10.45   0 
   5  -3   2   10.95    2.22   0 
   6  -2   3   -0.43    2.14   0 
  -2  -3  -9   34.71    3.32   0 
  -2   4  -4  482.99    4.74   0 
  -2   6  -6    1.33    2.31   0 
   1  -7  -8   88.62    4.67   0 
   1  -6  -5   43.36    3.29   0 
   2   9   2    3.32    2.90   0 
   3  -5  -1    0.90    2.02   0 
   6  -1   4    8.51    2.72   0 
   6   1   5    8.32    2.26   0 
  -2  -2  -7  178.17    4.21   0 
  -2   0  -5   47.93    3.08   0 
  -2   5  -5    8.20    2.10   0 
  -1   0  -2 1155.94   11.10   0 
  -1   6  -2   28.63    2.17   0 
  -1   7  -3    4.54    2.53   0 
   0  -5  -5  299.49    7.34   0 
   3  -1   3  637.22    5.73   0 
   4  -4   1   -1.62    2.12   0 
   4  -3   2   89.17    2.66   0 
   4   2   5    7.92    2.65   0 
   5  -5   0    1.91    2.19   0 
   5  -1   4   11.30    2.06   0 
   5   1   5   21.71    2.26   0 
  -2  -3 -11    2.74    2.79   0 
  -2  -3 -10    2.34    2.76   0 
   1  -5  -3  316.10    5.19   0 
   1  -1   1 6894.28   24.51   0 
   1   8   1   -0.30    2.67   0 
   1   9   0    0.73    2.96   0 
   4  -5   0    2.38    2.10   0 
  -2   5  -6   34.49    2.41   0 
   1   6   2  110.84    4.21   0 
   2  -6  -3    3.48    2.48   0 
   3  -7  -4   11.49    2.51   0 
   3  -6  -2   20.22    2.40   0 
  -2  -2  -8  368.59    5.53   0 
  -2   1  -5    2.25    2.14   0 
  -2   2  -5  180.08    3.70   0 
  -2   3  -5   44.36    2.48   0 
  -1  -5 -10    1.97    4.09   0 
  -1   7  -4  144.05    3.26   0 
   1  -7  -7  146.86    5.32   0 
   2  -7  -5    3.65    2.78   0 
   2   7   3  310.50    7.23   0 
   4  -6  -1   19.68    2.86   0 
   4  -1   4  290.64    3.94   0 
   5  -4   2    0.94    2.62   0 
   5   0   5    2.69    2.38   0 
   5   3   6   10.24    2.77   0 
   6   2   6    2.25    2.72   0 
  -2   4  -6   32.37    2.25   0 
  -1   6  -3   35.82    2.19   0 
   0  -6  -7   20.55    5.40   0 
   0   8  -2   44.76    2.54   0 
   2  -3   1 1450.77    8.64   0 
   3  -3   2   51.67    2.78   0 
   4   1   5    1.64    2.15   0 
   5  -5   1    7.14    2.69   0 
  -2  -1  -7 2310.78   11.62   0 
  -2   3  -6   31.67    2.24   0 
  -2   4  -7   22.57    2.23   0 
   0   7  -1   16.62    2.34   0 
   2  -5  -1  452.96    5.38   0 
   3   0   4  354.14    4.65   0 
   5   2   6    0.15    2.74   0 
  -2  -2 -10   -0.90    2.47   0 
  -2   1  -6   31.03    2.28   0 
  -2   2  -6    0.79    1.99   0 
  -1   1  -2  383.68    6.02   0 
  -1   6  -4   48.70    2.77   0 
   3  -7  -3   11.34    2.38   0 
   3  -2   3    3.45    2.02   0 
   4  -5   1  106.05    3.31   0 
   4  -4   2   24.03    2.28   0 
   4  -3   3   95.73    2.74   0 
  -2  -1  -8   71.11    3.30   0 
  -2   3  -7    0.31    2.11   0 
  -1  -1  -3  819.72   10.49   0 
  -1   2  -2    1.94    2.35   0 
  -1   3  -2   73.12    2.72   0 
   0   5   0  126.29    3.73   0 
   0   8  -3    2.15    2.23   0 
   1  -6  -4   15.56    2.82   0 
   1   7   1   21.81    2.82   0 
   2   8   2  162.37    4.97   0 
   4   0   5    9.66    2.36   0 
   5  -1   5   10.86    2.03   0 
  -2  -1 -11   66.26    3.13   0 
  -2   0  -7  329.21    4.45   0 
  -2   1  -7   64.19    2.85   0 
  -2   2  -7    2.13    2.10   0 
  -1  -3  -5  192.69    7.09   0 
   1  -4  -1    2.71    2.85   0 
   2  -7  -4    2.16    2.24   0 
   2  -6  -2   19.90    2.68   0 
   3   3   5   20.92    2.81   0 
   3   4   5   61.36    3.92   0 
   6   0   6   20.90    2.99   0 
  -2   0 -10   58.35    3.14   0 
  -2   0  -8    4.45    2.05   0 
  -2   1 -10    0.38    2.63   0 
  -2   2  -8    5.07    2.23   0 
   0  -4  -3  773.96   10.60   0 
   0   6  -1   65.54    3.07   0 
   0   7  -2    5.94    2.20   0 
   1  -7  -6    2.99    3.30   0 
   5  -5   2   10.95    2.27   0 
   5  -4   3   79.37    2.86   0 
  -2   0  -9   14.68    2.18   0 
  -2   1  -9   26.51    2.36   0 
  -1  -4  -7   54.50    4.71   0 
  -1  -2  -4   68.36    4.58   0 
  -1   4  -3    7.38    2.03   0 
  -1   5  -4   15.48    2.15   0 
   3  -7  -2    8.83    2.74   0 
   3  -1   4   18.44    2.19   0 
   3   2   5    4.40    2.60   0 
   3   7   4    3.40    4.61   0 
   4   3   6   61.60    3.24   0 
   4   4   6   63.35    3.62   0 
   0   4   0   38.05    3.38   0 
   2  -1   3    1.02    2.14   0 
   3  -4   2    2.22    1.95   0 
   4  -1   5    9.43    2.40   0 
   5  -2   5   12.57    2.24   0 
   0  -2  -1 1768.13   18.45   0 
   1  -2   1  163.10    4.19   0 
   1   8  -1   93.94    3.10   0 
   2  -7  -3   61.57    3.19   0 
   2  -4   1   -0.94    2.04   0 
   2   3   4    9.96    3.53   0 
   3   5   5    6.34    4.66   0 
   4  -5   2    6.45    2.13   0 
   4  -4   3   36.91    2.38   0 
   4   5   6    7.00    3.80   0 
  -1   4  -4   13.97    2.20   0 
  -1   5  -8    6.49    2.33   0 
  -1   5  -7   13.09    2.31   0 
   2  -5   0   21.28    2.23   0 
   2   2   4 1217.97   11.37   0 
   3   1   5    0.40    1.91   0 
   4  -3   4   29.86    2.28   0 
  -1  -4 -11    3.48    2.87   0 
  -1   0  -3  183.91    4.65   0 
  -1   2  -3   46.83    2.60   0 
   0   6  -2    3.95    1.98   0 
   1  -7  -5   11.81    3.18   0 
   1  -6  -3  374.06    5.66   0 
   1   6   1    0.24    2.54   0 
   1   8  -2   52.47    3.29   0 
   2  -6  -1    0.26    2.54   0 
   2   6   3  880.06   11.58   0 
   3   8   3    1.99    3.48   0 
   4   1   6    6.34    2.12   0 
   5  -4   4   16.49    2.48   0 
   5  -1   6   -0.38    2.06   0 
   5   3   7    7.01    2.83   0 
   5   4   7    5.52    2.74   0 
  -1  -4 -10    3.66    3.16   0 
  -1  -4  -8  386.08    7.47   0 
  -1   4  -5   18.25    2.20   0 
   0   3   0   12.21    3.14   0 
   2   8   1    6.89    2.78   0 
   3  -7  -1   37.21    2.52   0 
   4  -2   5    3.61    2.59   0 
   5  -3   5    4.50    2.26   0 
   5   2   7   70.99    2.83   0 
  -1  -4  -9   48.71    3.78   0 
  -1   3  -4    7.15    2.15   0 
  -1   4  -8   13.33    2.38   0 
   0  -5  -4  154.72    5.59   0 
   0   6  -3    2.15    2.55   0 
   1   4   2   58.42    4.39   0 
   1   8  -3    6.17    2.32   0 
   2   1   4  338.78    5.41   0 
   3   0   5   24.26    2.22   0 
   4   0   6    8.82    2.51   0 
   5   1   7  104.73    3.52   0 
   5   5   7    5.50    3.19   0 
   0  -6  -6   96.01    6.53   0 
   2  -2   3   60.40    2.65   0 
   2   7   2    2.09    2.79   0 
   3  -5   2    0.32    2.13   0 
   4  -5   3   -1.95    2.08   0 
   5  -2   6   33.68    2.86   0 
  -1  -3 -11   77.41    3.72   0 
  -1   2  -4 1498.82    8.44   0 
  -1   3  -9   15.10    2.37   0 
  -1   3  -5   26.24    2.29   0 
   0   6  -4  246.52    3.77   0 
   1   7  -1   77.48    3.22   0 
   2  -8  -4    1.74    2.74   0 
   3  -4   3   17.19    2.19   0 
   4  -6   2    0.96    2.17   0 
   4  -4   4   27.51    2.27   0 
   5   0   7   28.48    2.88   0 
  -1  -3  -6    2.20    3.12   0 
  -1   2 -10    3.18    2.21   0 
  -1   3  -8    3.07    2.07   0 
  -1   3  -6   25.97    2.27   0 
   0   2   0 2065.86   16.28   0 
   0   5  -2    0.73    1.93   0 
   0   6  -6    6.69    2.19   0 
   0   6  -5    6.80    2.15   0 
   3  -1   5    0.66    1.83   0 
   4  -3   5    3.20    2.56   0 
   4  -1   6   15.40    2.12   0 
   5  -4   5    1.61    2.78   0 
  -1  -3 -10    8.15    2.81   0 
  -1  -1 -11    0.94    2.81   0 
  -1   0 -11    3.42    2.36   0 
  -1   1  -4 1070.30    7.77   0 
  -1   2  -5    5.81    2.62   0 
   1  -7  -4   43.57    3.16   0 
   1  -3   1   64.64    3.05   0 
   2  -4   2   98.48    2.82   0 
   2   8   0    0.85    2.89   0 
  -1  -2  -5    6.64    2.73   0 
  -1   0  -4  377.73    5.55   0 
  -1   2  -8  152.02    3.14   0 
   0   5  -3   18.91    2.18   0 
   1  -6  -2  141.94    4.05   0 
   1   6   0    0.00    2.66   0 
   1   7  -2   53.32    2.80   0 
   5  -3   6    3.62    2.44   0 
   5  -1   7   14.02    2.30   0 
  -1  -2 -10   29.77    3.02   0 
  -1  -1 -10   62.24    3.23   0 
  -1   0 -10   10.91    2.36   0 
  -1   1  -9   15.34    2.25   0 
  -1   2  -7    3.96    2.03   0 
   0   5  -7    2.83    2.75   0 
   1   5   1   20.42    2.84   0 
   1   7  -3   -0.65    2.28   0 
   2  -3   3   21.49    2.24   0 
   2   8  -1   21.34    3.27   0 
   4  -2   6   -1.96    2.68   0 
   4   2   7  100.82    3.62   0 
  -1   1  -8  190.56    3.46   0 
  -1   1  -5   78.52    2.87   0 
   0   5  -5  422.98    4.62   0 
   1   7  -4    0.42    2.24   0 
   3  -5   3    6.24    2.18   0 
   3  -2   5   25.75    2.30   0 
   4  -6   3   -1.07    2.25   0 
   4  -5   4   -0.09    2.06   0 
   4   1   7    8.21    2.62   0 
  -1   1  -7    6.09    2.05   0 
  -1   1  -6  147.57    3.28   0 
   0   4  -2    3.45    2.19   0 
   2   8  -2    6.69    2.28   0 
   3  -4   4  103.95    2.90   0 
   4  -4   5    1.40    2.30   0 
   5  -2   7    2.34    2.27   0 
   5   2   8   16.14    2.52   0 
;
_shelx_hkl_checksum              38248
loop_
_space_group_symop_operation_xyz
'x, y, z'
'-x, -y, -z'
loop_
_atom_site_label
_atom_site_type_symbol
_atom_site_fract_x
_atom_site_fract_y
_atom_site_fract_z
_atom_site_U_iso_or_equiv
_atom_site_adp_type
_atom_site_occupancy
_atom_site_site_symmetry_order
_atom_site_calc_flag
_atom_site_refinement_flags_posn
_atom_site_refinement_flags_adp
B1 B 0.3666(3) 0.4107(2) 0.90736(18) 0.0264(4) Uani 1 1 d . .
C1 C 0.5949(3) 0.55230(19) 0.82388(15) 0.0265(3) Uani 1 1 d . .
C2 C 0.7256(3) 0.63256(18) 0.91079(15) 0.0257(3) Uani 1 1 d . .
C3 C 0.9348(3) 0.7525(2) 0.83030(17) 0.0313(4) Uani 1 1 d . .
H3 H 1.0239 0.8059 0.8874 0.038 Uiso 1 1 calc R U
C4 C 1.0153(3) 0.7952(2) 0.66921(18) 0.0355(4) Uani 1 1 d . .
H4 H 1.1577 0.8764 0.6176 0.043 Uiso 1 1 calc R U
C5 C 0.8864(3) 0.7187(2) 0.58510(17) 0.0360(4) Uani 1 1 d . .
H5 H 0.9391 0.7476 0.4752 0.043 Uiso 1 1 calc R U
C6 C 0.6795(3) 0.5993(2) 0.66186(17) 0.0326(4) Uani 1 1 d . .
H6 H 0.5925 0.5478 0.6026 0.039 Uiso 1 1 calc R U
C7 C 0.2577(3) 0.3006(2) 0.80951(17) 0.0312(4) Uani 1 1 d . .
H7A H 0.0784 0.2538 0.8678 0.037 Uiso 1 1 calc R U
H7B H 0.2401 0.3823 0.7109 0.037 Uiso 1 1 calc R U
C8 C 0.4536(4) 0.1398(2) 0.7761(2) 0.0462(5) Uani 1 1 d . .
H8A H 0.3864 0.0712 0.7154 0.069 Uiso 1 1 calc R U
H8B H 0.6301 0.1869 0.7176 0.069 Uiso 1 1 calc R U
H8C H 0.4689 0.0588 0.8741 0.069 Uiso 1 1 calc R U
loop_
_atom_site_aniso_label
_atom_site_aniso_U_11
_atom_site_aniso_U_22
_atom_site_aniso_U_33
_atom_site_aniso_U_23
_atom_site_aniso_U_13
_atom_site_aniso_U_12
B1 0.0260(8) 0.0276(8) 0.0288(8) -0.0099(6) -0.0105(6) 0.0043(6)
C1 0.0280(7) 0.0283(7) 0.0253(7) -0.0087(5) -0.0088(5) 0.0030(5)
C2 0.0262(7) 0.0250(7) 0.0276(7) -0.0084(5) -0.0083(5) 0.0021(5)
C3 0.0328(8) 0.0303(7) 0.0330(8) -0.0087(6) -0.0098(6) -0.0031(6)
C4 0.0353(8) 0.0330(8) 0.0345(8) -0.0028(6) -0.0051(6) -0.0054(6)
C5 0.0409(9) 0.0397(8) 0.0248(7) -0.0042(6) -0.0060(6) -0.0013(7)
C6 0.0359(8) 0.0379(8) 0.0270(7) -0.0091(6) -0.0112(6) -0.0012(6)
C7 0.0327(7) 0.0369(8) 0.0287(7) -0.0114(6) -0.0110(6) -0.0038(6)
C8 0.0500(10) 0.0407(9) 0.0560(11) -0.0254(8) -0.0148(8) 0.0001(8)
loop_
_atom_type_symbol
_atom_type_description
_atom_type_scat_dispersion_real
_atom_type_scat_dispersion_imag
_atom_type_scat_source
C C 0.0033 0.0016 'International Tables Vol C Tables 4.2.6.8 and 6.1.1.4'
H H 0.0000 0.0000 'International Tables Vol C Tables 4.2.6.8 and 6.1.1.4'
B B 0.0013 0.0007 'International Tables Vol C Tables 4.2.6.8 and 6.1.1.4'
loop_
_geom_angle_atom_site_label_1
_geom_angle_atom_site_label_2
_geom_angle_atom_site_label_3
_geom_angle
_geom_angle_site_symmetry_1
_geom_angle_site_symmetry_3
C2 B1 C1 118.62(12) 2_667 .
C2 B1 C7 121.26(13) 2_667 .
C1 B1 C7 119.79(12) . .
C6 C1 C2 118.12(13) . .
C6 C1 B1 120.87(12) . .
C2 C1 B1 120.99(12) . .
C3 C2 C1 118.54(12) . .
C3 C2 B1 121.14(12) . 2_667
C1 C2 B1 120.31(12) . 2_667
C4 C3 C2 121.89(13) . .
C4 C3 H3 119.1 . .
C2 C3 H3 119.1 . .
C5 C4 C3 119.47(14) . .
C5 C4 H4 120.3 . .
C3 C4 H4 120.3 . .
C4 C5 C6 119.78(14) . .
C4 C5 H5 120.1 . .
C6 C5 H5 120.1 . .
C5 C6 C1 122.19(13) . .
C5 C6 H6 118.9 . .
C1 C6 H6 118.9 . .
C8 C7 B1 109.32(12) . .
C8 C7 H7A 109.8 . .
B1 C7 H7A 109.8 . .
C8 C7 H7B 109.8 . .
B1 C7 H7B 109.8 . .
H7A C7 H7B 108.3 . .
C7 C8 H8A 109.5 . .
C7 C8 H8B 109.5 . .
H8A C8 H8B 109.5 . .
C7 C8 H8C 109.5 . .
H8A C8 H8C 109.5 . .
H8B C8 H8C 109.5 . .
loop_
_geom_bond_atom_site_label_1
_geom_bond_atom_site_label_2
_geom_bond_distance
_geom_bond_site_symmetry_2
B1 C2 1.572(2) 2_667
B1 C1 1.577(2) .
B1 C7 1.5790(19) .
C1 C6 1.4024(19) .
C1 C2 1.4246(19) .
C2 C3 1.4059(19) .
C2 B1 1.572(2) 2_667
C3 C4 1.393(2) .
C3 H3 0.9500 .
C4 C5 1.382(2) .
C4 H4 0.9500 .
C5 C6 1.389(2) .
C5 H5 0.9500 .
C6 H6 0.9500 .
C7 C8 1.539(2) .
C7 H7A 0.9900 .
C7 H7B 0.9900 .
C8 H8A 0.9800 .
C8 H8B 0.9800 .
C8 H8C 0.9800 .
loop_
_geom_torsion_atom_site_label_1
_geom_torsion_atom_site_label_2
_geom_torsion_atom_site_label_3
_geom_torsion_atom_site_label_4
_geom_torsion
_geom_torsion_site_symmetry_1
_geom_torsion_site_symmetry_4
C2 B1 C1 C6 -178.32(12) 2_667 .
C7 B1 C1 C6 8.1(2) . .
C2 B1 C1 C2 3.3(2) 2_667 .
C7 B1 C1 C2 -170.28(12) . .
C6 C1 C2 C3 -0.9(2) . .
B1 C1 C2 C3 177.57(12) . .
C6 C1 C2 B1 178.22(12) . 2_667
B1 C1 C2 B1 -3.3(2) . 2_667
C1 C2 C3 C4 0.4(2) . .
B1 C2 C3 C4 -178.67(13) 2_667 .
C2 C3 C4 C5 0.2(2) . .
C3 C4 C5 C6 -0.4(2) . .
C4 C5 C6 C1 -0.1(2) . .
C2 C1 C6 C5 0.7(2) . .
B1 C1 C6 C5 -177.74(13) . .
C2 B1 C7 C8 -93.56(16) 2_667 .
C1 B1 C7 C8 79.79(17) . .
