#------------------------------------------------------------------------------
#$Date: 2019-11-25 06:36:04 +0200 (Mon, 25 Nov 2019) $
#$Revision: 240246 $
#$URL: file:///home/coder/svn-repositories/cod/cif/4/12/95/4129548.cif $
#------------------------------------------------------------------------------
#
# This file is available in the Crystallography Open Database (COD),
# http://www.crystallography.net/
#
# All data on this site have been placed in the public domain by the
# contributors.
#
data_4129548
loop_
_publ_author_name
'Liang, Tao'
'Zhang, Wandi'
'Chen, Te-Yu'
'Nguyen, Khoa D.'
'Krische, Michael J.'
_publ_section_title
;
 Ruthenium Catalyzed Diastereo- and Enantioselective Coupling of Propargyl
 Ethers with Alcohols: Siloxy-Crotylation via Hydride Shift Enabled
 Conversion of Alkynes to \p-Allyls.
;
_journal_issue                   40
_journal_name_full               'Journal of the American Chemical Society'
_journal_page_first              13066
_journal_page_last               13071
_journal_paper_doi               10.1021/jacs.5b08019
_journal_volume                  137
_journal_year                    2015
_chemical_absolute_configuration ad
_chemical_formula_moiety         'C11 H15 Br O2'
_chemical_formula_sum            'C11 H15 Br O2'
_chemical_formula_weight         259.14
_space_group_crystal_system      monoclinic
_space_group_IT_number           4
_space_group_name_Hall           'P 2yb'
_space_group_name_H-M_alt        'P 1 21 1'
_atom_sites_solution_hydrogens   mixed
_audit_creation_method           SHELXL-2013
_cell_angle_alpha                90
_cell_angle_beta                 98.524(6)
_cell_angle_gamma                90
_cell_formula_units_Z            2
_cell_length_a                   5.7323(12)
_cell_length_b                   7.920(2)
_cell_length_c                   12.149(2)
_cell_measurement_reflns_used    9984
_cell_measurement_temperature    100(2)
_cell_measurement_theta_max      31.7
_cell_measurement_theta_min      3.08
_cell_volume                     545.5(2)
_computing_cell_refinement       'Apex II release 2010, Bruker AXS, Inc.'
_computing_data_collection       'Apex II release 2010, Bruker AXS, Inc.'
_computing_data_reduction        'Apex II release 2010, Bruker AXS, Inc.'
_computing_molecular_graphics    'XP SHELXTL/PC, Siemens Analytical'
_computing_publication_material  'XL SHELXTL/PC, Siemens Analytical'
_computing_structure_refinement  'Shelxl-2013, Sheldrick, G. M.'
_computing_structure_solution
;

SUPERFLIP.  Palatinus, L. and Chapuis, G., J. Appl. Cryst. 40, 786-790.
;
_diffrn_ambient_temperature      100(2)
_diffrn_measured_fraction_theta_full 0.996
_diffrn_measured_fraction_theta_max 0.980
_diffrn_measurement_device_type
'Nonius Kappa CCD with Bruker Apex II detector'
_diffrn_measurement_method       '\w and \f-scans'
_diffrn_radiation_type           MoK\a
_diffrn_radiation_wavelength     0.71073
_diffrn_reflns_av_R_equivalents  0.0432
_diffrn_reflns_av_unetI/netI     0.0479
_diffrn_reflns_Laue_measured_fraction_full 0.996
_diffrn_reflns_Laue_measured_fraction_max 0.980
_diffrn_reflns_limit_h_max       8
_diffrn_reflns_limit_h_min       -8
_diffrn_reflns_limit_k_max       12
_diffrn_reflns_limit_k_min       -12
_diffrn_reflns_limit_l_max       18
_diffrn_reflns_limit_l_min       -17
_diffrn_reflns_number            24040
_diffrn_reflns_point_group_measured_fraction_full 0.998
_diffrn_reflns_point_group_measured_fraction_max 0.983
_diffrn_reflns_theta_full        25.242
_diffrn_reflns_theta_max         33.184
_diffrn_reflns_theta_min         3.081
_diffrn_source                   'sealed tube'
_exptl_absorpt_coefficient_mu    3.740
_exptl_absorpt_correction_T_max  1.00
_exptl_absorpt_correction_T_min  0.700
_exptl_absorpt_correction_type   multi-scan
_exptl_absorpt_process_details
;
SADABS.
;
_exptl_crystal_colour            colorless
_exptl_crystal_density_diffrn    1.578
_exptl_crystal_description       prism
_exptl_crystal_F_000             264
_exptl_crystal_size_max          0.384
_exptl_crystal_size_mid          0.272
_exptl_crystal_size_min          0.084
_refine_diff_density_max         0.666
_refine_diff_density_min         -0.452
_refine_diff_density_rms         0.081
_refine_ls_abs_structure_details
;
 Refined as an inversion twin.
;
_refine_ls_abs_structure_Flack   0.006(9)
_refine_ls_extinction_method     none
_refine_ls_goodness_of_fit_ref   1.006
_refine_ls_hydrogen_treatment    mixed
_refine_ls_matrix_type           full
_refine_ls_number_parameters     137
_refine_ls_number_reflns         3850
_refine_ls_number_restraints     1
_refine_ls_restrained_S_all      1.006
_refine_ls_R_factor_all          0.0366
_refine_ls_R_factor_gt           0.0271
_refine_ls_shift/su_max          0.001
_refine_ls_shift/su_mean         0.000
_refine_ls_structure_factor_coef Fsqd
_refine_ls_weighting_details
'w=1/[\s^2^(Fo^2^)+(0.0221P)^2^] where P=(Fo^2^+2Fc^2^)/3'
_refine_ls_weighting_scheme      calc
_refine_ls_wR_factor_gt          0.0487
_refine_ls_wR_factor_ref         0.0506
_reflns_Friedel_coverage         0.890
_reflns_Friedel_fraction_full    1.000
_reflns_Friedel_fraction_max     0.986
_reflns_number_gt                3383
_reflns_number_total             3850
_reflns_threshold_expression     'I > 2\s(I)'
_cod_data_source_file            ja5b08019_si_002.cif
_cod_data_source_block           shelx
_cod_original_sg_symbol_H-M      'P 21'
_cod_database_code               4129548
_shelx_space_group_comment
;
The symmetry employed for this shelxl refinement is uniquely defined
by the following loop, which should always be used as a source of
symmetry information in preference to the above space-group names.
They are only intended as comments.
;
_shelx_estimated_absorpt_t_min   0.328
_shelx_estimated_absorpt_t_max   0.744
_shelxl_version_number           2013-4
_shelx_res_file
;
TITL NK_WZ_1_60 in P2(1), colorless prisms, cut, Nonius Mo radiation
CELL  0.71073   5.7323   7.920  12.149   90.000   98.524   90.000
ZERR     2.00   0.0012   0.002   0.002    0.000    0.006    0.000
LATT  -1
SYMM  - X, 1/2 + Y, - Z
SFAC  C    H    O    BR
UNIT  22   30   4    2
MERG   2
TWIN
EQIV $1 -x, y+1/2, -z
HTAB O1 O2_$1
EQIV $2 x, y-1, z
HTAB O2 O1_$2
FMAP   2
omit 0 0 1
size .084 0.272 0.384
PLAN   25
ACTA
HTAB    2.00000
BOND   $H
CONF
LIST   4
L.S.   8
TEMP  -173.00
WGHT    0.022100
BASF   0.00618
FVAR       0.24271
C1    1    0.803928    0.554591    0.365590    11.00000    0.01194    0.00937 =
         0.01729   -0.00153   -0.00622   -0.00011
C2    1    0.844455    0.494828    0.262447    11.00000    0.01137    0.01639 =
         0.01813    0.00029    0.00143   -0.00018
AFIX  43
H2    2    0.979610    0.529832    0.231693    11.00000   -1.20000
AFIX   0
C3    1    0.683804    0.383229    0.205437    11.00000    0.01720    0.01344 =
         0.01237   -0.00269    0.00165    0.00210
AFIX  43
H3    2    0.710314    0.341194    0.135106    11.00000   -1.20000
AFIX   0
C4    1    0.484120    0.331425    0.249217    11.00000    0.01077    0.00876 =
         0.01421   -0.00003   -0.00179    0.00182
C5    1    0.447242    0.394366    0.352314    11.00000    0.01382    0.01191 =
         0.01575    0.00050    0.00218    0.00066
AFIX  43
H5    2    0.311335    0.360657    0.382933    11.00000   -1.20000
AFIX   0
C6    1    0.607162    0.506061    0.411000    11.00000    0.01641    0.01598 =
         0.01138   -0.00252    0.00011    0.00275
AFIX  43
H6    2    0.581344    0.548373    0.481365    11.00000   -1.20000
AFIX   0
C7    1    0.311508    0.206371    0.187052    11.00000    0.01291    0.01096 =
         0.01379   -0.00184   -0.00164   -0.00233
AFIX  13
H7    2    0.174809    0.192521    0.228725    11.00000   -1.20000
AFIX   0
C8    1    0.423879    0.033499    0.175393    11.00000    0.01475    0.00940 =
         0.01488    0.00040   -0.00359    0.00059
AFIX  13
H8    2    0.554083    0.046969    0.129665    11.00000   -1.20000
AFIX   0
C9    1    0.242463   -0.090917    0.115718    11.00000    0.01486    0.01001 =
         0.01721   -0.00161   -0.00255    0.00019
AFIX  23
H9A   2    0.104320   -0.095029    0.155837    11.00000   -1.20000
H9B   2    0.187588   -0.048740    0.039571    11.00000   -1.20000
AFIX   0
C10   1    0.338932   -0.268594    0.108163    11.00000    0.01485    0.01375 =
         0.01876    0.00030   -0.00405   -0.00084
AFIX  23
H10A  2    0.487990   -0.265277    0.076185    11.00000   -1.20000
H10B  2    0.371835   -0.319418    0.183312    11.00000   -1.20000
AFIX   0
C11   1    0.529254   -0.033782    0.289676    11.00000    0.05073    0.01353 =
         0.02604    0.00099   -0.02336   -0.00146
AFIX 137
H11A  2    0.402301   -0.057035    0.333407    11.00000   -1.50000
H11B  2    0.636722    0.050596    0.328280    11.00000   -1.50000
H11C  2    0.616421   -0.138122    0.280745    11.00000   -1.50000
AFIX   0
O1    3    0.228750    0.282579    0.080726    11.00000    0.01948    0.00996 =
         0.02042    0.00302   -0.01131   -0.00249
O2    3    0.166914   -0.367363    0.038665    11.00000    0.02086    0.00655 =
         0.02467   -0.00222   -0.00872    0.00023
BR1   4    1.022761    0.705729    0.447216    11.00000    0.01553    0.01815 =
         0.02560   -0.00769   -0.00585   -0.00187
H1O   2    0.121486    0.227555    0.048569    11.00000    0.03269
H5O   2    0.190272   -0.464185    0.047591    11.00000    0.03164
HKLF    4

REM  NK_WZ_1_60 in P2(1), colorless prisms, cut, Nonius Mo radiation
REM R1 =  0.0271 for    3383 Fo > 4sig(Fo)  and  0.0366 for all    3850 data
REM    137 parameters refined using      1 restraints

END

WGHT      0.0219      0.0000

REM Instructions for potential hydrogen bonds
HTAB C9 O2_$1
HTAB O1 O2_$1
HTAB O2 O1_$2

REM Highest difference peak  0.666,  deepest hole -0.452,  1-sigma level  0.081
Q1    1   1.0544  0.7061  0.3900  11.00000  0.05    0.67
Q2    1   0.8356  0.7020  0.3981  11.00000  0.05    0.57
Q3    1   0.9758  0.6972  0.5129  11.00000  0.05    0.46
Q4    1   0.9349  0.7734  0.4403  11.00000  0.05    0.43
Q5    1   1.0694  0.7077  0.4705  11.00000  0.05    0.41
Q6    1   1.2020  0.7266  0.4927  11.00000  0.05    0.40
Q7    1   1.1597  0.7087  0.5235  11.00000  0.05    0.37
Q8    1   0.4195  0.1306  0.2004  11.00000  0.05    0.36
Q9    1   0.7070  0.2012  0.4411  11.00000  0.05    0.34
Q10   1   0.9460  0.6363  0.4457  11.00000  0.05    0.34
Q11   1   0.1744 -0.1020  0.1426  11.00000  0.05    0.31
Q12   1   0.4274  0.2833  0.2037  11.00000  0.05    0.30
Q13   1   0.3329  0.1124  0.1635  11.00000  0.05    0.28
Q14   1   1.2086  0.6966  0.4434  11.00000  0.05    0.28
Q15   1   0.6644 -0.1308  0.2344  11.00000  0.05    0.28
Q16   1   0.7422 -0.0459  0.2402  11.00000  0.05    0.28
Q17   1   0.3203 -0.3367 -0.0019  11.00000  0.05    0.28
Q18   1   0.7791 -0.1576  0.2666  11.00000  0.05    0.28
Q19   1   0.7006  0.5042  0.3857  11.00000  0.05    0.27
Q20   1   0.5215  0.0284  0.2033  11.00000  0.05    0.27
Q21   1   0.3551  0.2100  0.0790  11.00000  0.05    0.27
Q22   1   0.2616  0.2623  0.1171  11.00000  0.05    0.27
Q23   1   0.8274  0.7135  0.4622  11.00000  0.05    0.26
Q24   1   0.5152 -0.0427  0.3806  11.00000  0.05    0.26
Q25   1   0.6005 -0.0469  0.2195  11.00000  0.05    0.26
;
_shelx_res_checksum              67144
_shelx_hkl_file
;
   2   0   0   62.45    3.87
  -2   0   0   63.99    3.87
  -2   0   0   60.64    3.59
  -2   0   0   60.01    3.76
  -2   0   0   63.72    3.77
  -2   0   0   61.43    4.10
  -2   0   0   63.09    3.84
  -2   0   0   63.28    3.81
   2   0   0   67.70    3.60
  -2   0   0   62.61    3.78
  -2   0   0   63.63    4.33
  -2   0   0   67.27    3.94
   2   0   0   58.73    3.76
   2   0   0   66.60    3.77
   2   0   0   60.55    3.77
   2   0   0   63.00    4.33
   2   0   0   59.65    3.93
   2   0   0   59.75    3.81
   2   0   0   60.21    4.09
   2   0   0   61.51    3.83
   2   0   0   63.47    3.55
   3   0   0   33.33    2.16
   3   0   0   33.31    2.33
   3   0   0   34.48    2.17
   3   0   0   32.89    2.13
   3   0   0   33.24    2.20
   3   0   0   36.18    2.48
  -3   0   0   37.00    2.37
  -3   0   0   33.40    2.15
  -3   0   0   31.41    2.05
   3   0   0   35.19    2.03
   3   0   0   34.41    2.14
   3   0   0   34.83    2.24
   4   0   0   70.16    3.97
   4   0   0   73.52    4.19
  -4   0   0   71.99    5.66
   4   0   0   66.76    4.30
   4   0   0   70.17    4.23
  -4   0   0   65.35    4.62
   4   0   0   67.64    4.18
  -4   0   0   65.86    4.19
   4   0   0   66.16    4.82
   4   0   0   65.88    4.37
   4   0   0   66.50    4.56
   5   0   0   44.13    2.90
   5   0   0   44.31    3.27
   5   0   0   44.90    2.93
   5   0   0   40.89    3.08
   5   0   0   43.46    2.83
   5   0   0   43.18    2.70
   5   0   0   44.90    2.81
   5   0   0   43.88    2.85
  -5   0   0   44.66    3.10
  -5   0   0   43.00    3.87
   6   0   0   29.64    2.08
   6   0   0   31.59    2.19
  -6   0   0   27.39    2.89
   6   0   0   25.74    2.36
   6   0   0   28.17    2.00
   6   0   0   30.16    2.03
   6   0   0   29.67    2.17
  -7   0   0    6.60    1.51
   7   0   0    7.39    1.10
   7   0   0    7.58    1.19
  -8   0   0    0.26    1.17
   0  -1   0   -0.09    0.04
   0  -1   0   -0.09    0.07
   0  -1   0   -0.14    0.04
   0  -1   0   -0.18    0.06
   0  -1   0   -0.14    0.02
   0  -1   0   -0.12    0.03
   0  -1   0   -0.10    0.03
   0   1   0    0.00    0.11
   0   1   0   -0.01    0.05
   0   1   0    0.05    0.04
   0   1   0   -0.04    0.04
   0   1   0    0.03    0.07
   0   1   0   -0.02    0.05
  -1  -1   0   37.34    2.55
  -1  -1   0   40.58    2.72
   1  -1   0   39.11    2.87
  -1  -1   0   44.35    2.72
   1  -1   0   41.15    2.55
  -1  -1   0   39.46    2.54
  -1  -1   0   43.04    2.78
  -1  -1   0   44.06    3.36
  -1  -1   0   41.84    2.58
  -1  -1   0   42.18    2.62
   1  -1   0   40.55    2.52
   1  -1   0   40.11    2.63
   1  -1   0   38.34    2.39
   1  -1   0   40.34    2.53
   1  -1   0   40.41    2.74
  -1  -1   0   43.51    2.99
  -1  -1   0   39.29    2.51
   1  -1   0   39.00    2.49
  -1  -1   0   39.58    2.52
  -1  -1   0   38.48    2.89
   1  -1   0   36.65    2.51
   1  -1   0   41.61    2.58
   1   1   0   45.74    2.55
   1   1   0   41.26    2.53
  -1   1   0   44.39    2.51
  -1   1   0   44.96    2.50
  -1   1   0   34.90    2.57
   1   1   0   45.38    2.51
  -1   1   0   45.22    2.56
  -1   1   0   44.57    2.40
  -1   1   0   46.39    2.88
   1   1   0   44.71    2.72
   1   1   0   45.38    2.58
  -1   1   0   35.20    2.73
   1   1   0   43.99    2.89
   1   1   0   46.47    2.62
   1   1   0   45.92    2.54
   2  -1   0   22.58    1.33
  -2  -1   0   21.24    1.38
  -2  -1   0   22.05    1.59
   2  -1   0   22.94    1.39
   2  -1   0   22.27    1.41
   2  -1   0   20.31    1.50
  -2  -1   0   22.23    1.68
   2  -1   0   20.91    1.58
   2  -1   0   21.18    1.44
  -2  -1   0   23.40    1.38
   2  -1   0   21.33    1.42
  -2  -1   0   22.18    1.54
  -2  -1   0   23.13    1.48
  -2  -1   0   22.92    1.39
   2  -1   0   22.53    1.38
  -2  -1   0   22.84    1.89
  -2  -1   0   23.26    1.42
   2  -1   0   22.66    1.40
  -2  -1   0   20.96    1.38
  -2  -1   0   22.10    1.47
   2  -1   0   21.17    1.38
  -2  -1   0   22.94    1.43
  -2   1   0   21.67    1.57
  -2   1   0   20.21    1.39
   2   1   0   21.48    1.37
  -2   1   0   21.10    1.42
   2   1   0   24.17    1.39
   2   1   0   21.50    1.36
  -2   1   0   20.29    1.33
  -2   1   0   20.91    1.39
  -2   1   0   22.40    1.45
  -2   1   0   22.07    1.39
   2   1   0   19.22    1.57
  -2   1   0   20.35    1.49
   2   1   0   20.62    1.37
   2   1   0   19.89    1.47
   2   1   0   21.06    1.42
  -2   1   0   23.01    1.38
  -2   1   0   21.77    1.40
  -2   1   0   21.30    1.45
   2   1   0   19.24    1.40
   2   1   0   23.12    1.32
   2   1   0   20.76    1.36
  -3  -1   0   26.48    1.58
   3  -1   0   22.94    1.72
   3  -1   0   23.58    1.60
   3  -1   0   27.01    1.66
   3  -1   0   25.25    1.67
   3  -1   0   24.50    1.82
  -3  -1   0   25.01    1.68
  -3  -1   0   26.37    2.21
   3  -1   0   24.56    1.58
  -3  -1   0   24.06    1.57
  -3  -1   0   23.54    1.77
   3  -1   0   24.39    1.59
   3   1   0   22.39    1.81
   3   1   0   23.77    1.61
   3   1   0   22.62    1.68
  -3   1   0   22.89    1.53
   3   1   0   24.69    1.55
   3   1   0   23.14    1.56
   3   1   0   23.81    1.62
   3   1   0   23.61    1.57
  -3   1   0   23.02    1.60
   3   1   0   24.92    1.52
   3   1   0   25.49    1.56
   4  -1   0   38.72    2.81
  -4  -1   0   41.25    3.53
   4  -1   0   40.19    2.63
   4  -1   0   40.33    2.72
  -4  -1   0   41.17    2.80
   4  -1   0   39.49    2.98
   4  -1   0   40.70    2.61
   4  -1   0   40.60    2.60
   4  -1   0   39.23    2.69
   4   1   0   38.36    2.79
   4   1   0   41.40    2.49
  -4   1   0   41.72    2.52
  -4   1   0   40.35    2.64
   4   1   0   38.97    3.01
   4   1   0   40.05    2.68
   4   1   0   41.61    2.56
   4   1   0   39.35    2.65
   4   1   0   41.72    2.59
   4   1   0   43.11    2.56
  -4   1   0   44.81    2.90
   4   1   0   42.57    2.60
   5  -1   0   10.91    1.15
   5  -1   0   11.96    0.93
   5  -1   0   10.46    0.93
   5  -1   0   12.06    0.91
   5  -1   0   10.45    0.88
  -5  -1   0   10.72    1.42
   5  -1   0   11.85    1.10
   5  -1   0   11.37    0.94
  -5  -1   0   11.19    0.89
   5   1   0    9.24    0.87
   5   1   0    8.36    0.89
   5   1   0    7.12    0.91
   5   1   0    7.45    0.83
  -5   1   0    7.19    1.27
   5   1   0    8.09    0.91
  -5   1   0    8.09    0.98
   5   1   0    8.96    0.97
  -5   1   0    7.33    0.94
   5   1   0    8.13    1.02
   5   1   0    9.31    0.83
  -5   1   0   10.02    0.92
   6  -1   0   22.59    1.69
   6  -1   0   22.89    1.77
   6  -1   0   21.06    1.97
   6  -1   0   21.30    1.76
  -6  -1   0   20.90    2.60
   6  -1   0   21.66    1.86
   6   1   0   22.47    1.80
  -6   1   0   22.68    2.64
   6   1   0   24.45    1.80
   6   1   0   23.84    1.81
   6   1   0   23.95    1.65
  -6   1   0   24.37    1.93
   6   1   0   23.61    1.70
   6   1   0   25.24    1.68
   6   1   0   23.09    1.69
   6   1   0   20.75    1.99
  -7  -1   0   15.70    2.25
   7  -1   0   19.94    2.01
   7  -1   0   16.91    1.66
   7   1   0   16.53    1.59
   7   1   0   16.60    1.47
   7   1   0   12.70    1.85
  -7   1   0   15.25    2.23
   7   1   0   16.41    1.56
  -8  -1   0   10.32    2.05
  -8   1   0   11.71    2.10
   0  -2   0   89.93    5.81
   0  -2   0   83.25    6.25
   0  -2   0   95.85    5.28
   0  -2   0   86.23    6.87
   0  -2   0   92.95    5.03
   0  -2   0   84.59    5.60
   0  -2   0   85.38    5.24
   0   2   0   91.32    5.27
   0   2   0   88.82    5.23
   0   2   0   92.45    5.30
   0   2   0   84.89    5.61
   0   2   0   90.50    5.03
  -1  -2   0  355.78   21.57
  -1  -2   0  336.46   25.84
   1  -2   0  379.47   19.92
   1  -2   0  356.36   19.81
   1  -2   0  348.91   25.85
   1  -2   0  365.55   19.03
  -1  -2   0  362.60   23.64
  -1  -2   0  363.67   26.53
  -1  -2   0  377.03   22.03
   1  -2   0  325.86   22.97
   1   2   0  309.14   20.24
  -1   2   0  325.00   19.02
  -1   2   0  331.56   19.91
  -1   2   0  331.37   21.78
   1   2   0  338.15   21.26
   1   2   0  304.24   20.52
  -1   2   0  355.62   20.01
   1   2   0  295.41   19.99
   1   2   0  340.04   20.10
   1   2   0  284.03   20.89
  -1   2   0  360.35   20.11
   1   2   0  327.84   20.41
  -1   2   0  344.16   20.52
  -1   2   0  342.47   20.91
  -1   2   0  350.43   22.91
  -1   2   0  350.63   20.26
  -1   2   0  329.45   20.31
  -1   2   0  333.93   19.80
   1   2   0  312.45   21.80
   1   2   0  319.77   22.93
  -2  -2   0   63.20    3.91
  -2  -2   0   65.64    3.77
   2  -2   0   64.66    3.93
  -2  -2   0   65.29    4.15
  -2  -2   0   64.06    3.86
  -2  -2   0   62.37    4.49
   2  -2   0   64.36    4.09
   2  -2   0   60.80    4.28
  -2  -2   0   64.50    3.81
  -2  -2   0   66.23    4.05
  -2  -2   0   60.48    3.79
   2  -2   0   63.08    3.86
  -2  -2   0   62.45    3.75
  -2  -2   0   69.59    5.04
  -2  -2   0   65.78    4.06
  -2   2   0   65.10    4.28
  -2   2   0   59.13    3.75
  -2   2   0   63.39    4.04
   2   2   0   60.22    3.76
   2   2   0   54.87    4.30
   2   2   0   60.80    3.79
   2   2   0   56.29    3.72
  -2   2   0   59.42    3.58
   2   2   0   61.25    3.77
   2   2   0   58.10    4.03
   2   2   0   56.21    3.83
   2   2   0   56.50    3.88
  -3  -2   0  141.50    8.26
  -3  -2   0  123.32    8.39
  -3  -2   0  135.68    9.13
   3  -2   0  139.00    9.46
  -3  -2   0  124.93    8.28
   3  -2   0  129.53    8.48
  -3  -2   0  121.36    9.07
  -3  -2   0  135.34    9.81
  -3  -2   0  139.16   11.01
   3  -2   0  135.14    8.37
   3  -2   0  137.10    8.27
   3  -2   0  132.47    8.64
   3  -2   0  128.62    8.99
  -3  -2   0  134.45    8.35
   3   2   0  146.26    8.37
   3   2   0  147.34    8.46
  -3   2   0  139.01    8.26
   3   2   0  137.34    9.49
   3   2   0  148.16    8.23
   3   2   0  140.48    8.94
  -3   2   0  142.95    7.89
   3   2   0  145.81    8.33
   3   2   0  146.85    8.60
  -3   2   0  151.28    8.88
   3   2   0  144.60    8.26
   4  -2   0   53.95    3.79
  -4  -2   0   54.61    4.21
  -4  -2   0   52.99    4.06
   4  -2   0   58.05    3.98
   4  -2   0   52.95    4.13
   4  -2   0   54.76    4.34
  -4  -2   0   53.87    5.12
   4  -2   0   53.49    3.88
   4  -2   0   55.47    3.84
   4   2   0   67.58    3.76
   4   2   0   66.23    3.62
   4   2   0   68.87    3.93
   4   2   0   69.06    3.76
   4   2   0   64.07    4.08
   4   2   0   65.52    3.88
   4   2   0   67.24    3.80
  -4   2   0   62.53    3.67
   4   2   0   64.79    4.40
   4   2   0   68.81    3.80
  -4   2   0   65.18    3.83
   5  -2   0   28.39    1.99
  -5  -2   0   27.13    2.48
   5  -2   0   29.55    1.83
   5   2   0   22.40    1.58
   5   2   0   22.51    1.58
   5   2   0   21.65    1.65
   5   2   0   21.32    1.72
   5   2   0   21.54    1.64
   5   2   0   22.22    1.57
   5   2   0   20.31    1.95
  -5   2   0   20.41    1.73
  -5   2   0   21.36    1.67
   5   2   0   23.35    1.55
  -5   2   0   20.84    1.78
   5   2   0   21.92    1.55
   6  -2   0   30.03    2.13
   6  -2   0   27.74    2.33
  -6  -2   0   20.62    2.80
  -6   2   0   23.93    2.13
   6   2   0   23.96    1.95
  -6   2   0   26.95    2.90
  -6   2   0   26.54    2.10
   6   2   0   28.43    1.96
   6   2   0   27.25    1.86
   6   2   0   27.10    1.96
   6   2   0   23.92    2.21
   7  -2   0    5.28    1.01
  -7  -2   0    4.59    1.61
   7  -2   0    5.75    1.07
  -7   2   0    2.43    1.19
   7   2   0    2.78    0.92
   7   2   0    3.28    0.85
   7   2   0    2.59    0.92
  -8  -2   0    1.55    1.70
  -8   2   0    0.89    1.72
   0  -3   0   -0.06    0.15
   0  -3   0   -0.18    0.13
   0  -3   0   -0.14    0.21
   0  -3   0    0.03    0.18
   0  -3   0   -0.06    0.10
   0  -3   0   -0.22    0.13
   0  -3   0   -0.23    0.18
   0   3   0   -0.11    0.11
   0   3   0   -0.05    0.18
   0   3   0   -0.11    0.13
   0   3   0    0.02    0.13
   0   3   0   -0.17    0.16
   0   3   0    0.07    0.21
  -1  -3   0   60.85    3.93
   1  -3   0   64.35    3.55
  -1  -3   0   61.01    4.26
   1  -3   0   63.24    3.78
  -1  -3   0   64.13    3.84
   1  -3   0   62.32    4.68
  -1  -3   0   60.90    4.68
   1  -3   0   62.86    4.20
  -1  -3   0   64.98    4.84
   1  -3   0   64.84    3.42
  -1   3   0   60.39    3.89
  -1   3   0   55.70    3.41
  -1   3   0   53.48    3.65
   1   3   0   54.58    3.52
   1   3   0   51.51    3.76
  -1   3   0   57.53    3.58
  -1   3   0   58.55    4.06
   1   3   0   52.90    4.08
  -1   3   0   56.56    3.53
   1   3   0   54.07    3.83
  -2  -3   0   17.73    1.12
   2  -3   0   17.25    1.15
  -2  -3   0   18.24    1.47
  -2  -3   0   17.81    1.06
   2  -3   0   18.42    1.40
  -2  -3   0   18.81    1.31
  -2  -3   0   18.70    1.15
  -2   3   0   13.76    1.07
   2   3   0   13.23    1.02
  -2   3   0   13.89    1.11
  -2   3   0   14.24    1.03
  -2   3   0   14.60    1.14
  -2   3   0   13.34    0.99
   2   3   0   13.96    1.02
   2   3   0   12.73    1.04
   2   3   0   14.27    1.02
  -2   3   0   13.83    0.98
   2   3   0   14.13    1.00
   2   3   0   12.94    1.17
   2   3   0   12.93    1.00
   2   3   0   14.32    1.06
   2   3   0   12.98    1.01
  -3  -3   0   68.32    5.08
  -3  -3   0   73.34    4.28
  -3  -3   0   68.94    4.28
  -3  -3   0   64.24    4.69
   3  -3   0   69.11    4.37
  -3  -3   0   65.61    4.23
  -3  -3   0   62.45    4.40
  -3  -3   0   69.32    5.72
   3  -3   0   65.84    4.82
  -3  -3   0   66.82    4.56
  -3  -3   0   72.09    4.55
  -3   3   0   70.51    4.55
   3   3   0   69.34    4.32
   3   3   0   68.42    4.24
   3   3   0   72.25    4.18
   3   3   0   72.44    4.23
  -3   3   0   66.95    4.05
   3   3   0   74.83    4.37
  -3   3   0   66.52    4.25
   3   3   0   73.71    4.24
   3   3   0   66.45    4.85
   3   3   0   69.74    4.52
  -4   3   0    6.47    0.71
   4   3   0    6.06    0.83
   4   3   0    5.83    0.53
   4   3   0    6.20    0.53
   4   3   0    5.75    0.56
   4   3   0    5.92    0.62
   4   3   0    5.62    0.58
   4   3   0    5.71    0.65
   4   3   0    5.67    0.56
  -4   3   0    5.85    0.72
   4   3   0    6.08    0.61
   4   3   0    5.49    0.62
   5  -3   0   20.02    1.53
  -5  -3   0   19.37    2.22
   5  -3   0   18.92    1.71
   5   3   0   19.72    1.33
   5   3   0   18.87    1.45
   5   3   0   19.22    1.39
  -5   3   0   18.99    1.62
   5   3   0   18.17    1.42
   5   3   0   20.64    1.46
   5   3   0   17.40    1.66
  -5   3   0   18.33    1.43
   5   3   0   20.27    1.37
   5   3   0   18.12    1.48
  -5   3   0   18.37    1.50
   5   3   0   19.90    1.37
   6  -3   0   23.39    1.84
   6  -3   0   22.31    2.09
  -6  -3   0   22.89    2.69
  -6   3   0   22.24    1.95
  -6   3   0   22.23    2.01
  -6   3   0   21.81    1.86
   6   3   0   22.88    1.71
   6   3   0   22.24    1.75
   6   3   0   22.00    2.02
   7  -3   0   17.23    1.95
  -7  -3   0   13.11    2.43
   7   3   0   17.66    1.69
  -7   3   0   18.44    2.60
  -8  -3   0    8.00    2.17
  -8   3   0    8.21    1.88
   0  -4   0  141.08   11.81
   0  -4   0  154.89    9.00
   0  -4   0  157.64    9.97
   0  -4   0  144.21    9.78
   0  -4   0  153.54    9.62
   0  -4   0  158.75    8.66
   0  -4   0  137.23   10.73
   0   4   0  146.12    9.06
   0   4   0  160.05    9.11
   0   4   0  151.50    8.64
   0   4   0  163.61    9.21
   0   4   0  157.09    9.27
   0   4   0  149.55    8.98
   0   4   0  150.54    9.62
   0   4   0  164.44    9.82
   1  -4   0  118.09    6.29
  -1  -4   0  111.31    6.96
  -1  -4   0  108.44    8.26
  -1  -4   0  109.18    8.52
   1  -4   0  105.82    8.26
  -1  -4   0  110.97    6.80
   1  -4   0  116.24    6.71
  -1  -4   0  102.95    7.52
   1  -4   0  107.75    7.46
   1   4   0  100.12    6.00
  -1   4   0  110.38    6.90
  -1   4   0  100.23    6.47
   1   4   0   96.83    6.25
   1   4   0  101.80    7.25
   1   4   0  103.66    6.31
  -1   4   0  103.56    6.04
   1   4   0   93.36    6.83
  -1   4   0  102.30    6.26
  -1   4   0  114.16    7.22
  -1   4   0  102.41    6.33
   1   4   0  100.57    6.70
   2  -4   0   85.61    5.92
  -2  -4   0   82.98    5.42
  -2  -4   0   84.19    6.03
   2  -4   0   83.65    6.57
   2  -4   0   81.74    5.74
  -2  -4   0   83.69    6.82
  -2  -4   0   85.75    6.58
  -2  -4   0   81.98    5.56
  -2   4   0   78.52    5.47
   2   4   0   81.65    5.04
  -2   4   0   95.12    5.75
   2   4   0   85.14    5.10
   2   4   0   81.69    5.34
   2   4   0   83.35    5.25
   2   4   0   85.70    5.39
   2   4   0   82.97    5.14
  -2   4   0   79.39    4.81
   2   4   0   86.89    5.52
   2   4   0   81.80    5.19
   2   4   0   81.59    5.78
  -2   4   0   82.95    5.07
  -2   4   0   82.83    5.00
   2   4   0   77.54    5.10
  -2   4   0   81.30    5.17
   3  -4   0   96.36    6.89
  -3  -4   0   96.56    6.69
  -3  -4   0  103.35    6.53
  -3  -4   0   96.99    8.16
   3  -4   0  101.90    7.86
  -3  -4   0   97.20    7.26
  -3  -4   0   98.97    6.53
   3   4   0  100.46    6.48
   3   4   0   98.92    6.07
  -3   4   0   96.17    6.07
  -3   4   0  102.63    6.56
   3   4   0   99.53    6.19
   3   4   0  101.36    6.26
  -3   4   0   99.50    5.80
   3   4   0  103.48    6.01
   3   4   0  104.36    6.43
   3   4   0  101.09    6.09
   3   4   0   95.61    6.94
   4  -4   0   29.14    2.15
  -4  -4   0   28.45    2.13
  -4  -4   0   27.64    2.36
   4  -4   0   30.11    2.53
  -4  -4   0   30.45    2.69
   4   4   0   27.18    1.81
   4   4   0   24.99    2.20
   4   4   0   27.84    1.89
   4   4   0   27.91    2.02
   4   4   0   28.30    1.93
   4   4   0   27.64    1.79
   4   4   0   27.88    1.82
  -4   4   0   26.31    2.01
   4   4   0   27.29    1.84
   4   4   0   28.90    1.93
  -4   4   0   25.67    1.92
   4   4   0   27.18    1.88
  -4   4   0   27.13    1.85
  -5  -4   0   16.54    2.14
   5  -4   0   16.12    1.73
   5  -4   0   17.02    1.94
   5   4   0   21.43    1.88
   5   4   0   20.48    1.55
   5   4   0   21.86    1.52
   5   4   0   21.87    1.47
  -5   4   0   20.75    1.71
   5   4   0   20.12    1.41
   5   4   0   19.84    1.60
  -5   4   0   21.62    1.65
   5   4   0   20.10    1.59
   5   4   0   20.97    1.41
  -5   4   0   20.06    1.85
  -6  -4   0   11.16    1.83
   6  -4   0   12.02    1.43
  -6   4   0   12.77    1.38
   6   4   0   12.89    1.36
   6   4   0   10.59    1.40
   6   4   0   11.85    1.37
  -6   4   0   13.86    1.36
  -6   4   0   12.11    1.49
  -7  -4   0    6.07    1.84
   7  -4   0    7.97    1.36
  -7   4   0    6.13    1.58
  -7   4   0    7.00    1.31
   7   4   0    6.30    1.22
  -8  -4   0    0.80    1.76
  -8   4   0    1.44    1.45
   8   4   0    2.05    1.20
   0  -5   0    0.20    0.14
   0  -5   0   -0.14    0.24
   0  -5   0   -0.21    0.17
   0  -5   0    0.44    0.38
   0  -5   0   -0.19    0.20
   0  -5   0   -0.26    0.29
   0   5   0    0.00    0.25
   0   5   0   -0.09    0.34
   0   5   0   -0.22    0.22
   0   5   0    0.04    0.26
   0   5   0   -0.35    0.20
   0   5   0   -0.11    0.20
   0   5   0    0.07    0.15
   0   5   0   -0.21    0.23
   0   5   0    0.26    0.21
   1  -5   0   10.65    1.11
  -1  -5   0   11.65    0.98
   1  -5   0   11.53    0.91
  -1  -5   0   11.84    1.13
   1  -5   0   11.14    0.77
  -1  -5   0   10.83    0.78
  -1  -5   0   10.51    1.23
  -1  -5   0   10.09    0.80
   1   5   0    8.32    0.69
  -1   5   0   10.75    0.81
  -1   5   0    9.84    0.77
   1   5   0    7.56    0.85
  -1   5   0    9.60    0.84
   1   5   0    9.65    0.75
  -1   5   0    8.61    0.76
   1   5   0   10.50    0.85
  -1   5   0    9.69    0.82
  -1   5   0    9.70    0.90
   1   5   0    9.22    0.78
   1   5   0    8.52    0.73
  -2  -5   0    6.83    0.94
  -2  -5   0    8.32    0.66
  -2  -5   0    7.74    0.76
   2  -5   0    8.71    1.05
   2  -5   0    8.53    0.74
  -2  -5   0    7.12    1.11
  -2  -5   0    7.40    0.93
   2   5   0    7.41    0.62
   2   5   0    6.08    0.66
   2   5   0    6.58    0.65
   2   5   0    6.31    0.57
  -2   5   0    6.92    0.73
   2   5   0    6.51    0.70
  -2   5   0    6.10    0.63
  -2   5   0    6.29    0.66
   2   5   0    6.78    0.50
   2   5   0    6.49    0.63
  -2   5   0    6.55    0.72
   2   5   0    6.17    0.58
   2   5   0    6.89    0.66
  -2   5   0    5.92    0.78
   2   5   0    6.15    0.73
   2   5   0    7.09    0.71
   2   5   0    6.08    0.66
  -3  -5   0    0.15    0.67
   3  -5   0    0.05    0.55
  -3  -5   0   -0.07    0.61
   3  -5   0    0.12    0.32
   3  -5   0   -0.21    0.33
  -3  -5   0   -0.14    0.37
  -3  -5   0   -0.23    0.42
   3   5   0    1.58    0.51
   3   5   0    1.36    0.33
   3   5   0    1.70    0.41
   3   5   0    1.57    0.41
   3   5   0    1.35    0.32
  -3   5   0    1.35    0.48
   3   5   0    1.51    0.38
   3   5   0    1.13    0.22
   3   5   0    1.44    0.33
  -3   5   0    1.36    0.50
   3   5   0    1.03    0.32
  -3   5   0    0.96    0.50
   3   5   0    1.88    0.42
   4  -5   0   30.28    2.42
  -4  -5   0   28.76    3.12
   4  -5   0   29.56    2.85
  -4  -5   0   26.84    2.66
  -4  -5   0   29.20    2.45
   4   5   0   31.57    2.48
   4   5   0   33.97    2.11
   4   5   0   34.38    2.28
  -4   5   0   34.60    2.31
  -4   5   0   30.87    2.18
   4   5   0   33.32    2.15
   4   5   0   31.56    2.29
  -4   5   0   31.11    2.37
   4   5   0   35.10    2.16
   4   5   0   34.53    2.20
   4   5   0   34.25    2.09
  -5  -5   0   20.77    2.71
   5  -5   0   26.27    2.40
   5  -5   0   24.34    2.04
  -5   5   0   26.67    1.93
  -5   5   0   24.36    1.89
   5   5   0   23.73    1.86
   5   5   0   26.43    2.10
   5   5   0   23.43    1.77
  -5   5   0   23.56    2.20
  -6  -5   0   17.47    2.57
   6   5   0   18.95    1.61
   6   5   0   19.91    2.03
  -6   5   0   23.60    1.87
   6   5   0   17.91    1.74
  -6   5   0   16.20    1.79
  -6   5   0   17.81    1.83
  -7  -5   0    4.88    1.84
   7   5   0    6.18    1.23
   0  -6   0  107.94    7.80
   0  -6   0  111.04    7.18
   0  -6   0  111.06    7.05
   0  -6   0  119.96    6.91
   0  -6   0  103.12    8.62
   0   6   0  104.80    6.57
   0   6   0  104.71    6.60
   0   6   0  115.07    7.10
   0   6   0  106.76    6.75
   0   6   0  108.14    6.48
   0   6   0  108.18    6.25
   0   6   0  105.66    7.20
   0   6   0  108.47    6.67
  -1  -6   0   32.91    2.63
   1  -6   0   30.27    2.52
  -1  -6   0   33.62    3.08
   1  -6   0   34.57    2.30
   1  -6   0   30.63    2.95
  -1  -6   0   32.74    2.25
  -1  -6   0   31.88    2.96
  -1  -6   0   31.37    2.32
   1   6   0   39.75    2.23
  -1   6   0   34.25    2.20
  -1   6   0   34.31    2.11
  -1   6   0   31.55    2.41
  -1   6   0   37.64    2.40
  -1   6   0   32.18    2.07
   1   6   0   32.41    2.44
   1   6   0   32.50    2.16
  -1   6   0   30.97    2.26
   1   6   0   32.55    2.21
   1   6   0   35.31    2.41
   1   6   0   33.22    2.10
   1   6   0   33.64    2.26
   1   6   0   33.80    2.02
  -2  -6   0   65.21    4.03
  -2  -6   0   58.70    4.45
   2  -6   0   65.46    4.30
  -2  -6   0   67.01    3.92
  -2  -6   0   65.32    4.89
  -2  -6   0   66.01    5.13
   2  -6   0   64.72    4.90
   2   6   0   52.07    3.59
   2   6   0   63.28    3.81
   2   6   0   59.37    4.01
   2   6   0   58.81    3.73
   2   6   0   55.33    3.98
   2   6   0   60.24    3.74
  -2   6   0   57.12    3.80
   2   6   0   53.95    3.77
   2   6   0   53.10    3.82
  -2   6   0   57.38    4.03
  -2   6   0   57.08    3.69
   2   6   0   59.67    3.75
   2   6   0   53.24    3.66
   2   6   0   55.84    3.73
  -2   6   0   54.69    3.51
   2   6   0   58.80    3.66
  -2   6   0   57.17    3.61
   2   6   0   57.43    4.17
   2   6   0   60.01    3.44
   2   6   0   54.34    3.80
  -3  -6   0   74.42    6.16
  -3  -6   0   77.32    6.96
   3  -6   0   75.45    5.94
  -3  -6   0   86.01    5.48
   3  -6   0   76.81    6.66
  -3  -6   0   78.99    5.63
   3   6   0   87.74    5.16
   3   6   0   84.44    5.18
  -3   6   0   83.81    4.92
   3   6   0   84.05    5.05
   3   6   0   82.22    5.86
   3   6   0   88.22    5.25
   3   6   0   86.20    5.07
  -3   6   0   85.31    5.62
  -3   6   0   87.77    5.18
   3   6   0   88.77    5.27
   3   6   0   80.54    5.38
   3   6   0   83.08    5.52
  -4  -6   0   16.80    1.71
   4  -6   0   18.44    2.07
  -4  -6   0   15.00    2.02
  -4  -6   0   17.08    2.39
   4   6   0   22.24    1.63
   4   6   0   23.59    1.55
  -4   6   0   20.70    1.70
  -4   6   0   21.26    1.52
   4   6   0   20.61    1.71
   4   6   0   20.49    1.59
  -4   6   0   19.72    1.73
   5  -6   0    9.57    1.54
  -5  -6   0   10.01    1.50
  -5  -6   0    8.94    1.86
  -5   6   0   10.75    1.36
  -5   6   0   12.59    1.20
   5   6   0    9.45    1.22
  -5   6   0   11.30    1.32
   5   6   0    9.95    1.25
   5   6   0   11.89    1.21
  -6  -6   0    8.05    1.92
   6   6   0    7.30    1.33
   6   6   0    8.11    1.15
   6   6   0    7.39    1.25
  -7  -6   0    4.73    1.98
   7   6   0    4.54    1.02
   0  -7   0   -0.17    0.44
   0  -7   0   -0.37    0.68
   0   7   0    0.40    0.41
   0   7   0   -0.08    0.27
   0   7   0   -0.09    0.36
   0   7   0    0.08    0.36
   0   7   0    0.06    0.30
   0   7   0    0.09    0.34
   0   7   0   -0.10    0.36
   0   7   0   -0.01    0.40
   1  -7   0    5.02    0.96
  -1  -7   0    4.32    0.93
  -1  -7   0    6.15    0.66
  -1  -7   0    5.27    0.90
   1  -7   0    5.48    0.77
  -1   7   0    6.72    0.65
   1   7   0    5.31    0.87
  -1   7   0    4.40    0.77
   1   7   0    6.72    0.75
   1   7   0    6.54    0.59
   1   7   0    6.48    0.71
  -1   7   0    6.28    0.67
  -1   7   0    5.85    0.86
   1   7   0    6.16    0.69
   1   7   0    7.10    0.76
   1   7   0    6.02    0.56
   1   7   0    6.81    0.62
  -1   7   0    5.71    0.74
   2  -7   0    4.97    1.06
  -2  -7   0    3.82    0.74
  -2  -7   0    4.44    1.09
  -2  -7   0    3.59    0.88
   2  -7   0    4.08    0.63
  -2  -7   0    4.45    0.59
   2   7   0    3.46    0.49
   2   7   0    3.23    0.61
  -2   7   0    2.71    0.77
   2   7   0    2.52    0.51
   2   7   0    2.07    0.66
   2   7   0    1.85    0.51
  -2   7   0    4.29    0.54
   2   7   0    1.61    0.53
   2   7   0    2.42    0.40
   2   7   0    1.78    0.55
   2   7   0    3.43    0.58
   2   7   0    2.78    0.60
   2   7   0    2.79    0.52
  -2   7   0    3.09    0.64
   2   7   0    2.75    0.48
   2   7   0    2.59    0.56
  -2   7   0    2.42    0.72
  -2   7   0    3.12    0.57
   2   7   0    3.14    0.49
  -3  -7   0    9.86    1.10
   3  -7   0   11.09    1.56
  -3  -7   0   11.07    1.49
  -3  -7   0   10.61    1.61
   3   7   0   11.16    0.99
   3   7   0    9.86    1.02
   3   7   0   12.15    1.09
   3   7   0    9.68    1.13
   3   7   0   10.79    1.08
   3   7   0    9.89    1.14
   3   7   0   11.38    0.97
  -3   7   0   11.77    1.24
  -3   7   0   10.46    1.15
   3   7   0    9.99    1.01
  -3   7   0   11.80    1.11
  -4  -7   0   10.63    1.86
  -4  -7   0   10.95    1.25
   4  -7   0   12.31    1.62
  -4  -7   0    8.66    1.50
   4   7   0   10.25    1.10
  -4   7   0    9.25    1.04
  -4   7   0    8.17    1.23
  -4   7   0   11.29    1.26
   4   7   0   11.21    1.25
  -4   7   0    8.71    1.23
  -5  -7   0    8.33    1.88
   5  -7   0    8.66    1.44
  -5  -7   0    7.40    1.55
  -5   7   0    7.26    1.40
  -5   7   0    6.66    1.07
   5   7   0    8.75    1.20
   5   7   0    8.36    1.26
  -5   7   0    7.55    1.03
  -6  -7   0   11.58    2.02
   6   7   0    8.22    1.18
  -7  -7   0    1.14    1.77
   0  -8   0   14.65    1.85
   0  -8   0   14.85    1.59
   0   8   0   17.98    1.59
   0   8   0   17.15    1.40
   0   8   0   15.96    1.27
   0   8   0   20.30    1.26
   0   8   0   19.37    1.58
   1  -8   0   31.41    2.36
  -1  -8   0   29.90    2.78
   1  -8   0   25.61    2.71
  -1  -8   0   28.04    2.46
   1   8   0   28.97    2.21
  -1   8   0   24.58    2.27
   1   8   0   28.65    2.08
  -1   8   0   27.26    2.03
  -1   8   0   31.98    1.93
   1   8   0   30.10    2.00
   1   8   0   27.83    2.06
  -1   8   0   29.64    2.25
   1   8   0   30.32    2.12
   1   8   0   29.56    1.86
   1   8   0   27.72    2.03
   1   8   0   29.22    2.27
  -1   8   0   28.88    1.91
  -2  -8   0   43.88    4.27
  -2  -8   0   45.26    3.76
  -2  -8   0   51.05    4.47
   2  -8   0   45.15    4.16
   2   8   0   48.33    3.51
   2   8   0   48.80    3.24
   2   8   0   51.86    3.54
   2   8   0   49.28    3.23
  -2   8   0   49.74    3.05
  -2   8   0   48.73    3.61
  -2   8   0   47.22    3.00
  -2   8   0   44.05    3.34
   2   8   0   46.98    3.22
  -2   8   0   49.30    3.19
   2   8   0   48.36    3.09
   3  -8   0   22.88    2.80
  -3  -8   0   24.85    2.50
  -3  -8   0   25.79    3.05
   3   8   0   31.03    2.09
   3   8   0   30.73    2.30
   3   8   0   30.96    2.34
  -3   8   0   31.47    1.99
  -3   8   0   29.21    2.17
  -3   8   0   26.31    2.31
  -4  -8   0   24.86    2.29
  -4  -8   0   21.88    2.86
   4  -8   0   26.20    2.54
  -4   8   0   20.65    2.09
  -4   8   0   20.92    1.93
  -4   8   0   20.92    2.08
   4   8   0   22.36    1.97
  -4   8   0   17.56    1.64
  -5  -8   0    3.46    1.52
  -5  -8   0    2.56    1.34
   5   8   0    1.65    0.92
   5   8   0    1.28    0.93
   6   8   0   14.36    1.72
   0  -9   0   -0.46    0.60
   0  -9   0    0.70    0.81
   0   9   0    0.09    0.53
   0   9   0    0.36    0.52
   0   9   0   -0.39    0.61
   0   9   0   -0.54    0.83
  -1  -9   0   -0.49    0.71
  -1  -9   0   -0.03    0.80
   1  -9   0    0.00    0.74
   1   9   0    0.00    0.49
  -1   9   0    0.81    0.51
  -1   9   0    0.32    0.90
   1   9   0   -0.55    0.82
  -1   9   0    1.08    0.61
   1   9   0   -1.03    0.65
  -1   9   0   -0.20    0.75
   1   9   0   -0.35    0.51
  -1   9   0    0.29    0.60
   1   9   0    0.88    0.56
  -2  -9   0    2.02    0.79
   2  -9   0   -0.02    0.81
  -2  -9   0    1.93    0.97
  -2   9   0    2.68    0.68
   2   9   0    3.04    0.94
   2   9   0    2.84    0.79
  -2   9   0    3.13    0.81
   2   9   0    2.41    0.77
   2   9   0    2.14    0.73
  -2   9   0    2.79    0.77
  -2   9   0    2.23    0.98
  -2   9   0    1.83    0.81
  -3  -9   0    4.28    1.25
   3  -9   0    6.09    1.48
  -3   9   0    3.88    1.18
  -3   9   0    4.79    0.90
   3   9   0    5.75    1.06
   3   9   0    4.10    0.85
  -3   9   0    5.17    0.97
  -3   9   0    4.07    1.01
   4  -9   0    0.60    1.18
  -4  -9   0    1.95    1.27
  -4   9   0    2.14    0.90
  -4   9   0    1.46    1.00
  -5  -9   0   11.96    1.81
   5   9   0   11.01    1.33
   0 -10   0   30.34    3.33
   0  10   0   27.51    2.46
   0  10   0   32.70    2.27
   0  10   0   28.74    2.59
  -1 -10   0   13.76    2.11
   1 -10   0   16.13    2.30
  -1 -10   0   13.56    1.75
  -1  10   0   13.31    1.68
   1  10   0   15.07    1.71
  -1  10   0   12.76    1.68
   1  10   0   14.25    1.61
  -1  10   0   18.54    1.83
  -1  10   0   15.73    1.47
  -2 -10   0    8.58    1.53
  -2 -10   0   11.51    1.87
   2 -10   0   11.82    1.96
   2  10   0   10.20    1.29
   2  10   0    9.35    1.53
  -2  10   0   10.34    1.51
  -2  10   0   11.14    1.47
   3 -10   0   17.51    2.43
  -3  10   0   15.37    2.10
  -3  10   0   19.19    1.68
   3  10   0   17.42    1.96
  -4 -10   0    6.00    1.40
   4 -10   0    6.83    1.70
  -4  10   0    5.96    1.27
   0 -11   0    0.30    1.11
   0  11   0   -0.27    0.90
   0  11   0    0.42    1.23
  -1 -11   0    3.84    1.73
   1 -11   0    2.90    1.64
   1  11   0    2.69    1.36
   1  11   0    3.04    1.03
  -1  11   0    2.40    1.09
  -2 -11   0    4.64    1.34
   2 -11   0    3.60    1.68
   2  11   0    4.66    1.15
   2  11   0    5.84    1.11
  -2  11   0    3.58    1.48
  -3 -11   0    0.90    1.31
   3 -11   0    1.21    1.53
  -3  11   0   -0.01    0.96
   3  11   0    0.68    1.08
   0 -12   0   14.23    2.67
   0  12   0   15.54    2.03
   1 -12   0    5.23    1.72
   1  12   0    9.00    1.45
   1  12   0    9.17    1.56
  -8   0   1    0.88    1.66
   7   0  -1    1.99    1.06
   7   0  -1    2.09    0.81
  -7   0   1    2.36    1.42
   6   0  -1    5.96    1.07
   6   0  -1    6.87    0.86
  -6   0   1    5.74    1.41
   6   0  -1    6.57    0.89
   5   0  -1    4.38    0.53
  -5   0   1    5.20    0.97
   5   0  -1    3.73    0.68
  -5   0   1    5.30    0.63
   5   0  -1    4.30    0.64
   5   0  -1    4.44    0.61
   5   0  -1    4.01    0.54
   5   0  -1    3.22    0.56
   5   0  -1    3.75    0.57
   4   0  -1   23.54    1.63
   4   0  -1   23.89    1.67
   4   0  -1   23.89    1.72
   4   0  -1   23.63    1.57
  -4   0   1   23.29    1.75
   4   0  -1   23.84    1.86
   4   0  -1   24.77    1.57
   4   0  -1   24.21    1.54
   4   0  -1   24.87    1.61
  -3   0   1   80.59    4.69
   3   0  -1   73.96    4.81
   3   0  -1   74.45    4.66
  -3   0   1   73.21    5.12
  -3   0   1   76.47    4.62
   3   0  -1   71.56    5.01
   3   0  -1   77.91    4.35
  -3   0   1   84.11    5.15
   3   0  -1   74.18    4.60
   3   0  -1   77.53    4.73
   3   0  -1   79.58    4.61
   3   0  -1   73.98    5.31
  -2   0   1  453.80   25.67
  -2   0   1  437.69   26.23
   2   0  -1  405.00   26.22
  -2   0   1  434.66   25.10
   2   0  -1  449.88   25.01
   2   0  -1  454.90   23.89
   2   0  -1  411.98   25.19
  -2   0   1  403.69   29.64
  -2   0   1  426.85   27.96
   2   0  -1  406.90   28.79
  -2   0   1  433.62   25.75
  -2   0   1  435.41   25.26
   2   0  -1  420.07   25.09
   2   0  -1  395.42   27.33
   2   0  -1  410.59   25.74
   2   0  -1  421.50   25.40
  -2   0   1  430.51   28.80
  -2   0   1  431.61   27.11
  -2   0   1  445.25   25.40
  -2   0   1  429.27   27.68
  -2   0   1  426.77   27.34
  -2   0   1  389.92   24.99
   0   0  -1    0.01    0.01
   0   0  -1    0.02    0.01
   0   0   1    0.04    0.03
   0   0  -1    0.07    0.03
   0   0  -1    0.00    0.00
   0   0   1    0.02    0.04
   0   0  -1    0.02    0.01
   0   0   1   -0.02    0.04
   0   0  -1    0.00    0.03
   0   0  -1    0.02    0.02
   0   0   1    0.01    0.02
   0   0   1    0.05    0.04
   0   0  -1    0.01    0.01
   0   0  -1    0.00    0.02
   0   0   1   -0.02    0.03
   0   0  -1    0.03    0.01
   0   0   1    0.01    0.01
   0   0  -1   -0.02    0.02
   0   0   1    0.01    0.01
   0   0   1    0.05    0.03
   0   0   1    0.00    0.01
   0   0   1    0.03    0.01
   0   0   1    0.02    0.03
   0   0   1   -0.01    0.02
   0   0  -1    0.02    0.01
   1   0   1  209.73   12.42
   1   0   1  217.58   12.33
   1   0   1  202.86   12.53
  -1   0  -1  212.66   12.15
  -1   0  -1  185.90   14.06
   1   0   1  212.28   12.20
   1   0   1  204.34   12.59
   1   0   1  204.81   12.82
  -1   0  -1  199.29   16.25
  -1   0  -1  209.88   12.20
   1   0   1  210.25   12.27
  -1   0  -1  203.43   11.65
   1   0   1  209.80   14.07
   1   0   1  219.91   11.66
   1   0   1  208.91   13.36
  -2   0  -1  302.10   17.56
   2   0   1  289.64   18.00
   2   0   1  293.55   17.63
  -2   0  -1  278.73   17.46
  -2   0  -1  296.87   19.11
   2   0   1  293.31   18.34
   2   0   1  305.16   17.38
  -2   0  -1  305.08   17.64
  -2   0  -1  300.46   17.92
   2   0   1  284.75   17.55
  -2   0  -1  318.74   23.28
   2   0   1  287.41   17.76
   2   0   1  299.88   16.68
  -2   0  -1  290.08   16.68
   2   0   1  289.75   19.10
   2   0   1  294.25   16.50
  -2   0  -1  296.57   17.77
   2   0   1  278.36   17.91
   2   0   1  287.23   20.12
  -2   0  -1  311.25   20.13
  -2   0  -1  303.77   18.35
  -2   0  -1  298.25   18.01
   2   0   1  313.55   17.46
   3   0   1  133.41    7.72
   3   0   1  130.86    7.84
   3   0   1  127.00    8.04
   3   0   1  130.70    7.24
   3   0   1  125.26    8.36
   3   0   1  128.30    7.78
   3   0   1  128.24    8.83
   3   0   1  127.31    7.90
   3   0   1  126.85    7.69
  -3   0  -1  119.17    7.31
  -3   0  -1  127.61    7.66
  -3   0  -1  136.04   10.27
   4   0   1   60.09    3.69
   4   0   1   56.48    4.25
  -4   0  -1   59.36    5.00
   4   0   1   61.49    3.74
  -4   0  -1   55.27    3.52
   4   0   1   60.79    4.00
   4   0   1   59.06    3.48
   4   0   1   58.54    3.72
  -4   0  -1   61.63    3.69
   4   0   1   57.86    3.85
   4   0   1   60.10    3.80
   4   0   1   60.51    3.69
   5   0   1   86.61    5.33
   5   0   1   83.09    6.13
  -5   0  -1   81.19    7.17
   5   0   1   89.82    5.59
   5   0   1   90.40    5.35
   5   0   1   86.74    5.39
   5   0   1   83.39    5.39
   5   0   1   85.22    5.48
  -5   0  -1   91.28    5.89
   5   0   1   86.32    5.82
  -6   0  -1   14.24    2.13
   6   0   1   17.44    1.34
   6   0   1   18.36    1.40
   6   0   1   15.71    1.39
   6   0   1   15.75    1.53
   6   0   1   15.40    1.73
   6   0   1   16.84    1.61
   6   0   1   17.57    1.45
   7   0   1   16.85    1.54
   7   0   1   13.57    1.83
   7   0   1   16.81    1.49
  -7   0  -1   14.63    2.35
   7   0   1   14.84    1.48
   7   0   1   15.39    1.56
  -8   0  -1   -0.21    1.18
  -8  -1   1   11.28    2.09
  -8   1   1   13.48    2.23
   7  -1  -1   13.06    1.65
   7  -1  -1   14.14    1.41
  -7  -1   1   10.47    1.81
   7   1  -1   11.18    1.26
   7   1  -1   10.83    1.47
  -7   1   1   10.56    2.06
   7   1  -1   12.14    1.22
  -6  -1   1   30.52    2.98
   6  -1  -1   31.55    2.25
   6  -1  -1   31.40    2.47
   6   1  -1   29.66    2.16
   6   1  -1   29.28    2.17
   6   1  -1   28.29    2.00
   6   1  -1   29.93    2.07
   6   1  -1   30.62    2.06
   6   1  -1   27.95    2.44
  -6   1   1   30.48    2.99
  -6   1   1   29.55    2.32
  -5  -1   1   81.73    6.97
  -5  -1   1   84.48    5.63
   5  -1  -1   87.16    5.96
   5  -1  -1   90.66    5.32
   5   1  -1   85.19    5.09
   5   1  -1   77.70    5.91
   5   1  -1   85.11    5.16
  -5   1   1   80.87    5.17
   5   1  -1   80.15    5.25
   5   1  -1   85.11    5.33
   5   1  -1   82.63    4.87
   5   1  -1   82.36    5.10
  -5   1   1   81.32    5.72
   4  -1  -1   40.11    2.31
   4  -1  -1   40.24    2.46
   4  -1  -1   40.24    2.50
  -4  -1   1   42.96    3.38
  -4  -1   1   40.06    2.67
   4  -1  -1   40.54    2.57
   4  -1  -1   39.32    2.55
   4  -1  -1   38.81    2.84
  -4  -1   1   40.39    2.79
   4   1  -1   37.66    2.53
   4   1  -1   38.99    2.45
   4   1  -1   38.00    2.51
   4   1  -1   36.27    2.86
   4   1  -1   38.39    2.36
   4   1  -1   39.70    2.42
  -4   1   1   35.98    2.74
  -4   1   1   36.39    2.37
  -4   1   1   35.74    2.50
   4   1  -1   37.29    2.65
   4   1  -1   36.55    2.41
   3  -1  -1   30.89    2.19
  -3  -1   1   31.91    2.15
  -3  -1   1   35.95    2.62
  -3  -1   1   35.63    2.94
  -3  -1   1   33.91    2.17
  -3  -1   1   36.65    2.25
  -3  -1   1   31.31    2.42
  -3  -1   1   32.34    2.36
   3  -1  -1   32.05    2.27
   3  -1  -1   35.97    2.03
   3  -1  -1   32.94    2.24
   3  -1  -1   32.06    2.17
  -3  -1   1   32.81    2.37
   3  -1  -1   33.58    2.50
  -3  -1   1   34.51    2.15
  -3  -1   1   32.63    2.17
  -3   1   1   35.61    2.20
   3   1  -1   36.86    2.22
  -3   1   1   40.30    2.27
   3   1  -1   35.28    2.33
  -3   1   1   35.75    2.11
   3   1  -1   36.12    2.14
   3   1  -1   34.95    2.51
   3   1  -1   36.01    2.24
   3   1  -1   36.50    2.16
  -3   1   1   35.91    2.44
   3   1  -1   35.34    2.13
  -2  -1   1   57.74    3.76
  -2  -1   1   57.63    4.10
  -2  -1   1   61.22    4.51
   2  -1  -1   59.81    3.62
  -2  -1   1   53.03    3.77
  -2  -1   1   52.58    4.18
   2  -1  -1   54.71    4.34
   2  -1  -1   60.50    3.54
  -2  -1   1   57.59    3.87
   2  -1  -1   55.05    3.89
  -2  -1   1   57.16    4.36
  -2  -1   1   58.21    4.11
  -2  -1   1   58.45    4.20
  -2  -1   1   58.99    3.81
  -2  -1   1   58.14    3.93
   2  -1  -1   60.52    3.79
  -2  -1   1   62.34    5.06
  -2  -1   1   58.11    3.83
  -2   1   1   67.23    3.64
   2   1  -1   62.92    4.10
  -2   1   1   69.28    3.98
   2   1  -1   67.84    3.76
   2   1  -1   63.48    3.82
  -2   1   1   70.70    3.88
   2   1  -1   65.74    3.87
  -2   1   1   71.65    3.91
  -2   1   1   64.85    3.80
  -2   1   1   73.47    4.37
   2   1  -1   65.37    4.36
   2   1  -1   65.33    3.93
  -2   1   1   64.78    4.24
  -2   1   1   71.85    3.82
  -2   1   1   71.82    3.81
   2   1  -1   65.69    3.81
  -2   1   1   65.45    4.19
   2   1  -1   69.14    3.77
  -2   1   1   70.41    3.85
  -2   1   1   68.65    4.14
   1  -1  -1   66.92    3.70
  -1  -1   1   67.21    4.60
   1  -1  -1   61.89    4.44
  -1  -1   1   73.88    5.15
  -1  -1   1   67.16    4.29
   1  -1  -1   65.35    3.87
  -1  -1   1   67.81    4.20
  -1  -1   1   63.32    4.19
  -1  -1   1   66.75    4.45
  -1  -1   1   57.16    4.30
  -1  -1   1   65.33    3.96
   1   1  -1   64.54    3.95
  -1   1   1   63.14    3.87
   1   1  -1   59.56    3.86
   1   1  -1   64.47    3.89
  -1   1   1   67.50    4.45
  -1   1   1   64.98    4.34
   1   1  -1   63.39    4.31
   1   1  -1   70.97    4.18
  -1   1   1   69.20    3.94
   1   1  -1   62.84    4.44
   1   1  -1   64.38    3.84
   1   1  -1   68.65    3.91
  -1   1   1   64.73    4.26
   1   1  -1   64.85    4.02
  -1   1   1   59.40    3.98
   1   1  -1   62.55    4.13
  -1   1   1   63.33    3.69
   0   1   1   14.15    0.93
  -1  -1  -1   96.22    6.53
   1  -1   1  104.54    7.06
   1  -1   1  100.45    6.78
   1  -1   1  115.61    6.43
   1  -1   1  108.73    6.52
  -1  -1  -1  109.92    6.59
  -1  -1  -1  103.88    6.63
   1  -1   1  108.69    7.42
   1  -1   1  103.42    6.49
  -1  -1  -1  112.74    6.50
   1  -1   1  106.62    6.63
  -1  -1  -1  119.25    8.64
  -1  -1  -1  113.38    6.68
  -1  -1  -1  109.51    6.79
  -1  -1  -1  112.84    7.68
  -1  -1  -1  111.44    8.36
   1  -1   1  108.83    6.57
   1  -1   1  110.14    6.66
  -1  -1  -1  114.07    7.06
   1  -1   1  117.95    6.46
   1  -1   1  115.48    8.35
   1  -1   1  116.33    6.18
  -1   1  -1  109.91    6.66
   1   1   1  103.83    7.44
   1   1   1  106.21    6.78
  -1   1  -1  110.18    7.42
   1   1   1  107.05    6.58
  -1   1  -1  103.16    6.43
  -1   1  -1  105.07    6.46
   1   1   1  109.53    6.50
   1   1   1  114.72    6.14
   1   1   1  101.56    6.63
  -1   1  -1  111.44    6.63
   1   1   1  108.04    6.67
   1   1   1  111.06    6.43
   1   1   1  110.66    6.10
  -1   1  -1  102.27    6.17
   1   1   1   94.33    6.53
  -1   1  -1  111.39    6.57
  -1   1  -1  110.58    6.49
   1   1   1  105.62    7.05
  -1   1  -1  113.79    6.78
  -1   1  -1  111.93    6.52
  -1   1  -1  110.54    7.06
  -2  -1  -1    0.27    0.18
  -2  -1  -1    0.21    0.15
  -2  -1  -1    0.16    0.14
   2  -1   1   -0.14    0.13
   2  -1   1    0.18    0.15
  -2  -1  -1   -0.07    0.24
   2  -1   1    0.08    0.15
   2  -1   1   -0.07    0.14
  -2  -1  -1    0.23    0.15
   2  -1   1    0.02    0.15
   2  -1   1    0.16    0.21
   2  -1   1   -0.07    0.13
  -2  -1  -1   -0.08    0.18
  -2  -1  -1   -0.17    0.19
   2  -1   1    0.11    0.18
  -2  -1  -1   -0.30    0.17
   2  -1   1    0.14    0.17
   2   1   1   -0.11    0.12
   2   1   1   -0.04    0.17
  -2   1  -1   -0.09    0.13
  -2   1  -1    0.01    0.18
   2   1   1   -0.03    0.12
   2   1   1    0.05    0.18
   2   1   1   -0.05    0.16
   2   1   1    0.05    0.19
   2   1   1    0.14    0.15
  -2   1  -1    0.04    0.15
  -2   1  -1   -0.11    0.20
   2   1   1    0.14    0.16
   2   1   1    0.17    0.15
  -2   1  -1    0.00    0.14
   2   1   1    0.23    0.14
   2   1   1   -0.06    0.11
   3  -1   1    2.64    0.37
  -3  -1  -1    2.13    0.53
   3  -1   1    2.23    0.35
   3  -1   1    2.07    0.39
   3  -1   1    2.55    0.42
   3  -1   1    2.03    0.32
   3  -1   1    2.58    0.38
   3  -1   1    2.43    0.43
   3  -1   1    2.82    0.41
   3   1   1    1.73    0.33
  -3   1  -1    1.85    0.37
   3   1   1    1.76    0.30
   3   1   1    2.26    0.37
   3   1   1    2.17    0.35
   3   1   1    1.82    0.32
  -3   1  -1    1.73    0.32
   3   1   1    1.67    0.42
   3   1   1    1.78    0.29
   3   1   1    2.20    0.38
   3   1   1    1.70    0.31
   4  -1   1   24.13    1.79
   4  -1   1   22.10    1.57
   4  -1   1   23.72    1.63
   4  -1   1   23.69    1.70
   4  -1   1   24.09    1.57
   4  -1   1   20.14    1.55
  -4  -1  -1   23.51    1.59
   4  -1   1   22.57    1.52
   4  -1   1   22.84    1.54
  -4  -1  -1   23.59    2.13
   4   1   1   20.65    1.63
   4   1   1   21.05    1.48
  -4   1  -1   21.08    1.46
   4   1   1   21.58    1.75
   4   1   1   20.17    1.47
  -4   1  -1   21.72    1.53
   4   1   1   20.68    1.53
   4   1   1   22.27    1.58
   4   1   1   21.64    1.50
   4   1   1   20.87    1.52
  -4   1  -1   21.46    2.09
   4   1   1   21.75    1.50
   5  -1   1   12.62    1.04
   5  -1   1   11.46    1.03
  -5  -1  -1   12.25    1.46
   5  -1   1   12.18    1.08
   5  -1   1   11.83    1.07
   5  -1   1   11.49    1.06
   5  -1   1   11.72    1.12
   5  -1   1   10.50    1.20
  -5   1  -1   10.56    1.05
   5   1   1    9.28    1.00
   5   1   1   11.22    1.07
   5   1   1    9.22    0.92
   5   1   1   10.22    0.98
   5   1   1   10.00    1.01
  -5   1  -1   11.13    1.08
   5   1   1   11.53    1.11
   5   1   1   10.81    0.99
  -5   1  -1   10.02    0.97
  -5   1  -1   11.61    1.42
   5   1   1    9.07    1.13
   5   1   1   11.66    1.01
   6  -1   1   11.42    1.35
   6  -1   1   13.50    1.44
   6  -1   1   13.66    1.46
   6  -1   1   15.20    1.32
   6  -1   1   12.89    1.38
   6  -1   1   14.99    1.69
   6  -1   1   14.57    1.37
  -6  -1  -1   11.40    1.91
   6   1   1   16.91    1.44
  -6   1  -1   17.68    2.00
   6   1   1   19.03    1.50
   6   1   1   18.83    1.57
   6   1   1   17.21    1.29
   6   1   1   16.31    1.37
   6   1   1   19.72    1.35
  -6   1  -1   16.84    1.41
   6   1   1   18.56    1.46
   6   1   1   17.85    1.77
   7  -1   1    6.21    0.90
   7  -1   1    7.07    1.32
  -7  -1  -1    4.77    1.64
   7  -1   1    5.95    1.10
  -7   1  -1    6.42    1.71
   7   1   1    5.80    1.11
   7   1   1    3.79    0.86
   7   1   1    5.31    0.91
   7   1   1    6.41    1.06
   7   1   1    5.79    1.00
  -8  -1  -1    4.20    1.55
  -8   1  -1    4.02    1.96
  -8  -2   1    0.71    1.24
   8   2  -1    1.82    1.03
  -8   2   1   -0.55    1.16
   7  -2  -1    1.07    0.66
  -7  -2   1    0.73    1.29
   7  -2  -1    0.45    0.99
   7   2  -1    0.79    0.83
   7   2  -1    2.55    1.10
  -7   2   1    1.57    1.43
   6  -2  -1    2.68    0.77
   6  -2  -1    2.97    0.90
  -6  -2   1    2.50    0.96
   6   2  -1    2.27    0.74
   6   2  -1    2.54    0.56
   6   2  -1    2.73    0.57
   6   2  -1    2.71    0.64
  -6   2   1    2.96    0.84
   6   2  -1    2.89    0.55
   6   2  -1    2.48    0.91
  -6   2   1    3.11    0.78
  -5  -2   1   27.68    2.15
   5  -2  -1   30.40    1.95
   5  -2  -1   30.12    2.23
  -5  -2   1   28.11    2.60
   5   2  -1   26.71    1.87
   5   2  -1   25.84    1.78
   5   2  -1   27.28    1.76
   5   2  -1   26.17    1.77
  -5   2   1   26.98    1.88
  -5   2   1   26.15    1.90
   5   2  -1   25.63    1.85
   5   2  -1   25.87    2.21
   5   2  -1   23.79    1.83
  -5   2   1   25.31    2.09
  -4  -2   1   27.54    2.33
   4  -2  -1   27.47    2.21
  -4  -2   1   26.07    1.86
   4  -2  -1   28.70    2.01
  -4  -2   1   26.47    1.87
  -4  -2   1   28.61    2.67
  -4  -2   1   29.44    2.17
  -4  -2   1   27.22    1.99
   4   2  -1   32.10    1.93
   4   2  -1   30.58    1.84
   4   2  -1   30.97    1.87
   4   2  -1   31.19    1.85
   4   2  -1   30.36    1.94
  -4   2   1   28.02    1.85
  -4   2   1   29.64    2.17
   4   2  -1   28.74    2.24
  -4   2   1   27.30    1.93
   4   2  -1   29.92    2.02
  -3  -2   1   76.77    4.55
  -3  -2   1   72.18    4.87
  -3  -2   1   73.19    5.26
  -3  -2   1   76.95    4.50
  -3  -2   1   75.74    4.36
  -3  -2   1   74.92    4.41
  -3  -2   1   76.29    5.88
  -3  -2   1   66.72    4.41
  -3  -2   1   72.41    4.37
   3  -2  -1   73.77    5.03
   3  -2  -1   74.04    4.52
  -3  -2   1   62.51    4.78
  -3  -2   1   77.57    4.73
  -3  -2   1   72.55    4.76
   3   2  -1   67.43    4.71
   3   2  -1   71.64    4.38
   3   2  -1   69.74    4.52
  -3   2   1   66.95    4.90
   3   2  -1   68.37    5.02
   3   2  -1   70.44    4.39
  -3   2   1   77.48    4.69
   3   2  -1   71.22    4.34
  -3   2   1   66.22    4.38
   3   2  -1   72.95    4.33
   3   2  -1   78.17    4.64
   3   2  -1   71.39    4.46
  -3   2   1   70.42    4.19
  -2  -2   1  133.24    8.73
  -2  -2   1  132.70    8.55
  -2  -2   1  129.33    9.37
  -2  -2   1  125.18    8.09
  -2  -2   1  128.11    8.22
  -2  -2   1  121.96    8.72
  -2  -2   1  132.97    8.01
  -2  -2   1  129.65    8.54
  -2  -2   1  117.17    7.87
  -2  -2   1  141.78   10.51
  -2  -2   1  128.14    7.97
   2  -2  -1  121.87    9.04
   2   2  -1  135.35    8.00
   2   2  -1  132.23    8.07
  -2   2   1  136.06    8.03
  -2   2   1  130.73    7.88
  -2   2   1  130.32    7.53
  -2   2   1  149.90    9.07
   2   2  -1  149.08    8.50
   2   2  -1  146.59    8.74
   2   2  -1  130.20    7.85
   2   2  -1  124.05    8.54
   2   2  -1  126.76    9.05
   2   2  -1  135.68    7.90
   2   2  -1  135.45    7.95
   2   2  -1  138.48    8.21
   2   2  -1  135.87    8.41
   1  -2  -1   85.99    4.49
  -1  -2   1   83.68    5.08
   1  -2  -1   84.83    5.51
   1  -2  -1   79.31    5.39
   1  -2  -1   85.21    4.70
   1  -2  -1   85.82    4.66
  -1  -2   1   87.06    5.60
  -1  -2   1   84.02    5.01
  -1  -2   1   91.65    6.27
  -1  -2   1   86.28    5.20
  -1  -2   1   91.15    5.40
  -1   2   1   76.64    4.79
   1   2  -1   73.86    4.76
   1   2  -1   68.86    4.68
  -1   2   1   77.45    5.39
   1   2  -1   70.13    5.00
   1   2  -1   73.39    5.08
  -1   2   1   68.98    4.47
   1   2  -1   71.86    5.21
   1   2  -1   67.65    4.80
   1   2  -1   70.81    5.37
  -1   2   1   72.28    4.69
   0   2  -1   42.53    2.36
   0   2  -1   40.24    2.37
   0   2  -1   37.71    2.53
   0   2  -1   41.16    2.43
   0   2   1   38.25    2.40
   0   2   1   39.58    2.36
   0   2  -1   39.30    2.59
   0   2   1   42.16    2.43
   0   2  -1   39.64    2.43
   0   2   1   42.65    2.58
   0   2   1   38.29    2.24
   0   2  -1   38.17    2.37
   0   2  -1   38.03    2.47
   0   2  -1   39.65    2.28
   0   2  -1   37.99    2.56
   0   2  -1   40.50    2.40
   0   2   1   35.51    2.65
   0   2  -1   39.13    2.39
   0   2   1   37.82    2.32
   1  -2   1  462.09   29.51
   1  -2   1  481.30   29.12
   1  -2   1  505.51   37.14
  -1  -2  -1  468.32   33.98
   1  -2   1  506.26   27.36
  -1  -2  -1  492.59   37.16
   1  -2   1  508.89   30.60
   1  -2   1  459.21   31.32
   1  -2   1  474.81   28.77
   1  -2   1  456.00   30.06
   1  -2   1  514.98   28.50
  -1  -2  -1  498.48   31.67
  -1  -2  -1  511.76   38.15
   1  -2   1  521.04   28.65
   1  -2   1  447.41   33.09
   1  -2   1  457.71   28.90
   1   2   1  465.80   28.79
  -1   2  -1  496.02   27.36
   1   2   1  490.68   31.42
   1   2   1  447.18   28.92
   1   2   1  464.32   29.54
  -1   2  -1  518.49   28.91
   1   2   1  504.63   32.14
  -1   2  -1  511.57   28.77
  -1   2  -1  494.50   31.32
  -1   2  -1  498.65   30.07
  -1   2  -1  488.77   31.08
  -1   2  -1  493.79   33.07
  -1   2  -1  497.31   28.49
  -1   2  -1  509.46   29.38
  -1   2  -1  515.09   29.13
  -1   2  -1  481.40   28.64
   1   2   1  460.45   29.39
  -1   2  -1  494.72   29.51
   1   2   1  463.44   30.08
   1   2   1  477.22   29.14
   2  -2   1  154.83   10.36
   2  -2   1  161.45    9.96
   2  -2   1  161.79    9.92
  -2  -2  -1  156.38   10.19
  -2  -2  -1  156.19   10.36
  -2  -2  -1  152.06    9.97
  -2  -2  -1  149.08   10.04
  -2  -2  -1  162.91   10.76
  -2  -2  -1  163.99   11.75
  -2  -2  -1  147.51   10.11
  -2  -2  -1  165.29   13.19
   2  -2   1  155.54   10.17
  -2  -2  -1  154.60   10.92
   2  -2   1  170.35   12.77
   2  -2   1  163.24   11.33
  -2  -2  -1  153.44    9.92
   2  -2   1  155.54   10.79
   2  -2   1  152.99   10.03
  -2   2  -1  173.52    9.83
  -2   2  -1  178.28    9.89
   2   2   1  175.12    9.98
   2   2   1  180.95   10.11
   2   2   1  172.83   11.38
   2   2   1  170.40   10.76
  -2   2  -1  186.31   11.34
  -2   2  -1  184.66   10.71
  -2   2  -1  170.69    9.44
   2   2   1  175.99   10.18
   2   2   1  173.98    9.39
   2   2   1  183.39   10.04
   2   2   1  180.15    9.92
   2   2   1  182.77   10.36
  -3  -2  -1  111.27    7.19
   3  -2   1  112.97    6.61
  -3  -2  -1  110.16    6.73
   3  -2   1  114.60    6.79
   3  -2   1  115.61    7.55
   3  -2   1  117.70    6.64
   3  -2   1  109.54    7.19
   3  -2   1  111.41    6.91
   3  -2   1  111.80    6.69
  -3  -2  -1  116.49    8.85
   3   2   1  106.39    6.65
   3   2   1  106.10    6.57
   3   2   1   99.51    7.57
   3   2   1  105.72    6.86
   3   2   1  109.69    7.14
   3   2   1  111.78    6.62
   3   2   1  111.24    6.23
  -3   2  -1  103.66    6.58
   3   2   1  102.87    6.75
   3   2   1  104.66    6.69
  -3   2  -1  106.10    6.30
   4  -2   1  126.28    7.82
   4  -2   1  127.77    6.87
   4  -2   1  116.97    6.83
   4  -2   1  114.06    7.44
   4  -2   1  120.21    6.92
   4  -2   1  121.68    7.04
   4  -2   1  115.32    7.15
  -4  -2  -1  118.83    7.42
  -4  -2  -1  118.55    9.15
  -4   2  -1  105.27    6.81
   4   2   1  104.59    7.36
   4   2   1  107.95    6.97
   4   2   1  106.32    6.88
   4   2   1  106.65    6.44
   4   2   1  102.97    6.77
   4   2   1  101.27    6.85
   4   2   1  112.45    6.81
   4   2   1  105.50    7.82
   4   2   1  109.91    7.08
  -4   2  -1  106.44    6.51
   5  -2   1   18.44    1.64
   5  -2   1   16.05    1.50
   5  -2   1   16.69    1.43
   5  -2   1   15.85    1.59
   5  -2   1   17.30    1.43
  -5  -2  -1   17.51    2.11
   5  -2   1   15.13    1.37
   5  -2   1   18.03    1.38
   5   2   1   17.24    1.70
   5   2   1   17.92    1.35
   5   2   1   19.22    1.33
  -5   2  -1   16.48    1.40
   5   2   1   17.73    1.36
   5   2   1   19.24    1.49
   5   2   1   19.85    1.45
  -5   2  -1   18.94    1.37
   5   2   1   19.73    1.42
   5   2   1   18.65    1.35
   5   2   1   19.63    1.34
   6  -2   1   14.41    1.47
   6  -2   1   16.41    1.62
   6  -2   1   16.15    1.49
   6  -2   1   14.45    1.40
   6  -2   1   16.61    1.44
  -6  -2  -1   13.62    2.07
  -6   2  -1   17.83    1.66
   6   2   1   20.42    1.55
  -6   2  -1   15.47    2.03
  -6   2  -1   16.21    1.62
   6   2   1   17.90    1.69
   6   2   1   18.74    1.37
   6   2   1   18.87    1.49
   6   2   1   18.44    1.42
  -6   2  -1   20.01    1.47
   6   2   1   16.61    1.40
   6   2   1   18.71    1.54
   6   2   1   16.59    1.56
  -7  -2  -1   21.20    2.87
   7  -2   1   25.71    2.28
   7   2   1   29.20    2.18
   7   2   1   26.50    2.00
  -7   2  -1   26.70    3.24
  -8  -2  -1    9.57    2.26
  -8   2  -1    6.72    1.77
  -8  -3   1    5.25    1.95
  -8   3   1    5.90    2.09
   8   3  -1    6.90    1.34
  -7  -3   1   15.10    2.50
   7  -3  -1   18.86    2.02
   7   3  -1   18.70    1.74
   7   3  -1   20.46    1.79
  -7   3   1   17.86    2.47
   6  -3  -1   25.27    2.23
  -6  -3   1   26.31    2.94
   6   3  -1   27.47    2.11
   6   3  -1   26.50    1.95
  -6   3   1   26.27    1.94
  -6   3   1   26.67    2.27
   6   3  -1   27.71    2.41
  -6   3   1   27.63    2.18
   6   3  -1   27.48    1.93
  -5  -3   1   25.23    2.37
   5  -3  -1   29.31    2.47
  -5  -3   1   26.97    2.90
  -5   3   1   30.63    2.43
  -5   3   1   32.02    2.15
   5   3  -1   32.94    2.52
   5   3  -1   31.63    2.13
   5   3  -1   31.31    2.02
   5   3  -1   30.67    2.06
  -5   3   1   30.52    2.18
   5   3  -1   32.48    2.02
   5   3  -1   34.28    2.02
   5   3  -1   33.16    2.12
  -4  -3   1   59.01    3.74
  -4  -3   1   55.57    3.43
  -4   3   1   41.75    3.39
  -4   3   1   46.44    3.20
   4   3  -1   47.23    3.18
   4   3  -1   47.09    2.92
   4   3  -1   48.05    3.04
   4   3  -1   47.02    2.94
  -4   3   1   43.88    2.90
   4   3  -1   47.66    3.05
  -4   3   1   44.76    3.06
   4   3  -1   49.90    2.93
   4   3  -1   44.91    3.45
   4   3  -1   47.46    2.96
  -3  -3   1   39.79    3.13
  -3  -3   1   39.44    2.52
   3  -3  -1   40.57    2.92
  -3  -3   1   44.65    2.71
  -3  -3   1   36.83    2.62
  -3  -3   1   41.78    2.88
  -3  -3   1   42.82    3.50
  -3  -3   1   40.90    2.77
  -3  -3   1   41.76    2.63
  -3  -3   1   42.34    2.55
  -3   3   1   40.05    2.74
   3   3  -1   41.44    2.49
  -3   3   1   37.88    2.56
   3   3  -1   41.50    2.50
   3   3  -1   43.22    2.69
   3   3  -1   40.01    2.56
   3   3  -1   40.27    2.47
   3   3  -1   39.08    2.71
  -3   3   1   38.84    2.45
   3   3  -1   38.93    2.93
   3   3  -1   39.21    2.68
   3   3  -1   40.71    2.51
   3   3  -1   40.34    2.58
  -2  -3   1  115.51    7.66
  -2  -3   1  121.49    9.26
   2  -3  -1  104.86    7.93
  -2  -3   1  110.66    8.24
   2  -3  -1  109.51    9.01
  -2  -3   1  115.46    7.48
  -2  -3   1  116.02    7.49
  -2   3   1  115.27    7.06
   2   3  -1  115.16    7.94
   2   3  -1  120.09    7.38
   2   3  -1  114.64    7.08
   2   3  -1  115.25    6.89
   2   3  -1  113.44    7.02
   2   3  -1  112.08    7.46
   2   3  -1  118.13    7.19
   2   3  -1  124.24    7.47
   2   3  -1  120.89    6.98
   2   3  -1  119.94    7.65
  -2   3   1  116.01    6.93
   2   3  -1  116.49    6.95
  -2   3   1  117.88    6.61
  -1  -3   1   42.74    4.07
  -1  -3   1   46.10    3.72
   1  -3  -1   47.60    2.98
  -1  -3   1   47.82    3.31
   1  -3  -1   45.04    3.65
  -1  -3   1   45.21    3.36
  -1  -3   1   46.53    4.19
   1  -3  -1   45.22    4.10
   1  -3  -1   47.06    3.08
   1  -3  -1   47.86    3.12
  -1  -3   1   43.42    3.43
   1   3  -1   55.71    3.33
   1   3  -1   60.93    3.19
  -1   3   1   58.02    2.99
  -1   3   1   56.81    3.14
   1   3  -1   56.38    3.57
  -1   3   1   60.78    3.59
  -1   3   1   58.14    3.09
   1   3  -1   58.76    3.41
  -1   3   1   59.46    3.23
   1   3  -1   56.18    3.12
   0  -3  -1   47.02    2.54
   0  -3  -1   47.12    2.69
   0  -3   1   49.25    2.46
   0  -3  -1   46.40    2.49
   0  -3   1   43.81    3.34
   0  -3  -1   47.70    2.41
   0  -3  -1   43.49    3.35
   0  -3  -1   44.56    3.01
   0  -3   1   42.51    3.02
   0  -3   1   44.64    2.54
   0  -3   1   44.37    2.70
   0   3   1   36.43    2.63
   0   3  -1   41.43    2.53
   0   3   1   38.89    2.39
   0   3   1   41.86    2.59
   0   3  -1   37.17    2.59
   0   3  -1   42.21    2.64
   0   3  -1   38.92    2.72
   0   3   1   40.91    2.75
   0   3   1   38.73    2.56
   0   3  -1   39.11    2.52
   0   3  -1   39.41    2.42
   0   3   1   39.30    2.52
   0   3   1   39.52    2.47
   0   3  -1   37.50    2.76
   0   3  -1   38.79    2.55
   0   3  -1   38.05    2.69
   1  -3   1   57.65    3.72
  -1  -3  -1   54.57    4.46
  -1  -3  -1   60.93    4.09
  -1  -3  -1   59.00    4.65
   1  -3   1   60.65    4.05
  -1  -3  -1   59.44    3.75
   1  -3   1   56.28    3.86
   1  -3   1   59.59    3.41
  -1  -3  -1   62.07    3.65
   1  -3   1   61.30    3.64
   1  -3   1   59.96    4.45
   1   3   1   59.83    3.51
   1   3   1   53.92    3.51
   1   3   1   49.33    3.59
  -1   3  -1   57.50    3.86
  -1   3  -1   51.08    3.49
   1   3   1   53.05    3.70
  -1   3  -1   52.96    3.27
   1   3   1   55.26    3.59
  -1   3  -1   55.98    3.72
   1   3   1   51.49    3.45
  -1   3  -1   55.14    3.71
   1   3   1   54.22    3.21
  -1   3  -1   53.03    3.42
  -1   3  -1   53.45    3.39
   1   3   1   56.87    3.77
  -2  -3  -1   35.95    2.82
   2  -3   1   33.71    2.61
  -2  -3  -1   32.37    2.63
   2  -3   1   32.34    2.09
   2  -3   1   33.01    2.19
  -2  -3  -1   33.60    2.17
   2  -3   1   32.47    2.11
  -2  -3  -1   32.46    2.46
   2  -3   1   30.55    2.25
  -2  -3  -1   32.92    2.22
  -2   3  -1   32.31    2.05
   2   3   1   30.24    2.05
  -2   3  -1   30.88    2.18
   2   3   1   31.11    2.02
   2   3   1   31.67    2.06
  -2   3  -1   30.97    1.93
   2   3   1   31.52    2.10
   2   3   1   29.89    2.05
  -2   3  -1   32.31    2.25
   2   3   1   30.26    2.32
   2   3   1   31.75    2.09
   2   3   1   30.14    2.12
  -2   3  -1   30.41    1.99
  -3  -3  -1   18.68    1.22
   3  -3   1   18.42    1.28
   3  -3   1   17.24    1.33
   3  -3   1   17.30    1.25
   3  -3   1   16.52    1.25
  -3  -3  -1   16.89    1.49
   3  -3   1   17.95    1.25
  -3  -3  -1   15.97    1.36
  -3  -3  -1   18.05    1.78
   3  -3   1   18.13    1.53
   3  -3   1   18.70    1.35
   3   3   1   17.27    1.23
   3   3   1   14.46    1.35
   3   3   1   16.43    1.20
   3   3   1   16.80    1.23
   3   3   1   15.97    1.18
  -3   3  -1   15.98    1.26
  -3   3  -1   17.54    1.21
   3   3   1   15.61    1.16
   3   3   1   15.57    1.15
   3   3   1   16.16    1.20
   4  -3   1    1.51    0.40
   4  -3   1    0.74    0.46
   4  -3   1    1.00    0.50
   4  -3   1    0.68    0.53
   4  -3   1    0.82    0.39
   4  -3   1    1.02    0.51
   4  -3   1    1.14    0.38
  -4  -3  -1    1.33    0.79
   4   3   1    0.99    0.34
   4   3   1    0.83    0.44
  -4   3  -1    0.79    0.38
   4   3   1    1.39    0.36
   4   3   1    0.93    0.39
  -4   3  -1    1.18    0.50
   4   3   1    0.65    0.48
   4   3   1    1.41    0.36
   4   3   1    1.24    0.32
   4   3   1    0.96    0.34
   4   3   1    0.45    0.33
   5  -3   1   18.55    1.74
   5  -3   1   19.72    1.68
  -5  -3  -1   16.30    2.29
   5  -3   1   20.25    1.90
   5  -3   1   19.26    1.65
   5   3   1   21.82    1.56
   5   3   1   20.63    1.43
   5   3   1   20.36    1.62
   5   3   1   22.36    1.49
   5   3   1   18.27    1.74
   5   3   1   20.94    1.50
  -5   3  -1   20.05    1.56
   5   3   1   20.84    1.46
   5   3   1   19.78    1.51
  -5   3  -1   19.15    1.49
   5   3   1   18.98    1.47
  -6  -3  -1    7.84    1.54
   6  -3   1   10.22    1.25
   6  -3   1   10.90    1.33
   6   3   1    9.46    1.01
   6   3   1    9.37    1.07
   6   3   1    8.35    1.20
  -6   3  -1    9.49    1.73
  -6   3  -1    9.72    1.23
   6   3   1    9.13    1.05
   6   3   1    8.08    0.93
  -6   3  -1    8.76    1.18
  -6   3  -1    9.45    1.26
   6   3   1    9.82    1.08
  -7  -3  -1    7.05    1.87
   7  -3   1    8.13    1.37
   7   3   1    6.48    1.22
  -7   3  -1    6.76    1.58
  -8  -3  -1    7.04    2.16
  -8   3  -1    8.36    2.29
  -8  -4   1    0.16    1.69
   8   4  -1    0.73    0.81
  -8   4   1   -0.13    1.85
   7  -4  -1    0.82    1.00
  -7  -4   1    0.85    1.40
  -7   4   1    1.15    0.76
   7   4  -1    2.34    0.77
   6  -4  -1    1.24    0.88
  -6  -4   1    1.78    0.97
   6  -4  -1    1.77    0.65
  -6   4   1    1.74    0.65
   6   4  -1    1.84    0.79
   6   4  -1    2.67    0.75
  -6   4   1    1.74    0.86
   6   4  -1    1.76    0.65
  -6   4   1    2.53    0.72
  -5  -4   1   18.35    2.04
   5  -4  -1   19.40    1.72
  -5  -4   1   18.55    2.10
  -5  -4   1   18.80    1.82
  -5   4   1   20.52    1.48
   5   4  -1   18.19    1.77
   5   4  -1   20.09    1.45
   5   4  -1   19.47    1.55
  -5   4   1   19.73    1.55
  -5   4   1   18.08    1.67
  -4  -4   1   17.94    1.30
  -4  -4   1   20.62    1.64
  -4  -4   1   18.97    1.31
   4   4  -1   13.19    0.89
   4   4  -1   13.85    0.98
   4   4  -1   13.27    0.96
  -4   4   1   12.09    1.23
   4   4  -1   12.81    1.17
   4   4  -1   10.39    1.17
   4   4  -1   13.84    0.95
   4   4  -1   12.12    1.00
  -4   4   1   11.48    1.18
  -4   4   1   11.80    1.12
   4   4  -1   13.96    1.05
  -4   4   1   12.43    1.14
  -3  -4   1   47.30    3.65
   3  -4  -1   47.34    3.91
  -3  -4   1   46.01    3.21
   3  -4  -1   47.17    3.39
  -3  -4   1   49.82    3.14
  -3  -4   1   47.16    3.30
  -3  -4   1   48.99    4.09
   3   4  -1   45.09    3.14
   3   4  -1   47.93    3.01
   3   4  -1   49.95    3.17
   3   4  -1   49.51    2.93
  -3   4   1   42.35    3.05
   3   4  -1   48.67    2.95
   3   4  -1   46.19    3.41
  -3   4   1   46.51    2.86
   3   4  -1   49.69    3.00
  -3   4   1   45.01    2.99
  -3   4   1   47.10    3.23
   3   4  -1   47.51    2.89
  -2  -4   1   98.52    7.13
  -2  -4   1   98.53    6.59
  -2  -4   1  101.55    8.01
  -2  -4   1   99.91    6.43
   2  -4  -1   98.10    6.83
   2  -4  -1  101.06    6.98
   2  -4  -1   97.04    7.79
   2   4  -1   98.26    6.10
   2   4  -1  105.53    6.01
   2   4  -1   97.06    6.82
   2   4  -1   96.73    6.33
   2   4  -1   94.35    6.01
  -2   4   1   98.64    5.69
   2   4  -1   99.41    6.06
   2   4  -1   99.43    6.18
  -2   4   1   96.40    6.10
   2   4  -1  102.20    5.92
  -2   4   1   98.17    5.97
   2   4  -1   99.69    5.93
   2   4  -1  101.07    6.45
   1  -4  -1   54.90    5.15
   1  -4  -1   63.24    3.88
   1  -4  -1   63.59    4.61
  -1  -4   1   59.71    4.69
  -1  -4   1   61.90    4.23
  -1  -4   1   64.65    4.15
  -1  -4   1   58.32    5.13
  -1  -4   1   62.94    5.29
  -1  -4   1   63.15    4.32
   1  -4  -1   61.05    4.12
   1   4  -1   66.00    4.28
   1   4  -1   66.23    4.01
   1   4  -1   65.28    4.47
  -1   4   1   71.57    4.07
  -1   4   1   74.88    4.50
   1   4  -1   64.84    3.91
   1   4  -1   66.10    3.75
  -1   4   1   69.73    3.88
  -1   4   1   66.01    3.74
   1   4  -1   62.51    4.19
  -1   4   1   67.20    3.94
   1   4  -1   66.15    3.95
   1   4  -1   68.35    4.18
   1   4  -1   68.34    4.17
   0  -4  -1   91.81    7.80
   0  -4  -1   98.51    6.51
   0  -4  -1  104.61    5.67
   0  -4  -1  104.27    5.96
   0  -4   1   99.78    6.33
   0  -4  -1   93.00    7.05
   0  -4  -1  104.32    5.89
   0  -4   1   97.70    6.56
   0  -4  -1   96.34    6.38
   0  -4   1   93.27    7.77
   0  -4   1   92.13    7.07
   0  -4   1   97.98    5.94
   0   4  -1  109.98    6.24
   0   4  -1  100.40    5.92
   0   4  -1   97.39    6.09
   0   4   1  105.34    6.07
   0   4  -1   97.29    6.33
   0   4  -1  104.92    6.46
   0   4   1  102.35    6.01
   0   4   1  100.87    5.94
   0   4  -1  103.21    5.97
   0   4   1   98.29    5.66
   0   4  -1   99.45    5.97
   0   4   1   98.00    5.87
   0   4  -1   95.51    6.49
   0   4   1  105.20    6.47
   0   4  -1   98.31    5.69
  -1  -4  -1  158.62   10.27
  -1  -4  -1  150.27   12.53
  -1  -4  -1  160.99   10.04
   1  -4   1  167.55    9.95
  -1  -4  -1  150.26   12.15
   1  -4   1  157.65   12.14
   1  -4   1  151.70   11.04
  -1  -4  -1  154.14   11.09
   1   4   1  157.26    9.30
  -1   4  -1  157.29    9.35
   1   4   1  161.68   10.39
  -1   4  -1  158.39    9.28
  -1   4  -1  155.72   10.15
   1   4   1  144.45   10.16
  -1   4  -1  158.66    9.54
   1   4   1  155.87    9.89
  -1   4  -1  159.25    8.92
   1   4   1  158.38    8.85
   1   4   1  150.34    9.22
  -1   4  -1  169.41   10.66
  -2  -4  -1  111.18    8.32
  -2  -4  -1  119.88    6.88
   2  -4   1  114.54    7.28
   2  -4   1  115.65    8.31
  -2  -4  -1  117.55    7.05
  -2  -4  -1  116.09    8.66
  -2  -4  -1  115.46    7.65
   2   4   1  100.50    6.50
  -2   4  -1  112.74    7.27
  -2   4  -1  101.36    6.34
  -2   4  -1  101.01    6.40
   2   4   1   99.48    7.34
   2   4   1  105.62    6.54
   2   4   1  109.47    7.01
   2   4   1  103.12    6.76
   2   4   1   97.95    6.59
   2   4   1   96.15    6.68
  -2   4  -1   98.37    6.10
   2   4   1   97.05    6.46
   2   4   1  103.10    6.89
   2   4   1   98.39    6.41
  -2   4  -1  101.55    6.94
  -3  -4  -1   38.88    3.46
   3  -4   1   42.90    2.63
   3  -4   1   44.12    2.81
  -3  -4  -1   41.18    2.78
   3  -4   1   42.67    2.74
  -3  -4  -1   41.43    3.11
  -3   4  -1   36.39    2.54
  -3   4  -1   37.67    2.71
  -3   4  -1   37.48    2.40
   3   4   1   39.43    2.54
   3   4   1   37.49    2.49
   3   4   1   37.58    2.48
  -3   4  -1   36.26    2.47
   3   4   1   39.20    2.57
   3   4   1   36.24    2.57
   3   4   1   40.12    2.52
   3   4   1   36.32    2.86
   3   4   1   37.88    2.61
   4  -4   1   92.19    7.17
   4  -4   1   90.32    5.75
  -4  -4  -1   79.25    7.52
   4  -4   1   85.06    6.32
   4   4   1   91.15    5.69
   4   4   1   93.45    5.75
   4   4   1   94.15    5.58
   4   4   1   95.00    5.60
  -4   4  -1   87.87    5.59
  -4   4  -1   88.42    5.34
   4   4   1   89.32    5.28
   4   4   1   88.07    6.40
   4   4   1   94.69    5.59
   4   4   1   89.31    5.51
   4   4   1   96.08    5.97
   5  -4   1   29.02    2.38
   5  -4   1   27.90    2.62
  -5  -4  -1   25.13    2.91
   5  -4   1   29.70    2.20
   5   4   1   31.53    2.16
   5   4   1   30.92    2.51
   5   4   1   31.42    2.10
   5   4   1   30.76    2.01
   5   4   1   30.08    2.05
   5   4   1   29.13    2.12
  -5   4  -1   30.77    2.17
   5   4   1   31.03    2.04
  -5   4  -1   28.91    2.06
   5   4   1   29.20    2.03
   6  -4   1   20.82    2.01
  -6  -4  -1   18.43    2.48
   6  -4   1   23.47    2.03
  -6   4  -1   23.04    2.12
   6   4   1   21.74    2.20
  -6   4  -1   20.67    1.97
   6   4   1   22.85    1.77
   6   4   1   20.76    1.86
  -6   4  -1   23.47    1.77
  -7  -4  -1   10.84    2.36
  -7   4  -1   18.18    1.92
   7   4   1   15.46    1.65
  -7   4  -1   12.65    2.35
  -8  -4  -1    4.08    1.63
   8   4   1    2.96    1.00
  -8   4  -1    5.05    2.11
  -7  -5   1    9.53    2.15
   7   5  -1   10.65    1.29
   6  -5  -1   12.74    1.56
  -6  -5   1   11.76    2.18
   6   5  -1   16.95    1.56
  -6   5   1   14.21    1.41
  -6   5   1   15.25    1.60
  -6   5   1   14.51    1.64
   6   5  -1   14.56    1.70
   6   5  -1   13.79    1.41
  -5  -5   1   21.99    1.92
  -5  -5   1   24.12    2.39
   5  -5  -1   22.83    2.29
  -5  -5   1   21.53    2.42
   5  -5  -1   24.13    1.95
  -5   5   1   19.97    1.93
   5   5  -1   22.85    1.76
  -5   5   1   20.88    1.76
   5   5  -1   22.71    1.92
  -5   5   1   24.18    1.90
  -4  -5   1   30.67    2.69
   4  -5  -1   30.20    2.45
  -4  -5   1   31.94    3.12
  -4  -5   1   30.87    2.42
  -4  -5   1   30.96    2.37
   4  -5  -1   29.14    2.89
   4   5  -1   33.04    2.14
  -4   5   1   35.42    2.19
   4   5  -1   30.44    2.50
   4   5  -1   32.70    2.31
  -4   5   1   31.68    2.37
  -4   5   1   32.82    2.50
  -4   5   1   32.01    2.22
   4   5  -1   34.04    2.10
   4   5  -1   35.83    2.29
   3  -5  -1   21.29    1.55
   3  -5  -1   19.25    1.58
   3  -5  -1   22.76    2.01
  -3  -5   1   20.49    1.61
  -3  -5   1   18.82    1.77
  -3  -5   1   20.43    2.09
  -3  -5   1   18.61    1.52
   3   5  -1   21.15    1.39
   3   5  -1   19.00    1.40
   3   5  -1   17.92    1.40
   3   5  -1   21.40    1.51
  -3   5   1   20.34    1.55
   3   5  -1   19.22    1.47
   3   5  -1   20.86    1.34
   3   5  -1   20.13    1.39
  -3   5   1   20.62    1.51
  -3   5   1   18.23    1.36
   3   5  -1   20.22    1.31
   3   5  -1   19.88    1.31
  -3   5   1   19.11    1.53
   3   5  -1   19.29    1.60
  -2  -5   1   34.92    2.63
  -2  -5   1   37.95    2.56
  -2  -5   1   34.82    3.30
  -2  -5   1   35.38    2.93
   2  -5  -1   35.56    3.18
   2  -5  -1   34.51    2.73
   2   5  -1   37.97    2.38
   2   5  -1   41.38    2.58
   2   5  -1   40.30    2.42
   2   5  -1   38.31    2.44
   2   5  -1   38.58    2.59
   2   5  -1   39.55    2.43
   2   5  -1   36.45    2.51
   2   5  -1   36.76    2.36
  -2   5   1   38.17    2.43
   2   5  -1   40.02    2.42
  -2   5   1   38.99    2.50
   2   5  -1   35.22    2.44
   2   5  -1   36.31    2.70
  -2   5   1   37.22    2.30
   2   5  -1   40.22    2.41
  -1  -5   1   14.68    1.26
  -1  -5   1   14.58    1.11
  -1  -5   1   16.40    1.51
   1  -5  -1   13.77    1.50
   1  -5  -1   15.42    1.17
  -1  -5   1   17.89    1.53
  -1  -5   1   15.83    1.10
   1  -5  -1   15.45    0.99
   1   5  -1   14.07    1.06
  -1   5   1   13.86    0.97
  -1   5   1   14.20    1.02
   1   5  -1   13.98    0.98
   1   5  -1   14.01    1.11
  -1   5   1   14.76    1.16
   1   5  -1   13.72    1.18
  -1   5   1   14.23    0.96
   1   5  -1   14.81    1.09
   1   5  -1   13.01    1.02
   1   5  -1   13.04    1.01
   1   5  -1   13.84    0.96
   0  -5   1   19.70    1.37
   0  -5  -1   16.76    1.81
   0  -5  -1   17.81    1.57
   0  -5   1   17.24    1.84
   0  -5   1   18.56    1.43
   0  -5  -1   19.48    1.35
   0  -5   1   17.30    1.58
   0  -5  -1   19.92    1.37
   0  -5   1   17.98    1.42
   0   5  -1   19.71    1.50
   0   5  -1   22.26    1.39
   0   5   1   20.82    1.40
   0   5  -1   20.83    1.38
   0   5  -1   18.39    1.42
   0   5   1   20.92    1.33
   0   5   1   21.34    1.24
   0   5  -1   20.48    1.37
   0   5   1   22.85    1.45
   0   5  -1   21.59    1.35
   0   5  -1   20.59    1.32
   0   5  -1   20.50    1.29
   0   5   1   19.46    1.26
   0   5  -1   22.43    1.39
   0   5   1   21.10    1.39
   0   5  -1   21.08    1.33
   1  -5   1   34.15    2.43
   1  -5   1   34.14    2.15
  -1  -5  -1   34.40    2.80
  -1  -5  -1   33.28    2.49
  -1  -5  -1   34.45    2.13
  -1  -5  -1   34.73    2.96
   1  -5   1   32.51    2.72
  -1  -5  -1   35.40    2.20
  -1   5  -1   30.03    2.15
  -1   5  -1   30.23    2.29
   1   5   1   31.37    1.96
  -1   5  -1   31.45    2.03
   1   5   1   28.30    2.08
   1   5   1   31.54    1.89
  -1   5  -1   28.90    1.95
  -1   5  -1   35.25    2.24
   1   5   1   30.37    2.01
   1   5   1   26.07    2.16
  -1   5  -1   32.50    2.07
   1   5   1   32.68    2.24
  -2  -5  -1    3.63    0.63
  -2  -5  -1    4.02    0.47
  -2  -5  -1    3.08    0.51
  -2  -5  -1    2.74    0.73
  -2  -5  -1    3.50    0.80
   2  -5   1    3.59    0.73
   2  -5   1    3.54    0.53
   2   5   1    3.51    0.43
  -2   5  -1    4.14    0.52
  -2   5  -1    4.01    0.44
   2   5   1    3.02    0.48
  -2   5  -1    3.69    0.56
   2   5   1    3.10    0.48
   2   5   1    3.77    0.55
  -2   5  -1    3.50    0.47
   2   5   1    2.92    0.52
   2   5   1    3.78    0.37
   2   5   1    3.68    0.38
   2   5   1    3.31    0.51
  -2   5  -1    3.08    0.55
   2   5   1    4.25    0.44
   2   5   1    3.66    0.53
   2   5   1    4.10    0.40
   2   5   1    3.51    0.51
  -3  -5  -1    6.84    0.80
   3  -5   1    5.66    0.94
  -3  -5  -1    6.45    1.23
   3  -5   1    6.34    0.71
  -3  -5  -1    5.93    1.01
   3   5   1    7.43    0.70
   3   5   1    6.19    0.78
  -3   5  -1    6.03    0.75
   3   5   1    7.04    0.69
  -3   5  -1    6.28    0.74
  -3   5  -1    7.93    0.81
   3   5   1    6.82    0.60
  -3   5  -1    6.01    0.80
   3   5   1    7.59    0.77
   3   5   1    7.60    0.73
   3   5   1    6.81    0.71
   3   5   1    7.19    0.71
   3   5   1    6.57    0.75
   4  -5   1    8.38    0.83
  -4  -5  -1    8.79    1.48
  -4  -5  -1    5.80    1.13
   4  -5   1    8.79    1.14
   4   5   1    6.30    0.76
   4   5   1    6.47    0.79
   4   5   1    6.30    0.69
   4   5   1    5.91    0.67
  -4   5  -1    5.59    0.86
  -4   5  -1    5.53    0.78
   4   5   1    5.29    0.82
   4   5   1    5.49    0.94
   4   5   1    6.18    0.76
   4   5   1    5.75    0.69
   5  -5   1    0.53    0.66
   5  -5   1    0.26    0.65
  -5  -5  -1    0.91    1.09
   5   5   1    1.10    0.53
  -5   5  -1    1.59    0.61
  -5   5  -1    2.10    0.63
   5   5   1    1.70    0.59
   5   5   1    2.42    0.68
   5   5   1    1.45    0.61
  -6  -5  -1    6.52    1.47
  -6   5  -1    6.51    1.25
  -6   5  -1    3.71    1.10
  -6   5  -1    3.79    1.01
   6   5   1    6.17    1.09
   6   5   1    5.32    1.04
   6   5   1    5.20    1.00
  -7  -5  -1   13.17    2.51
  -7   5  -1   16.85    2.58
   7   5   1   16.27    1.77
  -7  -6   1   -1.65    1.45
   7   6  -1    0.92    1.05
  -6  -6   1    5.32    1.46
  -6   6   1    7.60    1.23
   6   6  -1    7.82    1.30
   6   6  -1    7.43    1.18
   6   6  -1    5.48    1.07
   5  -6  -1    9.90    1.55
  -5  -6   1   10.14    1.37
  -5  -6   1   11.82    1.75
  -5  -6   1    7.84    1.40
  -5   6   1    9.43    1.14
  -5   6   1   11.30    1.30
   5   6  -1    9.47    1.17
  -5   6   1   11.63    1.36
  -5   6   1    9.95    1.19
   5   6  -1    8.96    1.12
   4  -6  -1   17.91    1.94
  -4  -6   1   14.94    2.10
   4  -6  -1   16.37    1.54
  -4  -6   1   12.27    1.78
  -4  -6   1   15.18    1.46
  -4  -6   1   17.19    1.47
   4   6  -1   17.10    1.40
  -4   6   1   16.68    1.72
  -4   6   1   18.37    1.52
   4   6  -1   15.28    1.33
   4   6  -1   17.77    1.44
  -4   6   1   18.95    1.58
  -4   6   1   17.67    1.33
   4   6  -1   17.35    1.56
   3  -6  -1    5.19    1.00
  -3  -6   1    6.42    0.90
  -3  -6   1    6.40    0.76
  -3  -6   1    5.25    0.65
  -3  -6   1    5.28    1.06
   3   6  -1    2.88    0.54
  -3   6   1    1.37    0.52
   3   6  -1    2.49    0.55
   3   6  -1    2.14    0.51
  -3   6   1    1.78    0.58
   3   6  -1    1.93    0.45
   3   6  -1    3.02    0.43
  -3   6   1    2.82    0.59
   3   6  -1    1.86    0.47
  -3   6   1    2.95    0.65
   3   6  -1    2.50    0.49
   3   6  -1    2.24    0.54
   3   6  -1    2.72    0.40
  -3   6   1    1.79    0.66
  -2  -6   1   40.07    2.80
  -2  -6   1   41.91    3.67
  -2  -6   1   35.86    3.16
  -2  -6   1   38.68    3.49
  -2  -6   1   38.68    2.87
   2  -6  -1   43.93    3.03
   2  -6  -1   36.59    3.48
   2   6  -1   41.91    2.66
   2   6  -1   41.86    2.68
   2   6  -1   42.83    2.50
  -2   6   1   41.81    2.67
   2   6  -1   40.88    2.96
   2   6  -1   40.06    2.62
  -2   6   1   39.87    2.50
  -2   6   1   42.92    2.81
   2   6  -1   38.86    2.60
   2   6  -1   40.92    2.76
   2   6  -1   44.02    2.67
   2   6  -1   42.51    2.71
   2   6  -1   42.05    2.61
   2   6  -1   41.91    2.89
  -2   6   1   45.73    2.95
  -1  -6   1   77.92    6.46
  -1  -6   1   77.54    5.85
   1  -6  -1   81.99    5.76
  -1  -6   1   82.87    5.37
  -1  -6   1   83.89    5.25
   1  -6  -1   80.87    6.47
   1   6  -1   84.12    5.03
  -1   6   1   78.57    4.89
  -1   6   1   79.81    4.65
   1   6  -1   81.07    5.55
   1   6  -1   78.31    4.66
  -1   6   1   83.84    5.07
   1   6  -1   79.23    4.84
  -1   6   1   78.32    4.80
   1   6  -1   76.29    5.16
   1   6  -1   79.31    5.37
   1   6  -1   82.67    5.19
   1   6  -1   77.67    4.90
   0  -6  -1  100.35    7.01
   0  -6  -1  108.13    6.42
   0  -6   1  105.93    6.38
   0  -6   1  113.14    6.25
   0  -6   1   92.26    7.02
   0  -6   1   93.16    7.77
   0  -6  -1   96.40    7.79
   0   6  -1   97.12    5.85
   0   6   1   93.73    5.97
   0   6  -1   95.33    6.23
   0   6  -1  101.19    6.35
   0   6  -1   93.06    5.97
   0   6  -1  101.78    5.92
   0   6  -1  105.43    6.38
   0   6   1   96.74    5.60
   0   6   1   91.04    6.08
   0   6  -1   94.32    5.93
   0   6   1   95.83    6.02
   0   6  -1   88.02    6.06
   0   6   1   96.20    6.40
   0   6  -1  110.48    6.71
   0   6   1   94.27    5.89
   0   6  -1   94.04    6.69
   0   6   1   97.06    5.80
   0   6   1   88.51    6.60
   0   6  -1   95.39    6.49
   0   6  -1   94.72    5.64
  -1  -6  -1   85.59    7.00
  -1  -6  -1   82.81    5.54
  -1  -6  -1   71.52    6.03
   1  -6   1   81.78    6.70
   1  -6   1   75.03    6.01
  -1  -6  -1   76.30    6.72
   1   6   1   83.03    5.84
  -1   6  -1   85.72    4.87
  -1   6  -1   88.37    5.61
   1   6   1   88.34    4.97
   1   6   1   87.16    5.66
  -1   6  -1   85.78    5.26
  -1   6  -1   85.50    5.05
   1   6   1   88.79    4.80
   1   6   1   87.48    5.06
  -1   6  -1   83.67    5.12
  -2  -6  -1   21.22    2.31
   2  -6   1   20.89    2.17
  -2  -6  -1   19.98    2.01
   2  -6   1   20.37    1.84
  -2  -6  -1   21.91    1.70
  -2  -6  -1   20.57    2.15
  -2  -6  -1   21.56    1.64
   2   6   1   25.72    1.44
  -2   6  -1   23.35    1.81
  -2   6  -1   22.98    1.55
   2   6   1   23.05    1.67
   2   6   1   24.13    1.85
   2   6   1   24.27    1.59
   2   6   1   23.57    1.51
   2   6   1   22.43    1.70
   2   6   1   23.28    1.70
  -2   6  -1   22.78    1.60
   2   6   1   25.38    1.67
   2   6   1   23.82    1.56
  -2   6  -1   25.42    1.71
   2   6   1   23.74    1.69
   2   6   1   24.01    1.73
   2   6   1   23.05    1.68
   2   6   1   25.31    1.62
   3  -6   1   42.23    3.07
  -3  -6  -1   41.95    2.91
  -3  -6  -1   43.69    3.86
   3  -6   1   44.29    3.53
  -3  -6  -1   40.76    3.25
  -3   6  -1   38.90    2.69
  -3   6  -1   42.01    2.61
   3   6   1   40.76    2.43
  -3   6  -1   38.55    2.95
   3   6   1   40.70    2.68
   3   6   1   41.80    2.74
   3   6   1   42.86    2.74
   3   6   1   40.46    2.65
   3   6   1   38.99    2.68
   3   6   1   38.90    3.02
  -3   6  -1   41.33    2.66
   3   6   1   36.60    2.55
   3   6   1   38.81    2.75
   3   6   1   39.00    2.72
  -4  -6  -1   36.06    3.50
   4  -6   1   35.78    3.19
  -4  -6  -1   30.58    2.98
  -4   6  -1   35.89    2.58
  -4   6  -1   36.74    2.71
   4   6   1   34.88    2.45
   4   6   1   39.60    2.62
   4   6   1   36.30    2.36
  -4   6  -1   35.14    2.38
   4   6   1   36.19    2.85
   4   6   1   37.15    2.49
   4   6   1   36.27    2.53
  -5  -6  -1   45.33    4.51
   5   6   1   47.61    3.58
  -5   6  -1   46.65    3.20
   5   6   1   40.78    3.02
  -5   6  -1   52.89    3.18
   5   6   1   45.03    3.26
  -6  -6  -1    6.14    1.89
   6   6   1    7.63    1.15
   6   6   1    6.79    1.02
  -7  -6  -1    6.61    1.79
   7   6   1    8.07    1.40
  -6  -7   1    2.88    1.62
   6   7  -1    6.37    1.20
   5  -7  -1   18.50    2.21
  -5  -7   1   13.25    2.36
  -5  -7   1   16.24    2.09
  -5  -7   1   15.70    1.83
  -5   7   1   20.19    1.67
  -5   7   1   19.51    2.08
   5   7  -1   19.60    1.83
  -5   7   1   19.40    1.79
  -4  -7   1   14.51    1.94
   4  -7  -1   15.35    2.05
  -4  -7   1   16.72    1.48
  -4  -7   1   16.49    2.28
  -4  -7   1   15.18    1.60
   4   7  -1   17.38    1.46
  -4   7   1   15.36    1.45
   4   7  -1   17.37    1.48
  -4   7   1   18.69    1.48
  -4   7   1   18.62    1.71
   4   7  -1   17.66    1.60
   4   7  -1   17.32    1.50
  -4   7   1   15.98    1.67
  -3  -7   1   24.55    2.64
   3  -7  -1   23.67    2.51
  -3  -7   1   24.69    1.89
  -3  -7   1   24.93    1.95
  -3  -7   1   21.48    2.19
  -3   7   1   23.16    2.06
   3   7  -1   26.01    1.98
   3   7  -1   23.30    1.79
   3   7  -1   26.62    1.83
   3   7  -1   23.90    1.74
   3   7  -1   24.22    1.77
  -3   7   1   23.73    2.00
   3   7  -1   27.67    2.00
  -3   7   1   26.28    2.12
  -3   7   1   23.74    1.77
  -3   7   1   24.82    1.87
   3   7  -1   26.24    1.67
   2  -7  -1   16.25    1.94
  -2  -7   1   15.06    1.91
  -2  -7   1   12.87    1.67
  -2  -7   1   16.17    1.38
  -2  -7   1   16.43    1.93
  -2  -7   1   15.49    1.32
   2   7  -1   17.75    1.42
   2   7  -1   18.14    1.36
   2   7  -1   17.72    1.35
   2   7  -1   19.56    1.33
  -2   7   1   19.37    1.28
  -2   7   1   15.55    1.40
   2   7  -1   18.38    1.34
   2   7  -1   17.67    1.25
   2   7  -1   16.70    1.32
   2   7  -1   17.66    1.20
  -2   7   1   15.73    1.49
   2   7  -1   17.81    1.34
  -2   7   1   16.72    1.50
  -2   7   1   15.97    1.34
   2   7  -1   16.65    1.51
   2   7  -1   16.40    1.28
  -1  -7   1   14.06    1.51
  -1  -7   1   15.15    1.66
  -1  -7   1   16.04    1.25
  -1  -7   1   17.09    1.22
   1  -7  -1   15.26    1.81
   1  -7  -1   15.96    1.35
  -1   7   1   14.04    1.33
  -1   7   1   13.96    1.28
   1   7  -1   15.14    1.16
   1   7  -1   13.86    1.43
   1   7  -1   15.80    1.12
  -1   7   1   15.18    1.21
   1   7  -1   15.13    1.16
  -1   7   1   15.29    1.11
   1   7  -1   16.53    1.11
  -1   7   1   14.08    1.49
   1   7  -1   14.00    1.21
  -1   7   1   17.11    1.10
   1   7  -1   16.45    1.20
   0  -7   1    1.17    0.41
   0  -7   1    0.83    0.36
   0  -7   1    1.31    0.77
   0  -7  -1    0.97    0.47
   0  -7  -1    0.73    0.79
   0  -7   1    0.87    0.52
   0   7  -1    1.04    0.34
   0   7   1    0.34    0.45
   0   7  -1    0.82    0.34
   0   7  -1    0.23    0.33
   0   7   1    0.92    0.43
   0   7   1    0.83    0.27
   0   7  -1    0.91    0.37
   0   7  -1    0.48    0.45
   0   7   1    1.05    0.39
   0   7   1    0.76    0.48
   0   7   1    0.93    0.56
   0   7   1    1.33    0.49
   0   7  -1    0.48    0.39
   0   7  -1    0.90    0.29
   0   7  -1    1.16    0.59
   0   7  -1    0.57    0.27
   0   7   1    0.73    0.34
   0   7  -1    0.37    0.40
   1  -7   1    2.01    0.58
  -1  -7  -1    1.93    0.64
   1  -7   1    1.58    0.82
  -1  -7  -1    2.68    0.92
  -1   7  -1    1.84    0.71
   1   7   1    2.85    0.57
  -1   7  -1    2.72    0.53
   1   7   1    2.64    0.43
   1   7   1    3.47    0.48
  -1   7  -1    2.17    0.67
   1   7   1    2.39    0.54
   1   7   1    2.71    0.39
   1   7   1    3.15    0.58
   1   7   1    3.28    0.38
  -1   7  -1    2.95    0.49
  -1   7  -1    2.04    0.48
   1   7   1    3.16    0.61
   1   7   1    2.92    0.62
   1   7   1    3.66    0.57
  -2  -7  -1    0.06    0.40
  -2  -7  -1   -0.30    0.83
   2  -7   1    0.65    0.57
   2  -7   1    0.18    0.49
  -2  -7  -1    0.33    0.82
  -2  -7  -1    0.64    0.52
   2   7   1    0.42    0.46
   2   7   1    0.18    0.47
   2   7   1    0.29    0.31
   2   7   1   -0.34    0.41
   2   7   1   -0.30    0.31
   2   7   1   -0.18    0.44
  -2   7  -1    0.57    0.55
  -2   7  -1   -0.70    0.61
   2   7   1    0.14    0.42
  -2   7  -1    0.03    0.39
   2   7   1   -0.39    0.44
  -2   7  -1   -0.50    0.44
   2   7   1    0.02    0.48
  -3  -7  -1    1.48    0.86
   3  -7   1    2.49    0.74
  -3  -7  -1    1.91    0.64
  -3  -7  -1    1.31    0.68
  -3   7  -1    3.13    0.63
   3   7   1    2.52    0.68
  -3   7  -1    1.79    0.78
   3   7   1    2.63    0.66
   3   7   1    1.82    0.64
   3   7   1    1.81    0.50
  -3   7  -1    2.57    0.66
   3   7   1    2.51    0.49
  -3   7  -1    3.24    0.64
   3   7   1    1.91    0.59
   3   7   1    2.36    0.59
  -4  -7  -1    0.90    1.01
  -4  -7  -1    0.98    1.18
   4  -7   1    1.02    0.84
   4   7   1    0.59    0.56
   4   7   1    0.56    0.70
  -4   7  -1    0.53    0.56
  -4   7  -1    0.01    0.72
  -4   7  -1    0.65    0.55
  -5  -7  -1    2.11    1.44
  -5   7  -1    1.21    0.93
  -5   7  -1    0.54    0.76
   5   7   1    0.51    0.87
  -5   7  -1    0.61    0.87
   5   7   1   -0.13    0.80
  -6  -7  -1    1.51    1.66
   6   7   1    4.94    0.95
  -7  -7  -1    5.09    2.03
   6   8  -1    4.31    1.18
  -5  -8   1   14.68    1.93
   5  -8  -1   14.60    2.08
  -5  -8   1   12.00    1.60
  -5   8   1   14.79    1.67
   4  -8  -1    1.65    1.15
  -4  -8   1    3.26    0.87
  -4  -8   1    1.22    0.89
  -4   8   1    2.47    1.06
  -4   8   1    4.15    0.94
  -4   8   1    2.67    0.97
  -4   8   1    2.99    0.68
   3  -8  -1    6.41    1.47
  -3  -8   1    7.34    1.22
  -3   8   1    5.49    1.16
   3   8  -1    7.90    0.94
  -3   8   1    9.49    1.15
   3   8  -1    8.63    1.11
  -3   8   1    9.75    1.21
   3   8  -1    9.33    0.99
  -3   8   1    8.31    0.91
  -3   8   1    9.01    1.08
   2  -8  -1   15.58    1.79
  -2  -8   1   12.75    1.66
  -2  -8   1   14.94    1.78
  -2   8   1   15.68    1.33
  -2   8   1   14.91    1.62
  -2   8   1   15.07    1.13
   2   8  -1   14.72    1.50
  -2   8   1   14.52    1.63
   2   8  -1   14.50    1.33
  -2   8   1   15.83    1.42
   2   8  -1   15.26    1.11
   2   8  -1   13.02    1.25
  -1  -8   1   37.52    3.40
   1  -8  -1   35.18    3.40
  -1  -8   1   35.34    2.97
   1   8  -1   37.45    2.55
   1   8  -1   36.02    2.26
   1   8  -1   37.79    2.34
   1   8  -1   36.82    2.41
   1   8  -1   34.34    2.78
   1   8  -1   33.86    2.54
   1   8  -1   34.24    2.43
  -1   8   1   33.24    2.78
  -1   8   1   36.27    2.65
  -1   8   1   33.70    2.73
  -1   8   1   37.37    2.27
  -1   8   1   37.59    2.44
   1   8  -1   38.56    2.45
   0  -8   1   46.51    4.13
   0  -8   1   44.56    3.60
   0  -8  -1   43.82    3.56
   0  -8  -1   47.35    4.09
   0   8   1   46.17    3.06
   0   8   1   49.40    2.82
   0   8  -1   44.43    3.04
   0   8  -1   48.24    2.87
   0   8  -1   47.89    2.94
   0   8   1   49.63    3.42
   0   8   1   48.27    2.99
   0   8   1   46.04    3.38
   0   8   1   48.08    3.22
   0   8  -1   44.95    3.45
   0   8  -1   46.00    3.14
   0   8   1   41.78    3.08
   0   8  -1   47.80    3.02
   1  -8   1   48.67    4.24
  -1  -8  -1   50.80    4.39
  -1  -8  -1   51.45    3.85
   1  -8   1   53.09    3.78
   1   8   1   48.67    3.33
  -1   8  -1   43.95    3.61
   1   8   1   50.56    3.41
   1   8   1   51.47    3.53
  -1   8  -1   47.11    3.18
  -1   8  -1   48.73    3.11
  -1   8  -1   50.17    3.05
   1   8   1   45.11    3.23
   1   8   1   48.64    3.12
   1   8   1   53.94    3.61
  -1   8  -1   45.93    3.32
   1   8   1   48.51    3.24
   1   8   1   48.59    3.59
  -2  -8  -1   16.43    2.22
   2  -8   1   13.66    1.90
  -2  -8  -1   13.93    1.71
  -2  -8  -1   13.03    1.86
   2   8   1   16.04    1.50
   2   8   1   16.26    1.47
  -2   8  -1   15.28    1.56
   2   8   1   15.97    1.47
  -2   8  -1   17.15    1.33
  -2   8  -1   16.24    1.45
  -2   8  -1   15.22    1.31
   2   8   1   15.72    1.43
   2   8   1   18.29    1.44
   2   8   1   15.14    1.33
   2   8   1   15.25    1.41
   2   8   1   14.21    1.42
   2   8   1   18.21    1.25
   3  -8   1   13.84    1.82
  -3  -8  -1   13.48    2.13
  -3  -8  -1   13.71    1.58
  -3   8  -1   12.16    1.24
   3   8   1   13.96    1.37
  -3   8  -1   13.31    1.39
   3   8   1   11.63    1.27
  -3   8  -1   10.00    1.37
   3   8   1   11.49    1.20
   3   8   1   13.24    1.39
  -4  -8  -1   45.21    4.13
  -4  -8  -1   42.18    4.77
   4  -8   1   49.61    4.38
  -4   8  -1   51.09    3.38
   4   8   1   50.80    3.16
   4   8   1   51.80    3.79
  -4   8  -1   50.54    3.73
  -5  -8  -1    7.81    2.01
   5   8   1   10.43    1.42
   5   8   1    8.03    1.28
  -6  -8  -1    7.40    2.14
   6   8   1    5.43    1.05
   5  -9  -1   10.18    1.91
  -5  -9   1    6.47    1.80
  -5   9   1    9.70    1.52
  -4  -9   1    6.24    1.53
   4  -9  -1    7.74    1.68
  -4   9   1    5.37    1.05
  -4   9   1    5.80    1.27
  -3  -9   1    8.78    1.57
   3  -9  -1   10.37    1.83
  -3   9   1   11.00    1.41
   3   9  -1    9.84    1.17
  -3   9   1    9.43    1.48
  -3   9   1   11.02    1.16
  -3   9   1    8.40    1.17
   3   9  -1    8.96    1.33
  -2  -9   1    8.37    1.38
   2  -9  -1    9.06    1.65
   2   9  -1    7.66    1.06
  -2   9   1    9.58    1.36
  -2   9   1    6.97    1.01
   2   9  -1    8.66    0.99
  -2   9   1    7.00    1.24
   2   9  -1    7.08    1.09
  -2   9   1    9.64    0.97
  -2   9   1    8.73    1.23
  -1  -9   1   11.54    1.75
   1  -9  -1    8.75    1.67
  -1  -9   1   11.10    1.38
  -1   9   1    6.99    0.94
  -1   9   1    7.83    1.10
   1   9  -1    8.32    0.99
   1   9  -1    8.63    1.04
  -1   9   1    7.82    1.20
  -1   9   1    6.43    1.30
   1   9  -1    9.01    1.30
   0  -9  -1    4.98    1.23
   0  -9   1    6.37    1.04
   0  -9   1    6.60    1.26
   0  -9  -1    5.26    0.97
   0   9   1    5.82    0.95
   0   9  -1    7.03    1.05
   0   9   1    7.07    0.94
   0   9   1    6.85    0.82
   0   9   1    6.93    0.96
   0   9  -1    6.40    0.88
   0   9   1    3.85    1.09
   0   9  -1    6.53    1.04
   0   9  -1    6.03    0.76
  -1  -9  -1    1.02    0.75
   1  -9   1    0.44    1.02
  -1  -9  -1    1.40    1.15
   1   9   1    0.48    0.86
  -1   9  -1    0.78    0.94
  -1   9  -1    0.95    0.65
   1   9   1    0.81    0.63
   1   9   1    0.22    0.71
   1   9   1    0.62    0.57
  -1   9  -1    0.09    0.57
  -1   9  -1    0.84    0.57
  -2  -9  -1    0.52    0.85
   2  -9   1   -0.60    1.01
  -2  -9  -1    0.90    0.91
   2   9   1   -0.42    0.59
  -2   9  -1    0.64    0.72
   2   9   1    0.62    0.66
   2   9   1    0.36    0.67
  -2   9  -1    1.19    0.63
  -2   9  -1    0.23    0.67
   2   9   1    0.38    0.69
   2   9   1    0.25    0.59
   2   9   1   -0.80    0.79
  -3  -9  -1    0.99    1.27
  -3  -9  -1    0.79    1.04
   3  -9   1    1.79    1.15
  -3   9  -1   -0.07    0.95
  -3   9  -1    0.29    0.52
   3   9   1    0.76    0.67
  -3   9  -1    0.02    0.56
   3   9   1   -0.12    0.80
  -4  -9  -1    3.46    1.08
   4  -9   1    2.01    1.23
   4   9   1    2.56    0.90
   5   9   1    0.37    0.93
  -4 -10   1    2.96    1.45
   4 -10  -1    3.19    1.55
  -4  10   1    1.98    1.23
   3 -10  -1   13.13    1.97
  -3 -10   1   11.13    1.82
   3  10  -1   14.92    1.69
  -3  10   1    9.26    1.55
  -2 -10   1   19.59    2.05
   2 -10  -1   15.36    2.51
  -2  10   1   17.08    2.01
  -2  10   1   21.42    1.75
  -2  10   1   22.31    1.99
   2  10  -1   19.85    2.10
  -2  10   1   20.03    2.10
   2  10  -1   18.86    1.79
  -1 -10   1    7.29    1.74
  -1 -10   1    7.04    1.29
   1 -10  -1    7.17    1.49
  -1  10   1    6.54    1.23
   1  10  -1    5.20    1.06
   1  10  -1    3.96    1.03
  -1  10   1    5.52    1.15
  -1  10   1    5.18    1.20
   0 -10  -1   15.04    2.25
   0 -10   1   13.77    1.97
   0  10   1   13.50    1.63
   0  10  -1   11.98    1.48
   0  10  -1   12.84    1.57
   0  10  -1   13.06    1.32
   0  10   1   13.48    1.57
   0  10  -1   11.93    1.61
  -1 -10  -1   21.46    2.23
  -1 -10  -1   19.76    2.66
   1 -10   1   19.66    2.48
   1  10   1   23.89    2.08
   1  10   1   23.38    2.16
  -1  10  -1   18.87    2.26
  -1  10  -1   27.73    1.96
  -1  10  -1   26.68    2.15
  -2 -10  -1   22.56    2.32
   2 -10   1   25.83    2.77
  -2 -10  -1   21.78    2.57
   2  10   1   20.18    1.92
  -2  10  -1   22.28    1.75
   2  10   1   18.02    2.14
  -2  10  -1   21.11    1.89
  -2  10  -1   20.96    2.08
  -2  10  -1   20.75    2.16
   2  10   1   21.01    1.82
   3 -10   1   10.48    1.96
   3  10   1   11.93    1.41
   3  10   1   14.75    1.72
  -3  10  -1   11.98    1.82
  -4 -10  -1    4.46    1.53
   4 -10   1    5.91    1.69
   4  10   1    7.52    1.21
   3 -11  -1    1.65    1.57
  -3 -11   1    2.98    1.13
   3  11  -1    5.75    1.39
  -3  11   1    2.99    1.46
   2 -11  -1   16.54    2.50
  -2  11   1   10.54    1.89
   2  11  -1   12.47    1.84
  -1 -11   1    6.46    1.87
   1 -11  -1    4.75    1.46
  -1  11   1    5.13    1.52
   1  11  -1    3.48    0.89
  -1  11   1    5.94    1.14
   1  11  -1    1.74    1.31
   0 -11   1    1.61    1.54
   0 -11  -1    1.24    1.19
   0  11   1   -0.35    0.89
   0  11  -1   -0.06    1.21
   0  11   1    0.98    1.04
  -1 -11  -1    7.91    2.00
   1 -11   1    5.92    1.76
   1  11   1    8.16    1.61
   1  11   1    6.29    1.28
  -1  11  -1    8.03    1.45
  -2 -11  -1    2.25    1.33
   2 -11   1    1.98    1.50
   2  11   1    1.83    0.97
  -2  11  -1    1.22    0.99
   2  11   1    0.97    1.20
  -3 -11  -1    0.82    1.26
   3 -11   1    0.08    1.40
   3  11   1   -0.13    1.11
  -3  11  -1   -0.23    1.27
   3  11   1    0.87    0.87
   1  12  -1    5.67    1.66
   0 -12   1    4.24    1.58
   0  12   1    2.47    1.22
   0  12  -1    4.15    1.59
   1 -12   1   12.77    2.42
   1  12   1   11.62    1.69
  -8   0   2    0.16    1.61
  -7   0   2    3.30    1.47
   7   0  -2    1.30    0.76
   7   0  -2    2.13    0.83
  -6   0   2    0.85    0.78
   6   0  -2    0.14    0.76
   6   0  -2    0.77    0.42
   6   0  -2    1.45    0.58
   5   0  -2   10.59    0.92
   5   0  -2    9.07    0.92
   5   0  -2   10.34    1.17
  -5   0   2    9.73    0.98
   4   0  -2    0.33    0.30
  -4   0   2    0.07    0.28
  -4   0   2    0.44    0.37
   4   0  -2    0.16    0.29
   4   0  -2   -0.17    0.29
  -3   0   2    8.23    0.73
  -3   0   2    7.91    0.60
  -3   0   2    8.35    0.59
  -3   0   2    7.47    0.76
  -3   0   2    8.04    0.70
   3   0  -2    7.20    0.60
  -3   0   2    7.47    0.77
   3   0  -2    7.74    0.72
  -3   0   2    8.22    0.59
   2   0  -2   13.79    0.88
   2   0  -2   14.38    0.99
   2   0  -2   11.84    0.99
  -2   0   2   13.39    0.89
   2   0  -2   13.51    0.91
  -2   0   2   14.01    1.03
  -2   0   2   13.92    0.88
  -2   0   2   13.15    1.02
   2   0  -2   12.10    0.86
  -2   0   2   13.01    0.85
  -2   0   2   11.26    0.96
  -2   0   2   13.12    1.00
  -2   0   2   13.17    0.83
  -2   0   2   13.19    0.84
  -2   0   2   12.45    0.94
  -2   0   2   13.01    0.96
  -1   0   2  937.97   62.38
  -1   0   2 1000.00   57.93
  -1   0   2  840.17   60.54
   1   0  -2  917.23   57.88
   1   0  -2  867.56   62.38
  -1   0   2  887.20   58.70
  -1   0   2  895.12   59.92
   1   0  -2  942.86   60.60
  -1   0   2  990.05   64.18
  -1   0  -2   44.55    2.72
   1   0   2   41.01    3.03
  -1   0  -2   44.01    2.78
   1   0   2   43.37    2.78
   1   0   2   45.84    2.51
   1   0   2   42.21    2.72
   1   0   2   44.13    2.62
   1   0   2   44.52    2.66
  -1   0  -2   46.64    3.54
   1   0   2   42.77    2.73
   1   0   2   42.57    2.69
  -1   0  -2   42.41    2.62
  -1   0  -2   43.25    2.51
   1   0   2   45.93    2.62
  -1   0  -2   43.97    2.67
  -1   0  -2   44.27    2.70
   1   0   2   41.98    2.89
  -1   0  -2   42.06    2.62
  -1   0  -2   45.36    2.69
  -1   0  -2   44.18    2.73
   1   0   2   42.66    2.68
  -1   0  -2   45.76    2.89
  -2   0  -2   54.05    3.22
   2   0   2   55.66    3.47
   2   0   2   53.92    3.42
   2   0   2   53.87    3.40
   2   0   2   55.07    3.45
   2   0   2   58.76    3.37
   2   0   2   56.54    3.22
   2   0   2   52.79    3.69
   2   0   2   54.55    3.55
   2   0   2   55.83    3.50
   2   0   2   56.08    3.90
  -2   0  -2   57.59    3.48
  -2   0  -2   54.41    3.37
  -2   0  -2   55.45    3.43
  -2   0  -2   63.85    4.56
   3   0   2  138.49    9.06
   3   0   2  138.03    8.49
   3   0   2  136.05    8.70
   3   0   2  141.75    8.56
   3   0   2  140.02    9.56
  -3   0  -2  146.31   11.10
  -3   0  -2  136.12    7.91
   3   0   2  142.15    8.37
   3   0   2  135.11    8.33
   3   0   2  136.11    8.43
  -3   0  -2  138.02    8.28
   4   0   2  104.02    6.85
   4   0   2  103.15    6.58
   4   0   2  103.81    6.38
   4   0   2  106.27    6.30
   4   0   2  103.29    6.41
  -4   0  -2  103.11    6.29
  -4   0  -2  101.75    6.00
   4   0   2  104.38    6.49
  -4   0  -2  103.39    8.43
   4   0   2  107.19    6.33
   4   0   2   98.87    7.22
   5   0   2   98.35    6.80
   5   0   2   97.25    5.91
   5   0   2   96.75    5.93
   5   0   2   98.86    6.02
  -5   0  -2   93.63    5.90
   5   0   2   97.31    6.08
  -5   0  -2   94.52    5.65
   5   0   2   95.60    5.99
  -5   0  -2   93.17    7.94
   5   0   2   94.34    6.19
   5   0   2   95.81    6.45
  -6   0  -2   10.39    1.60
   6   0   2    9.06    0.98
   6   0   2   10.02    1.22
   6   0   2    8.04    1.00
   6   0   2   10.19    1.08
   6   0   2    7.74    1.27
   6   0   2   10.16    1.09
   6   0   2   10.00    1.14
   7   0   2   20.76    2.15
   7   0   2   18.24    1.64
   7   0   2   15.61    1.53
   7   0   2   17.72    1.73
   7   0   2   17.86    1.71
  -7   0  -2   16.56    2.57
   7   0   2   18.46    1.66
   7   0   2   21.19    1.89
  -8   0  -2   15.47    2.76
  -8  -1   2    9.32    2.09
  -8   1   2    7.18    2.07
   7  -1  -2   33.55    2.75
  -7  -1   2   32.30    3.52
   7   1  -2   28.59    2.85
  -7   1   2   30.16    3.32
   7   1  -2   33.13    2.33
   7   1  -2   33.78    2.38
  -6  -1   2   17.90    2.43
   6  -1  -2   19.50    1.68
   6  -1  -2   19.47    1.98
  -6   1   2   21.65    1.76
   6   1  -2   21.21    1.51
   6   1  -2   20.59    1.86
   6   1  -2   22.35    1.61
  -5  -1   2   45.65    3.15
  -5  -1   2   40.45    3.92
  -5  -1   2   41.15    3.26
   5  -1  -2   48.04    2.98
   5  -1  -2   47.14    3.37
   5  -1  -2   47.74    2.73
  -5   1   2   43.16    3.22
   5   1  -2   47.40    2.95
   5   1  -2   45.30    3.40
   5   1  -2   43.34    2.77
  -4  -1   2   64.67    4.45
   4  -1  -2   63.50    4.66
   4  -1  -2   67.16    3.79
  -4  -1   2   65.18    4.02
   4  -1  -2   66.28    4.17
  -4  -1   2   72.06    5.48
  -4  -1   2   62.19    4.52
  -4  -1   2   69.49    4.07
  -4  -1   2   61.15    4.82
   4   1  -2   67.86    4.13
  -4   1   2   64.00    4.52
   4   1  -2   63.94    4.18
   4   1  -2   66.56    4.04
   4   1  -2   67.81    3.99
   4   1  -2   65.96    4.00
   4   1  -2   67.11    4.69
  -4   1   2   63.40    4.07
  -3  -1   2  105.37    6.55
  -3  -1   2   97.26    7.09
  -3  -1   2   99.91    7.10
  -3  -1   2   98.74    7.59
  -3  -1   2  103.05    6.38
  -3  -1   2  104.82    6.48
  -3  -1   2  106.19    6.37
   3  -1  -2  102.69    7.36
  -3  -1   2  106.58    6.44
   3  -1  -2  109.64    6.00
  -3  -1   2   99.88    6.95
   3  -1  -2  101.44    6.57
  -3  -1   2  110.98    6.66
   3   1  -2  111.49    6.44
   3   1  -2  112.86    6.37
  -3   1   2  104.03    6.41
  -3   1   2  117.30    7.10
   3   1  -2  114.02    6.55
   3   1  -2  109.87    6.36
   3   1  -2  110.35    6.65
  -3   1   2  109.86    7.16
   3   1  -2  109.56    7.36
   2  -1  -2  104.99    6.91
  -2  -1   2  108.29    6.04
  -2  -1   2  108.12    6.66
  -2  -1   2  106.90    6.52
  -2  -1   2  108.72    6.52
  -2  -1   2  108.89    7.13
  -2  -1   2  110.35    6.14
  -2  -1   2  106.64    6.24
  -2  -1   2  101.72    5.98
  -2  -1   2  105.23    6.08
  -2  -1   2  110.98    6.91
  -2  -1   2  107.05    5.97
  -2  -1   2  101.43    6.68
   2   1  -2  101.47    6.68
   2   1  -2   89.84    6.89
   2   1  -2   89.46    6.12
  -2   1   2   93.84    6.62
  -2   1   2   92.06    6.71
  -2   1   2   98.79    6.56
  -2   1   2  100.17    6.08
  -2   1   2   86.70    5.99
  -2   1   2   96.69    6.08
   2   1  -2   97.39    6.41
  -2   1   2   94.86    6.28
  -2   1   2   97.76    6.90
  -2   1   2   93.23    6.49
  -2   1   2   93.47    6.16
  -2   1   2  101.52    6.01
   1  -1  -2  192.36   11.08
   1  -1  -2  206.63   12.43
  -1  -1   2  183.53   11.36
  -1  -1   2  166.93   12.39
  -1  -1   2  196.95   11.85
   1  -1  -2  194.82   10.59
  -1  -1   2  191.42   12.02
  -1  -1   2  194.03   13.15
   1  -1  -2  187.59   11.83
  -1  -1   2  199.61   12.75
   1  -1  -2  178.01   12.76
  -1  -1   2  188.06   12.27
  -1   1   2  180.32   11.07
  -1   1   2  181.47   12.24
  -1   1   2  193.84   12.77
   1   1  -2  181.04   12.74
   1   1  -2  178.76   11.84
   1   1  -2  186.43   12.40
  -1   1   2  184.64   12.42
  -1   1   2  187.15   11.99
  -1   1   2  196.10   13.11
   0  -1   2  190.72   11.40
   0  -1  -2  184.54   13.92
   0  -1  -2  183.49   11.67
   0  -1   2  184.47   10.93
   0  -1   2  183.41   10.51
   0  -1   2  179.83   10.59
   0  -1  -2  183.39   10.38
   0  -1   2  189.12   10.46
   0  -1   2  183.69   10.77
   0  -1  -2  189.19   11.12
   0  -1   2  184.09   10.69
   0   1  -2  170.59   10.46
   0   1  -2  164.52   10.38
   0   1  -2  168.80   10.72
   0   1  -2  174.18   10.59
   0   1  -2  173.78   10.69
   0   1   2  173.99   11.12
   0   1  -2  165.22    9.96
   0   1   2  165.68   11.67
   0   1   2  173.73   10.38
   0   1  -2  190.02   13.87
   0   1  -2  167.06   10.93
   0   1   2  179.28   10.55
   0   1  -2  166.34   11.15
   0   1  -2  165.17   10.43
   0   1  -2  171.84   11.39
   0   1   2  174.00   10.72
   0   1  -2  176.42   10.51
  -1  -1  -2   64.99    4.44
   1  -1   2   67.65    4.09
  -1  -1  -2   61.97    4.67
  -1  -1  -2   66.41    5.52
  -1  -1  -2   59.60    4.40
   1  -1   2   60.56    4.40
   1  -1   2   63.19    4.67
   1  -1   2   60.68    4.38
   1  -1   2   65.21    4.90
   1  -1   2   67.55    5.49
  -1  -1  -2   62.26    4.32
   1  -1   2   67.40    4.28
  -1  -1  -2   61.23    4.37
  -1  -1  -2   64.66    5.73
  -1  -1  -2   60.86    4.50
   1  -1   2   58.90    4.31
   1  -1   2   67.88    4.26
  -1  -1  -2   59.50    4.34
  -1  -1  -2   60.52    4.75
   1  -1   2   68.39    4.58
   1   1   2   80.89    4.53
   1   1   2   75.71    4.42
   1   1   2   73.11    4.36
  -1   1  -2   82.83    4.34
   1   1   2   80.55    4.05
  -1   1  -2   82.21    4.42
  -1   1  -2   81.44    4.69
   1   1   2   78.50    4.69
  -1   1  -2   76.99    4.10
  -1   1  -2   80.88    4.37
   1   1   2   81.95    4.46
   1   1   2   82.24    4.05
  -1   1  -2   75.15    4.29
   1   1   2   74.94    4.39
   1   1   2   79.84    4.34
   1   1   2   82.10    4.24
  -1   1  -2   80.16    4.31
  -1   1  -2   83.01    4.41
   1   1   2   80.88    4.24
   1   1   2   80.89    4.76
  -1   1  -2   81.26    4.28
   2  -1   2    6.56    0.59
  -2  -1  -2    7.35    0.54
   2  -1   2    6.86    0.60
   2  -1   2    6.92    0.58
  -2  -1  -2    6.52    0.50
  -2  -1  -2    6.91    0.86
   2  -1   2    7.36    0.57
   2  -1   2    6.71    0.60
   2  -1   2    7.26    0.64
  -2  -1  -2    6.68    0.58
  -2  -1  -2    6.79    0.52
  -2  -1  -2    6.47    0.61
   2  -1   2    7.77    0.60
  -2  -1  -2    6.90    0.59
   2  -1   2    7.06    0.56
   3  -1   2    2.00    0.41
  -3  -1  -2    2.13    0.53
  -3  -1  -2    2.02    0.35
   3  -1   2    1.65    0.32
   3  -1   2    2.13    0.38
  -3  -1  -2    2.12    0.29
   3  -1   2    1.95    0.37
   3  -1   2    1.66    0.32
   3  -1   2    2.12    0.37
   3  -1   2    1.90    0.40
   3  -1   2    1.71    0.35
  -3   1  -2    1.72    0.37
   3   1   2    1.49    0.44
  -3   1  -2    1.60    0.37
   3   1   2    1.88    0.39
  -3   1  -2    1.96    0.50
   3   1   2    1.87    0.32
   3   1   2    1.76    0.35
   3   1   2    1.70    0.35
   3   1   2    1.63    0.32
   3   1   2    1.67    0.35
   3   1   2    1.76    0.36
   3   1   2    1.57    0.31
   4  -1   2    8.37    0.83
   4  -1   2    7.68    0.76
   4  -1   2    8.79    0.76
   4  -1   2    8.12    0.76
   4  -1   2    9.14    0.81
   4  -1   2    8.39    0.75
   4  -1   2    7.84    0.84
  -4  -1  -2    8.47    1.24
   4  -1   2    8.14    0.79
   4   1   2    8.13    0.73
  -4   1  -2    9.19    1.24
  -4   1  -2    8.49    0.77
   4   1   2    8.45    0.76
   4   1   2    7.31    0.82
   4   1   2    7.25    0.83
   4   1   2    9.62    0.82
  -4   1  -2    7.40    0.74
   4   1   2    8.25    0.74
   4   1   2    9.29    1.00
   4   1   2    8.56    0.77
   4   1   2    8.36    0.79
   5  -1   2   11.24    1.07
   5  -1   2   10.30    1.01
  -5  -1  -2    9.42    1.45
   5  -1   2   10.25    1.04
   5  -1   2   11.56    1.23
   5  -1   2   10.29    1.14
   5  -1   2   10.28    1.02
   5  -1   2   10.77    1.03
   5  -1   2    9.06    1.07
   5   1   2   11.00    0.99
   5   1   2   10.79    1.01
   5   1   2   11.16    0.98
   5   1   2    8.61    1.11
   5   1   2   10.67    0.93
   5   1   2   10.86    0.96
   5   1   2   10.57    0.99
   5   1   2    9.55    1.05
  -5   1  -2   11.56    1.06
   5   1   2   11.18    1.11
  -5   1  -2   10.34    1.08
  -5   1  -2    9.85    1.44
   6  -1   2    3.48    0.68
  -6  -1  -2    4.30    1.34
   6  -1   2    3.44    0.94
   6  -1   2    2.77    0.69
   6  -1   2    3.67    0.70
   6  -1   2    3.15    0.62
   6  -1   2    3.43    0.91
   6  -1   2    3.06    0.64
   6   1   2    2.80    0.60
   6   1   2    2.67    0.74
  -6   1  -2    2.14    0.81
   6   1   2    3.02    0.81
   6   1   2    2.12    0.66
   6   1   2    2.43    0.76
   6   1   2    2.39    0.67
  -6   1  -2    2.82    1.01
   6   1   2    2.53    0.75
  -6   1  -2    2.94    0.81
   6   1   2    3.85    0.69
   7  -1   2    7.44    1.24
   7  -1   2    6.83    1.10
  -7  -1  -2    6.22    1.53
   7  -1   2    6.78    1.05
   7  -1   2    4.56    1.11
   7  -1   2    7.18    1.19
   7  -1   2    7.18    1.13
   7  -1   2    6.62    1.08
   7   1   2    6.27    1.36
   7   1   2    7.29    1.06
   7   1   2    7.76    1.16
   7   1   2    6.75    1.08
   7   1   2    6.99    1.02
  -7   1  -2    4.89    1.43
   7   1   2    5.64    1.14
  -8  -1  -2    7.12    2.09
  -8   1  -2    3.59    1.94
  -8  -2   2    2.78    1.70
   8   2  -2    2.90    1.12
  -8   2   2    3.52    1.48
   7  -2  -2    2.16    0.84
  -7  -2   2    2.82    1.46
  -7   2   2    2.42    1.18
   7   2  -2    3.53    1.13
   7   2  -2    4.07    0.87
   7   2  -2    3.12    0.91
   6  -2  -2    0.41    0.57
  -6  -2   2   -0.10    0.72
   6   2  -2    0.34    0.80
   6   2  -2    0.89    0.55
  -6   2   2    0.26    0.61
   6   2  -2    0.42    0.48
   6   2  -2    0.83    0.51
  -5  -2   2    2.19    0.66
   5  -2  -2    1.72    0.70
  -5  -2   2    3.26    0.98
   5   2  -2    3.69    0.46
   5   2  -2    3.46    0.52
   5   2  -2    4.51    0.70
  -5   2   2    4.32    0.73
  -5   2   2    4.17    0.71
   5   2  -2    3.80    0.68
   5   2  -2    4.20    0.50
   5   2  -2    3.29    0.46
   5   2  -2    4.21    0.43
  -4  -2   2   19.15    1.52
  -4  -2   2   19.71    1.39
   4  -2  -2   20.87    1.68
  -4  -2   2   21.06    1.86
  -4  -2   2   21.15    1.46
  -4  -2   2   20.54    2.07
  -4  -2   2   20.73    1.63
  -4  -2   2   20.01    1.38
  -4  -2   2   18.89    1.66
   4   2  -2   22.80    1.35
   4   2  -2   22.52    1.38
   4   2  -2   21.01    1.73
   4   2  -2   22.67    1.39
  -4   2   2   19.97    1.54
  -4   2   2   19.28    1.46
   4   2  -2   22.52    1.44
   4   2  -2   22.28    1.43
  -4   2   2   21.78    1.65
  -4   2   2   23.19    1.49
   3  -2  -2    5.91    0.52
  -3  -2   2    6.93    0.78
  -3  -2   2    6.68    0.68
  -3   2   2    3.07    0.42
   3   2  -2    3.80    0.39
   3   2  -2    2.91    0.33
   3   2  -2    3.15    0.45
   3   2  -2    3.41    0.31
   3   2  -2    3.34    0.31
  -3   2   2    3.69    0.47
   3   2  -2    3.33    0.33
   3   2  -2    3.38    0.29
   3   2  -2    3.27    0.24
  -3   2   2    3.07    0.39
   3   2  -2    4.00    0.51
  -3   2   2    3.41    0.53
  -2  -2   2   36.22    2.63
   2  -2  -2   32.71    2.51
  -2  -2   2   31.56    2.12
  -2  -2   2   34.26    2.40
  -2  -2   2   35.94    2.21
  -2  -2   2   34.42    2.22
  -2  -2   2   33.77    2.43
  -2  -2   2   35.91    2.15
  -2  -2   2   41.45    2.94
  -2  -2   2   34.87    2.38
  -2  -2   2   37.24    2.32
  -2  -2   2   37.78    2.53
   2   2  -2   35.07    2.13
  -2   2   2   32.82    2.10
   2   2  -2   36.96    2.12
  -2   2   2   34.32    2.19
   2   2  -2   38.07    2.15
   2   2  -2   32.81    2.50
  -2   2   2   33.41    2.48
   2   2  -2   39.46    2.42
  -2   2   2   35.65    2.22
   2   2  -2   33.60    2.20
   2   2  -2   34.35    2.11
   2   2  -2   35.36    2.35
   2   2  -2   36.90    2.18
  -1  -2   2  140.15    9.89
   1  -2  -2  127.29    7.11
  -1  -2   2  127.73    8.09
  -1  -2   2  128.45    7.97
  -1  -2   2  118.26    8.25
   1  -2  -2  130.08    7.45
  -1  -2   2  125.91    8.11
  -1  -2   2  126.53    8.86
   1  -2  -2  119.22    8.58
  -1  -2   2  127.99    8.56
   1   2  -2  122.06    8.32
  -1   2   2  134.76    8.59
   1   2  -2  122.19    7.43
   1   2  -2  132.40    8.09
  -1   2   2  120.72    7.44
   1   2  -2  118.72    7.96
   1   2  -2  124.62    7.59
   1   2  -2  124.23    7.47
   1   2  -2  120.76    8.55
   1   2  -2  131.73    7.44
   1   2  -2  118.50    7.62
   1   2  -2  121.67    7.52
  -1   2   2  127.33    8.37
  -1   2   2  129.93    7.11
   0  -2  -2  334.71   24.42
   0  -2  -2  313.81   17.98
   0  -2   2  324.81   19.09
   0  -2  -2  329.72   18.79
   0  -2  -2  318.07   25.08
   0  -2   2  320.00   24.39
   0  -2  -2  330.25   22.27
   0  -2   2  333.19   18.72
   0  -2   2  289.11   18.86
   0  -2   2  325.24   22.31
   0  -2   2  342.92   17.98
   0  -2   2  311.33   19.27
   0  -2   2  332.22   20.58
   0  -2   2  327.62   18.96
   0  -2  -2  324.11   21.04
   0  -2   2  314.05   19.38
   0  -2   2  288.18   19.70
   0  -2   2  329.43   20.10
   0   2  -2  329.83   19.09
   0   2   2  333.20   20.45
   0   2  -2  310.01   19.71
   0   2  -2  330.43   18.86
   0   2   2  363.17   20.82
   0   2  -2  309.32   18.72
   0   2  -2  287.85   20.09
   0   2  -2  325.70   18.96
   0   2  -2  333.68   20.58
   0   2   2  325.15   19.13
   0   2   2  312.57   20.07
   0   2   2  305.24   18.80
   0   2   2  326.25   17.73
   0   2  -2  326.61   19.27
   0   2  -2  310.10   19.38
   0   2  -2  300.89   18.81
   0   2   2  312.42   18.90
   0   2   2  319.61   21.04
   0   2  -2  312.03   20.41
   0   2  -2  300.61   17.96
   0   2   2  302.08   17.97
   1  -2   2   91.72    6.12
   1  -2   2   89.75    6.36
   1  -2   2   89.01    6.24
  -1  -2  -2   99.26    7.87
   1  -2   2   88.77    6.16
  -1  -2  -2   99.54    6.74
   1  -2   2   95.65    6.08
   1  -2   2   88.85    6.62
   1  -2   2   96.47    6.05
  -1  -2  -2   93.50    8.14
  -1  -2  -2   93.41    6.25
   1  -2   2   99.18    5.81
   1  -2   2   98.54    6.49
   1  -2   2   92.58    6.09
   1  -2   2   93.71    6.93
   1  -2   2   95.58    6.23
   1  -2   2   96.04    7.84
   1   2   2  112.82    5.74
  -1   2  -2  119.00    6.25
   1   2   2  104.89    6.26
  -1   2  -2  110.34    6.10
  -1   2  -2  114.55    6.26
   1   2   2  103.64    6.22
  -1   2  -2  112.57    6.18
   1   2   2  102.97    6.41
  -1   2  -2  106.51    6.93
   1   2   2  106.24    6.31
  -1   2  -2  110.01    6.63
  -1   2  -2  107.19    5.82
   1   2   2  101.25    5.73
   1   2   2  105.82    6.64
  -1   2  -2  114.17    6.14
  -1   2  -2  106.02    6.09
  -1   2  -2  106.19    6.06
   1   2   2  105.91    5.99
   1   2   2  111.77    6.76
   1   2   2  103.54    6.14
   1   2   2  106.81    6.18
  -1   2  -2  108.95    6.37
   2  -2   2  168.41   10.36
   2  -2   2  173.40   11.05
  -2  -2  -2  184.01   13.07
   2  -2   2  173.11   11.59
   2  -2   2  173.88   10.15
  -2  -2  -2  172.01   11.20
   2  -2   2  179.84   10.61
   2  -2   2  177.86   10.42
  -2  -2  -2  181.07   13.52
  -2  -2  -2  164.75   10.38
  -2  -2  -2  178.59   11.04
   2  -2   2  188.68   13.04
   2  -2   2  179.37   10.21
   2  -2   2  175.16   10.28
   2   2   2  184.37   10.05
   2   2   2  152.09   10.00
   2   2   2  164.09    9.54
  -2   2  -2  166.17   10.05
  -2   2  -2  164.42    9.65
   2   2   2  178.62    9.59
   2   2   2  165.41   10.29
   2   2   2  160.61   11.64
   2   2   2  157.70   10.15
   2   2   2  165.54   10.36
   2   2   2  160.54   10.42
   2   2   2  158.64   11.01
   2   2   2  158.34   10.60
  -2   2  -2  164.62   11.58
   2   2   2  169.88   10.23
  -2   2  -2  163.31   10.10
  -3  -2  -2   61.64    4.59
   3  -2   2   60.50    4.34
   3  -2   2   60.31    4.36
   3  -2   2   64.83    4.83
   3  -2   2   65.08    4.31
  -3  -2  -2   59.75    5.71
   3  -2   2   69.39    5.40
   3  -2   2   63.66    4.25
   3  -2   2   61.11    4.63
   3  -2   2   64.21    4.45
   3  -2   2   61.30    4.27
   3   2   2   76.93    4.45
   3   2   2   77.10    4.31
   3   2   2   80.96    4.34
   3   2   2   77.65    4.61
  -3   2  -2   73.37    4.27
   3   2   2   74.68    4.27
   3   2   2   77.19    4.33
  -3   2  -2   74.04    4.08
  -3   2  -2   72.63    4.24
   3   2   2   74.10    4.92
   3   2   2   74.73    4.39
   3   2   2   75.83    4.05
   4  -2   2   54.18    3.25
   4  -2   2   49.80    3.45
  -4  -2  -2   51.64    4.33
   4  -2   2   52.78    3.22
   4  -2   2   55.19    3.23
   4  -2   2   54.62    3.32
   4  -2   2   54.91    3.26
   4  -2   2   52.93    3.34
  -4  -2  -2   56.55    3.35
   4  -2   2   52.45    3.63
  -4   2  -2   46.78    3.06
   4   2   2   49.77    3.17
   4   2   2   46.77    3.02
  -4   2  -2   43.29    3.15
   4   2   2   48.25    3.15
   4   2   2   47.28    3.28
   4   2   2   46.34    3.40
   4   2   2   45.87    3.63
   4   2   2   48.38    3.18
   4   2   2   45.43    3.25
   4   2   2   45.58    3.18
   5  -2   2   69.34    4.41
   5  -2   2   69.01    5.04
   5  -2   2   68.99    4.44
  -5  -2  -2   64.74    5.94
   5  -2   2   73.27    4.62
   5  -2   2   67.79    4.79
   5  -2   2   72.14    4.55
   5  -2   2   70.43    4.46
   5   2   2   70.99    4.41
   5   2   2   68.27    5.09
   5   2   2   73.15    4.43
  -5   2  -2   73.15    5.98
   5   2   2   70.54    4.38
   5   2   2   68.36    4.56
   5   2   2   69.49    4.49
  -5   2  -2   70.70    4.42
  -5   2  -2   67.01    4.24
   5   2   2   68.21    4.20
   5   2   2   68.18    4.35
   5   2   2   71.61    4.76
   6  -2   2   60.32    4.03
   6  -2   2   56.71    3.78
   6  -2   2   56.72    3.66
   6  -2   2   56.06    3.61
   6  -2   2   57.16    3.80
  -6  -2  -2   49.48    5.02
   6  -2   2   62.59    3.69
   6  -2   2   61.90    4.21
  -6   2  -2   55.37    4.01
   6   2   2   53.58    3.56
   6   2   2   53.10    3.54
  -6   2  -2   50.86    3.68
   6   2   2   54.19    3.89
  -6   2  -2   48.16    4.84
   6   2   2   49.41    4.20
   6   2   2   51.36    3.70
  -6   2  -2   53.16    3.54
   6   2   2   55.83    3.61
   6   2   2   54.21    3.50
   6   2   2   55.12    3.73
  -7  -2  -2    8.41    2.10
   7  -2   2   13.00    1.70
  -7   2  -2   12.74    2.05
   7   2   2   13.27    1.42
   7   2   2   12.78    1.48
   7   2   2   15.52    1.53
  -7   2  -2   14.46    1.62
  -8  -2  -2   10.97    2.50
  -8   2  -2   10.76    2.39
   8   3  -2   14.09    1.63
  -8   3   2    9.72    2.43
   7  -3  -2   21.97    2.27
  -7  -3   2   16.82    2.76
   7   3  -2   25.58    1.99
  -7   3   2   21.98    2.13
   7   3  -2   24.54    2.15
  -6  -3   2   22.96    2.03
  -6  -3   2   27.50    2.69
   6  -3  -2   30.35    2.19
   6   3  -2   20.18    1.77
  -6   3   2   21.62    1.79
  -6   3   2   20.91    2.00
   6   3  -2   18.14    1.79
   6   3  -2   21.80    2.12
  -5  -3   2   17.56    2.11
  -5  -3   2   17.15    1.63
  -5  -3   2   15.45    1.87
   5  -3  -2   16.25    1.67
  -5   3   2   17.33    1.66
   5   3  -2   18.81    1.72
  -5   3   2   17.64    1.49
   5   3  -2   18.81    1.59
   5   3  -2   19.30    1.29
   5   3  -2   20.20    1.34
   5   3  -2   20.66    1.28
  -5   3   2   19.16    1.57
   5   3  -2   20.06    1.36
  -4  -3   2  127.49    9.17
  -4  -3   2  129.51    8.98
  -4  -3   2  133.45    9.89
  -4  -3   2  133.08   11.06
  -4  -3   2  129.10    9.07
   4  -3  -2  136.79    9.51
   4   3  -2  147.99    8.20
  -4   3   2  144.54    8.90
   4   3  -2  141.01    8.42
  -4   3   2  138.71    8.31
   4   3  -2  139.72    8.27
  -4   3   2  133.57    7.91
   4   3  -2  132.90    9.49
   4   3  -2  148.94    8.25
   4   3  -2  138.99    8.18
   4   3  -2  141.83    8.85
  -4   3   2  129.51    9.27
   4   3  -2  140.21    8.55
  -3  -3   2   52.99    3.94
  -3  -3   2   47.81    2.96
  -3  -3   2   47.29    2.97
  -3  -3   2   49.62    3.19
  -3  -3   2   45.90    3.54
  -3  -3   2   48.82    3.25
   3  -3  -2   44.82    3.33
   3   3  -2   46.52    2.82
  -3   3   2   45.01    2.78
  -3   3   2   48.38    2.97
   3   3  -2   46.44    2.90
   3   3  -2   43.69    3.32
   3   3  -2   47.25    3.12
   3   3  -2   48.85    2.85
  -3   3   2   40.27    2.92
   3   3  -2   44.24    2.92
   3   3  -2   51.75    3.14
   3   3  -2   45.36    2.83
   3   3  -2   45.24    2.80
  -3   3   2   43.07    3.27
   2  -3  -2   61.16    3.92
  -2  -3   2   62.69    4.10
  -2  -3   2   63.69    3.80
  -2  -3   2   67.73    3.71
  -2   3   2   51.49    3.84
   2   3  -2   55.35    3.67
   2   3  -2   55.24    3.43
  -2   3   2   52.25    3.48
   2   3  -2   53.76    3.41
   2   3  -2   53.60    3.75
  -2   3   2   53.61    3.40
   2   3  -2   53.26    3.36
  -2   3   2   54.06    3.25
   2   3  -2   53.49    3.32
   2   3  -2   49.98    3.88
   2   3  -2   55.57    3.38
   2   3  -2   61.11    3.37
   2   3  -2   53.49    3.37
   2   3  -2   53.44    3.63
   2   3  -2   55.96    3.46
  -1  -3   2  135.67    8.35
   1  -3  -2  141.96    9.20
   1  -3  -2  141.17    7.82
   1  -3  -2  139.49    7.46
  -1  -3   2  143.76   10.41
   1  -3  -2  131.83   10.22
  -1  -3   2  133.57    8.96
  -1  -3   2  135.46    8.48
   1  -3  -2  145.12    8.56
  -1  -3   2  131.87    8.65
   1  -3  -2  139.31    7.74
  -1  -3   2  129.44    9.30
   1   3  -2  120.26    7.79
  -1   3   2  120.83    8.77
   1   3  -2  129.22    7.95
  -1   3   2  139.02    9.01
   1   3  -2  121.77    8.95
   1   3  -2  124.65    8.72
   1   3  -2  130.57    7.96
  -1   3   2  122.46    7.80
   1   3  -2  124.45    8.49
  -1   3   2  120.44    7.44
   1   3  -2  129.92    8.13
   1   3  -2  122.71    8.35
   1   3  -2  136.11    7.79
   0  -3  -2   46.49    3.69
   0  -3   2   43.71    3.37
   0  -3  -2   43.01    4.25
   0  -3   2   42.24    3.72
   0  -3  -2   43.79    3.09
   0  -3   2   43.42    3.33
   0  -3  -2   44.74    2.94
   0  -3   2   45.22    3.13
   0   3  -2   58.47    3.09
   0   3  -2   57.53    3.26
   0   3  -2   51.79    3.35
   0   3  -2   51.83    3.01
   0   3  -2   56.64    3.20
   0   3   2   55.59    3.22
   0   3  -2   54.73    3.12
   0   3   2   57.44    3.52
   0   3  -2   56.47    3.15
   0   3  -2   56.73    3.16
   0   3  -2   53.99    3.14
   0   3  -2   57.17    3.20
   0   3   2   52.41    3.19
   0   3   2   57.48    3.42
   0   3  -2   54.13    3.37
   0   3   2   52.92    3.09
   0   3  -2   54.38    3.43
   0   3  -2   53.60    3.16
   0   3   2   51.50    2.94
   1  -3   2   47.27    3.30
   1  -3   2   50.94    3.66
  -1  -3  -2   50.09    4.46
   1  -3   2   52.30    3.48
   1  -3   2   50.58    3.41
   1  -3   2   49.87    3.54
   1  -3   2   48.47    3.26
  -1  -3  -2   53.23    3.90
   1  -3   2   46.89    3.34
   1  -3   2   52.23    4.22
  -1  -3  -2   49.00    4.26
   1   3   2   55.36    3.56
  -1   3  -2   57.71    3.66
   1   3   2   56.67    3.37
  -1   3  -2   56.90    3.48
   1   3   2   57.43    3.39
  -1   3  -2   57.40    3.15
   1   3   2   54.33    3.35
  -1   3  -2   53.59    3.26
   1   3   2   58.92    3.03
   1   3   2   59.27    3.61
   1   3   2   52.60    3.42
   1   3   2   55.45    3.33
  -1   3  -2   57.98    3.55
  -1   3  -2   55.27    3.57
   1   3   2   52.32    3.47
  -1   3  -2   56.06    3.29
   2  -3   2   34.28    2.16
  -2  -3  -2   34.41    2.97
  -2  -3  -2   33.28    2.33
   2  -3   2   35.75    2.40
  -2  -3  -2   34.53    2.62
   2  -3   2   34.16    2.21
  -2  -3  -2   35.85    2.80
   2  -3   2   35.82    2.27
   2  -3   2   37.32    2.75
   2  -3   2   33.03    2.17
   2  -3   2   35.45    2.19
   2  -3   2   36.20    2.34
   2   3   2   31.97    2.24
   2   3   2   35.57    2.28
   2   3   2   37.69    1.97
   2   3   2   32.63    2.30
   2   3   2   32.88    2.04
  -2   3  -2   33.48    2.39
   2   3   2   32.21    2.22
   2   3   2   31.39    2.18
  -2   3  -2   35.36    2.17
  -2   3  -2   31.51    2.16
  -2   3  -2   32.42    2.06
   2   3   2   32.79    2.22
   2   3   2   30.90    2.49
   2   3   2   31.39    2.20
   3  -3   2   12.64    1.01
  -3  -3  -2   11.43    1.27
   3  -3   2   11.33    0.93
   3  -3   2   12.48    1.03
   3  -3   2   11.41    0.87
   3  -3   2   10.78    0.95
   3  -3   2   12.35    0.94
   3  -3   2   11.32    0.96
   3  -3   2   10.94    0.87
   3   3   2   10.07    0.81
   3   3   2    9.47    0.89
   3   3   2   10.01    0.87
  -3   3  -2    8.16    0.80
  -3   3  -2    9.09    0.90
   3   3   2   10.72    0.92
   3   3   2    9.25    0.87
  -3   3  -2    9.60    0.93
   3   3   2    8.66    0.86
   3   3   2   10.88    1.06
   3   3   2   10.16    0.86
   3   3   2    9.30    0.87
   4  -3   2    0.34    0.47
   4  -3   2    0.04    0.37
   4  -3   2    0.26    0.36
  -4  -3  -2    0.53    0.59
   4  -3   2    1.01    0.44
   4  -3   2    0.02    0.46
   4  -3   2    0.14    0.39
   4  -3   2    1.06    0.40
   4  -3   2    0.29    0.34
   4   3   2    0.42    0.36
   4   3   2    0.69    0.38
   4   3   2    0.68    0.38
   4   3   2    0.17    0.36
   4   3   2    0.03    0.35
   4   3   2    0.50    0.42
   4   3   2    0.03    0.39
   4   3   2    0.63    0.37
  -4   3  -2    0.28    0.49
  -4   3  -2    0.79    0.50
   4   3   2   -0.02    0.33
   5  -3   2    4.66    0.81
   5  -3   2    4.70    0.77
   5  -3   2    3.64    0.77
   5  -3   2    4.76    0.70
  -5  -3  -2    4.36    1.08
   5  -3   2    4.53    0.68
   5  -3   2    4.03    0.82
  -5   3  -2    3.11    0.76
   5   3   2    2.96    0.61
   5   3   2    4.99    0.94
   5   3   2    4.33    0.60
   5   3   2    4.66    0.69
   5   3   2    3.82    0.65
   5   3   2    3.35    0.76
   5   3   2    3.11    0.58
  -5   3  -2    3.15    0.78
   5   3   2    3.86    0.62
   5   3   2    2.93    0.67
  -6  -3  -2    2.55    1.11
   6  -3   2    2.99    0.77
   6  -3   2    3.17    0.77
   6  -3   2    3.29    0.80
   6  -3   2    2.30    0.88
   6   3   2    4.28    1.08
   6   3   2    4.50    0.79
  -6   3  -2    4.84    0.97
  -6   3  -2    3.87    0.79
   6   3   2    4.06    0.93
   6   3   2    2.98    0.78
   6   3   2    3.67    0.71
   6   3   2    4.05    0.76
   6   3   2    4.43    0.73
  -6   3  -2    3.48    1.10
  -7  -3  -2   -0.08    1.49
   7  -3   2    2.15    1.07
   7   3   2    1.47    0.77
  -7   3  -2    3.26    1.60
   7   3   2    1.80    0.88
  -8  -3  -2    0.43    1.79
  -8   3  -2    0.64    1.33
  -8  -4   2   -1.33    1.60
   8   4  -2    0.49    1.12
  -8   4   2   -1.85    1.80
   7  -4  -2    1.41    1.00
  -7  -4   2    1.18    1.41
   7   4  -2    0.65    0.95
  -7   4   2    1.41    0.97
   6  -4  -2    1.50    0.82
  -6  -4   2    0.85    0.85
  -6  -4   2   -0.26    0.92
   6   4  -2    0.14    0.57
   6   4  -2    0.27    0.54
  -6   4   2    1.30    0.84
   6   4  -2    0.77    0.82
  -6   4   2    0.69    0.81
  -5  -4   2    0.11    0.63
   5  -4  -2   -0.22    0.55
  -5  -4   2    0.33    0.85
  -5  -4   2    0.12    0.56
   5   4  -2    0.26    0.45
  -5   4   2   -0.15    0.60
   5   4  -2   -0.12    0.55
   5   4  -2    0.07    0.31
  -5   4   2    0.62    0.66
  -5   4   2   -0.43    0.40
  -4  -4   2   24.07    2.26
  -4  -4   2   20.21    1.82
   4  -4  -2   21.57    1.78
  -4  -4   2   19.74    1.73
  -4  -4   2   22.33    1.96
   4   4  -2   21.30    1.38
  -4   4   2   21.98    1.67
  -4   4   2   18.69    1.79
  -4   4   2   22.34    1.57
   4   4  -2   21.33    1.48
   4   4  -2   23.03    1.69
   4   4  -2   23.19    1.39
  -4   4   2   21.79    1.64
   4   4  -2   20.64    1.73
   4   4  -2   23.07    1.44
  -3  -4   2   30.04    3.02
  -3  -4   2   29.81    2.41
  -3  -4   2   30.08    2.27
   3  -4  -2   27.35    2.51
  -3  -4   2   28.32    2.71
  -3  -4   2   28.86    2.48
   3  -4  -2   31.42    2.48
   3  -4  -2   29.05    2.92
   3   4  -2   37.68    2.18
   3   4  -2   37.87    2.12
   3   4  -2   36.76    2.09
   3   4  -2   40.23    2.35
   3   4  -2   35.34    2.52
  -3   4   2   35.57    2.31
  -3   4   2   32.95    2.55
   3   4  -2   35.78    2.36
   3   4  -2   37.31    2.19
   3   4  -2   37.84    2.17
  -3   4   2   34.79    2.24
   3   4  -2   37.01    2.15
  -3   4   2   37.26    2.15
   3   4  -2   39.30    2.37
  -2  -4   2   41.84    2.39
  -2  -4   2   38.35    2.66
   2  -4  -2   42.90    3.01
  -2  -4   2   42.00    2.46
   2   4  -2   35.17    2.37
   2   4  -2   32.75    2.16
  -2   4   2   34.13    2.07
   2   4  -2   30.87    2.45
  -2   4   2   32.79    2.24
   2   4  -2   32.89    2.31
  -2   4   2   33.31    2.18
  -2   4   2   31.44    2.46
   2   4  -2   32.39    2.09
   2   4  -2   32.51    2.35
   2   4  -2   33.69    2.17
   2   4  -2   33.77    2.16
   2   4  -2   33.65    2.13
   2   4  -2   32.95    2.18
  -1  -4   2   65.51    3.69
  -1  -4   2   58.93    4.59
   1  -4  -2   52.22    3.56
  -1  -4   2   52.19    3.77
   1  -4  -2   56.42    3.66
  -1  -4   2   49.78    4.09
   1  -4  -2   55.74    3.99
   1  -4  -2   53.36    4.52
  -1  -4   2   56.69    3.72
   1  -4  -2   57.61    3.36
  -1  -4   2   52.64    4.48
   1  -4  -2   58.48    3.27
  -1   4   2   52.05    3.86
  -1   4   2   55.50    3.25
   1   4  -2   55.23    3.65
   1   4  -2   56.88    3.74
   1   4  -2   56.11    3.49
   1   4  -2   55.47    3.29
   1   4  -2   63.23    3.52
  -1   4   2   55.60    3.41
   1   4  -2   55.10    3.43
   1   4  -2   54.77    3.87
   1   4  -2   62.10    3.46
   0  -4   2   59.42    4.72
   0  -4  -2   65.19    4.27
   0  -4   2   56.31    4.28
   0  -4   2   62.81    3.84
   0  -4  -2   59.81    4.76
   0  -4  -2   65.83    3.59
   0  -4  -2   65.33    3.40
   0   4   2   59.75    3.91
   0   4  -2   63.73    3.59
   0   4  -2   55.22    4.02
   0   4   2   57.12    4.03
   0   4   2   60.59    3.49
   0   4  -2   55.79    3.94
   0   4  -2   59.36    3.73
   0   4   2   56.35    3.37
   0   4   2   56.45    3.65
   0   4  -2   63.01    3.56
   0   4  -2   58.12    3.86
   0   4  -2   55.75    3.68
   0   4  -2   56.30    3.83
   0   4  -2   55.24    3.58
   0   4  -2   60.40    3.67
   0   4  -2   59.76    3.64
   0   4  -2   57.69    3.45
   0   4  -2   58.83    3.63
   0   4   2   57.31    3.67
   0   4   2   57.21    3.55
   1   4   2   70.06    3.93
   1   4   2   62.86    4.45
   1   4   2   71.90    4.15
  -1   4  -2   67.44    4.24
  -1   4  -2   71.95    4.72
   1   4   2   74.29    4.37
   1   4   2   69.87    4.31
   1   4   2   61.69    4.57
  -1   4  -2   70.02    4.20
   1   4   2   72.29    4.67
   1   4   2   70.56    4.10
  -1   4  -2   68.05    4.04
   1   4   2   71.53    4.35
   1   4   2   70.42    4.41
   1   4   2   68.70    4.28
  -1   4  -2   68.84    4.60
  -2  -4  -2  154.75   13.26
  -2  -4  -2  164.16   11.76
   2  -4   2  161.57   12.78
   2  -4   2  157.82   10.77
  -2  -4  -2  162.29   12.83
   2  -4   2  157.73   11.26
   2  -4   2  152.65   10.16
   2   4   2  164.93   11.38
   2   4   2  161.11   10.21
   2   4   2  173.42   10.74
  -2   4  -2  176.74   11.27
  -2   4  -2  167.89    9.90
   2   4   2  164.48   10.15
   2   4   2  166.06   10.38
   2   4   2  165.71   10.02
   2   4   2  162.36    9.95
  -2   4  -2  168.83    9.46
   2   4   2  183.10   10.92
   2   4   2  170.11   10.09
  -2   4  -2  170.06   10.74
  -2   4  -2  168.35    9.83
  -3  -4  -2   64.98    5.99
   3  -4   2   71.44    5.67
   3  -4   2   70.48    4.99
   3  -4   2   70.45    4.64
   3  -4   2   71.15    4.58
   3  -4   2   68.14    4.83
   3   4   2   69.06    5.11
  -3   4  -2   69.36    4.24
   3   4   2   76.91    4.52
   3   4   2   70.15    4.20
   3   4   2   75.39    4.51
   3   4   2   71.96    4.50
   3   4   2   75.57    4.45
  -3   4  -2   71.73    4.45
   3   4   2   74.40    4.59
  -3   4  -2   73.42    4.43
   3   4   2   72.95    4.74
   3   4   2   73.46    4.62
   4  -4   2   37.16    3.04
   4  -4   2   34.74    2.83
   4  -4   2   38.73    3.48
   4  -4   2   39.66    2.90
   4  -4   2   37.99    3.10
  -4  -4  -2   34.91    3.84
   4   4   2   46.73    2.94
   4   4   2   46.11    2.88
   4   4   2   44.49    2.75
   4   4   2   46.11    2.80
   4   4   2   44.38    2.70
   4   4   2   44.96    3.22
   4   4   2   43.87    2.86
  -4   4  -2   44.69    2.83
   4   4   2   47.28    2.78
  -4   4  -2   44.05    2.73
   4   4   2   45.64    2.81
   5  -4   2   45.13    3.33
   5  -4   2   46.19    3.24
  -5  -4  -2   41.57    4.19
   5  -4   2   45.43    3.14
  -5   4  -2   42.56    2.92
   5   4   2   45.20    3.02
   5   4   2   43.18    3.47
   5   4   2   44.55    3.10
   5   4   2   44.15    2.92
   5   4   2   39.82    2.80
  -5   4  -2   41.97    2.98
   5   4   2   48.72    2.94
   5   4   2   45.44    2.90
   5   4   2   43.73    3.00
  -6  -4  -2   32.75    3.38
   6  -4   2   35.86    2.64
   6  -4   2   37.40    2.74
  -6   4  -2   30.73    3.39
  -6   4  -2   30.72    2.53
   6   4   2   31.31    2.73
  -6   4  -2   28.94    2.29
   6   4   2   28.02    2.38
   6   4   2   33.46    2.42
  -7  -4  -2   10.81    2.26
  -7   4  -2    6.72    1.94
   7   4   2    8.35    1.19
  -8  -5   2    5.52    2.15
  -7  -5   2   15.07    2.47
   7   5  -2   14.76    1.64
   6  -5  -2   27.29    2.66
  -6  -5   2   24.81    2.35
  -6  -5   2   23.18    2.45
   6  -5  -2   26.48    2.25
  -6  -5   2   24.34    2.93
   6   5  -2   23.07    2.02
  -6   5   2   25.23    2.06
   6   5  -2   23.40    2.09
   6   5  -2   23.51    2.27
  -6   5   2   22.91    2.16
  -6   5   2   24.31    1.99
   5  -5  -2   30.65    3.03
  -5  -5   2   27.43    2.90
  -5  -5   2   28.15    2.50
   5  -5  -2   32.74    2.58
  -5  -5   2   30.59    3.21
  -5   5   2   32.63    2.57
  -5   5   2   33.30    2.20
  -5   5   2   35.28    2.33
   5   5  -2   32.55    2.36
   5   5  -2   36.06    2.63
   4  -5  -2   18.38    1.64
  -4  -5   2   18.50    2.00
  -4  -5   2   15.85    2.13
  -4  -5   2   17.40    1.65
  -4  -5   2   16.27    1.64
   4  -5  -2   18.34    2.10
  -4   5   2   24.07    1.68
   4   5  -2   22.99    1.41
   4   5  -2   23.50    1.64
  -4   5   2   22.44    1.85
  -4   5   2   20.45    1.53
  -4   5   2   21.09    1.54
   4   5  -2   23.26    1.74
  -3  -5   2   54.27    3.98
  -3  -5   2   54.65    3.62
   3  -5  -2   52.47    4.30
  -3  -5   2   54.01    3.51
   3  -5  -2   54.82    3.71
  -3  -5   2   58.46    4.47
  -3   5   2   51.25    3.27
   3   5  -2   49.12    3.66
   3   5  -2   50.91    3.48
   3   5  -2   52.53    3.14
  -3   5   2   46.35    3.34
  -3   5   2   48.29    3.10
   3   5  -2   49.77    3.18
   3   5  -2   47.14    3.41
   3   5  -2   52.88    3.12
   3   5  -2   49.95    3.20
   3   5  -2   52.55    3.09
   3   5  -2   52.82    3.20
  -3   5   2   44.76    3.66
   3   5  -2   48.61    3.22
   2  -5  -2   71.65    4.51
  -2  -5   2   67.49    4.22
  -2  -5   2   65.13    4.31
  -2  -5   2   63.72    4.72
  -2  -5   2   70.94    5.31
   2  -5  -2   68.73    5.22
   2   5  -2   59.74    3.83
   2   5  -2   63.00    3.95
  -2   5   2   61.46    4.40
   2   5  -2   59.04    3.89
   2   5  -2   60.36    4.41
   2   5  -2   61.06    3.94
  -2   5   2   60.72    3.91
   2   5  -2   59.82    4.22
  -2   5   2   65.23    4.03
   2   5  -2   62.52    3.98
  -2   5   2   62.05    3.72
   2   5  -2   62.34    3.90
   2   5  -2   62.78    4.14
   1  -5  -2   56.39    3.96
  -1  -5   2   51.42    4.06
  -1  -5   2   57.70    3.68
   1  -5  -2   61.07    3.34
  -1  -5   2   54.43    4.48
  -1  -5   2   58.74    3.76
   1  -5  -2   53.44    4.54
  -1  -5   2   64.70    4.60
  -1   5   2   54.83    3.53
  -1   5   2   51.81    3.82
   1   5  -2   54.30    3.73
   1   5  -2   52.62    3.40
  -1   5   2   52.74    3.21
   1   5  -2   53.01    3.43
   1   5  -2   49.48    3.60
   1   5  -2   61.53    3.36
   1   5  -2   51.51    3.25
   1   5  -2   61.14    3.40
   1   5  -2   51.82    3.47
   1   5  -2   57.06    3.49
   1   5  -2   52.58    3.81
  -1   5   2   51.84    3.38
   0  -5  -2   31.24    2.75
   0  -5  -2   33.43    2.45
   0  -5   2   31.07    3.10
   0  -5   2   32.56    2.57
   0  -5  -2   36.16    2.20
   0  -5   2   31.70    2.53
   0  -5  -2   30.60    3.11
   0   5  -2   37.58    2.56
   0   5   2   38.22    2.64
   0   5   2   40.85    2.23
   0   5   2   38.83    2.32
   0   5  -2   34.93    2.59
   0   5  -2   42.48    2.57
   0   5   2   40.82    2.57
   0   5   2   37.05    2.40
   0   5  -2   38.75    2.35
   0   5  -2   36.59    2.40
   0   5   2   37.68    2.18
   0   5  -2   39.00    2.49
   0   5  -2   43.51    2.32
   0   5   2   37.53    2.43
   0   5  -2   37.13    2.44
   0   5  -2   36.37    2.27
   0   5  -2   43.43    2.35
   0   5  -2   40.78    2.48
  -1  -5  -2   14.52    1.58
  -1  -5  -2   14.07    1.11
  -1  -5  -2   13.57    1.30
  -1  -5  -2   15.66    1.67
   1  -5   2   15.95    1.51
   1  -5   2   14.31    1.32
  -1   5  -2   15.50    1.18
   1   5   2   15.38    0.97
  -1   5  -2   15.77    1.08
   1   5   2   16.38    1.04
   1   5   2   16.18    1.04
  -1   5  -2   16.56    1.13
  -1   5  -2   15.36    1.11
   1   5   2   15.67    0.95
  -1   5  -2   14.06    1.23
   1   5   2   17.00    1.20
   2  -5   2   15.89    1.63
  -2  -5  -2   15.62    1.72
  -2  -5  -2   13.32    1.88
  -2  -5  -2   15.43    1.50
   2  -5   2   13.35    1.43
  -2   5  -2   19.31    1.27
   2   5   2   17.42    1.26
   2   5   2   18.65    1.16
   2   5   2   17.53    1.47
   2   5   2   17.64    1.22
  -2   5  -2   16.17    1.27
   2   5   2   17.35    1.35
   2   5   2   19.57    1.24
   2   5   2   17.87    1.35
  -2   5  -2   17.23    1.26
   2   5   2   17.47    1.06
  -2   5  -2   16.94    1.43
  -2   5  -2   17.78    1.28
   2   5   2   17.62    1.15
   2   5   2   15.77    1.32
   2   5   2   17.29    1.31
   2   5   2   17.34    1.37
   2   5   2   17.23    1.31
   3  -5   2   18.60    1.30
   3  -5   2   17.93    1.61
  -3  -5  -2   18.10    1.88
  -3  -5  -2   17.39    1.57
   3   5   2   15.84    1.28
   3   5   2   14.42    1.30
  -3   5  -2   15.82    1.27
   3   5   2   14.71    1.22
   3   5   2   16.20    1.31
   3   5   2   15.33    1.32
   3   5   2   16.25    1.26
  -3   5  -2   15.92    1.22
   3   5   2   15.17    1.24
   3   5   2   14.84    1.47
  -3   5  -2   15.41    1.26
   3   5   2   15.89    1.21
   4  -5   2    2.27    0.57
   4  -5   2    2.04    0.64
  -4  -5  -2    2.31    1.07
   4  -5   2    2.16    0.50
   4   5   2    1.86    0.56
   4   5   2    2.55    0.57
   4   5   2    1.70    0.53
   4   5   2    2.04    0.48
   4   5   2    1.98    0.62
  -4   5  -2    1.76    0.53
   4   5   2    1.61    0.48
  -4   5  -2    1.99    0.56
   4   5   2    2.29    0.62
   4   5   2    1.51    0.44
   4   5   2    1.90    0.54
  -5  -5  -2    2.51    1.28
   5  -5   2    3.11    0.70
  -5   5  -2    2.03    0.80
   5   5   2    2.59    0.69
   5   5   2    2.07    0.90
  -5   5  -2    2.98    0.73
   5   5   2    3.07    0.66
  -6  -5  -2    1.25    1.10
   6   5   2    0.46    1.00
  -6   5  -2    1.04    0.95
  -6   5  -2    0.11    0.66
   6   5   2   -0.08    0.84
  -7  -5  -2    1.20    1.28
   7   5   2    0.68    0.77
  -7   5  -2    0.28    1.49
  -7  -6   2    1.80    1.56
   7   6  -2   -0.09    0.74
  -6  -6   2    0.45    1.04
  -6  -6   2    0.28    1.25
  -6  -6   2    2.89    1.42
   6  -6  -2    0.97    1.23
  -6   6   2    2.47    1.09
   6   6  -2    0.52    0.77
   6   6  -2    2.88    0.79
   6   6  -2    0.92    0.92
   5  -6  -2    0.20    0.65
  -5  -6   2    0.09    0.98
  -5  -6   2    0.17    0.61
  -5  -6   2    1.39    0.82
   5  -6  -2    0.71    0.95
   5   6  -2    0.25    0.62
  -5   6   2    0.83    0.73
   5   6  -2   -0.13    0.66
  -5   6   2    0.51    0.55
  -5   6   2    0.10    0.61
  -4  -6   2    6.90    1.30
  -4  -6   2    8.23    1.05
   4  -6  -2    8.53    1.44
  -4  -6   2    7.28    1.41
   4  -6  -2    7.40    1.02
  -4  -6   2    5.96    1.07
   4   6  -2    9.37    0.97
  -4   6   2   10.51    1.01
   4   6  -2    9.51    0.98
  -4   6   2   10.54    1.12
   4   6  -2    7.68    0.91
  -4   6   2    8.83    1.21
  -4   6   2    8.99    0.90
   4   6  -2    9.28    1.05
  -3  -6   2   25.19    1.84
  -3  -6   2   27.24    2.38
  -3  -6   2   27.97    1.78
  -3  -6   2   22.85    2.12
   3  -6  -2   26.31    2.35
  -3   6   2   22.75    1.79
   3   6  -2   21.11    1.62
  -3   6   2   20.73    1.92
   3   6  -2   22.77    1.53
   3   6  -2   21.77    1.74
   3   6  -2   21.60    1.58
   3   6  -2   21.44    1.77
  -3   6   2   21.82    1.52
  -3   6   2   19.83    1.75
   3   6  -2   20.68    1.67
   3   6  -2   21.26    1.57
  -3   6   2   22.11    1.67
  -2  -6   2   25.86    2.17
   2  -6  -2   25.89    2.67
  -2  -6   2   24.45    2.45
  -2  -6   2   28.21    2.11
  -2  -6   2   32.23    2.78
  -2   6   2   32.87    2.03
  -2   6   2   31.00    2.29
   2   6  -2   29.95    1.97
   2   6  -2   30.49    2.21
   2   6  -2   30.67    1.99
  -2   6   2   32.08    1.91
   2   6  -2   30.40    2.00
   2   6  -2   31.63    2.02
   2   6  -2   29.96    2.11
  -2   6   2   32.02    2.12
   2   6  -2   30.04    2.05
   2   6  -2   31.62    1.91
   2   6  -2   30.73    2.20
  -1  -6   2   27.64    2.54
  -1  -6   2   27.04    2.28
   1  -6  -2   28.36    2.12
  -1  -6   2   27.08    2.01
  -1  -6   2   28.78    1.98
   1  -6  -2   28.87    2.55
   1   6  -2   27.19    1.93
  -1   6   2   28.69    1.73
   1   6  -2   27.90    1.87
  -1   6   2   27.74    2.13
   1   6  -2   28.53    1.87
   1   6  -2   28.26    1.92
   1   6  -2   29.34    1.84
   1   6  -2   28.10    1.99
  -1   6   2   27.80    1.84
   1   6  -2   26.48    2.08
   1   6  -2   26.75    1.77
  -1   6   2   27.03    1.95
   0  -6   2   11.82    1.44
   0  -6   2   11.52    1.33
   0  -6  -2   12.10    1.50
   0  -6   2   11.58    1.14
   0  -6  -2   11.62    1.25
   0   6   2   15.76    1.06
   0   6  -2   15.13    1.21
   0   6  -2   13.98    1.24
   0   6  -2   14.49    1.08
   0   6  -2   14.40    1.02
   0   6   2   15.63    0.97
   0   6   2   15.23    1.18
   0   6  -2   17.40    1.06
   0   6   2   14.71    1.24
   0   6  -2   15.80    1.11
   0   6   2   14.15    1.15
   0   6   2   15.03    1.19
   0   6  -2   14.51    1.04
   0   6  -2   15.12    1.07
   0   6   2   15.66    0.94
   0   6  -2   17.09    1.19
   0   6  -2   14.27    1.04
  -1  -6  -2   47.87    3.40
   1  -6   2   49.48    3.37
  -1  -6  -2   47.83    3.84
  -1  -6  -2   51.26    4.04
   1  -6   2   46.41    3.75
  -1   6  -2   43.99    2.70
  -1   6  -2   44.18    2.88
  -1   6  -2   45.74    3.03
  -1   6  -2   42.53    2.79
   1   6   2   44.66    2.58
   1   6   2   42.18    3.05
   1   6   2   40.69    2.82
   1   6   2   46.87    3.12
   1   6   2   43.89    2.75
   1   6   2   40.78    2.65
  -1   6  -2   40.38    3.10
  -2  -6  -2   95.19    7.25
  -2  -6  -2   94.26    8.26
   2  -6   2   97.85    7.15
   2  -6   2  103.27    7.90
  -2  -6  -2  101.06    7.97
   2   6   2   97.98    6.97
   2   6   2   97.64    6.34
   2   6   2   96.61    6.13
  -2   6  -2   94.43    6.62
   2   6   2   96.74    6.38
   2   6   2   99.28    6.24
  -2   6  -2  103.10    6.03
   2   6   2  106.58    5.98
   2   6   2   94.97    6.21
   2   6   2  100.63    6.20
  -2   6  -2   97.78    5.81
   2   6   2  108.37    6.65
   2   6   2   98.69    6.31
   2   6   2   99.42    5.91
   2   6   2  102.08    6.51
  -2   6  -2   99.14    6.10
   3  -6   2   37.85    3.29
   3  -6   2   36.51    2.94
  -3  -6  -2   35.75    3.32
  -3  -6  -2   31.82    3.11
  -3  -6  -2   33.72    3.65
   3   6   2   41.37    2.44
   3   6   2   37.93    2.59
   3   6   2   37.57    2.59
   3   6   2   40.49    2.62
  -3   6  -2   38.73    2.55
  -3   6  -2   38.17    2.49
   3   6   2   41.31    2.67
  -3   6  -2   39.23    2.59
   3   6   2   39.39    2.56
  -3   6  -2   35.77    2.81
   3   6   2   40.29    2.92
   3   6   2   39.78    2.63
   3   6   2   39.99    2.64
   4  -6   2   33.33    2.92
  -4  -6  -2   29.05    3.37
   4  -6   2   32.23    2.64
  -4   6  -2   33.48    2.31
   4   6   2   33.69    2.31
   4   6   2   35.72    2.25
   4   6   2   34.07    2.63
   4   6   2   30.85    2.34
   4   6   2   30.89    2.33
   4   6   2   30.77    2.17
   4   6   2   33.35    2.34
   4   6   2   36.51    2.34
  -4   6  -2   31.55    2.34
  -5  -6  -2   28.34    3.23
  -5   6  -2   31.77    2.37
   5   6   2   31.33    2.71
   5   6   2   31.68    2.33
   5   6   2   30.71    2.28
  -5   6  -2   29.08    2.32
   5   6   2   32.11    2.31
  -6  -6  -2   11.37    2.04
   6   6   2    9.40    1.23
  -7  -6  -2    6.88    1.84
  -7   6  -2    5.69    1.94
   7   6   2    7.42    1.42
   7   7  -2    6.32    1.15
  -6  -7   2   14.33    1.92
  -6  -7   2   12.71    2.22
   6   7  -2   21.15    1.95
   6   7  -2   13.50    1.52
  -5  -7   2   26.85    2.69
  -5  -7   2   29.81    2.47
   5  -7  -2   30.16    2.96
   5   7  -2   25.70    2.36
  -5   7   2   29.87    2.17
   5   7  -2   29.76    2.20
   5   7  -2   26.33    2.19
  -5   7   2   30.59    2.31
  -5   7   2   24.42    2.29
  -5   7   2   25.96    2.58
  -4  -7   2   36.66    2.72
   4  -7  -2   34.81    3.48
  -4  -7   2   33.98    3.27
  -4  -7   2   35.75    2.78
  -4  -7   2   34.77    3.59
  -4   7   2   41.01    2.67
  -4   7   2   41.00    2.89
   4   7  -2   36.82    2.69
  -4   7   2   39.16    2.51
   4   7  -2   36.72    2.53
  -4   7   2   35.15    2.91
   4   7  -2   37.37    2.70
   4   7  -2   36.51    2.84
  -3  -7   2   12.81    1.38
   3  -7  -2   14.64    1.76
  -3  -7   2   14.48    1.37
  -3  -7   2   14.11    1.67
  -3  -7   2   15.79    1.89
   3   7  -2   15.23    1.27
  -3   7   2   14.19    1.43
  -3   7   2   16.21    1.19
   3   7  -2   15.40    1.20
  -3   7   2   16.12    1.27
  -3   7   2   14.88    1.48
   3   7  -2   16.54    1.36
  -3   7   2   17.72    1.57
   3   7  -2   15.49    1.43
   3   7  -2   16.48    1.35
   3   7  -2   15.78    1.27
   2  -7  -2    7.68    1.26
  -2  -7   2    7.38    1.20
  -2  -7   2    9.27    0.97
  -2  -7   2    8.81    0.86
  -2  -7   2   11.53    1.43
   2   7  -2    8.86    0.83
   2   7  -2    8.81    0.87
  -2   7   2    7.60    0.86
   2   7  -2    7.19    0.83
  -2   7   2    7.95    0.97
   2   7  -2    9.49    0.91
   2   7  -2    8.31    0.85
  -2   7   2    8.88    0.83
   2   7  -2    6.58    0.97
   2   7  -2    8.66    0.82
  -2   7   2    8.88    1.03
   2   7  -2    8.63    0.83
   2   7  -2    9.66    0.92
   1  -7  -2   26.27    2.16
  -1  -7   2   24.70    2.01
  -1  -7   2   25.39    2.53
  -1  -7   2   25.07    1.99
  -1  -7   2   23.17    2.31
   1  -7  -2   23.12    2.64
   1   7  -2   29.04    2.00
  -1   7   2   28.18    2.01
   1   7  -2   30.12    1.87
   1   7  -2   26.83    2.10
   1   7  -2   30.98    1.88
   1   7  -2   29.97    1.92
  -1   7   2   30.66    1.89
   1   7  -2   28.34    1.98
  -1   7   2   28.25    2.19
   1   7  -2   28.73    1.95
   1   7  -2   28.36    1.81
  -1   7   2   29.56    1.77
   0  -7  -2   42.14    3.33
   0  -7   2   40.98    3.31
   0  -7  -2   43.51    2.87
   0  -7   2   40.44    2.90
   0  -7   2   42.63    2.62
   0   7  -2   32.70    2.71
   0   7   2   35.40    2.34
   0   7   2   34.07    2.50
   0   7  -2   37.82    2.47
   0   7  -2   35.85    2.49
   0   7  -2   35.28    2.46
   0   7  -2   36.71    2.31
   0   7   2   33.34    2.47
   0   7   2   34.61    2.58
   0   7  -2   35.81    2.36
   0   7   2   36.84    2.48
   0   7   2   34.46    2.69
   0   7   2   34.88    2.20
   0   7  -2   34.53    2.38
  -1  -7  -2   16.89    2.02
   1  -7   2   18.96    2.06
   1  -7   2   18.44    1.77
  -1  -7  -2   17.08    1.72
   1  -7   2   18.40    1.56
   1   7   2   23.05    1.62
   1   7   2   22.70    1.29
   1   7   2   24.36    1.64
  -1   7  -2   22.01    1.48
   1   7   2   19.35    1.53
   1   7   2   21.33    1.52
  -1   7  -2   18.57    1.77
   1   7   2   22.40    1.41
  -1   7  -2   20.13    1.57
   1   7   2   20.91    1.59
  -1   7  -2   21.05    1.47
   2  -7   2   14.66    1.64
  -2  -7  -2   13.18    2.02
  -2  -7  -2   12.43    1.58
  -2  -7  -2   16.47    1.57
   2  -7   2   14.85    1.36
   2   7   2   14.14    1.34
   2   7   2   14.38    1.31
   2   7   2   15.02    1.32
  -2   7  -2   15.39    1.31
  -2   7  -2   13.64    1.11
   2   7   2   13.08    1.22
   2   7   2   13.81    1.28
   2   7   2   12.22    1.22
  -2   7  -2   14.37    1.18
   2   7   2   12.16    1.23
  -2   7  -2   11.81    1.30
   2   7   2   14.25    1.06
  -3  -7  -2    1.88    1.17
   3  -7   2    2.54    0.87
   3  -7   2    1.14    0.57
  -3  -7  -2    2.23    0.83
  -3  -7  -2    1.67    0.87
   3   7   2    3.17    0.69
   3   7   2    1.98    0.72
  -3   7  -2    3.18    0.60
   3   7   2    2.43    0.68
   3   7   2    1.34    0.62
  -3   7  -2    2.34    0.79
   3   7   2    2.05    0.57
  -3   7  -2    3.50    0.67
   3   7   2    3.56    0.61
   3   7   2    2.38    0.58
  -3   7  -2    2.63    0.67
   4  -7   2    0.48    0.80
  -4  -7  -2    1.78    1.28
   4   7   2    0.04    0.46
  -4   7  -2   -0.01    0.50
   4   7   2    0.16    0.57
  -4   7  -2    0.60    0.58
   4   7   2    0.76    0.75
  -5  -7  -2    1.76    1.50
  -5   7  -2    3.00    0.80
   5   7   2    1.67    0.87
  -5   7  -2    1.78    1.08
   5   7   2    1.49    0.96
  -6  -7  -2   -1.15    1.44
   6   7   2    1.35    0.98
  -6  -8   2    1.31    1.51
   6   8  -2    1.05    0.79
  -5  -8   2    1.40    0.99
   5  -8  -2    1.73    1.25
  -5  -8   2    0.41    1.26
  -5   8   2    1.08    0.91
  -4  -8   2    2.60    0.86
   4  -8  -2    2.75    1.25
  -4  -8   2    3.21    1.03
  -4   8   2    4.01    0.83
  -4   8   2    1.86    1.04
  -4   8   2    2.97    0.88
   4   8  -2    2.73    0.77
  -4   8   2    2.45    0.97
  -3  -8   2   14.48    1.78
   3  -8  -2   15.26    2.14
  -3  -8   2   14.27    1.49
  -3   8   2   16.69    1.63
  -3   8   2   16.65    1.37
  -3   8   2   16.01    1.76
   3   8  -2   17.34    1.63
   3   8  -2   15.32    1.34
  -3   8   2   17.53    1.37
  -3   8   2   16.54    1.68
   3   8  -2   16.82    1.44
  -2  -8   2    5.26    1.13
   2  -8  -2    6.57    1.41
  -2   8   2    5.61    0.79
  -2   8   2    6.36    1.04
   2   8  -2    4.76    0.97
   2   8  -2    5.44    0.81
   2   8  -2    6.12    0.70
  -2   8   2    4.60    0.87
   2   8  -2    5.20    0.75
  -2   8   2    3.59    1.03
   2   8  -2    4.68    0.67
   2   8  -2    6.39    0.84
  -2   8   2    6.35    0.74
  -1  -8   2   16.44    1.59
   1  -8  -2   16.94    1.90
  -1  -8   2   15.99    2.01
   1   8  -2   16.13    1.27
   1   8  -2   16.19    1.26
   1   8  -2   15.28    1.42
   1   8  -2   17.55    1.32
   1   8  -2   13.95    1.34
  -1   8   2   17.11    1.29
   1   8  -2   13.27    1.45
  -1   8   2   17.11    1.20
  -1   8   2   16.44    1.57
   1   8  -2   15.34    1.22
  -1   8   2   16.78    1.58
   0  -8   2    9.91    1.48
   0  -8   2    9.37    1.18
   0  -8  -2   11.33    1.11
   0  -8  -2    7.49    1.47
   0   8  -2    9.31    0.89
   0   8   2    6.01    0.92
   0   8  -2    9.26    0.89
   0   8   2    8.88    0.84
   0   8  -2    7.59    1.06
   0   8   2    7.93    1.02
   0   8   2    8.19    0.99
   0   8  -2    8.68    0.92
   0   8  -2    7.22    1.02
   0   8   2    8.89    0.99
   1  -8   2   37.28    3.13
  -1  -8  -2   35.34    3.55
  -1  -8  -2   37.15    3.16
   1  -8   2   37.99    3.50
   1   8   2   44.42    2.93
  -1   8  -2   41.07    2.56
   1   8   2   44.00    2.57
   1   8   2   39.22    2.72
  -1   8  -2   41.58    2.62
   1   8   2   44.27    2.87
  -1   8  -2   36.97    2.97
  -1   8  -2   40.10    2.71
   1   8   2   34.48    2.76
   1   8   2   38.77    2.71
  -2  -8  -2   33.92    3.27
  -2  -8  -2   31.14    2.86
  -2  -8  -2   38.18    3.71
   2  -8   2   34.18    2.81
   2  -8   2   30.94    3.13
   2   8   2   34.63    2.46
  -2   8  -2   33.01    2.82
   2   8   2   34.94    2.56
   2   8   2   35.17    2.61
  -2   8  -2   37.40    2.32
  -2   8  -2   39.42    2.43
   2   8   2   36.66    2.56
  -2   8  -2   35.82    2.45
   2   8   2   32.70    2.50
   2   8   2   39.61    2.77
  -3  -8  -2   32.30    3.09
   3  -8   2   36.91    3.29
  -3  -8  -2   35.76    3.77
  -3  -8  -2   38.41    3.36
   3   8   2   35.95    2.59
   3   8   2   33.74    2.30
   3   8   2   34.98    2.56
   3   8   2   36.87    2.84
  -3   8  -2   35.28    2.51
  -3   8  -2   33.60    2.43
  -3   8  -2   33.50    2.85
  -4  -8  -2   10.01    2.06
   4  -8   2   11.41    1.57
  -4   8  -2    8.06    1.15
  -4   8  -2    9.83    1.13
   4   8   2    7.86    1.01
   4   8   2    8.98    1.30
  -5  -8  -2   22.86    3.24
   5   8   2   23.22    2.04
  -6  -8  -2   13.78    2.73
   5  -9  -2    4.65    1.61
  -5  -9   2    5.70    1.43
  -5   9   2    4.99    1.27
   4  -9  -2   16.47    2.30
  -4  -9   2   13.51    1.91
  -4   9   2   15.74    1.85
  -4   9   2   16.07    1.64
  -4   9   2   14.97    1.48
   3  -9  -2   11.64    1.99
  -3  -9   2   10.18    1.53
  -3   9   2   12.86    1.53
  -3   9   2    9.94    1.35
  -3   9   2   13.62    1.35
   3   9  -2   11.79    1.26
   3   9  -2   10.51    1.43
  -3   9   2   11.71    1.60
  -3   9   2   12.04    1.19
   2  -9  -2   15.04    2.42
  -2  -9   2   15.95    2.12
  -2   9   2   20.89    1.89
  -2   9   2   21.29    1.66
  -2   9   2   21.42    2.00
   2   9  -2   22.67    1.74
  -2   9   2   21.93    1.96
   2   9  -2   20.89    2.02
   2   9  -2   21.39    1.69
  -1  -9   2   24.08    2.31
   1  -9  -2   18.98    2.28
  -1  -9   2   18.37    2.04
   1   9  -2   20.30    1.87
   1   9  -2   20.75    1.58
  -1   9   2   20.80    1.91
  -1   9   2   21.08    1.57
  -1   9   2   17.87    1.73
  -1   9   2   17.55    2.00
   1   9  -2   22.17    1.78
   1   9  -2   19.47    1.49
   0  -9  -2    3.52    1.40
   0  -9   2    5.77    1.39
   0  -9   2    4.49    1.02
   0   9  -2    4.09    0.92
   0   9  -2    5.92    0.79
   0   9   2    4.80    1.12
   0   9  -2    5.72    0.78
   0   9   2    5.68    0.90
   0   9   2    6.55    0.95
   0   9   2    5.38    0.91
   0   9   2    6.51    0.93
  -1  -9  -2   12.01    1.82
   1  -9   2   10.14    1.61
  -1  -9  -2    9.46    1.23
   1  -9   2   10.66    1.23
   1   9   2    5.89    1.20
  -1   9  -2    7.10    0.92
   1   9   2    6.75    1.08
   1   9   2    5.75    0.94
   1   9   2    6.71    1.02
   1   9   2    7.56    0.98
   1   9   2    5.64    0.96
   1   9   2    6.03    0.98
  -1   9  -2    7.12    0.92
  -1   9  -2    6.16    1.26
  -2  -9  -2    5.97    1.37
  -2  -9  -2    6.04    1.23
   2  -9   2    7.61    1.46
   2   9   2    6.44    1.21
  -2   9  -2    8.04    0.99
  -2   9  -2    8.19    0.97
   2   9   2    7.11    1.06
  -2   9  -2    6.64    0.95
   2   9   2    7.21    1.04
   2   9   2    6.66    1.04
   2   9   2    6.02    0.97
   2   9   2    6.83    1.04
   2   9   2    7.75    1.13
  -2   9  -2    8.73    1.20
   3  -9   2    2.42    1.21
  -3  -9  -2    4.50    1.04
  -3  -9  -2    4.61    1.69
  -3   9  -2    3.97    0.86
  -3   9  -2    5.76    0.97
   3   9   2    5.27    0.92
   3   9   2    3.64    0.85
   3   9   2    4.13    1.04
  -3   9  -2    5.95    1.06
  -3   9  -2    3.52    0.94
  -4  -9  -2    4.70    1.82
   4   9   2    3.24    0.93
  -5  -9  -2    2.16    1.79
   5   9   2    2.11    1.00
   5 -10  -2    0.00    1.52
   4 -10  -2    5.34    1.79
  -4 -10   2    2.83    1.50
  -4  10   2    5.54    1.46
   3 -10  -2    1.73    1.48
  -3 -10   2    1.02    0.92
  -3  10   2    0.39    1.16
   3  10  -2    0.72    0.97
  -3  10   2    1.55    0.66
   2 -10  -2   10.22    1.77
  -2 -10   2   10.31    1.59
  -2  10   2    9.27    1.31
  -2  10   2    5.68    1.49
   2  10  -2    7.34    1.44
  -2  10   2    9.80    1.45
  -1 -10   2    7.52    1.62
   1 -10  -2    8.84    1.75
  -1 -10   2    7.84    1.51
  -1  10   2   13.47    1.57
  -1  10   2   11.97    1.49
  -1  10   2   12.34    1.53
   1  10  -2   11.86    1.48
   1  10  -2   12.45    1.31
   0 -10  -2    9.09    1.70
   0 -10   2   10.05    1.85
   0 -10   2    8.09    1.37
   0  10   2   11.57    1.31
   0  10   2   10.01    1.59
   0  10  -2    7.93    1.37
   0  10  -2    9.39    1.08
   1 -10   2    7.93    1.65
  -1 -10  -2    8.69    1.62
   1  10   2    4.35    1.06
   1  10   2    6.74    1.06
  -1  10  -2    5.53    1.02
   1  10   2    6.48    1.34
   1  10   2    6.17    1.01
   1  10   2    6.63    1.17
  -1  10  -2    7.86    1.00
  -1  10  -2    6.12    1.39
  -2 -10  -2   21.79    2.33
   2 -10   2   23.73    2.69
  -2 -10  -2   23.77    2.66
   2  10   2   22.97    2.26
  -2  10  -2   22.35    1.82
   2  10   2   20.98    1.96
   2  10   2   23.81    2.02
  -2  10  -2   22.34    1.85
  -2  10  -2   19.74    2.20
   2  10   2   19.81    1.88
   3 -10   2   16.09    2.21
   3  10   2   12.98    1.59
   3  10   2   12.94    1.78
   3  10   2   16.12    1.60
   3  10   2   11.96    1.54
   3  10   2   16.77    1.82
   3  10   2   14.61    1.46
   4  10   2    6.81    1.20
   3 -11  -2   14.96    2.25
  -3 -11   2   14.38    2.13
  -3  11   2    8.73    1.87
  -2 -11   2    4.90    1.42
   2 -11  -2    4.27    1.48
  -2  11   2    5.17    1.33
   2  11  -2    3.57    1.33
  -2  11   2    3.85    1.21
  -1 -11   2    4.96    1.35
   1 -11  -2    4.74    1.85
   1  11  -2    6.10    1.27
  -1  11   2    6.08    1.32
  -1  11   2    5.78    1.39
   0 -11  -2   13.03    2.06
   0 -11   2   13.55    1.97
   0  11  -2    8.44    1.46
   0  11   2    6.06    1.62
   0  11   2    7.63    1.42
  -1 -11  -2    2.42    1.61
   1 -11   2    1.58    1.13
   1  11   2    1.57    1.05
   1  11   2    1.86    0.99
  -1  11  -2   -0.41    1.25
   2 -11   2    2.99    1.51
  -2 -11  -2    3.59    1.43
   2  11   2    3.85    1.41
  -2  11  -2    4.12    1.42
   2  11   2    3.64    1.05
   3 -11   2    3.00    1.22
   3  11   2    0.04    0.91
   3  11   2    1.03    1.21
   0  12   2    4.00    1.36
   1 -12   2    7.15    2.02
   1  12   2    6.80    1.39
  -8   0   3    3.69    1.87
   7   0  -3    4.81    1.18
   7   0  -3    3.17    0.81
   7   0  -3    3.61    0.84
  -7   0   3    3.20    1.20
   6   0  -3    2.14    0.63
  -6   0   3    3.57    1.23
   6   0  -3    2.44    0.87
   6   0  -3    4.00    0.66
  -5   0   3    4.35    0.76
   5   0  -3    4.00    0.68
   5   0  -3    4.63    0.61
  -5   0   3    4.26    0.66
   5   0  -3    4.54    0.61
  -4   0   3    0.16    0.36
   4   0  -3    0.34    0.28
   4   0  -3   -0.37    0.29
  -4   0   3   -0.02    0.30
  -3   0   3  112.82    7.40
  -3   0   3  102.95    7.43
  -3   0   3  114.36    6.65
  -3   0   3  116.53    6.65
  -3   0   3  110.14    7.24
  -3   0   3  116.02    6.77
   3   0  -3  102.36    7.11
   3   0  -3  109.74    7.66
  -3   0   3  110.81    7.88
  -3   0   3  114.80    6.72
   2   0  -3    2.33    0.36
  -2   0   3    2.56    0.33
   2   0  -3    2.32    0.32
  -2   0   3    2.21    0.34
  -2   0   3    2.60    0.29
  -2   0   3    2.41    0.34
   2   0  -3    2.36    0.38
  -2   0   3    2.74    0.34
  -1   0   3   26.24    1.68
  -1   0   3   28.19    1.94
  -1   0   3   28.64    1.80
  -1   0   3   25.08    1.89
  -1   0   3   26.27    1.82
  -1   0   3   28.36    1.86
  -1   0   3   28.36    1.73
   1   0  -3   25.79    1.79
   1   0  -3   26.00    1.93
  -1   0   3   28.87    1.97
   1   0  -3   28.52    1.91
   0   0  -3   53.06    3.33
   0   0   3   52.99    3.27
   0   0   3   58.06    3.45
   0   0  -3   53.87    3.62
   0   0   3   49.98    3.32
   0   0  -3   54.04    3.20
   0   0  -3   54.71    3.27
   0   0  -3   53.95    3.33
   0   0   3   57.14    3.21
   0   0  -3   53.39    3.45
   0   0  -3   51.26    3.25
   0   0   3   51.27    3.25
   0   0  -3   52.81    3.39
   0   0   3   55.46    3.63
   0   0   3   51.88    3.54
   0   0  -3   56.35    4.29
   0   0   3   51.87    3.33
   0   0   3   50.80    3.29
   0   0   3   50.45    3.40
   0   0   3   57.27    3.27
   0   0  -3   54.80    3.29
  -1   0  -3  241.38   14.07
  -1   0  -3  240.74   18.39
  -1   0  -3  222.69   14.25
  -1   0  -3  224.93   15.11
   1   0   3  233.86   15.12
  -1   0  -3  236.54   15.44
   1   0   3  232.11   14.07
  -1   0  -3  231.54   14.19
  -1   0  -3  229.18   13.73
   1   0   3  247.87   13.78
  -1   0  -3  222.00   13.96
   1   0   3  246.17   14.77
   1   0   3  226.34   13.97
   1   0   3  243.19   13.73
  -1   0  -3  233.30   13.90
  -1   0  -3  224.05   13.78
   1   0   3  228.68   13.90
   1   0   3  248.03   13.18
   1   0   3  226.83   14.25
   1   0   3  232.04   14.52
  -1   0  -3  240.64   14.52
  -1   0  -3  232.86   13.17
   1   0   3  243.10   14.20
   2   0   3  111.10    6.15
  -2   0  -3  109.37    6.44
   2   0   3  104.30    6.68
   2   0   3  108.42    6.51
   2   0   3  112.06    6.64
   2   0   3  101.79    7.44
  -2   0  -3  107.92    6.42
   2   0   3  104.04    6.79
   2   0   3  110.14    6.55
  -2   0  -3  113.61    8.64
  -2   0  -3  105.86    6.15
   2   0   3  105.64    7.07
   2   0   3  112.86    6.43
   2   0   3  107.91    6.59
  -3   0  -3  126.91   10.40
   3   0   3  125.30    8.50
   3   0   3  133.66    7.98
   3   0   3  129.07    8.03
   3   0   3  131.20    7.87
  -3   0  -3  129.60    7.42
   3   0   3  130.50    7.92
   3   0   3  134.07    8.18
   3   0   3  130.93    7.83
   3   0   3  131.63    8.97
  -3   0  -3  125.87    7.76
   4   0   3   53.31    3.50
   4   0   3   55.32    3.39
   4   0   3   53.02    3.68
   4   0   3   53.20    3.39
   4   0   3   53.94    3.53
   4   0   3   54.82    3.45
   4   0   3   53.56    3.87
  -4   0  -3   52.44    4.55
  -4   0  -3   52.52    3.21
  -4   0  -3   50.06    3.35
   4   0   3   55.77    3.45
   5   0   3   27.68    1.93
   5   0   3   27.35    2.27
  -5   0  -3   28.03    1.88
   5   0   3   26.97    2.05
   5   0   3   25.79    1.94
  -5   0  -3   25.97    2.64
   5   0   3   26.48    1.95
   5   0   3   25.44    1.95
   5   0   3   29.59    2.07
   5   0   3   25.78    2.13
  -5   0  -3   28.09    1.91
   6   0   3   26.51    2.35
   6   0   3   25.34    2.01
   6   0   3   24.59    2.10
   6   0   3   24.55    1.92
   6   0   3   27.01    1.98
   6   0   3   25.30    2.10
   6   0   3   26.57    2.21
   6   0   3   26.79    1.99
  -6   0  -3   23.37    2.70
   7   0   3   29.10    2.64
   7   0   3   29.40    2.62
  -7   0  -3   23.71    3.39
   7   0   3   32.61    2.53
   7   0   3   28.53    2.35
   7   0   3   31.28    2.38
   7   0   3   31.08    2.32
  -8   0  -3    8.41    1.93
  -8  -1   3    2.07    1.68
  -8   1   3    5.99    2.01
   7  -1  -3   12.16    1.68
  -7  -1   3   10.47    2.04
   7   1  -3   12.92    1.55
   7   1  -3   13.24    1.35
  -7   1   3   15.62    2.10
   7   1  -3   13.78    1.69
  -6  -1   3   49.32    3.87
   6  -1  -3   52.01    4.03
  -6  -1   3   52.13    4.77
   6  -1  -3   58.78    3.25
   6   1  -3   51.47    3.72
  -6   1   3   47.95    3.78
   6   1  -3   55.38    3.49
   6   1  -3   49.41    3.94
   6   1  -3   58.22    3.30
  -5  -1   3   42.41    2.90
  -5  -1   3   42.79    3.64
   5  -1  -3   39.71    3.06
  -5  -1   3   38.89    2.99
   5  -1  -3   43.51    2.48
   5   1  -3   37.93    3.05
   5   1  -3   39.94    2.66
  -5   1   3   42.27    2.97
   5   1  -3   41.94    2.55
   5   1  -3   38.16    2.83
  -4  -1   3   55.62    4.23
   4  -1  -3   54.01    4.09
  -4  -1   3   53.28    3.95
  -4  -1   3   59.81    3.53
   4  -1  -3   60.38    3.31
  -4  -1   3   56.49    3.88
  -4  -1   3   53.02    3.90
  -4  -1   3   57.01    3.47
   4   1  -3   56.41    4.09
   4   1  -3   60.39    3.58
   4   1  -3   58.68    3.81
  -4   1   3   60.67    3.95
  -4   1   3   54.08    3.94
  -3  -1   3  103.38    6.12
  -3  -1   3   98.73    5.95
  -3  -1   3   98.15    7.00
  -3  -1   3   95.50    5.85
  -3  -1   3   98.49    5.85
  -3  -1   3   98.48    6.01
   3  -1  -3   90.74    6.78
  -3  -1   3   90.74    6.53
  -3  -1   3   94.33    6.40
  -3  -1   3   92.83    6.56
  -3  -1   3   98.51    5.91
  -3   1   3  101.33    6.60
  -3   1   3  107.79    5.95
   3   1  -3   99.85    6.31
   3   1  -3   98.05    6.78
  -3   1   3   97.92    6.52
  -3   1   3   96.13    6.40
   3   1  -3  101.64    6.01
  -2  -1   3  158.68    9.88
  -2  -1   3  162.59   10.57
  -2  -1   3  149.93    9.67
   2  -1  -3  147.43   10.25
  -2  -1   3  160.91    9.12
  -2  -1   3  146.39    9.96
  -2  -1   3  164.73    9.29
   2  -1  -3  150.55    9.51
  -2  -1   3  161.83    8.99
  -2  -1   3  160.65    8.88
   2   1  -3  131.51   10.23
   2   1  -3  132.53    9.51
  -2   1   3  149.80   10.50
   2   1  -3  150.31    9.96
  -2   1   3  141.68    9.64
  -2   1   3  150.93    9.17
  -2   1   3  137.24    9.98
  -2   1   3  142.30    9.84
  -1  -1   3  111.07    7.29
  -1  -1   3  108.91    7.40
  -1  -1   3  113.01    7.83
  -1  -1   3  100.71    7.12
  -1  -1   3  103.45    6.83
   1  -1  -3   98.56    7.84
   1  -1  -3  116.62    6.81
  -1  -1   3  106.61    8.08
  -1  -1   3  111.95    7.55
  -1  -1   3  100.84    6.80
  -1  -1   3   99.07    6.96
   1  -1  -3  107.51    7.65
   1  -1  -3  102.82    7.26
  -1  -1   3  100.61    7.63
   1   1  -3  123.96    7.83
   1   1  -3  131.96    7.66
  -1   1   3  134.55    7.28
   1   1  -3  131.87    6.98
   1   1  -3  122.91    6.84
  -1   1   3  127.60    7.66
   1   1  -3  130.57    6.81
   1   1  -3  128.26    7.30
  -1   1   3  134.49    7.37
   0  -1  -3  325.70   17.75
   0  -1  -3  314.97   17.46
   0  -1  -3  292.75   23.00
   0  -1   3  284.86   17.53
   0  -1  -3  291.45   18.42
   0  -1   3  270.74   17.40
   0  -1   3  307.75   18.46
   0  -1  -3  304.59   19.32
   0  -1   3  318.58   17.19
   0  -1   3  289.62   18.10
   0  -1   3  287.40   18.87
   0  -1  -3  294.83   17.13
   0  -1   3  280.00   17.69
   0  -1   3  293.39   17.76
   0  -1   3  302.10   17.32
   0  -1   3  281.61   19.31
   0   1   3  312.05   18.43
   0   1  -3  323.40   22.99
   0   1  -3  304.14   18.11
   0   1  -3  287.17   19.31
   0   1  -3  291.14   17.53
   0   1   3  288.64   17.45
   0   1   3  285.52   17.58
   0   1   3  302.58   18.78
   0   1  -3  275.37   18.45
   0   1   3  277.89   17.37
   0   1  -3  276.37   16.48
   0   1   3  294.75   17.74
   0   1  -3  290.91   17.32
   0   1  -3  289.56   17.76
   0   1   3  292.85   17.55
   0   1  -3  284.79   17.18
   0   1   3  277.25   19.32
   0   1  -3  294.59   17.70
   0   1   3  291.99   17.13
   0   1   3  275.34   18.15
   0   1  -3  288.81   17.41
   0   1  -3  296.99   18.87
  -1  -1  -3   61.72    4.03
  -1  -1  -3   63.83    3.87
  -1  -1  -3   64.95    4.07
  -1  -1  -3   68.01    4.17
   1  -1   3   73.04    3.93
   1  -1   3   68.92    4.04
  -1  -1  -3   69.11    4.32
   1  -1   3   67.76    3.98
  -1  -1  -3   73.45    5.06
   1  -1   3   65.65    4.00
  -1  -1  -3   64.26    4.09
   1  -1   3   65.48    4.50
   1  -1   3   72.43    3.76
  -1  -1  -3   65.00    3.98
   1  -1   3   73.02    3.93
  -1  -1  -3   64.71    4.01
   1  -1   3   69.76    4.21
   1  -1   3   62.23    4.04
   1  -1   3   63.46    4.13
   1  -1   3   67.00    3.96
  -1  -1  -3   65.79    3.87
  -1  -1  -3   67.43    3.70
  -1  -1  -3   68.23    5.29
  -1  -1  -3   67.35    4.38
   1  -1   3   64.95    4.29
  -1   1  -3   71.00    5.02
   1   1   3   61.39    4.16
  -1   1  -3   69.49    5.21
   1   1   3   61.98    4.01
   1   1   3   60.67    4.06
  -1   1  -3   62.90    4.00
  -1   1  -3   63.53    4.21
  -1   1  -3   63.04    4.03
  -1   1  -3   60.98    3.92
  -1   1  -3   64.73    4.05
   1   1   3   63.13    3.86
  -1   1  -3   61.34    3.91
   1   1   3   60.23    4.03
  -1   1  -3   73.55    3.99
   1   1   3   65.43    3.70
   1   1   3   59.86    3.98
  -1   1  -3   61.57    3.75
  -1   1  -3   64.49    4.12
   1   1   3   64.41    4.31
   1   1   3   65.31    3.88
   1   1   3   64.91    4.18
   1   1   3   62.73    4.37
  -1   1  -3   63.07    4.29
  -1   1  -3   62.39    3.95
   1   1   3   59.43    4.08
  -2  -1  -3   86.72    5.12
   2  -1   3   87.08    5.58
   2  -1   3   81.85    5.54
  -2  -1  -3   88.14    5.99
   2  -1   3   86.62    5.47
   2  -1   3   82.99    5.67
   2  -1   3   87.86    5.44
  -2  -1  -3   86.51    7.25
   2  -1   3   81.74    6.19
   2  -1   3   80.49    5.50
  -2  -1  -3   84.90    5.35
   2  -1   3   83.74    5.91
   2   1   3   88.95    5.46
   2   1   3   94.98    5.50
   2   1   3   88.09    5.90
   2   1   3   94.46    5.53
  -2   1  -3   92.92    5.39
  -2   1  -3   91.36    5.40
   2   1   3   97.64    5.57
  -2   1  -3   90.86    5.16
   2   1   3   99.28    5.12
   2   1   3   96.66    5.36
  -2   1  -3  101.37    7.22
   2   1   3   90.00    6.24
   2   1   3   93.18    5.61
   2   1   3   99.72    5.36
   2   1   3   92.39    5.12
   2   1   3   92.48    5.70
   3  -1   3   38.67    2.34
   3  -1   3   34.18    2.35
  -3  -1  -3   35.93    2.12
   3  -1   3   36.83    2.30
   3  -1   3   39.37    2.33
   3  -1   3   35.44    2.56
   3  -1   3   36.93    2.37
   3  -1   3   36.50    2.29
  -3  -1  -3   37.64    3.13
  -3  -1  -3   35.59    2.22
   3  -1   3   37.41    2.46
  -3   1  -3   35.92    2.15
   3   1   3   32.58    2.25
   3   1   3   35.10    2.31
   3   1   3   34.97    2.36
   3   1   3   35.67    2.29
   3   1   3   32.94    2.30
   3   1   3   33.29    2.43
  -3   1  -3   34.88    2.26
   3   1   3   32.95    2.59
   3   1   3   32.82    2.13
   3   1   3   32.11    2.34
  -3   1  -3   33.14    2.23
  -3   1  -3   36.67    3.07
  -4  -1  -3    6.23    1.15
   4  -1   3    6.39    0.83
   4  -1   3    5.61    0.70
   4  -1   3    5.46    0.72
   4  -1   3    6.08    0.75
  -4  -1  -3    6.10    0.68
   4  -1   3    5.77    0.73
   4  -1   3    6.00    0.70
   4  -1   3    6.64    0.72
  -4  -1  -3    6.65    0.73
   4  -1   3    6.56    0.86
   4   1   3    7.28    0.72
   4   1   3    7.83    0.80
   4   1   3    9.21    0.77
   4   1   3    7.92    0.76
   4   1   3    7.87    0.78
  -4   1  -3    7.89    0.79
   4   1   3    7.24    0.93
   4   1   3    6.99    0.75
  -4   1  -3    9.00    1.12
   4   1   3    6.83    0.73
  -4   1  -3    8.46    0.71
   5  -1   3    9.34    0.98
  -5  -1  -3    9.85    1.56
   5  -1   3   11.35    1.13
   5  -1   3   10.28    1.03
   5  -1   3   10.52    0.96
   5  -1   3   12.38    1.22
   5  -1   3   12.61    1.08
   5  -1   3   10.21    1.04
   5  -1   3   10.88    1.15
  -5   1  -3    8.16    1.00
   5   1   3    9.34    0.99
   5   1   3    7.99    0.92
   5   1   3    7.83    0.94
   5   1   3    8.66    0.99
   5   1   3    7.51    0.90
   5   1   3    7.39    0.93
  -5   1  -3    7.27    1.43
   5   1   3    8.52    0.95
   5   1   3    8.93    1.18
  -5   1  -3    8.02    0.89
   6  -1   3    8.66    1.16
   6  -1   3    9.75    1.35
   6  -1   3    9.24    1.27
   6  -1   3    9.01    1.12
   6  -1   3    8.99    1.15
   6  -1   3    9.09    1.12
  -6  -1  -3    8.10    1.74
   6  -1   3   10.44    1.22
   6   1   3   11.19    1.07
   6   1   3   10.52    1.13
   6   1   3   10.47    1.10
   6   1   3    9.95    1.20
   6   1   3    9.65    1.38
   6   1   3    9.91    1.09
  -6   1  -3    8.98    1.09
  -6   1  -3   10.27    1.18
   6   1   3   10.63    1.18
  -6   1  -3    9.87    1.75
   6   1   3    9.59    1.23
   7  -1   3    0.20    0.76
   7  -1   3    0.50    1.04
  -7  -1  -3   -0.22    1.41
   7  -1   3   -0.28    0.84
   7  -1   3    0.63    0.78
   7  -1   3   -0.65    0.56
   7  -1   3   -1.07    0.55
   7   1   3   -0.62    0.74
   7   1   3   -0.56    0.78
   7   1   3    1.40    0.82
   7   1   3   -0.30    0.87
   7   1   3    0.16    0.65
  -7   1  -3   -0.37    1.39
  -8  -1  -3   -1.12    1.69
  -8   1  -3   -0.33    1.67
  -8  -2   3    4.28    1.79
  -8   2   3    1.95    1.36
   8   2  -3    2.41    1.00
  -7  -2   3    1.20    1.29
   7  -2  -3    0.17    0.98
   7   2  -3    2.07    0.95
   7   2  -3    1.22    0.82
   7   2  -3    1.72    0.82
  -6  -2   3    5.22    1.28
  -6  -2   3    6.11    1.02
   6  -2  -3    5.24    0.88
   6   2  -3    4.18    0.64
  -6   2   3    4.02    0.86
   6   2  -3    5.18    0.74
   6   2  -3    1.96    0.90
   6   2  -3    4.10    0.77
   5  -2  -3    1.50    0.55
  -5  -2   3    1.74    0.76
  -5  -2   3    2.22    0.74
  -5  -2   3    1.66    0.76
   5   2  -3    1.58    0.66
   5   2  -3    1.78    0.40
   5   2  -3    2.12    0.52
  -5   2   3    2.25    0.63
  -4  -2   3    0.19    0.22
  -4  -2   3    0.30    0.16
   4  -2  -3    0.10    0.32
  -4  -2   3    0.37    0.22
  -4  -2   3   -0.17    0.50
  -4  -2   3    0.22    0.28
  -4  -2   3    0.33    0.42
  -4  -2   3    0.42    0.53
  -4  -2   3    0.14    0.16
  -4  -2   3    0.11    0.26
  -4  -2   3    0.17    0.50
  -4   2   3    0.67    0.43
   4   2  -3    0.36    0.45
   4   2  -3    0.55    0.23
  -4   2   3    0.00    0.41
   4   2  -3    0.38    0.43
  -3  -2   3    3.04    0.56
  -3  -2   3    2.89    0.30
   3  -2  -3    2.57    0.43
  -3  -2   3    2.88    0.28
  -3  -2   3    2.88    0.28
  -3  -2   3    2.19    0.45
  -3  -2   3    3.31    0.56
  -3  -2   3    2.53    0.37
  -3  -2   3    2.82    0.32
   3  -2  -3    3.20    0.29
  -3  -2   3    2.27    0.45
  -3  -2   3    2.44    0.33
  -3   2   3    3.32    0.48
   3   2  -3    2.97    0.30
  -3   2   3    3.40    0.42
   3   2  -3    3.94    0.43
  -3   2   3    2.90    0.37
  -3   2   3    2.38    0.49
   3   2  -3    3.79    0.46
   3   2  -3    3.43    0.50
  -2  -2   3   28.67    2.04
  -2  -2   3   31.64    2.25
  -2  -2   3   30.50    1.97
   2  -2  -3   27.80    2.16
  -2  -2   3   29.85    2.09
   2  -2  -3   34.28    2.08
  -2  -2   3   31.17    1.84
  -2  -2   3   34.27    2.49
  -2  -2   3   27.49    2.06
   2   2  -3   26.62    2.12
  -2   2   3   27.79    2.13
  -2   2   3   28.33    2.03
  -2   2   3   25.93    1.87
   2   2  -3   27.73    2.00
   2   2  -3   31.10    2.09
  -1  -2   3    6.09    0.59
  -1  -2   3    6.18    0.51
  -1  -2   3    6.71    0.49
  -1  -2   3    5.81    0.35
  -1  -2   3    6.35    0.51
  -1  -2   3    6.25    0.38
   1  -2  -3    6.34    0.53
  -1  -2   3    6.21    0.43
   1  -2  -3    6.87    0.44
   1  -2  -3    6.19    0.41
  -1  -2   3    6.49    0.47
   1  -2  -3    5.47    0.40
   1   2  -3    4.38    0.38
   1   2  -3    4.53    0.44
   1   2  -3    4.33    0.48
  -1   2   3    5.02    0.39
  -1   2   3    4.67    0.41
  -1   2   3    4.89    0.40
   1   2  -3    4.47    0.35
  -1   2   3    5.11    0.50
   1   2  -3    4.59    0.36
  -1   2   3    5.78    0.52
   1   2  -3    4.20    0.48
   1   2  -3    4.10    0.49
   1   2  -3    4.56    0.34
  -1   2   3    5.59    0.41
   0  -2   3   90.68    5.96
   0  -2  -3   86.20    5.76
   0  -2   3   95.81    6.93
   0  -2   3   92.35    5.82
   0  -2   3   99.43    5.83
   0  -2  -3   98.07    5.50
   0  -2  -3   97.77    5.72
   0  -2   3   89.82    5.89
   0  -2   3   88.85    5.95
   0  -2   3   91.82    6.08
   0  -2   3   90.13    5.86
   0  -2  -3   94.88    6.17
   0  -2  -3   97.08    7.59
   0  -2   3   88.12    6.34
   0  -2   3   94.62    6.24
   0  -2  -3   87.94    7.83
   0  -2  -3   99.23    6.53
   0   2   3  101.28    5.95
   0   2   3  102.16    6.36
   0   2  -3  103.79    6.35
   0   2   3  105.28    5.76
   0   2  -3   96.87    6.25
   0   2  -3  102.38    5.83
   0   2  -3   95.98    5.85
   0   2   3  103.79    6.18
   0   2  -3   98.07    5.90
   0   2  -3  103.21    5.97
   0   2  -3  102.12    6.53
   0   2   3  100.79    6.53
   0   2   3   96.75    6.02
   0   2  -3   97.31    5.83
   0   2  -3   95.91    5.59
   0   2   3  105.73    5.94
   0   2  -3  100.78    5.96
   0   2  -3  110.51    7.65
   0   2  -3  101.41    5.87
   0   2  -3  104.11    6.09
   0   2   3  109.16    5.90
   1  -2   3   72.65    5.68
   1  -2   3   74.95    6.70
  -1  -2  -3   80.05    6.75
   1  -2   3   82.83    5.60
   1  -2   3   72.54    5.34
   1  -2   3   72.95    5.29
  -1  -2  -3   78.78    5.39
   1  -2   3   74.74    5.94
  -1  -2  -3   71.48    7.00
  -1  -2  -3   76.52    5.79
   1  -2   3   73.06    5.46
   1   2   3   96.90    5.74
   1   2   3   97.26    5.82
  -1   2  -3   93.53    5.22
   1   2   3   92.40    4.89
   1   2   3   89.89    5.37
  -1   2  -3   96.41    5.32
  -1   2  -3   94.04    5.01
   1   2   3   85.45    5.30
   1   2   3   90.30    5.41
  -1   2  -3   94.93    5.25
   1   2   3   85.44    5.53
   1   2   3   95.15    4.93
   1   2   3   94.83    5.45
  -1   2  -3  101.56    5.38
  -1   2  -3   96.29    5.48
  -1   2  -3   93.39    5.70
   1   2   3   93.77    5.34
  -1   2  -3   96.73    5.60
  -1   2  -3   95.01    5.25
   1   2   3   96.45    5.12
   2  -2   3  125.66    7.06
   2  -2   3  129.66    7.01
  -2  -2  -3  124.52    9.31
   2  -2   3  127.43    7.13
   2  -2   3  136.05    7.94
   2  -2   3  128.26    6.98
  -2  -2  -3  130.92    7.68
   2  -2   3  127.57    7.29
  -2  -2  -3  133.07    8.94
   2  -2   3  125.97    7.15
   2  -2   3  128.41    7.59
   2   2   3  109.66    6.99
  -2   2  -3  106.98    6.92
   2   2   3   98.35    7.97
   2   2   3  114.90    6.84
   2   2   3  104.32    7.06
   2   2   3  108.52    7.03
   2   2   3  111.50    6.83
   2   2   3  103.56    7.54
  -2   2  -3  106.07    6.89
  -2   2  -3  105.37    7.91
   2   2   3  104.18    6.53
   2   2   3  110.45    7.17
   2   2   3  103.72    7.11
   2   2   3  110.77    6.53
   2   2   3  104.66    7.28
  -2   2  -3  106.06    6.61
   3  -2   3   88.13    5.38
   3  -2   3   95.27    5.44
   3  -2   3   96.47    6.69
  -3  -2  -3   92.64    5.78
   3  -2   3   90.34    6.04
   3  -2   3   88.66    5.34
   3  -2   3   88.29    5.55
   3  -2   3   92.56    5.46
   3  -2   3   87.14    5.32
   3  -2   3   85.03    5.76
  -3  -2  -3   91.16    7.15
  -3   2  -3   80.76    5.27
  -3   2  -3   89.78    7.05
   3   2   3   77.08    6.08
   3   2   3   84.45    5.00
   3   2   3   81.89    5.53
   3   2   3   85.12    5.37
   3   2   3   83.97    5.34
  -3   2  -3   81.10    5.25
   3   2   3   86.64    5.40
   3   2   3   82.86    5.73
  -3   2  -3   83.62    5.05
   3   2   3   83.07    5.31
   3   2   3   84.77    5.46
   4  -2   3   55.00    3.65
   4  -2   3   55.56    3.62
   4  -2   3   57.53    3.73
   4  -2   3   56.58    3.76
   4  -2   3   56.44    3.63
  -4  -2  -3   54.42    4.86
   4  -2   3   53.91    3.89
   4  -2   3   55.26    3.66
   4  -2   3   63.38    4.44
   4  -2   3   56.13    4.08
  -4   2  -3   56.88    3.46
   4   2   3   59.16    3.41
   4   2   3   56.17    3.62
   4   2   3   60.84    3.89
   4   2   3   55.61    3.74
   4   2   3   55.02    3.68
  -4   2  -3   54.35    3.60
   4   2   3   55.02    3.59
   4   2   3   58.60    3.64
  -4   2  -3   57.74    4.84
   4   2   3   58.36    3.61
   4   2   3   54.01    4.12
   5  -2   3   28.83    2.45
   5  -2   3   28.85    2.31
  -5  -2  -3   26.53    3.06
   5  -2   3   28.91    2.23
   5  -2   3   27.95    2.38
   5  -2   3   29.30    2.21
   5  -2   3   28.06    2.28
   5  -2   3   31.59    2.22
   5   2   3   32.31    2.27
   5   2   3   33.50    2.15
   5   2   3   31.13    2.17
   5   2   3   29.97    2.12
   5   2   3   32.59    2.19
   5   2   3   31.45    2.49
  -5   2  -3   32.78    2.24
   5   2   3   33.79    2.22
  -5   2  -3   29.82    2.91
  -5   2  -3   29.91    2.06
   5   2   3   34.12    2.18
   5   2   3   30.40    2.32
   6  -2   3   61.05    4.44
   6  -2   3   61.96    4.64
   6  -2   3   64.63    4.51
  -6  -2  -3   53.73    5.92
   6  -2   3   66.29    5.06
   6  -2   3   58.54    4.76
   6  -2   3   65.53    4.45
   6  -2   3   65.80    4.55
   6   2   3   70.76    4.42
   6   2   3   72.82    4.42
  -6   2  -3   69.28    4.49
   6   2   3   78.44    4.82
   6   2   3   73.51    4.43
   6   2   3   70.17    4.57
   6   2   3   73.69    5.18
   6   2   3   72.97    4.61
  -6   2  -3   69.77    5.97
  -6   2  -3   74.88    4.33
   6   2   3   74.46    4.42
   7  -2   3   21.84    1.84
  -7  -2  -3   17.65    2.64
   7   2   3   13.46    1.66
  -7   2  -3   10.62    2.27
   7   2   3   15.77    1.61
   7   2   3   14.48    1.54
  -7   2  -3   13.67    1.67
  -7   2  -3   15.47    1.81
   7   2   3   17.46    1.60
  -8  -2  -3    6.50    2.20
  -8   2  -3    5.65    2.10
  -8  -3   3    3.92    1.49
  -8   3   3    4.22    2.02
   8   3  -3    7.21    1.33
  -7  -3   3    8.87    1.92
   7  -3  -3    8.77    1.44
  -7   3   3   10.54    1.41
   7   3  -3    8.78    1.29
   7   3  -3    8.39    1.11
  -6  -3   3   37.31    3.08
   6  -3  -3   41.63    3.20
  -6  -3   3   38.93    3.82
  -6   3   3   38.66    3.09
   6   3  -3   38.88    2.67
   6   3  -3   41.87    2.91
   6   3  -3   39.82    3.20
   5  -3  -3   45.02    2.96
  -5  -3   3   39.84    3.50
  -5  -3   3   42.95    2.87
  -5  -3   3   38.54    2.92
  -5  -3   3   44.48    3.21
  -5   3   3   35.95    2.54
   5   3  -3   35.99    2.44
   5   3  -3   32.24    2.64
   5   3  -3   32.76    2.83
  -5   3   3   34.96    2.84
   4  -3  -3   35.28    2.66
  -4  -3   3   39.61    2.88
  -4  -3   3   36.47    2.57
  -4  -3   3   35.45    2.68
  -4  -3   3   37.33    3.20
  -4  -3   3   35.34    2.46
  -4   3   3   36.54    2.25
   4   3  -3   34.02    2.65
   4   3  -3   36.01    2.28
  -4   3   3   35.30    2.36
  -4   3   3   35.33    2.67
   4   3  -3   33.88    2.48
  -3  -3   3  126.26    7.71
  -3  -3   3  122.78    7.80
  -3  -3   3  132.92   10.08
  -3  -3   3  118.80    8.20
  -3  -3   3  126.89    8.36
  -3  -3   3  122.41    8.38
  -3  -3   3  121.31    9.02
   3  -3  -3  119.26    8.69
  -3   3   3  134.57    7.59
  -3   3   3  120.58    8.48
  -3   3   3  130.93    7.23
   3   3  -3  127.04    8.68
  -3   3   3  133.15    7.70
   3   3  -3  128.27    8.08
  -2  -3   3  122.54    9.64
  -2  -3   3  139.92   11.58
  -2  -3   3  127.78   10.36
  -2  -3   3  123.91    9.44
   2  -3  -3  123.97   10.03
   2   3  -3  160.90    8.87
   2   3  -3  150.88    8.71
  -2   3   3  149.43    8.72
  -2   3   3  158.46    9.82
   2   3  -3  162.66    8.72
   2   3  -3  160.47    8.70
   2   3  -3  159.24    9.75
   2   3  -3  151.85    9.33
  -2   3   3  153.79    8.33
   2   3  -3  148.64   10.01
   1  -3  -3   92.21    6.49
  -1  -3   3   97.26    5.29
  -1  -3   3   98.15    5.49
   1  -3  -3   94.28    5.19
  -1  -3   3   88.72    5.89
  -1  -3   3   90.77    5.38
   1   3  -3   80.96    4.91
   1   3  -3   78.57    4.98
   1   3  -3   74.59    4.92
  -1   3   3   74.48    5.52
   1   3  -3   74.56    5.59
   1   3  -3   76.73    4.98
   1   3  -3   79.20    5.07
   1   3  -3   74.84    5.48
   1   3  -3   80.78    4.86
   1   3  -3   78.73    4.93
  -1   3   3   75.35    4.67
  -1   3   3   78.81    4.89
  -1   3   3   78.19    4.97
   1   3  -3   76.15    5.27
   0  -3  -3   85.82    4.46
   0  -3   3   81.08    4.50
   0  -3   3   79.98    4.60
   0  -3  -3   79.93    5.93
   0  -3   3   83.06    5.87
   0  -3   3   79.41    4.56
   0  -3  -3   81.21    4.24
   0  -3  -3   84.42    6.18
   0  -3   3   77.95    4.88
   0  -3  -3   83.77    5.07
   0  -3   3   75.36    4.60
   0  -3   3   85.61    4.85
   0  -3   3   78.18    5.38
   0   3   3   69.03    4.56
   0   3   3   70.14    4.91
   0   3  -3   65.87    4.50
   0   3  -3   66.88    4.82
   0   3  -3   71.03    4.59
   0   3   3   73.22    4.21
   0   3   3   68.67    4.60
   0   3   3   82.52    4.89
   0   3  -3   72.14    4.69
   0   3   3   73.64    5.05
   0   3  -3   69.74    4.54
   0   3  -3   68.36    4.49
   0   3  -3   69.15    4.33
   0   3   3   67.96    4.44
   0   3  -3   71.01    4.60
   0   3  -3   69.38    4.53
   0   3  -3   73.14    4.53
   0   3  -3   69.74    4.87
   0   3   3   75.03    4.72
  -1  -3  -3  209.39   17.11
   1  -3   3  241.57   14.64
  -1  -3  -3  246.83   14.26
   1  -3   3  224.29   13.15
   1  -3   3  232.79   13.11
   1  -3   3  214.63   12.82
  -1  -3  -3  231.69   16.61
   1  -3   3  224.99   12.90
   1  -3   3  219.61   12.98
   1  -3   3  243.62   16.55
   1  -3   3  225.19   13.40
   1  -3   3  227.45   13.95
   1   3   3  216.18   12.67
   1   3   3  210.70   12.95
   1   3   3  202.71   13.14
   1   3   3  193.81   13.97
  -1   3  -3  206.07   12.21
   1   3   3  210.36   12.61
   1   3   3  189.20   13.21
   1   3   3  214.66   14.25
  -1   3  -3  203.29   12.71
   1   3   3  211.45   12.04
   1   3   3  203.69   13.46
  -1   3  -3  200.41   12.78
   1   3   3  199.28   12.88
  -1   3  -3  211.49   13.65
   1   3   3  206.26   13.04
   2  -3   3   65.54    4.61
   2  -3   3   66.52    4.52
   2  -3   3   66.67    4.47
  -2  -3  -3   69.51    5.69
   2  -3   3   68.43    4.80
  -2  -3  -3   64.83    5.96
  -2  -3  -3   70.28    4.80
   2  -3   3   70.13    4.98
   2  -3   3   65.68    4.41
   2  -3   3   64.61    4.43
   2  -3   3   69.27    5.62
   2  -3   3   68.98    4.53
  -2   3  -3   78.85    4.99
   2   3   3   73.34    4.51
   2   3   3   78.80    4.30
  -2   3  -3   74.64    4.41
   2   3   3   75.74    4.47
   2   3   3   71.97    4.59
   2   3   3   72.83    4.56
   2   3   3   77.77    4.67
   2   3   3   76.56    4.16
   2   3   3   80.60    4.81
  -2   3  -3   75.16    4.44
   2   3   3   78.05    4.10
   2   3   3   74.14    5.10
   2   3   3   75.26    4.79
   2   3   3   75.16    4.54
  -2   3  -3   73.89    4.23
   3  -3   3   19.17    1.47
   3  -3   3   18.14    1.50
  -3  -3  -3   16.74    2.06
   3  -3   3   18.71    1.54
   3  -3   3   18.71    1.71
   3  -3   3   18.26    1.44
   3  -3   3   18.79    1.56
   3  -3   3   19.38    1.47
   3  -3   3   17.76    1.43
   3  -3   3   16.30    1.47
   3   3   3   22.55    1.69
  -3   3  -3   22.92    1.47
  -3   3  -3   21.57    1.40
   3   3   3   22.56    1.53
   3   3   3   23.44    1.55
   3   3   3   22.19    1.54
   3   3   3   21.72    1.56
   3   3   3   22.13    1.49
   3   3   3   22.22    1.52
   3   3   3   21.84    1.37
   3   3   3   23.75    1.27
  -3   3  -3   22.38    1.50
   3   3   3   23.00    1.50
   4  -3   3    5.00    0.68
   4  -3   3    6.45    0.70
   4  -3   3    5.31    0.68
   4  -3   3    4.67    0.68
   4  -3   3    6.14    0.71
   4  -3   3    5.24    0.69
  -4  -3  -3    6.24    1.23
   4  -3   3    6.06    0.76
   4  -3   3    4.33    0.69
   4   3   3    4.86    0.74
   4   3   3    5.27    0.78
   4   3   3    5.87    0.71
   4   3   3    5.83    0.72
   4   3   3    5.05    0.74
  -4   3  -3    4.49    0.67
   4   3   3    4.29    0.63
   4   3   3    4.70    0.68
   4   3   3    5.43    0.64
  -4   3  -3    5.45    0.68
   4   3   3    5.33    0.64
   5  -3   3    1.81    0.58
   5  -3   3    2.15    0.67
   5  -3   3    1.52    0.59
   5  -3   3    1.00    0.54
  -5  -3  -3    1.14    1.07
   5  -3   3    1.79    0.57
   5  -3   3    1.93    0.57
   5  -3   3    2.24    0.69
   5   3   3    1.68    0.57
  -5   3  -3    1.73    0.72
   5   3   3    1.90    0.56
  -5   3  -3    1.69    0.55
   5   3   3    1.65    0.69
   5   3   3    2.38    0.62
   5   3   3    1.91    0.49
   5   3   3    1.42    0.65
   5   3   3    1.37    0.58
   5   3   3    1.42    0.65
  -5   3  -3    1.94    0.81
   5   3   3    1.46    0.56
   6  -3   3    1.14    0.65
   6  -3   3    1.98    0.96
  -6  -3  -3    1.17    1.32
   6  -3   3    0.95    0.82
   6  -3   3    2.03    0.69
   6  -3   3    2.20    0.92
   6  -3   3    0.59    0.85
   6   3   3    1.63    0.99
  -6   3  -3    1.19    0.85
   6   3   3    1.62    0.71
   6   3   3    1.42    0.67
  -6   3  -3    1.45    0.94
  -6   3  -3    1.17    0.63
   6   3   3    2.36    0.67
   6   3   3    1.45    0.68
   6   3   3    2.66    0.87
   6   3   3    2.06    0.73
   6   3   3    2.96    0.83
  -7  -3  -3    3.60    1.39
   7  -3   3    2.50    1.13
   7   3   3    1.87    0.97
  -7   3  -3    3.48    1.60
  -8   3  -3    3.21    1.97
  -8  -4   3    1.83    1.70
   8   4  -3    3.45    1.20
   7  -4  -3    7.85    1.36
  -7  -4   3    6.42    1.77
  -7   4   3    7.50    1.34
   7   4  -3    5.89    1.01
   6  -4  -3    0.25    0.77
  -6  -4   3    0.40    1.01
  -6  -4   3    0.07    0.72
  -6  -4   3    0.00    0.94
   6   4  -3    0.35    0.56
   6   4  -3    0.37    0.60
  -6   4   3    0.33    0.81
  -6   4   3   -0.03    0.76
  -5  -4   3    1.42    0.66
  -5  -4   3    3.05    0.99
  -5  -4   3    0.73    0.74
  -5  -4   3    1.67    0.87
   5  -4  -3    1.90    0.55
  -5   4   3    1.21    0.52
  -5   4   3    1.54    0.52
   5   4  -3    1.61    0.68
   5   4  -3    1.61    0.67
  -5   4   3    1.22    0.70
  -4  -4   3    1.95    0.64
  -4  -4   3    1.68    0.73
   4  -4  -3    1.77    0.48
  -4  -4   3    1.98    0.57
  -4  -4   3    3.00    0.68
  -4   4   3    1.49    0.55
   4   4  -3    2.26    0.32
   4   4  -3    1.86    0.47
   4   4  -3    1.96    0.47
  -4   4   3    1.65    0.50
  -4   4   3    1.94    0.44
  -4   4   3    1.67    0.63
  -3  -4   3    1.84    0.53
  -3  -4   3    2.49    0.65
  -3  -4   3    1.85    0.47
   3  -4  -3    1.74    0.50
  -3  -4   3    2.14    0.53
   3   4  -3    1.70    0.19
  -3   4   3    1.42    0.36
   3   4  -3    1.99    0.40
  -3   4   3    1.71    0.35
   3   4  -3    1.86    0.36
  -3   4   3    1.03    0.51
  -3   4   3    2.17    0.48
   3   4  -3    2.26    0.36
   3   4  -3    2.03    0.23
  -2  -4   3    0.40    0.39
  -2  -4   3    0.08    0.33
  -2  -4   3    0.05    0.38
   2  -4  -3    0.23    0.42
  -2  -4   3    0.30    0.36
  -2   4   3    1.13    0.39
   2   4  -3    0.52    0.27
   2   4  -3    0.77    0.32
   2   4  -3    0.42    0.26
   2   4  -3    1.01    0.30
   2   4  -3    0.17    0.31
   2   4  -3    0.46    0.15
   2   4  -3    0.70    0.13
   2   4  -3    0.66    0.06
  -2   4   3    0.43    0.31
  -2   4   3    0.51    0.28
   2   4  -3    0.66    0.12
   2   4  -3    0.60    0.10
   2   4  -3    0.53    0.06
  -2   4   3    0.56    0.29
   2   4  -3    0.52    0.11
   1  -4  -3   25.29    1.40
  -1  -4   3   27.49    1.94
  -1  -4   3   23.60    1.64
   1  -4  -3   25.88    1.39
   1  -4  -3   24.57    1.66
  -1  -4   3   21.76    1.63
   1  -4  -3   22.22    2.02
  -1  -4   3   21.64    1.82
   1  -4  -3   23.57    1.44
   1   4  -3   22.36    1.43
  -1   4   3   21.67    1.36
   1   4  -3   19.56    1.62
  -1   4   3   21.90    1.67
   1   4  -3   21.43    1.44
   1   4  -3   19.82    1.44
   1   4  -3   21.47    1.59
  -1   4   3   20.73    1.43
  -1   4   3   22.31    1.29
  -1   4   3   20.50    1.54
   1   4  -3   22.13    1.41
   1   4  -3   23.64    1.42
   1   4  -3   21.39    1.59
   1   4  -3   19.84    1.50
   1   4  -3   22.07    1.44
   1   4  -3   22.44    1.39
   0  -4   3   48.72    3.26
   0  -4  -3   49.06    3.59
   0  -4  -3   44.32    4.01
   0  -4  -3   52.25    2.84
   0  -4   3   45.71    3.63
   0  -4   3   48.43    3.98
   0  -4  -3   52.53    3.00
   0   4   3   51.25    2.83
   0   4   3   48.72    2.98
   0   4  -3   53.65    3.02
   0   4  -3   46.91    2.93
   0   4   3   49.57    2.83
   0   4   3   47.19    3.10
   0   4  -3   51.87    3.15
   0   4   3   49.57    3.42
   0   4  -3   50.35    3.26
   0   4   3   48.89    3.13
   0   4  -3   50.67    3.36
   0   4   3   50.56    3.33
   0   4  -3   50.44    3.10
   0   4  -3   51.05    3.09
   0   4  -3   49.04    3.26
   0   4  -3   46.25    3.04
  -1  -4  -3   78.03    5.21
   1  -4   3   77.55    4.50
   1  -4   3   80.23    4.76
   1  -4   3   77.65    5.68
  -1  -4  -3   77.52    5.74
   1  -4   3   74.71    4.58
   1  -4   3   74.50    5.22
  -1  -4  -3   73.59    5.99
  -1   4  -3   69.94    4.37
   1   4   3   73.39    4.85
   1   4   3   70.83    4.22
   1   4   3   72.43    4.55
  -1   4  -3   72.03    4.66
   1   4   3   64.97    4.64
   1   4   3   69.91    4.11
   1   4   3   71.05    4.49
   1   4   3   69.34    4.52
  -1   4  -3   69.79    4.20
   1   4   3   67.40    4.78
   1   4   3   67.52    4.44
   1   4   3   72.81    4.27
   1   4   3   71.54    4.22
  -1   4  -3   67.48    4.41
   1   4   3   70.13    4.59
  -1   4  -3   64.25    4.76
   2  -4   3   26.66    2.12
   2  -4   3   26.28    2.16
   2  -4   3   25.99    2.28
   2  -4   3   25.55    2.09
   2  -4   3   25.53    2.18
  -2  -4  -3   26.85    2.74
   2   4   3   33.92    2.47
  -2   4  -3   37.83    2.32
  -2   4  -3   33.81    2.18
   2   4   3   34.58    2.19
  -2   4  -3   35.10    2.13
   2   4   3   35.36    1.87
   2   4   3   34.55    2.25
   2   4   3   36.03    2.28
   2   4   3   33.09    2.23
   2   4   3   36.67    2.00
   2   4   3   36.24    2.26
   2   4   3   34.12    2.26
   2   4   3   32.80    2.26
   2   4   3   37.55    2.25
  -2   4  -3   35.08    2.06
   2   4   3   36.21    2.03
   3  -4   3   84.03    5.52
   3  -4   3   85.39    4.95
   3  -4   3   80.68    5.06
   3  -4   3   83.77    5.01
   3  -4   3   82.60    6.24
  -3  -4  -3   83.01    6.71
   3  -4   3   83.08    4.96
   3  -4   3   84.33    5.35
   3  -4   3   83.64    5.16
   3   4   3   79.53    5.01
   3   4   3   79.93    5.14
   3   4   3   74.81    4.92
  -3   4  -3   74.35    4.70
   3   4   3   75.49    5.26
   3   4   3   73.52    5.65
  -3   4  -3   73.61    4.88
   3   4   3   76.97    4.63
   3   4   3   78.06    5.02
  -3   4  -3   73.06    4.92
   3   4   3   77.37    5.00
   3   4   3   82.26    5.10
   4  -4   3   36.00    2.58
   4  -4   3   37.84    2.53
   4  -4   3   35.80    2.86
   4  -4   3   37.93    2.37
   4  -4   3   36.41    2.60
   4  -4   3   34.88    2.47
   4  -4   3   36.94    2.39
  -4  -4  -3   28.55    3.19
  -4   4  -3   31.20    2.40
  -4   4  -3   31.90    2.24
   4   4   3   33.18    2.75
   4   4   3   35.27    2.47
   4   4   3   34.41    2.39
   4   4   3   32.67    2.32
   4   4   3   32.52    2.36
   4   4   3   33.60    2.39
   4   4   3   35.51    2.42
   4   4   3   35.92    2.34
   4   4   3   31.64    2.24
   5  -4   3   37.66    2.82
   5  -4   3   33.91    2.66
   5  -4   3   38.06    2.61
   5  -4   3   37.14    2.80
   5  -4   3   37.82    2.65
  -5  -4  -3   32.01    3.69
   5  -4   3   36.29    2.88
   5   4   3   38.64    2.68
   5   4   3   37.15    2.55
  -5   4  -3   37.22    2.51
   5   4   3   36.82    2.99
   5   4   3   38.89    2.60
   5   4   3   36.93    2.71
   5   4   3   39.08    2.67
   5   4   3   37.30    2.53
   5   4   3   40.50    2.61
   5   4   3   39.64    2.57
  -5   4  -3   37.58    3.56
  -5   4  -3   37.48    2.63
   6  -4   3   30.42    2.25
   6  -4   3   30.45    2.35
  -6  -4  -3   23.40    3.25
   6   4   3   26.49    2.19
  -6   4  -3   26.32    3.05
  -6   4  -3   25.22    2.14
   6   4   3   27.86    2.10
  -6   4  -3   26.17    2.07
  -7  -4  -3   16.79    2.95
  -7   4  -3   21.42    2.61
  -8  -5   3    3.90    1.62
  -7  -5   3    6.64    1.85
   7   5  -3    8.42    1.16
  -6  -5   3    6.64    1.56
  -6  -5   3    8.28    1.55
   6  -5  -3    6.67    1.52
  -6  -5   3    9.15    1.50
   6  -5  -3    8.50    1.28
  -6   5   3    9.04    1.28
   6   5  -3    9.16    1.31
  -6   5   3   10.21    1.31
   6   5  -3   10.89    1.29
  -5  -5   3   32.90    3.19
  -5  -5   3   30.10    2.91
   5  -5  -3   34.65    3.14
  -5  -5   3   31.46    2.52
  -5  -5   3   28.74    2.50
   5  -5  -3   32.57    2.58
  -5   5   3   30.93    2.53
   5   5  -3   32.31    2.41
  -5   5   3   32.15    2.27
   5   5  -3   30.71    2.55
  -5   5   3   32.78    2.17
  -4  -5   3   38.43    2.82
  -4  -5   3   40.28    3.20
   4  -5  -3   41.86    2.92
   4  -5  -3   41.34    3.41
  -4  -5   3   42.09    2.80
  -4  -5   3   42.95    3.53
  -4   5   3   35.09    2.59
  -4   5   3   39.34    2.74
  -4   5   3   33.89    2.83
  -4   5   3   36.69    2.52
   4   5  -3   35.23    2.84
   4   5  -3   34.61    2.64
  -4   5   3   35.52    2.40
  -3  -5   3   88.03    6.09
   3  -5  -3   93.62    7.45
  -3  -5   3   88.98    6.23
  -3  -5   3  104.76    7.61
  -3  -5   3   90.99    6.75
  -3   5   3   85.21    6.32
   3   5  -3   89.80    6.40
  -3   5   3   88.54    5.62
   3   5  -3   98.83    5.63
   3   5  -3   94.24    5.56
  -3   5   3   93.48    5.79
   3   5  -3   92.99    5.62
   3   5  -3   91.67    6.00
  -3   5   3   88.88    5.37
  -2  -5   3   36.52    3.29
  -2  -5   3   37.82    3.02
   2  -5  -3   37.93    3.66
  -2  -5   3   39.05    2.97
  -2  -5   3   39.89    3.67
   2   5  -3   42.55    2.63
   2   5  -3   44.35    2.72
   2   5  -3   47.03    2.69
   2   5  -3   43.52    2.69
  -2   5   3   44.78    2.85
  -2   5   3   44.12    2.75
   2   5  -3   42.75    2.75
   2   5  -3   44.52    2.94
   2   5  -3   43.17    3.07
  -2   5   3   44.12    2.61
  -2   5   3   38.36    3.09
   2   5  -3   43.40    2.98
   2   5  -3   48.47    2.66
   2   5  -3   49.49    2.68
   2   5  -3   43.29    2.76
   2   5  -3   49.85    2.61
  -1  -5   3   61.71    4.58
   1  -5  -3   71.01    4.04
  -1  -5   3   63.54    4.50
  -1  -5   3   66.09    4.98
   1  -5  -3   69.73    4.83
   1  -5  -3   63.01    5.51
  -1   5   3   69.01    4.22
  -1   5   3   65.82    4.68
   1   5  -3   64.15    4.16
   1   5  -3   76.97    4.19
   1   5  -3   68.78    4.44
   1   5  -3   73.84    4.08
  -1   5   3   66.18    3.91
   1   5  -3   66.63    4.20
  -1   5   3   68.01    4.11
   1   5  -3   63.13    4.53
   1   5  -3   72.28    4.14
   1   5  -3   67.29    3.98
   1   5  -3   66.73    4.65
   0  -5  -3  102.52    7.84
   0  -5  -3  112.55    5.62
   0  -5   3   97.47    7.09
   0  -5   3  103.25    6.60
   0  -5  -3  101.93    7.04
   0  -5   3   99.97    7.77
   0   5   3   95.24    6.48
   0   5   3   96.40    5.59
   0   5   3  100.30    5.88
   0   5  -3   95.82    5.93
   0   5   3  102.34    6.10
   0   5  -3   94.47    5.71
   0   5  -3   90.55    6.50
   0   5   3   93.40    6.03
   0   5  -3  100.50    6.42
   0   5  -3  103.94    5.97
   0   5  -3   91.04    6.34
   0   5   3   98.06    6.66
   0   5  -3   93.54    5.99
   1  -5   3   17.93    1.26
  -1  -5  -3   15.87    1.46
  -1  -5  -3   15.19    1.78
  -1  -5  -3   16.16    1.70
   1  -5   3   16.61    1.42
   1  -5   3   15.89    1.58
  -1   5  -3   16.35    1.39
  -1   5  -3   17.96    1.21
   1   5   3   17.54    1.29
   1   5   3   16.63    1.28
   1   5   3   16.80    1.30
  -1   5  -3   18.78    1.28
  -1   5  -3   15.20    1.22
   1   5   3   18.28    1.31
   1   5   3   15.95    1.31
   1   5   3   18.70    1.11
   1   5   3   15.08    1.29
   1   5   3   16.19    0.98
   1   5   3   15.48    1.29
   1   5   3   14.96    1.29
   1   5   3   17.27    1.10
  -1   5  -3   16.94    1.17
   1   5   3   17.61    1.09
  -2  -5  -3   12.21    1.10
   2  -5   3   10.75    0.99
  -2  -5  -3   12.56    1.20
  -2  -5  -3   12.70    1.32
   2   5   3    6.92    0.47
  -2   5  -3    7.07    0.74
   2   5   3    7.50    0.83
   2   5   3    6.28    0.90
   2   5   3    6.71    0.79
   2   5   3    7.42    0.59
   2   5   3    7.45    0.47
   2   5   3    7.04    0.88
  -2   5  -3    5.92    0.80
   2   5   3    5.55    0.82
   2   5   3    7.29    0.81
  -2   5  -3    6.74    0.73
  -2   5  -3    7.51    0.61
   2   5   3    7.27    0.75
   2   5   3    7.27    0.71
   2   5   3    6.94    0.78
   2   5   3    7.76    0.58
  -3  -5  -3   39.66    4.35
   3  -5   3   49.60    4.06
   3  -5   3   46.28    3.27
  -3  -5  -3   44.99    4.13
   3  -5   3   48.29    3.46
   3   5   3   52.53    3.29
   3   5   3   54.81    3.38
   3   5   3   48.93    3.01
   3   5   3   49.90    3.30
   3   5   3   52.56    3.22
  -3   5  -3   46.72    3.21
  -3   5  -3   50.88    3.08
  -3   5  -3   50.93    3.21
   3   5   3   53.83    3.39
   3   5   3   50.42    3.73
   3   5   3   51.75    3.36
   3   5   3   54.44    3.29
   4  -5   3   19.34    1.51
  -4  -5  -3   14.80    2.20
   4  -5   3   17.12    1.64
   4  -5   3   18.85    1.55
   4   5   3   15.39    1.43
  -4   5  -3   15.54    1.52
  -4   5  -3   15.93    1.36
   4   5   3   15.82    1.38
   4   5   3   16.02    1.37
   4   5   3   17.01    1.47
   4   5   3   14.79    1.27
   4   5   3   17.44    1.39
   4   5   3   17.08    1.40
   4   5   3   16.96    1.57
  -4   5  -3   15.47    1.42
   4   5   3   17.57    1.38
   5  -5   3    8.11    1.11
   5  -5   3    6.88    1.02
  -5  -5  -3    7.61    1.75
   5   5   3    8.98    0.99
  -5   5  -3    8.60    1.09
   5   5   3    7.98    1.17
  -5   5  -3    9.34    1.18
   5   5   3    8.66    1.08
   5   5   3    7.71    1.08
   5   5   3    8.61    1.04
   5   5   3    9.05    1.09
  -6  -5  -3    1.19    1.12
   6   5   3    0.84    0.79
   6   5   3    0.95    0.90
  -6   5  -3    1.28    1.30
  -7  -5  -3   -0.40    1.16
   7   5   3    0.55    1.08
  -7   5  -3    1.21    1.20
   7   6  -3    0.94    1.04
   6  -6  -3    0.18    1.13
  -6  -6   3    1.19    0.99
  -6  -6   3    0.25    1.08
   6   6  -3    1.07    0.89
   6   6  -3   -0.12    0.55
   5  -6  -3    2.17    1.14
  -5  -6   3    3.85    0.87
   5  -6  -3    3.74    0.86
  -5  -6   3    3.59    0.96
  -5  -6   3    2.51    1.21
  -5  -6   3    3.00    1.15
  -5   6   3    3.81    0.86
   5   6  -3    2.77    0.77
   5   6  -3    3.59    0.85
  -5   6   3    5.02    0.92
  -5   6   3    3.78    0.77
  -5   6   3    3.12    0.87
   5   6  -3    3.27    0.68
  -4  -6   3    5.50    0.86
  -4  -6   3    4.73    1.13
  -4  -6   3    4.72    0.86
   4  -6  -3    4.06    1.18
  -4  -6   3    5.32    1.16
  -4   6   3    5.30    0.87
  -4   6   3    4.43    0.71
   4   6  -3    5.21    0.79
   4   6  -3    5.07    0.78
  -4   6   3    5.06    0.89
  -4   6   3    3.99    0.73
   4   6  -3    6.40    0.84
  -4   6   3    4.61    0.85
  -3  -6   3    0.52    0.75
  -3  -6   3    1.16    0.75
  -3  -6   3    0.55    0.57
  -3  -6   3    0.66    0.52
   3  -6  -3    1.16    0.68
   3   6  -3    0.99    0.40
   3   6  -3    1.50    0.36
  -3   6   3    0.10    0.45
  -3   6   3    0.91    0.38
   3   6  -3    0.35    0.44
   3   6  -3    1.11    0.53
   3   6  -3    1.71    0.53
  -3   6   3    1.47    0.39
  -3   6   3    0.60    0.61
  -2  -6   3    9.45    1.22
   2  -6  -3    8.91    1.40
  -2  -6   3    8.45    0.88
  -2  -6   3    9.35    0.93
  -2  -6   3    8.52    1.10
  -2   6   3    8.27    0.99
   2   6  -3    9.85    0.75
  -2   6   3   10.90    0.81
   2   6  -3   10.14    0.85
   2   6  -3    9.51    0.94
   2   6  -3   10.13    0.90
   2   6  -3    9.62    0.76
  -2   6   3    9.57    0.87
   2   6  -3    9.26    0.88
   2   6  -3    9.50    0.83
   2   6  -3    8.53    0.97
  -2   6   3    9.83    1.03
   2   6  -3    8.63    0.90
  -1  -6   3   18.13    1.43
   1  -6  -3   20.06    1.45
  -1  -6   3   17.56    1.75
  -1  -6   3   17.48    1.59
  -1  -6   3   19.34    1.43
   1  -6  -3   16.19    1.90
   1   6  -3   18.36    1.34
   1   6  -3   18.16    1.29
   1   6  -3   19.61    1.24
   1   6  -3   17.24    1.39
  -1   6   3   17.92    1.19
   1   6  -3   16.18    1.43
  -1   6   3   17.75    1.46
   1   6  -3   16.95    1.40
  -1   6   3   17.74    1.25
   1   6  -3   18.33    1.23
   0  -6   3   44.92    3.83
   0  -6  -3   50.72    3.79
   0  -6   3   47.58    3.50
   0  -6   3   49.59    4.26
   0  -6  -3   46.34    4.33
   0  -6   3   47.40    3.55
   0   6  -3   51.10    3.41
   0   6  -3   50.98    3.22
   0   6  -3   48.51    3.10
   0   6  -3   57.91    3.19
   0   6   3   53.84    3.52
   0   6   3   47.98    3.31
   0   6  -3   51.77    3.29
   0   6   3   51.06    3.62
   0   6  -3   54.55    3.41
   0   6   3   51.57    3.32
   0   6  -3   45.46    3.53
   0   6  -3   57.96    3.36
   0   6   3   55.42    3.16
   0   6   3   55.94    2.98
   1  -6   3    4.62    0.95
  -1  -6  -3    5.40    1.28
  -1  -6  -3    4.74    0.97
  -1   6  -3    7.70    0.79
   1   6   3    8.05    0.49
   1   6   3    7.33    0.80
  -1   6  -3    7.43    0.77
   1   6   3    8.02    0.84
   1   6   3    6.76    0.76
   1   6   3    6.84    0.77
   1   6   3    6.76    0.82
   1   6   3    7.14    0.88
   1   6   3    8.74    0.90
   1   6   3    8.85    0.81
  -1   6  -3    7.41    0.78
  -1   6  -3    6.61    0.83
   1   6   3    9.04    0.61
   1   6   3    6.96    0.87
   1   6   3    6.38    0.77
  -2  -6  -3   29.24    2.65
  -2  -6  -3   29.80    2.04
   2   6   3   23.46    1.48
   2   6   3   20.71    1.77
   2   6   3   21.27    1.71
  -2   6  -3   20.68    1.78
   2   6   3   23.77    1.68
   2   6   3   20.91    1.84
   2   6   3   23.06    1.77
  -2   6  -3   21.07    1.71
  -2   6  -3   21.08    1.64
  -2   6  -3   24.16    1.65
   2   6   3   19.72    1.74
   2   6   3   22.80    1.53
   2   6   3   24.67    1.74
   2   6   3   22.12    1.74
   3  -6   3   42.24    3.60
  -3  -6  -3   42.17    4.38
   3  -6   3   48.10    3.94
  -3  -6  -3   49.73    4.09
   3   6   3   45.58    3.17
   3   6   3   45.54    2.92
   3   6   3   47.88    3.55
   3   6   3   50.74    3.23
   3   6   3   48.95    3.21
  -3   6  -3   44.34    2.96
  -3   6  -3   48.37    3.19
   3   6   3   43.53    3.23
   3   6   3   48.67    3.14
  -3   6  -3   48.28    3.11
   3   6   3   50.90    3.16
   3   6   3   49.32    3.24
   3   6   3   47.15    3.17
  -4  -6  -3   41.78    4.47
   4   6   3   50.06    3.27
   4   6   3   43.66    2.99
   4   6   3   45.44    3.20
   4   6   3   46.90    3.66
   4   6   3   49.51    3.13
  -4   6  -3   46.37    3.11
  -4   6  -3   44.64    3.07
   4   6   3   49.59    3.23
   4   6   3   49.81    3.23
   4   6   3   48.08    3.18
  -4   6  -3   46.63    3.18
  -5  -6  -3   10.05    1.99
  -5   6  -3   15.85    1.52
  -5   6  -3   14.56    1.40
   5   6   3   13.85    1.45
   5   6   3   14.10    1.62
   5   6   3   14.74    1.44
  -6  -6  -3   12.53    2.35
   6   6   3   18.88    1.80
  -6   6  -3   17.47    2.43
  -7  -6  -3   16.75    2.96
   7   6   3   15.89    1.75
  -7   6  -3   20.57    2.86
   7   7  -3    5.08    1.32
  -6  -7   3   20.80    2.39
  -6  -7   3   24.14    2.63
   6   7  -3   24.92    2.14
   5  -7  -3    7.60    1.67
  -5  -7   3    8.08    1.35
  -5  -7   3    8.44    1.22
  -5  -7   3    6.96    1.60
  -5   7   3    7.26    1.16
  -5   7   3    8.02    1.01
   5   7  -3    8.96    1.13
   5   7  -3    8.21    1.14
   5   7  -3    9.73    1.16
  -5   7   3    7.63    1.38
  -5   7   3    9.43    1.10
  -4  -7   3   21.26    2.18
  -4  -7   3   23.00    2.00
   4  -7  -3   20.52    2.34
  -4  -7   3   22.43    1.88
  -4   7   3   20.09    1.96
  -4   7   3   24.33    1.90
  -4   7   3   22.89    1.95
  -4   7   3   21.34    1.61
   4   7  -3   21.80    1.80
  -4   7   3   24.08    1.83
   4   7  -3   21.84    1.85
   4   7  -3   22.56    1.76
  -3  -7   3   23.42    2.15
  -3  -7   3   23.62    2.06
  -3  -7   3   23.35    2.39
   3  -7  -3   22.63    2.76
   3   7  -3   28.84    1.88
   3   7  -3   30.12    2.11
  -3   7   3   29.65    1.88
  -3   7   3   28.94    2.35
  -3   7   3   31.48    2.02
   3   7  -3   28.77    2.15
   3   7  -3   27.02    1.97
   3   7  -3   29.17    2.06
  -3   7   3   28.08    2.18
  -2  -7   3   50.63    3.71
  -2  -7   3   52.82    3.36
   2  -7  -3   48.30    4.19
  -2  -7   3   54.23    3.30
  -2   7   3   50.48    2.86
   2   7  -3   44.98    3.09
   2   7  -3   42.04    3.05
   2   7  -3   43.69    3.34
  -2   7   3   46.31    3.17
  -2   7   3   44.04    3.47
   2   7  -3   45.17    3.19
   2   7  -3   47.37    2.91
  -2   7   3   46.14    2.99
   2   7  -3   42.24    3.01
  -1  -7   3   35.58    3.10
   1  -7  -3   37.27    3.50
  -1  -7   3   34.61    2.80
  -1  -7   3   37.36    3.42
  -1   7   3   41.81    2.54
   1   7  -3   39.88    2.49
   1   7  -3   43.52    2.52
   1   7  -3   39.23    2.86
   1   7  -3   41.92    2.72
  -1   7   3   38.56    2.75
   1   7  -3   41.56    2.59
   1   7  -3   39.24    2.62
  -1   7   3   42.00    2.40
  -1   7   3   39.84    2.95
   0  -7   3   50.35    3.41
   0  -7   3   45.50    4.08
   0  -7   3   45.75    3.35
   0  -7  -3   47.87    3.64
   0  -7  -3   44.93    4.23
   0  -7   3   47.07    3.75
   0   7   3   52.94    2.85
   0   7   3   51.84    3.03
   0   7   3   48.48    3.21
   0   7   3   51.11    3.49
   0   7  -3   49.24    3.10
   0   7  -3   49.88    3.19
   0   7  -3   49.29    3.00
   0   7  -3   48.64    3.24
   0   7  -3   44.36    3.42
   0   7   3   50.73    3.39
   0   7   3   45.30    3.19
   1  -7   3   25.80    2.06
   1  -7   3   28.00    2.34
  -1  -7  -3   25.74    2.47
  -1  -7  -3   23.41    2.02
   1   7   3   24.28    1.83
   1   7   3   24.70    1.56
   1   7   3   22.65    1.82
  -1   7  -3   22.65    1.89
   1   7   3   22.29    1.78
  -1   7  -3   24.43    1.79
  -1   7  -3   21.97    1.65
  -1   7  -3   24.50    1.69
   1   7   3   21.86    1.77
   1   7   3   21.33    1.69
   1   7   3   22.67    1.73
   1   7   3   24.23    1.79
   1   7   3   23.31    1.83
   1   7   3   21.59    1.80
   2  -7   3    5.47    0.90
  -2  -7  -3    6.43    1.11
  -2  -7  -3    4.62    0.97
  -2  -7  -3    5.25    1.48
   2  -7   3    5.92    0.97
   2   7   3    6.92    0.90
   2   7   3    5.29    0.77
  -2   7  -3    5.97    0.80
   2   7   3    5.92    0.73
   2   7   3    6.27    0.82
  -2   7  -3    7.19    0.85
   2   7   3    5.93    0.79
  -2   7  -3    6.04    0.84
   2   7   3    5.94    0.91
   2   7   3    5.75    0.83
  -2   7  -3    5.56    0.96
   2   7   3    5.99    0.92
  -3  -7  -3    8.79    1.75
   3  -7   3    7.10    1.15
  -3  -7  -3   10.51    1.50
   3  -7   3    7.22    1.01
   3   7   3    6.70    0.99
   3   7   3    5.94    0.84
   3   7   3    7.97    0.98
   3   7   3    7.20    0.98
   3   7   3    6.80    0.96
   3   7   3    6.15    0.98
  -3   7  -3    7.38    0.97
   3   7   3    6.81    1.07
  -3   7  -3    7.72    0.88
  -3   7  -3    7.08    0.93
   3   7   3    5.81    0.89
  -4  -7  -3   12.45    2.26
  -4   7  -3   15.39    1.50
   4   7   3   14.58    1.67
   4   7   3   14.02    1.53
  -4   7  -3   14.56    1.47
   4   7   3   13.45    1.36
   4   7   3   16.22    1.48
  -5  -7  -3    2.33    1.24
   5   7   3    2.84    0.93
   5   7   3    0.51    0.99
  -6  -7  -3    0.00    1.59
  -6   7  -3    2.15    1.53
   6   7   3    3.18    1.09
  -6  -8   3    0.91    1.15
  -6  -8   3    1.97    1.25
   6  -8  -3    0.26    1.35
  -5  -8   3    1.20    1.02
   5  -8  -3    1.80    1.37
  -5  -8   3    1.25    1.05
  -5   8   3    0.39    0.89
  -5   8   3    1.71    0.67
  -4  -8   3    0.84    1.15
  -4  -8   3    1.05    0.84
   4  -8  -3    0.29    0.86
  -4   8   3   -1.00    0.90
  -4   8   3    0.76    0.53
  -4   8   3    0.82    0.56
  -4   8   3   -0.41    0.80
  -4   8   3    1.78    0.91
   3  -8  -3    0.05    1.10
  -3  -8   3    0.92    0.78
  -3  -8   3    0.95    0.67
   3   8  -3    0.25    0.57
   3   8  -3    0.66    0.67
  -3   8   3    0.44    0.60
  -3   8   3    0.61    0.61
  -3   8   3    0.83    0.89
  -3   8   3    0.77    0.83
   3   8  -3    0.12    0.64
   3   8  -3    0.74    0.61
  -3   8   3    0.97    0.58
  -2  -8   3    5.58    1.16
   2  -8  -3    5.88    1.24
  -2  -8   3    7.33    0.93
  -2  -8   3    9.61    0.97
  -2   8   3    4.67    1.01
   2   8  -3    5.44    0.89
   2   8  -3    6.09    0.91
   2   8  -3    5.49    0.81
  -2   8   3    5.93    1.06
  -2   8   3    6.39    0.79
   2   8  -3    5.49    0.79
  -2   8   3    6.33    0.72
   1  -8  -3   19.51    2.42
  -1  -8   3   20.32    2.11
  -1  -8   3   21.19    1.64
  -1  -8   3   19.33    1.86
   1   8  -3   18.84    1.61
  -1   8   3   18.45    1.77
   1   8  -3   16.45    1.83
   1   8  -3   22.06    1.57
   1   8  -3   21.32    1.50
  -1   8   3   21.78    1.48
  -1   8   3   18.98    1.76
   0  -8  -3   13.56    1.34
   0  -8   3   11.31    1.30
   0  -8  -3   13.47    1.88
   0  -8   3   12.91    1.71
   0  -8   3   12.30    1.19
   0   8   3   13.03    1.03
   0   8   3   12.12    1.24
   0   8  -3   11.13    1.09
   0   8   3   13.33    1.16
   0   8   3   12.60    1.21
   0   8  -3   11.49    1.01
   0   8  -3   11.13    1.38
   0   8  -3   11.99    1.12
   0   8   3   12.93    1.27
   1  -8   3    4.60    0.93
   1  -8   3    4.73    1.01
  -1  -8  -3    4.14    0.87
   1  -8   3    5.35    0.86
  -1  -8  -3    4.20    1.07
   1   8   3    5.83    0.89
   1   8   3    5.29    0.95
  -1   8  -3    7.45    0.95
   1   8   3    5.58    0.91
   1   8   3    5.42    0.88
  -1   8  -3    5.86    0.81
   1   8   3    7.58    0.96
   1   8   3    6.32    0.91
   1   8   3    5.05    0.74
  -1   8  -3    5.43    1.04
   1   8   3    5.43    0.88
  -1   8  -3    7.02    0.81
  -2  -8  -3    8.35    1.23
   2  -8   3    8.67    1.12
   2  -8   3    9.24    1.37
  -2  -8  -3    8.80    1.40
  -2  -8  -3    9.55    1.92
   2   8   3    7.75    0.98
   2   8   3    7.46    0.99
   2   8   3    8.63    1.07
  -2   8  -3    6.80    1.20
   2   8   3    7.26    1.00
   2   8   3    7.49    1.03
  -2   8  -3    8.57    1.01
   2   8   3    7.27    1.09
   2   8   3    7.81    1.10
   2   8   3    7.72    1.09
  -2   8  -3   10.15    1.07
   2   8   3    7.20    0.86
   2   8   3    6.36    1.00
  -2   8  -3    8.70    0.97
  -3  -8  -3   30.77    3.63
  -3  -8  -3   28.47    3.21
   3  -8   3   31.89    3.04
   3   8   3   33.83    2.50
  -3   8  -3   36.34    2.37
  -3   8  -3   36.44    2.39
   3   8   3   31.82    2.48
   3   8   3   32.66    2.72
   3   8   3   30.65    2.22
  -3   8  -3   33.28    2.41
  -4  -8  -3   16.52    2.57
   4   8   3   19.36    1.95
   4   8   3   16.85    1.59
  -4   8  -3   17.31    1.55
  -5  -8  -3   13.23    2.28
   5   8   3    9.87    1.36
  -6  -8  -3   16.67    2.98
   6   8   3   18.43    1.94
   5  -9  -3    9.72    2.03
  -5  -9   3    6.33    1.82
  -5   9   3    8.44    1.51
  -4  -9   3   13.94    2.10
   4  -9  -3   11.72    2.05
  -4   9   3   16.47    1.57
  -4   9   3   17.97    1.92
  -3  -9   3   21.43    2.31
   3  -9  -3   20.91    2.58
  -3   9   3   22.58    2.12
  -3   9   3   23.61    1.89
  -3   9   3   24.25    2.24
  -3   9   3   23.36    2.15
   3   9  -3   21.99    2.13
   3   9  -3   27.44    1.96
  -2  -9   3   27.41    2.56
   2  -9  -3   24.66    3.10
  -2   9   3   28.80    2.05
   2   9  -3   28.56    2.16
  -2   9   3   29.56    2.50
   2   9  -3   31.00    2.48
  -2   9   3   29.66    2.42
  -2   9   3   24.02    2.34
  -1  -9   3   13.74    1.61
   1  -9  -3   13.22    2.01
  -1   9   3   11.48    1.29
  -1   9   3    8.97    1.32
   1   9  -3    7.52    1.20
   1   9  -3   10.36    1.13
   1   9  -3   11.56    1.10
   0  -9  -3   19.56    2.70
   0  -9   3   23.84    2.58
   0  -9   3   18.83    2.17
   0   9   3   23.53    1.90
   0   9   3   24.05    2.06
   0   9   3   22.68    2.00
   0   9  -3   23.37    1.72
   0   9  -3   25.85    1.75
   0   9  -3   22.80    2.05
   0   9  -3   26.13    1.82
   0   9   3   23.14    1.86
   1  -9   3    8.93    1.30
   1  -9   3    9.11    1.60
  -1  -9  -3    8.41    1.74
  -1  -9  -3    8.69    1.24
   1   9   3   10.23    1.18
   1   9   3    7.32    1.16
   1   9   3    9.73    1.20
   1   9   3   11.34    1.25
  -1   9  -3   10.30    1.04
   1   9   3   10.75    1.30
  -1   9  -3    9.48    1.09
   1   9   3   10.69    1.15
   1   9   3    7.28    1.09
   1   9   3    9.56    0.92
   1   9   3   10.62    1.29
   1   9   3    8.64    1.11
  -1   9  -3    8.46    0.97
  -1   9  -3    9.61    1.29
   1   9   3    9.61    1.22
  -2  -9  -3    8.36    1.37
   2  -9   3    9.00    1.60
  -2  -9  -3   10.80    1.70
   2   9   3    9.92    1.26
   2   9   3    8.52    1.25
   2   9   3   10.56    1.17
   2   9   3   11.92    1.29
   2   9   3   11.19    1.08
   2   9   3   11.02    1.32
  -2   9  -3    7.13    1.26
  -2   9  -3    9.55    1.16
   2   9   3    8.19    1.18
  -2   9  -3   11.61    1.23
  -2   9  -3   10.79    1.13
   2   9   3   10.69    1.27
  -3  -9  -3    3.17    1.72
  -3  -9  -3    4.05    1.44
   3  -9   3    2.68    1.16
   3   9   3    3.35    0.68
   3   9   3    3.11    0.95
  -3   9  -3    3.43    0.83
  -3   9  -3    1.92    0.86
  -4  -9  -3   10.99    2.17
   4   9   3   10.89    1.31
  -5  -9  -3    0.13    1.26
   5   9   3    1.38    1.02
   4 -10  -3    2.32    1.64
  -4 -10   3    0.49    1.38
  -4  10   3    1.04    1.22
  -3 -10   3    1.35    1.27
   3 -10  -3    2.04    1.55
  -3  10   3    1.65    1.15
  -3  10   3    0.79    1.23
   2 -10  -3    3.18    1.55
  -2 -10   3    1.50    1.15
  -2  10   3    0.75    0.99
   2  10  -3    1.61    0.82
  -2  10   3    2.08    1.05
  -2  10   3    0.83    1.15
   2  10  -3    0.43    1.01
   1 -10  -3    4.38    1.63
  -1 -10   3    2.87    1.14
   1  10  -3    2.07    0.87
   1  10  -3    1.70    0.84
  -1  10   3    2.56    0.86
  -1  10   3    3.18    0.98
  -1  10   3    0.91    1.13
   0 -10   3    9.73    1.49
   0 -10   3   10.72    1.89
   0 -10  -3    7.64    1.71
   0  10  -3   11.41    1.16
   0  10  -3   13.40    1.27
   0  10   3   10.39    1.61
   0  10  -3   11.55    1.50
   0  10   3    9.36    1.40
   1 -10   3   16.78    2.21
  -1 -10  -3   15.01    2.18
  -1  10  -3   11.93    1.78
   1  10   3   16.44    1.91
   1  10   3   12.76    1.53
  -1  10  -3   14.09    1.32
  -1  10  -3   13.14    1.48
   1  10   3   15.61    1.65
   1  10   3   15.94    1.59
   1  10   3   14.26    1.62
   1  10   3   13.09    1.49
  -2 -10  -3    8.35    1.69
   2 -10   3    6.57    1.61
   2  10   3   11.76    1.45
   2  10   3    8.69    1.18
   2  10   3    9.78    1.38
   2  10   3    8.88    1.26
  -2  10  -3   13.07    1.30
   2  10   3    7.24    1.26
   3 -10   3    5.95    1.50
   3  10   3    5.31    0.99
   3  10   3    5.90    1.17
   3  10   3    6.33    1.32
   3  10   3    4.74    1.11
   3  10   3    6.52    1.11
   3  10   3    6.25    1.18
   4  10   3    7.63    1.24
   4  10   3    7.60    1.42
  -3 -11   3   15.99    2.27
   3 -11  -3   21.54    2.86
  -3  11   3   13.06    1.73
  -3  11   3   10.08    1.74
   2 -11  -3    6.66    1.72
  -2 -11   3    6.63    1.59
  -2  11   3    7.54    1.66
  -2  11   3    4.39    1.36
   1 -11  -3    9.05    2.14
  -1 -11   3    7.20    1.55
  -1  11   3    7.53    1.46
  -1  11   3   10.30    1.74
   1  11  -3    7.47    1.33
   0 -11  -3   12.90    2.20
   0  11   3   13.41    1.77
   0  11   3   17.07    2.09
   0  11  -3   13.56    1.75
   1 -11   3   12.18    2.11
  -1 -11  -3   12.52    2.36
   1  11   3    9.66    1.38
   1  11   3   13.82    1.88
  -2 -11  -3    4.19    1.85
   2 -11   3    2.74    1.50
   2  11   3    1.84    0.98
   2  11   3    2.74    1.09
   2  11   3    2.26    0.98
   3  11   3    3.46    1.11
   3  11   3    3.32    1.30
  -8   0   4    6.18    2.03
   7   0  -4    5.07    1.22
  -7   0   4    5.65    1.39
   7   0  -4    4.82    0.94
   6   0  -4    0.13    0.77
  -6   0   4    0.29    0.59
   6   0  -4    0.28    0.70
  -6   0   4    0.47    0.63
   6   0  -4    0.51    0.49
   5   0  -4   22.68    1.51
   5   0  -4   22.79    1.78
  -5   0   4   20.70    1.74
   5   0  -4   23.36    1.93
  -5   0   4   22.28    1.90
  -4   0   4   15.12    1.34
  -4   0   4   15.96    1.28
  -4   0   4   15.02    1.36
  -4   0   4   16.55    1.06
  -4   0   4   14.47    1.26
   4   0  -4   15.37    1.31
   4   0  -4   15.40    1.22
  -3   0   4   38.99    2.24
   3   0  -4   34.86    2.66
  -3   0   4   38.76    2.29
  -3   0   4   35.84    2.51
  -3   0   4   38.04    2.27
  -3   0   4   36.11    2.70
  -3   0   4   35.93    2.56
  -3   0   4   38.82    2.23
   3   0  -4   33.16    2.45
  -3   0   4   32.57    2.55
   2   0  -4   15.44    1.22
   2   0  -4   15.90    1.15
  -2   0   4   16.49    1.19
  -2   0   4   16.48    1.19
  -2   0   4   17.06    1.26
  -2   0   4   15.66    1.22
  -1   0   4   68.85    4.51
  -1   0   4   71.05    4.36
   1   0  -4   67.89    4.05
  -1   0   4   70.39    4.81
  -1   0   4   72.64    4.70
  -1   0   4   64.02    4.10
  -1   0   4   61.56    4.18
  -1   0   4   67.05    4.59
   1   0  -4   64.63    4.35
   1   0  -4   66.89    4.68
  -1   0   4   69.47    4.42
  -1   0   4   67.10    4.14
   1   0  -4   70.65    4.60
   0   0  -4    0.08    0.17
   0   0   4    0.18    0.17
   0   0   4    0.03    0.21
   0   0  -4    0.24    0.22
   0   0  -4    0.28    0.18
   0   0   4    0.18    0.20
   0   0  -4   -0.11    0.24
   0   0  -4    0.02    0.15
   0   0   4    0.18    0.22
   0   0  -4   -0.12    0.15
   0   0  -4   -0.13    0.14
   0   0  -4    0.28    0.22
   0   0   4    0.12    0.15
   0   0  -4    0.11    0.19
   0   0   4    0.07    0.17
   0   0   4    0.02    0.18
   0   0   4   -0.05    0.16
   0   0   4    0.13    0.18
   0   0   4    0.03    0.16
   0   0   4    0.07    0.21
   0   0   4    0.25    0.17
   0   0  -4    0.16    0.16
  -1   0  -4    5.51    0.53
   1   0   4    5.78    0.57
   1   0   4    6.12    0.53
  -1   0  -4    5.34    0.55
  -1   0  -4    5.00    0.48
  -1   0  -4    5.84    0.45
   1   0   4    5.08    0.56
   1   0   4    6.05    0.57
   1   0   4    4.93    0.57
   1   0   4    7.13    0.56
   1   0   4    6.50    0.49
   1   0   4    6.27    0.46
   1   0   4    6.95    0.53
  -1   0  -4    6.07    0.66
  -1   0  -4    5.31    0.44
   1   0   4    5.68    0.53
   1   0   4    5.54    0.53
   1   0   4    5.91    0.44
  -1   0  -4    5.54    0.54
   1   0   4    5.27    0.53
   2   0   4   52.12    3.77
   2   0   4   55.37    3.37
   2   0   4   51.66    3.34
   2   0   4   54.35    3.40
  -2   0  -4   55.63    3.24
   2   0   4   54.94    3.39
   2   0   4   50.66    3.46
  -2   0  -4   54.18    4.40
   2   0   4   55.97    3.23
   2   0   4   53.16    3.32
   2   0   4   52.92    3.58
  -2   0  -4   51.51    3.10
  -2   0  -4   50.29    3.24
   3   0   4   30.40    1.94
  -3   0  -4   26.41    1.84
   3   0   4   29.53    1.92
   3   0   4   27.34    2.03
  -3   0  -4   28.87    1.78
   3   0   4   27.06    2.16
   3   0   4   28.17    1.98
   3   0   4   28.51    1.92
   3   0   4   27.11    1.94
   3   0   4   30.18    2.01
  -3   0  -4   30.21    2.56
   4   0   4   38.95    2.67
   4   0   4   35.79    2.55
  -4   0  -4   39.72    3.48
   4   0   4   39.00    2.58
   4   0   4   36.86    2.86
   4   0   4   38.02    2.76
   4   0   4   38.29    2.56
   4   0   4   38.45    2.55
   4   0   4   39.50    2.61
  -4   0  -4   37.33    2.39
  -4   0  -4   39.15    2.49
   5   0   4   17.06    1.48
  -5   0  -4   17.60    2.02
   5   0   4   17.99    1.51
   5   0   4   19.16    1.44
   5   0   4   18.28    1.44
  -5   0  -4   16.20    1.38
  -5   0  -4   18.70    1.43
   5   0   4   18.48    1.74
   5   0   4   19.61    1.68
   5   0   4   17.65    1.60
   5   0   4   18.82    1.56
  -6   0  -4   37.70    2.49
   6   0   4   40.17    2.65
   6   0   4   39.70    3.05
  -6   0  -4   32.90    3.74
   6   0   4   37.77    2.70
   6   0   4   34.71    2.63
   6   0   4   37.87    2.69
   6   0   4   38.12    2.83
   6   0   4   35.78    2.81
   6   0   4   38.97    2.87
   7   0   4   29.80    2.30
  -7   0  -4   25.80    3.21
   7   0   4   27.58    2.52
   7   0   4   29.81    2.43
   7   0   4   34.25    2.42
  -8   0  -4   13.77    2.67
  -8  -1   4    9.30    1.92
  -8   1   4   12.31    2.43
   7  -1  -4    5.76    1.09
  -7  -1   4    5.06    1.62
   7  -1  -4    4.82    1.09
   7   1  -4    6.01    0.99
   7   1  -4    6.50    1.10
   7   1  -4    7.14    1.00
  -6  -1   4   14.71    1.72
   6  -1  -4   14.56    1.14
  -6  -1   4   14.36    1.64
   6  -1  -4   13.45    1.51
   6  -1  -4   11.92    1.34
   6   1  -4   11.23    1.15
  -6   1   4   11.61    1.29
   6   1  -4   10.97    1.35
   6   1  -4   10.26    1.32
  -5  -1   4   42.38    3.48
  -5  -1   4   44.22    3.33
   5  -1  -4   45.69    3.41
   5  -1  -4   49.66    2.71
   5  -1  -4   43.96    3.09
  -5  -1   4   45.37    3.19
  -5  -1   4   43.48    3.20
  -5   1   4   44.68    3.25
   5   1  -4   44.90    3.15
   5   1  -4   44.56    3.39
  -5   1   4   44.67    3.22
  -4  -1   4   49.22    3.60
  -4  -1   4   51.32    3.90
  -4  -1   4   49.85    3.68
  -4  -1   4   55.75    3.23
  -4  -1   4   52.03    3.17
   4  -1  -4   49.89    3.49
  -4  -1   4   52.85    3.62
   4  -1  -4   53.61    3.03
  -4  -1   4   54.30    3.23
   4  -1  -4   53.10    3.79
  -4   1   4   48.80    3.66
  -4   1   4   53.73    3.64
   4   1  -4   49.72    3.51
   4   1  -4   54.62    3.79
  -3  -1   4   77.06    4.20
  -3  -1   4   70.35    4.65
  -3  -1   4   68.80    4.76
  -3  -1   4   73.79    5.07
   3  -1  -4   67.31    4.90
  -3  -1   4   75.08    4.18
  -3  -1   4   69.29    4.75
  -3  -1   4   77.14    4.25
  -3  -1   4   77.44    4.33
   3  -1  -4   69.76    4.55
  -3  -1   4   80.19    4.41
  -3   1   4   68.78    4.71
  -3   1   4   65.73    4.63
  -3   1   4   61.37    4.76
   3   1  -4   62.03    4.88
  -3   1   4   62.78    4.97
   3   1  -4   60.83    4.54
  -3   1   4   68.55    4.27
  -2  -1   4  179.99   12.65
  -2  -1   4  190.79   12.26
   2  -1  -4  187.32   13.01
  -2  -1   4  188.97   12.51
   2  -1  -4  189.45   12.06
  -2  -1   4  207.50   11.57
  -2  -1   4  189.91   13.39
  -2  -1   4  170.18   11.31
  -2  -1   4  187.91   11.53
   2   1  -4  187.81   12.08
  -2   1   4  186.00   12.66
   2   1  -4  206.46   12.67
   2   1  -4  186.80   12.99
  -2   1   4  191.48   12.48
  -2   1   4  192.74   12.24
  -2   1   4  207.81   13.33
  -1  -1   4  206.11   14.26
  -1  -1   4  189.87   12.09
  -1  -1   4  204.80   13.05
  -1  -1   4  207.99   13.32
  -1  -1   4  214.33   13.83
   1  -1  -4  199.25   12.83
  -1  -1   4  186.23   13.47
  -1  -1   4  193.91   12.05
  -1  -1   4  194.51   12.34
   1  -1  -4  227.44   13.50
  -1  -1   4  189.63   12.59
  -1  -1   4  199.24   12.19
  -1  -1   4  191.68   12.31
  -1  -1   4  222.78   12.87
   1   1  -4  193.46   12.10
  -1   1   4  202.48   13.48
  -1   1   4  216.90   12.84
   1   1  -4  201.67   11.98
   1   1  -4  195.89   12.32
  -1   1   4  205.65   13.01
   1   1  -4  208.57   13.49
  -1   1   4  218.67   13.28
   1   1  -4  198.26   12.86
  -1   1   4  221.78   13.87
   1   1  -4  199.28   13.82
   0  -1   4   83.51    5.66
   0  -1  -4   89.51    5.67
   0  -1  -4   87.28    5.23
   0  -1   4   81.82    5.06
   0  -1   4   81.32    5.12
   0  -1  -4   82.93    5.37
   0  -1   4   82.35    5.17
   0  -1   4   87.35    5.29
   0  -1  -4   85.95    5.14
   0  -1   4   85.35    5.41
   0  -1   4   82.83    5.51
   0  -1  -4   84.09    4.98
   0  -1   4   90.19    5.01
   0  -1   4   85.04    5.09
   0  -1  -4   80.77    6.76
   0  -1   4   90.97    5.04
   0  -1   4   85.76    5.18
   0   1   4   76.82    5.22
   0   1   4   82.62    5.66
   0   1   4   91.82    5.38
   0   1  -4   84.76    5.17
   0   1   4   78.18    5.54
   0   1  -4   84.26    5.08
   0   1  -4   84.29    6.65
   0   1  -4   81.15    5.64
   0   1  -4   82.64    5.05
   0   1   4   85.73    5.18
   0   1  -4   85.66    5.52
   0   1  -4   84.34    5.12
   0   1   4   80.96    5.34
   0   1   4   78.81    5.10
   0   1   4   78.16    5.12
   0   1   4   93.08    5.08
   0   1   4   86.50    5.50
   0   1  -4   83.77    5.41
   0   1  -4   82.80    4.82
   0   1  -4   84.23    5.18
   0   1  -4   83.19    5.03
   0   1   4   84.88    5.13
   0   1  -4   81.46    5.28
   0   1   4   83.59    5.21
   0   1   4   84.86    4.98
   1  -1   4  146.47    8.08
  -1  -1  -4  133.16    8.03
  -1  -1  -4  137.07   10.92
   1  -1   4  132.27    8.88
   1  -1   4  137.04    8.69
  -1  -1  -4  132.03    8.38
   1  -1   4  125.81    8.71
  -1  -1  -4  133.77    9.46
   1  -1   4  126.57    8.60
   1  -1   4  137.05    8.51
   1  -1   4  126.93    8.54
  -1  -1  -4  129.18    8.38
   1  -1   4  142.94    9.16
  -1  -1  -4  134.83   11.30
   1  -1   4  142.81    8.45
   1  -1   4  131.33    9.25
   1   1   4  144.74    8.77
  -1   1  -4  142.83    8.45
   1   1   4  159.66    9.04
   1   1   4  160.47    8.39
   1   1   4  148.50    9.46
  -1   1  -4  145.77    8.43
  -1   1  -4  145.72    9.06
   1   1   4  146.63    8.94
   1   1   4  161.53    8.39
   1   1   4  145.50    8.56
   1   1   4  155.35    8.03
   1   1   4  144.30    8.60
   1   1   4  145.01    8.74
   1   1   4  143.93    8.66
   1   1   4  143.48    9.29
  -1   1  -4  152.54    8.73
  -1   1  -4  148.07   11.23
  -1   1  -4  149.22    8.09
   1   1   4  154.66    9.21
   2  -1   4   82.49    4.88
  -2  -1  -4   88.96    6.08
   2  -1   4   80.70    5.22
  -2  -1  -4   80.64    4.71
   2  -1   4   78.42    5.03
   2  -1   4   75.35    5.47
   2  -1   4   79.36    4.84
  -2  -1  -4   80.30    6.41
   2  -1   4   79.57    4.91
  -2  -1  -4   80.39    5.29
  -2  -1  -4   82.39    4.51
   2  -1   4   84.22    4.82
  -2  -1  -4   78.82    4.72
   2  -1   4   77.52    4.94
  -2   1  -4   81.27    6.35
   2   1   4   76.56    4.96
   2   1   4   75.46    5.21
   2   1   4   76.02    4.89
  -2   1  -4   73.24    4.75
   2   1   4   75.46    4.92
   2   1   4   80.76    4.50
   2   1   4   75.94    5.52
   2   1   4   73.40    5.04
   2   1   4   85.11    4.70
   2   1   4   74.94    4.83
   2   1   4   75.72    4.86
  -2   1  -4   76.03    4.56
  -2   1  -4   76.18    4.76
  -3  -1  -4   71.98    5.62
   3  -1   4   71.51    4.38
  -3  -1  -4   72.07    4.11
   3  -1   4   73.03    4.27
  -3  -1  -4   75.75    4.56
   3  -1   4   68.88    4.54
   3  -1   4   73.76    4.31
   3  -1   4   72.23    4.24
   3  -1   4   71.01    4.29
  -3  -1  -4   75.25    3.93
   3  -1   4   72.38    4.21
   3  -1   4   71.22    4.77
   3   1   4   62.30    4.37
   3   1   4   59.16    4.22
  -3   1  -4   66.04    5.56
   3   1   4   61.49    4.31
   3   1   4   59.46    4.77
  -3   1  -4   62.76    4.12
   3   1   4   63.60    4.20
  -3   1  -4   62.44    3.95
   3   1   4   61.23    4.52
   3   1   4   63.67    4.27
   3   1   4   66.53    4.22
  -3   1  -4   62.69    4.13
   4  -1   4   73.25    4.74
   4  -1   4   75.22    4.57
  -4  -1  -4   69.16    4.24
   4  -1   4   75.22    4.93
  -4  -1  -4   71.39    6.10
   4  -1   4   73.26    4.54
   4  -1   4   72.10    4.66
   4  -1   4   76.14    5.16
   4  -1   4   73.11    4.60
   4  -1   4   74.62    4.60
  -4  -1  -4   72.94    4.45
   4   1   4   73.03    4.54
   4   1   4   70.16    4.56
   4   1   4   69.22    4.87
   4   1   4   67.69    4.63
   4   1   4   71.57    4.73
  -4   1  -4   68.85    6.03
   4   1   4   74.12    4.52
   4   1   4   74.38    4.60
   4   1   4   74.42    5.18
  -4   1  -4   71.52    4.30
  -4   1  -4   68.59    4.48
   5  -1   4   23.65    2.07
   5  -1   4   23.37    2.01
   5  -1   4   24.04    1.85
  -5  -1  -4   20.32    2.66
   5  -1   4   23.80    1.95
   5  -1   4   24.54    1.94
   5  -1   4   24.71    2.01
   5  -1   4   22.62    1.90
   5  -1   4   23.65    1.85
   5   1   4   26.82    2.02
   5   1   4   28.82    1.95
   5   1   4   29.47    1.89
   5   1   4   27.63    1.88
   5   1   4   26.84    1.84
   5   1   4   26.03    1.93
  -5   1  -4   24.25    2.65
   5   1   4   27.40    2.16
  -5   1  -4   26.20    1.85
   5   1   4   26.25    2.07
  -5   1  -4   27.46    1.92
   6  -1   4    0.49    0.63
   6  -1   4    0.16    0.52
   6  -1   4    0.75    0.61
   6  -1   4   -0.33    0.52
  -6  -1  -4    0.84    0.92
   6  -1   4    0.41    0.54
   6  -1   4    1.04    0.84
   6  -1   4    0.38    0.63
   6  -1   4    1.32    0.70
   6   1   4    1.20    0.92
   6   1   4    2.05    0.59
   6   1   4    1.97    0.76
  -6   1  -4    0.12    0.71
  -6   1  -4    0.87    0.76
   6   1   4    1.77    0.66
  -6   1  -4    1.00    1.19
   6   1   4    1.13    0.77
   6   1   4    1.27    0.57
   6   1   4    1.55    0.65
   6   1   4    1.33    0.81
  -7  -1  -4    0.32    1.10
   7  -1   4   -0.75    0.83
   7   1   4   -1.70    0.89
  -7   1  -4   -0.62    0.99
   7   1   4    2.28    0.96
   7   1   4    0.05    0.85
   7   1   4    0.10    0.88
  -8  -1  -4    2.65    1.53
  -8   1  -4    2.49    1.92
  -8  -2   4    4.25    1.81
  -8   2   4    5.23    2.04
   8   2  -4    6.82    1.20
  -7  -2   4    5.76    1.68
   7  -2  -4    5.72    1.16
   7  -2  -4    7.96    1.22
   7   2  -4    7.47    1.28
   7   2  -4    8.93    1.03
   7   2  -4    7.10    1.17
  -6  -2   4   12.42    1.53
  -6  -2   4   16.46    2.06
   6  -2  -4   13.71    1.58
   6   2  -4   14.92    1.59
   6   2  -4   14.38    1.21
  -6   2   4   13.18    1.46
   6   2  -4   14.21    1.36
  -5  -2   4    4.25    0.89
  -5  -2   4    4.58    0.89
   5  -2  -4    4.57    0.72
  -5  -2   4    4.62    1.03
  -5  -2   4    5.11    0.96
  -5  -2   4    4.55    0.65
  -5   2   4    2.96    0.70
   5   2  -4    2.16    0.69
   5   2  -4    2.78    0.64
   5   2  -4    3.07    0.45
  -4  -2   4   12.46    1.15
  -4  -2   4   12.92    1.20
  -4  -2   4   15.25    1.53
   4  -2  -4   15.18    0.94
   4  -2  -4   13.70    1.30
  -4  -2   4   14.81    1.33
  -4  -2   4   14.57    1.25
  -4   2   4   13.67    1.23
  -4   2   4   14.60    1.04
   4   2  -4   13.66    1.28
   4   2  -4   13.84    1.22
  -4   2   4   13.49    1.27
   3  -2  -4    7.40    0.48
   3  -2  -4    7.03    0.67
  -3  -2   4    7.11    0.51
  -3  -2   4    6.15    0.74
  -3  -2   4    6.99    0.47
   3  -2  -4    6.45    0.70
  -3  -2   4    5.40    0.66
  -3  -2   4    7.15    0.76
  -3  -2   4    6.27    0.83
  -3  -2   4    7.36    0.87
  -3  -2   4    6.55    0.46
  -3  -2   4    7.26    0.53
  -3   2   4    7.29    0.80
   3   2  -4    7.04    0.75
  -3   2   4    7.07    0.63
   3   2  -4    6.80    0.73
  -3   2   4    7.53    0.70
  -3   2   4    7.14    0.60
  -2  -2   4    6.98    0.65
   2  -2  -4    6.44    0.57
  -2  -2   4    6.77    0.75
  -2  -2   4    7.05    0.72
   2  -2  -4    5.82    0.69
  -2  -2   4    6.21    0.46
  -2  -2   4    6.92    0.44
  -2  -2   4    6.52    0.64
   2   2  -4    6.62    0.63
  -2   2   4    6.43    0.58
  -2   2   4    6.97    0.60
  -2   2   4    7.21    0.67
   2   2  -4    7.01    0.66
   2   2  -4    7.55    0.68
  -2   2   4    7.66    0.59
   1  -2  -4    0.69    0.20
  -1  -2   4    1.07    0.29
   1  -2  -4    0.84    0.21
  -1  -2   4    0.90    0.10
  -1  -2   4    0.97    0.29
  -1  -2   4    1.01    0.13
  -1  -2   4    0.85    0.13
  -1  -2   4    0.99    0.15
   1  -2  -4    1.03    0.22
  -1  -2   4    1.08    0.18
  -1  -2   4    1.23    0.37
  -1  -2   4    1.03    0.35
  -1  -2   4    1.17    0.16
  -1  -2   4    0.67    0.22
  -1  -2   4    0.86    0.17
  -1  -2   4    1.16    0.22
  -1   2   4    1.22    0.27
  -1   2   4    1.00    0.27
   1   2  -4    1.02    0.16
  -1   2   4    0.73    0.18
   1   2  -4    0.88    0.19
   1   2  -4    0.86    0.19
  -1   2   4    0.89    0.18
   1   2  -4    1.15    0.17
   1   2  -4    1.57    0.29
   1   2  -4    1.11    0.28
   1   2  -4    1.17    0.16
  -1   2   4    1.32    0.20
   1   2  -4    1.02    0.30
   0  -2   4   13.18    0.85
   0  -2   4   13.78    0.93
   0  -2   4   12.33    0.88
   0  -2  -4   11.57    1.32
   0  -2   4   13.19    0.86
   0  -2  -4   14.95    1.03
   0  -2   4   13.49    0.87
   0  -2   4   12.97    0.93
   0  -2  -4   11.96    0.78
   0  -2  -4   13.71    0.89
   0  -2   4   13.59    0.86
   0  -2   4   12.82    1.07
   0  -2  -4   12.77    0.79
   0  -2   4   12.78    0.88
   0   2  -4   12.02    0.85
   0   2   4   10.97    0.95
   0   2   4   12.49    0.93
   0   2  -4   12.50    0.92
   0   2  -4   11.49    0.92
   0   2   4   11.93    0.96
   0   2   4   12.14    0.90
   0   2   4   12.94    0.98
   0   2  -4   12.37    0.87
   0   2  -4   13.16    0.85
   0   2   4   13.44    0.89
   0   2  -4   12.48    0.89
   0   2  -4   12.39    0.92
   0   2  -4   12.02    1.03
   0   2   4   12.73    0.91
   0   2  -4   12.15    0.96
   0   2   4   11.75    0.94
   0   2  -4   12.23    0.86
   0   2  -4   13.26    0.89
   0   2  -4   12.34    0.85
   0   2   4   12.24    1.00
   1  -2   4   43.24    2.85
   1  -2   4   44.30    2.66
   1  -2   4   45.73    2.75
   1  -2   4   47.51    2.70
   1  -2   4   46.55    2.70
   1  -2   4   47.13    2.67
  -1  -2  -4   45.41    2.40
  -1  -2  -4   46.38    2.54
  -1  -2  -4   47.83    3.40
   1  -2   4   45.43    2.95
  -1  -2  -4   49.87    2.93
  -1  -2  -4   43.59    3.59
   1  -2   4   44.55    2.64
   1   2   4   36.93    2.69
   1   2   4   36.50    2.74
   1   2   4   42.56    2.53
   1   2   4   38.22    2.81
   1   2   4   37.64    2.87
  -1   2  -4   38.62    2.62
   1   2   4   41.25    2.75
   1   2   4   41.02    2.91
  -1   2  -4   42.10    3.42
   1   2   4   38.14    2.69
   1   2   4   35.43    2.74
  -1   2  -4   40.56    2.51
  -1   2  -4   38.15    2.81
  -1   2  -4   37.53    2.61
   1   2   4   37.97    2.73
  -2  -2  -4   15.22    1.88
   2  -2   4   16.03    1.37
  -2  -2  -4   17.15    1.65
   2  -2   4   16.05    1.34
   2  -2   4   15.39    1.35
   2  -2   4   17.59    1.36
   2  -2   4   15.62    1.36
   2  -2   4   15.84    1.47
   2  -2   4   16.25    1.41
   2  -2   4   15.19    1.42
   2   2   4   25.31    1.49
  -2   2  -4   22.13    1.39
   2   2   4   24.42    1.52
  -2   2  -4   24.42    1.32
   2   2   4   21.72    1.41
   2   2   4   24.83    1.32
   2   2   4   25.01    1.46
   2   2   4   24.29    1.61
   2   2   4   25.25    1.50
   2   2   4   26.44    1.54
  -2   2  -4   23.84    1.39
   2   2   4   24.34    1.50
   3  -2   4   24.13    1.72
   3  -2   4   22.94    1.83
   3  -2   4   22.02    1.68
   3  -2   4   22.55    1.65
   3  -2   4   24.26    1.69
  -3  -2  -4   24.02    1.71
   3  -2   4   21.73    1.81
   3  -2   4   22.02    1.66
  -3  -2  -4   23.27    1.48
   3  -2   4   21.20    1.70
  -3  -2  -4   20.94    2.31
   3  -2   4   25.67    1.88
   3   2   4   23.77    1.59
   3   2   4   25.29    1.74
   3   2   4   25.14    1.74
   3   2   4   25.43    1.97
   3   2   4   26.06    1.80
  -3   2  -4   23.38    1.64
  -3   2  -4   24.50    1.57
  -3   2  -4   26.56    2.19
   3   2   4   25.50    1.71
  -3   2  -4   24.03    1.66
   3   2   4   25.53    1.68
   3   2   4   25.71    1.78
   3   2   4   25.51    1.73
   4  -2   4   69.85    4.56
  -4  -2  -4   64.13    5.83
   4  -2   4   68.27    4.39
   4  -2   4   73.99    4.38
   4  -2   4   63.71    4.69
   4  -2   4   66.41    4.45
   4  -2   4   67.66    4.34
   4  -2   4   69.61    4.92
   4  -2   4   65.09    4.41
   4   2   4   71.03    4.40
   4   2   4   72.77    5.03
   4   2   4   66.88    4.34
  -4   2  -4   71.69    5.77
   4   2   4   68.40    4.40
  -4   2  -4   74.69    4.35
   4   2   4   69.59    4.52
  -4   2  -4   69.24    4.13
   4   2   4   70.35    4.39
   4   2   4   68.90    4.46
   4   2   4   68.83    4.69
  -5  -2  -4   40.02    3.99
   5  -2   4   47.68    2.95
   5  -2   4   46.77    3.04
   5  -2   4   42.32    3.01
   5  -2   4   48.66    3.31
   5  -2   4   42.52    2.96
   5  -2   4   48.72    3.27
   5  -2   4   45.55    3.07
   5  -2   4   46.80    2.95
   5   2   4   41.26    2.93
   5   2   4   43.50    2.97
   5   2   4   42.88    2.89
  -5   2  -4   39.17    3.96
   5   2   4   40.60    3.05
   5   2   4   43.83    2.91
  -5   2  -4   44.64    2.97
   5   2   4   41.43    3.42
  -5   2  -4   41.63    2.84
   5   2   4   42.22    3.16
   5   2   4   40.94    3.04
   6  -2   4    8.17    1.17
   6  -2   4    9.23    1.36
   6  -2   4    9.64    1.28
  -6  -2  -4   10.26    1.95
   6  -2   4    8.32    1.36
   6  -2   4    9.92    1.29
   6  -2   4    8.60    1.20
   6  -2   4    9.99    1.26
   6   2   4   13.62    1.29
  -6   2  -4    8.99    1.76
   6   2   4   10.86    1.40
   6   2   4   12.07    1.34
   6   2   4   12.82    1.19
   6   2   4   11.02    1.24
   6   2   4   11.17    1.33
  -6   2  -4   10.64    1.26
   6   2   4   10.69    1.26
   6   2   4   12.78    1.24
  -6   2  -4   11.28    1.31
   7  -2   4   23.69    2.07
  -7  -2  -4   17.31    2.64
   7   2   4   18.79    1.83
   7   2   4   20.00    1.89
   7   2   4   19.68    1.92
  -7   2  -4   17.66    2.75
  -8   2  -4   11.06    2.49
  -8  -3   4    3.16    1.76
   8   3  -4    4.60    1.16
   7  -3  -4   10.44    1.48
  -7  -3   4    8.68    1.59
  -7  -3   4    8.98    1.82
   7  -3  -4   10.34    1.34
   7   3  -4    6.97    1.21
   7   3  -4    6.83    1.19
  -7   3   4    6.58    1.25
  -6  -3   4    9.38    1.47
   6  -3  -4    9.64    1.24
  -6  -3   4    9.41    1.68
  -6  -3   4   10.20    1.38
  -6   3   4   10.18    1.31
   6   3  -4   11.09    1.37
   6   3  -4   11.44    1.22
  -5  -3   4   35.20    2.93
  -5  -3   4   36.05    3.24
  -5  -3   4   37.27    3.03
   5  -3  -4   37.04    2.99
  -5  -3   4   36.14    3.57
  -5   3   4   39.48    3.00
  -5   3   4   43.41    2.68
   5   3  -4   45.91    2.90
   5   3  -4   44.23    3.07
  -4  -3   4   47.64    3.64
  -4  -3   4   49.51    3.54
   4  -3  -4   47.59    3.76
  -4  -3   4   52.24    4.39
  -4  -3   4   49.09    3.60
  -4  -3   4   49.46    3.97
  -4   3   4   55.83    3.30
   4   3  -4   55.47    3.51
   4   3  -4   53.46    3.75
  -4   3   4   54.43    3.72
  -4   3   4   53.95    3.29
   3  -3  -4   57.16    3.76
  -3  -3   4   59.59    4.33
  -3  -3   4   52.61    3.89
  -3  -3   4   53.30    3.64
   3  -3  -4   54.92    3.42
  -3  -3   4   58.96    3.58
  -3  -3   4   55.06    3.54
   3   3  -4   47.05    3.68
  -3   3   4   46.52    3.24
  -3   3   4   43.64    3.63
   3   3  -4   47.26    3.45
  -3   3   4   49.54    3.28
   2  -3  -4  146.13    8.69
  -2  -3   4  143.14    9.76
  -2  -3   4  143.62    9.10
  -2  -3   4  150.61    8.87
  -2  -3   4  147.60    8.92
  -2   3   4  139.47    8.98
   2   3  -4  127.62    8.75
   2   3  -4  131.02    8.14
  -2   3   4  130.73    8.16
  -2   3   4  127.94    9.19
   2   3  -4  128.32    8.17
   2   3  -4  130.61    9.37
  -1  -3   4  105.87    6.24
  -1  -3   4  112.58    7.01
   1  -3  -4  113.59    6.12
  -1  -3   4  101.16    6.83
  -1  -3   4  103.00    6.64
  -1  -3   4  110.27    6.36
   1  -3  -4  110.66    5.84
  -1  -3   4  103.64    6.70
  -1  -3   4  100.46    7.32
   1  -3  -4  104.63    6.49
   1   3  -4   99.27    6.23
  -1   3   4   99.51    6.10
   1   3  -4   95.73    6.58
   1   3  -4   95.19    6.14
   1   3  -4  105.54    6.15
  -1   3   4   99.91    6.91
   1   3  -4   91.80    6.99
   1   3  -4   97.74    6.36
  -1   3   4   99.21    6.21
   1   3  -4  100.14    6.09
  -1   3   4  109.20    6.69
   1   3  -4   96.96    6.17
   1   3  -4  103.37    6.25
   0  -3   4  121.65    8.25
   0  -3   4  122.17    8.99
   0  -3  -4  130.79    7.80
   0  -3  -4  122.48   10.76
   0  -3   4  121.30    9.82
   0  -3   4  127.81    8.36
   0  -3  -4  129.92   11.12
   0  -3  -4  130.19    8.18
   0  -3   4  116.33    8.44
   0  -3   4  118.91    8.31
   0  -3   4  126.78    8.46
   0  -3   4  124.50    8.62
   0   3  -4  141.81    7.93
   0   3   4  141.89    8.84
   0   3  -4  147.82    8.27
   0   3   4  147.91    9.27
   0   3  -4  140.85    8.87
   0   3  -4  152.69    8.64
   0   3   4  150.13    8.56
   0   3  -4  157.58   10.84
   0   3  -4  140.72    8.26
   0   3   4  157.79    8.76
   0   3  -4  151.37    9.01
   0   3   4  145.74    8.35
   0   3  -4  140.65    8.31
   0   3   4  148.92    8.43
   0   3  -4  145.86    8.37
   0   3   4  145.52    8.45
   0   3  -4  149.82    8.47
   0   3   4  158.42    8.18
   0   3   4  149.05    9.03
   1  -3   4  145.65    8.64
   1  -3   4  141.89    8.59
   1  -3   4  139.30    8.69
  -1  -3  -4  159.98    9.56
  -1  -3  -4  133.91   11.51
   1  -3   4  135.64    8.96
  -1  -3  -4  149.98   11.13
   1  -3   4  151.60   11.05
   1  -3   4  148.51    9.74
   1  -3   4  131.48    9.33
   1  -3   4  137.59    8.79
   1  -3   4  138.90    8.77
   1   3   4  141.35    8.85
   1   3   4  144.57    9.32
   1   3   4  161.75    9.09
   1   3   4  135.79    8.89
  -1   3  -4  145.49    8.59
   1   3   4  140.53    8.78
  -1   3  -4  140.43    8.54
   1   3   4  158.16    8.41
   1   3   4  141.90    8.71
   1   3   4  139.37    8.67
   1   3   4  135.43    9.38
  -1   3  -4  135.70    8.20
   1   3   4  144.42    8.06
  -1   3  -4  145.64    9.17
   1   3   4  152.39    9.56
   1   3   4  137.18    9.05
   2  -3   4   33.36    2.22
  -2  -3  -4   38.14    2.36
   2  -3   4   34.62    2.39
  -2  -3  -4   33.39    2.81
   2  -3   4   34.99    2.25
   2  -3   4   36.35    2.73
   2  -3   4   34.28    2.22
   2  -3   4   34.23    2.31
   2  -3   4   36.51    2.42
   2  -3   4   32.42    2.24
   2  -3   4   33.88    2.21
   2  -3   4   40.20    2.25
  -2  -3  -4   31.87    3.03
   2   3   4   32.82    2.38
   2   3   4   32.88    2.31
   2   3   4   33.74    2.08
   2   3   4   32.44    2.32
   2   3   4   31.89    2.34
  -2   3  -4   29.74    2.20
   2   3   4   35.38    2.05
   2   3   4   34.76    2.34
  -2   3  -4   32.26    2.13
   2   3   4   34.19    1.95
   2   3   4   32.35    2.28
  -2   3  -4   31.51    2.19
   2   3   4   31.92    2.28
   2   3   4   33.59    2.07
   2   3   4   33.43    2.28
   3  -3   4   53.74    3.60
   3  -3   4   52.90    3.32
   3  -3   4   56.08    3.69
  -3  -3  -4   50.35    4.48
   3  -3   4   51.68    3.33
   3  -3   4   54.60    4.05
   3  -3   4   53.25    3.40
   3  -3   4   52.93    3.34
   3  -3   4   53.69    3.39
   3  -3   4   56.54    3.45
   3   3   4   50.79    3.09
   3   3   4   46.35    3.80
  -3   3  -4   47.15    3.25
  -3   3  -4   48.49    3.29
   3   3   4   52.69    2.99
   3   3   4   50.31    3.41
  -3   3  -4   49.91    3.16
   3   3   4   47.92    3.46
   3   3   4   51.06    3.36
   3   3   4   51.87    3.34
  -3   3  -4   52.45    4.32
   3   3   4   49.56    3.52
   3   3   4   50.01    3.38
   3   3   4   56.19    3.15
   3   3   4   52.27    3.37
   4  -3   4   30.64    2.20
   4  -3   4   25.85    2.13
  -4  -3  -4   26.12    2.80
   4  -3   4   28.05    2.20
   4  -3   4   28.19    2.06
   4  -3   4   27.42    2.03
   4  -3   4   28.90    2.11
   4  -3   4   29.93    2.26
   4  -3   4   27.62    2.07
   4   3   4   31.90    2.09
   4   3   4   29.15    2.17
  -4   3  -4   29.59    2.01
  -4   3  -4   28.85    2.75
   4   3   4   29.38    1.98
  -4   3  -4   30.05    2.04
   4   3   4   27.69    2.41
   4   3   4   30.83    2.16
  -4   3  -4   29.32    2.04
   4   3   4   30.75    2.09
   4   3   4   29.00    2.16
   4   3   4   32.72    2.08
   4   3   4   31.48    2.08
   5  -3   4   13.61    1.33
  -5  -3  -4   14.94    2.04
   5  -3   4   16.34    1.60
   5  -3   4   15.16    1.34
   5  -3   4   14.97    1.37
   5  -3   4   16.50    1.56
   5  -3   4   16.62    1.51
   5  -3   4   16.18    1.35
   5   3   4   14.36    1.68
   5   3   4   14.16    1.26
   5   3   4   13.64    1.39
  -5   3  -4   14.01    1.28
  -5   3  -4   12.39    1.87
  -5   3  -4   12.14    1.38
   5   3   4   14.01    1.38
   5   3   4   14.75    1.27
   5   3   4   15.91    1.48
   5   3   4   15.64    1.41
   5   3   4   17.30    1.47
   5   3   4   16.92    1.33
   6  -3   4    6.09    1.10
   6  -3   4    6.11    1.14
  -6  -3  -4    4.64    1.37
   6  -3   4    6.24    1.03
   6  -3   4    5.75    1.10
   6  -3   4    6.18    0.93
   6  -3   4    5.72    1.13
   6  -3   4    7.36    1.15
   6   3   4    6.03    0.96
   6   3   4    4.78    1.03
  -6   3  -4    5.21    0.89
   6   3   4    4.75    0.95
   6   3   4    4.73    0.80
   6   3   4    4.20    1.02
  -6   3  -4    4.68    1.24
  -6   3  -4    8.07    1.16
   6   3   4    4.35    0.94
   6   3   4    4.79    0.93
  -7  -3  -4    4.49    1.56
  -7   3  -4    6.43    1.54
  -8  -4   4    5.49    1.97
   8   4  -4    7.61    1.18
  -7  -4   4    5.45    1.39
   7  -4  -4    6.05    1.17
  -7  -4   4    6.57    1.31
  -7   4   4    7.43    1.36
   7   4  -4    5.30    1.18
  -6  -4   4    6.86    1.13
  -6  -4   4    6.79    1.42
  -6  -4   4    6.73    1.36
   6  -4  -4    5.40    0.94
   6   4  -4    4.21    0.86
  -6   4   4    3.99    1.04
   6   4  -4    4.62    0.89
  -5  -4   4    1.77    0.94
  -5  -4   4    1.30    0.78
   5  -4  -4    1.88    0.72
  -5  -4   4    0.92    0.64
  -5  -4   4    1.17    0.66
  -5   4   4    1.62    0.54
   5   4  -4    1.81    0.70
   5   4  -4    2.10    0.58
  -5   4   4    1.24    0.58
  -4  -4   4   10.99    1.25
  -4  -4   4   12.25    1.10
   4  -4  -4   13.57    1.13
  -4  -4   4   11.80    1.27
  -4  -4   4   12.80    1.42
  -4   4   4   10.47    0.97
  -4   4   4    8.05    1.10
   4   4  -4    9.48    1.08
   4   4  -4   11.12    1.11
  -4   4   4   11.19    1.02
   3  -4  -4    5.74    0.64
  -3  -4   4    7.81    1.01
   3  -4  -4    6.87    0.85
  -3  -4   4    6.34    0.97
  -3  -4   4    5.51    0.84
  -3  -4   4    6.21    0.77
  -3   4   4    8.18    0.73
   3   4  -4    6.91    0.80
  -3   4   4    8.28    0.77
   3   4  -4    7.39    0.78
  -3   4   4    6.75    0.82
  -3   4   4    7.62    0.77
   3   4  -4    7.83    0.75
  -2  -4   4    4.23    0.55
   2  -4  -4    3.99    0.38
  -2  -4   4    3.30    0.59
  -2  -4   4    5.20    0.66
  -2  -4   4    4.34    0.70
   2   4  -4    3.16    0.42
   2   4  -4    3.05    0.53
  -2   4   4    3.13    0.59
   2   4  -4    3.28    0.53
  -2   4   4    3.49    0.44
  -2   4   4    2.93    0.41
   2   4  -4    3.27    0.28
   2   4  -4    3.33    0.31
  -1  -4   4    3.61    0.35
  -1  -4   4    3.58    0.50
   1  -4  -4    4.07    0.27
   1  -4  -4    3.73    0.31
   1  -4  -4    3.29    0.37
   1  -4  -4    4.08    0.71
  -1  -4   4    3.49    0.57
   1  -4  -4    3.58    0.28
   1  -4  -4    3.77    0.37
  -1  -4   4    3.45    0.29
  -1  -4   4    3.16    0.54
   1   4  -4    2.82    0.32
   1   4  -4    2.87    0.45
   1   4  -4    3.35    0.31
   1   4  -4    2.78    0.28
   1   4  -4    3.05    0.33
  -1   4   4    3.09    0.53
   1   4  -4    3.08    0.30
   1   4  -4    2.70    0.49
  -1   4   4    3.01    0.47
  -1   4   4    2.88    0.36
   1   4  -4    2.80    0.33
  -1   4   4    3.18    0.34
   1   4  -4    3.33    0.31
   1   4  -4    2.91    0.42
   0  -4  -4    7.63    1.15
   0  -4   4    8.87    0.63
   0  -4   4    8.32    0.65
   0  -4  -4    8.77    0.51
   0  -4   4    8.36    0.83
   0  -4  -4    9.49    0.57
   0  -4  -4   10.13    1.08
   0   4  -4    6.73    0.71
   0   4   4    6.55    0.76
   0   4  -4    7.35    0.59
   0   4   4    7.04    0.55
   0   4  -4    7.39    0.78
   0   4  -4    6.99    0.65
   0   4  -4    7.06    0.62
   0   4  -4    7.15    0.63
   0   4   4    6.85    0.77
   0   4   4    8.62    0.53
   0   4   4    7.04    0.78
   0   4   4    7.27    0.54
   0   4   4    6.32    0.74
   0   4  -4    7.12    0.73
   1  -4   4   44.01    2.88
   1  -4   4   43.39    2.80
   1  -4   4   39.17    2.78
   1  -4   4   41.24    2.75
   1  -4   4   43.98    3.55
  -1  -4  -4   40.71    3.89
   1  -4   4   43.40    2.81
  -1  -4  -4   43.68    3.63
   1  -4   4   42.63    3.33
   1  -4   4   42.72    2.98
   1   4   4   45.45    2.88
   1   4   4   44.31    3.02
   1   4   4   40.87    3.04
  -1   4  -4   48.56    2.79
  -1   4  -4   44.54    2.83
   1   4   4   44.00    2.89
   1   4   4   46.43    3.06
   1   4   4   41.01    2.94
   1   4   4   46.26    2.61
   1   4   4   50.99    2.85
   1   4   4   46.17    2.89
   1   4   4   44.09    2.58
   1   4   4   42.94    2.91
   1   4   4   42.24    2.96
  -1   4  -4   46.59    2.70
  -1   4  -4   44.70    2.97
  -2  -4  -4   15.40    1.50
   2  -4   4   13.10    1.18
   2  -4   4   13.58    1.17
   2  -4   4   14.12    1.22
   2  -4   4   13.07    1.11
   2  -4   4   14.80    1.18
   2  -4   4   13.20    1.14
  -2  -4  -4   13.76    1.76
   2  -4   4   13.61    1.12
   2  -4   4   14.43    1.14
   2  -4   4   14.33    1.37
   2   4   4   16.01    1.27
   2   4   4   16.15    1.23
  -2   4  -4   16.56    1.21
  -2   4  -4   16.24    1.22
   2   4   4   17.12    1.24
   2   4   4   16.24    0.97
   2   4   4   17.56    1.34
  -2   4  -4   16.17    1.11
   2   4   4   13.82    1.28
   2   4   4   15.67    1.08
   2   4   4   17.96    1.15
   2   4   4   17.10    1.24
   2   4   4   15.11    1.25
  -3  -4  -4    9.68    1.56
   3  -4   4    9.28    1.02
   3  -4   4   10.72    1.08
   3  -4   4   11.21    1.03
   3  -4   4   11.37    1.06
   3  -4   4   10.26    0.94
   3  -4   4   12.42    1.05
  -3  -4  -4   10.89    1.19
   3  -4   4   10.40    0.95
   3  -4   4    9.78    1.03
   3   4   4    8.54    0.96
   3   4   4   11.87    1.13
   3   4   4   12.81    1.06
   3   4   4   11.59    0.99
  -3   4  -4    9.95    1.04
   3   4   4    9.85    0.95
  -3   4  -4   10.51    0.95
  -3   4  -4   10.62    0.92
   3   4   4   10.51    1.10
   3   4   4   11.88    1.08
   3   4   4    9.75    1.08
   3   4   4   10.74    1.06
   4  -4   4   28.10    2.10
   4  -4   4   26.81    2.19
   4  -4   4   29.10    2.09
  -4  -4  -4   24.80    2.83
   4  -4   4   30.90    2.07
   4  -4   4   29.12    2.28
   4  -4   4   28.81    2.07
  -4   4  -4   32.25    2.79
   4   4   4   29.62    2.12
   4   4   4   27.41    1.92
  -4   4  -4   28.53    1.97
   4   4   4   31.10    2.20
   4   4   4   30.28    2.08
   4   4   4   26.86    2.08
   4   4   4   29.86    2.09
   4   4   4   27.60    2.36
  -4   4  -4   28.65    2.14
   4   4   4   30.66    2.17
   4   4   4   30.20    2.16
  -4   4  -4   29.04    2.06
   5  -4   4   38.06    2.66
   5  -4   4   36.11    2.87
   5  -4   4   37.05    2.69
   5  -4   4   36.38    2.70
  -5  -4  -4   36.13    3.59
   5  -4   4   37.28    2.67
   5  -4   4   36.32    2.58
   5   4   4   39.19    2.57
   5   4   4   37.45    2.61
   5   4   4   33.11    2.48
   5   4   4   37.15    2.64
   5   4   4   37.17    2.70
  -5   4  -4   30.09    3.42
  -5   4  -4   36.10    2.58
   5   4   4   37.08    2.59
   5   4   4   38.90    2.54
   5   4   4   36.00    2.96
   5   4   4   34.63    2.67
  -5   4  -4   35.45    2.47
  -6  -4  -4   18.76    2.64
   6  -4   4   18.09    1.57
   6  -4   4   19.72    1.65
   6  -4   4   20.86    1.63
   6  -4   4   18.99    1.81
   6  -4   4   21.19    1.96
   6   4   4   11.84    1.40
   6   4   4   12.80    1.46
   6   4   4   13.93    1.47
  -6   4  -4   10.29    1.37
  -6   4  -4   14.29    1.52
   6   4   4   15.05    1.91
   6   4   4   14.06    1.47
  -6   4  -4   10.38    2.07
  -7   4  -4   27.94    3.17
  -7  -5   4    6.61    1.33
   7   5  -4    6.08    1.25
  -6  -5   4    4.81    1.21
  -6  -5   4    4.60    1.32
  -6  -5   4    5.24    1.52
   6  -5  -4    6.04    1.18
   6   5  -4    8.03    1.20
   6   5  -4    7.11    1.00
  -6   5   4    6.18    1.08
  -6   5   4    8.89    1.09
  -5  -5   4   33.47    2.90
  -5  -5   4   39.59    3.62
  -5  -5   4   38.65    2.92
  -5  -5   4   38.18    3.22
   5  -5  -4   38.41    2.95
  -5   5   4   33.56    2.99
  -5   5   4   40.01    2.71
   5   5  -4   39.59    2.76
   5   5  -4   39.46    2.96
  -4  -5   4   25.81    2.01
  -4  -5   4   21.43    1.88
  -4  -5   4   25.15    2.24
   4  -5  -4   24.76    2.35
   4  -5  -4   27.19    2.00
  -4  -5   4   25.71    2.35
  -4   5   4   22.34    1.73
  -4   5   4   22.01    1.76
   4   5  -4   21.80    1.85
  -4   5   4   22.38    1.65
   4   5  -4   22.47    1.73
   4   5  -4   19.97    1.78
  -4   5   4   19.24    1.95
  -3  -5   4   61.66    4.59
   3  -5  -4   56.09    3.51
  -3  -5   4   53.16    3.67
  -3  -5   4   53.19    4.10
   3  -5  -4   54.56    4.55
  -3  -5   4   54.41    3.80
   3   5  -4   52.12    3.80
   3   5  -4   52.21    3.62
  -3   5   4   52.93    3.50
  -3   5   4   51.31    3.82
   3   5  -4   49.40    3.37
  -3   5   4   53.75    3.39
  -3   5   4   53.18    3.21
   2  -5  -4   62.68    3.82
  -2  -5   4   62.40    4.05
   2  -5  -4   57.35    4.98
  -2  -5   4   67.02    4.92
  -2  -5   4   59.07    4.13
  -2  -5   4   60.50    4.47
  -2   5   4   56.88    4.20
   2   5  -4   60.95    3.60
   2   5  -4   61.84    3.66
   2   5  -4   58.42    4.16
  -2   5   4   56.95    3.67
   2   5  -4   52.65    3.71
   2   5  -4   59.08    3.62
   2   5  -4   57.75    3.62
   2   5  -4   63.16    3.63
  -2   5   4   58.25    3.50
   2   5  -4   61.92    3.63
   2   5  -4   55.45    3.96
   1  -5  -4   42.80    4.22
   1  -5  -4   48.40    3.05
  -1  -5   4   44.82    3.81
  -1  -5   4   41.72    3.44
  -1  -5   4   45.52    3.54
   1   5  -4   50.04    3.43
   1   5  -4   55.50    3.17
   1   5  -4   55.23    3.10
  -1   5   4   51.90    3.60
   1   5  -4   54.57    3.23
   1   5  -4   48.68    3.09
  -1   5   4   50.47    3.27
   1   5  -4   49.31    3.21
   1   5  -4   53.33    3.52
  -1   5   4   56.99    2.90
  -1   5   4   52.13    3.13
  -1   5   4   59.38    2.99
   1   5  -4   53.62    3.15
   1   5  -4   48.76    3.24
   0  -5   4   50.79    3.28
   0  -5   4   49.00    4.04
   0  -5  -4   52.33    2.84
   0  -5  -4   45.88    4.12
   0  -5   4   46.10    3.69
   0   5  -4   51.06    3.28
   0   5   4   50.40    3.46
   0   5  -4   45.11    3.28
   0   5  -4   48.71    3.13
   0   5   4   48.89    2.98
   0   5  -4   49.77    3.00
   0   5   4   50.51    3.37
   0   5  -4   47.89    3.11
   0   5   4   48.22    3.18
   0   5   4   50.19    2.84
   0   5  -4   52.76    3.01
   0   5   4   48.04    3.17
   1  -5   4   96.60    7.52
  -1  -5  -4   99.02    8.61
  -1  -5  -4   98.25    8.26
   1  -5   4   98.41    8.18
   1  -5   4  103.27    6.86
  -1   5  -4  104.52    6.07
   1   5   4  103.37    6.52
   1   5   4   96.41    6.91
   1   5   4  104.89    6.43
  -1   5  -4  106.42    6.38
   1   5   4  106.88    6.46
  -1   5  -4  108.72    6.76
   1   5   4  113.20    6.59
   1   5   4  107.46    5.94
   1   5   4  103.91    6.62
   1   5   4   96.32    6.70
   1   5   4  105.43    6.49
   1   5   4  114.55    7.03
   1   5   4  109.31    6.18
   1   5   4   98.57    6.87
   1   5   4  109.58    6.58
  -1   5  -4  109.76    6.32
   2  -5   4  141.98    8.76
   2  -5   4  138.34    9.55
  -2  -5  -4  138.42   10.46
   2  -5   4  140.41    8.42
  -2  -5  -4  130.95   10.87
   2  -5   4  144.02   10.35
   2  -5   4  144.19    8.27
   2   5   4  124.94    8.18
   2   5   4  133.67    7.85
  -2   5  -4  128.33    8.07
   2   5   4  133.33    8.73
   2   5   4  124.96    7.54
   2   5   4  141.04    8.86
  -2   5  -4  130.97    7.70
  -2   5  -4  127.97    8.00
   2   5   4  126.84    8.13
   2   5   4  123.58    8.28
   2   5   4  129.13    8.48
   2   5   4  127.22    8.22
   2   5   4  125.77    8.34
   3  -5   4    7.08    0.89
  -3  -5  -4    6.69    1.35
   3  -5   4    7.91    0.90
   3  -5   4    7.81    1.01
   3  -5   4    7.23    1.02
   3  -5   4    7.34    0.95
   3  -5   4    8.01    0.99
  -3  -5  -4    8.61    1.20
   3   5   4    9.89    1.11
  -3   5  -4   10.25    1.00
  -3   5  -4   10.89    0.95
   3   5   4   10.92    0.92
   3   5   4    9.92    0.99
  -3   5  -4   10.90    0.93
   3   5   4    9.57    0.83
   3   5   4   11.80    1.05
   3   5   4   11.25    1.11
   3   5   4    9.64    0.94
   3   5   4   10.55    1.13
   3   5   4   12.13    1.11
   4  -5   4   14.37    1.55
  -4  -5  -4   13.03    2.21
   4  -5   4   14.80    1.42
   4  -5   4   15.30    1.50
   4   5   4   16.77    1.47
   4   5   4   17.85    1.43
  -4   5  -4   18.89    1.46
  -4   5  -4   19.82    1.61
   4   5   4   17.19    1.58
   4   5   4   18.65    1.44
   4   5   4   17.93    1.45
   4   5   4   18.52    1.57
  -4   5  -4   16.03    1.49
   4   5   4   17.91    1.51
   4   5   4   18.51    1.79
   4   5   4   17.50    1.51
   5  -5   4   11.97    1.35
  -5  -5  -4    9.41    1.74
   5  -5   4   11.35    1.40
   5   5   4    9.23    1.13
   5   5   4   10.89    1.20
   5   5   4    9.05    1.11
  -5   5  -4    9.54    1.25
  -5   5  -4    9.27    1.17
   5   5   4    7.80    1.39
   5   5   4   10.26    1.14
   5   5   4    8.37    1.16
  -5   5  -4    7.89    1.57
   5   5   4    9.76    1.13
  -6  -5  -4    5.50    1.62
  -6   5  -4    8.92    1.74
   6   5   4    6.30    1.11
   6   5   4    4.46    1.14
  -7  -5  -4    0.25    1.29
  -7   5  -4    0.72    1.19
  -7  -6   4    5.78    1.33
   7   6  -4    4.71    1.28
  -6  -6   4    9.95    1.84
   6  -6  -4    7.65    1.22
  -6  -6   4    8.69    1.56
   6  -6  -4    7.93    1.78
   6   6  -4   10.61    1.30
   6   6  -4   10.76    1.33
   6   6  -4   11.23    1.42
  -5  -6   4    7.46    1.24
  -5  -6   4    8.54    1.40
   5  -6  -4    6.75    1.41
  -5  -6   4   11.11    1.33
   5  -6  -4    9.60    1.25
   5   6  -4    9.10    1.15
  -5   6   4    7.83    1.19
   5   6  -4    9.37    1.15
   5   6  -4    7.68    1.08
  -5   6   4    7.36    1.10
   4  -6  -4    0.96    1.02
  -4  -6   4    0.00    0.52
  -4  -6   4    0.72    0.67
  -4  -6   4    0.64    0.70
  -4   6   4    1.46    0.63
   4   6  -4    1.86    0.57
  -4   6   4    2.42    0.70
   4   6  -4    1.48    0.62
   4   6  -4    2.91    0.70
  -4   6   4    2.27    0.62
  -4   6   4    0.93    0.47
  -3  -6   4    4.43    0.74
  -3  -6   4    2.61    0.72
   3  -6  -4    2.53    0.86
  -3  -6   4    2.39    0.87
   3   6  -4    2.51    0.64
  -3   6   4    2.52    0.57
  -3   6   4    1.87    0.42
  -3   6   4    2.19    0.60
   3   6  -4    2.30    0.59
   3   6  -4    3.07    0.51
  -3   6   4    2.45    0.70
  -2  -6   4    2.51    0.61
   2  -6  -4    2.12    0.77
  -2  -6   4    2.41    0.64
  -2  -6   4    3.50    0.68
   2   6  -4    2.27    0.51
   2   6  -4    2.04    0.57
   2   6  -4    2.08    0.54
  -2   6   4    2.50    0.43
  -2   6   4    3.01    0.50
  -2   6   4    2.86    0.59
   2   6  -4    2.40    0.56
   2   6  -4    2.81    0.41
  -2   6   4    2.51    0.55
  -1  -6   4    0.67    0.48
   1  -6  -4    1.00    0.63
  -1  -6   4    0.42    0.48
  -1  -6   4    1.01    0.39
  -1   6   4    1.30    0.30
  -1   6   4    1.16    0.31
   1   6  -4    0.52    0.46
   1   6  -4    0.57    0.39
   1   6  -4    0.98    0.46
  -1   6   4    0.69    0.19
   1   6  -4    0.79    0.43
  -1   6   4    0.29    0.39
  -1   6   4    0.30    0.48
   1   6  -4    0.73    0.16
   1   6  -4    0.77    0.26
   1   6  -4    0.04    0.36
   0  -6   4   19.81    1.62
   0  -6   4   22.86    1.55
   0  -6  -4   21.08    1.91
   0  -6   4   20.65    1.53
   0  -6   4   22.26    1.85
   0   6  -4   16.54    1.32
   0   6   4   18.65    1.10
   0   6   4   17.41    1.46
   0   6   4   18.18    1.20
   0   6   4   17.96    1.47
   0   6  -4   15.69    1.35
   0   6  -4   16.35    1.42
   0   6  -4   15.80    1.46
   0   6   4   17.20    1.16
   0   6  -4   16.02    1.39
   0   6   4   17.53    1.42
   0   6   4   17.02    1.48
  -1  -6  -4   28.87    3.12
   1  -6   4   29.66    2.72
  -1  -6  -4   31.05    2.88
   1  -6   4   31.21    2.54
   1   6   4   31.80    2.22
  -1   6  -4   33.05    2.22
  -1   6  -4   32.78    2.13
   1   6   4   30.24    2.18
  -1   6  -4   31.40    2.19
   1   6   4   30.12    2.24
   1   6   4   32.65    2.30
   1   6   4   29.69    2.17
   1   6   4   35.15    2.30
   1   6   4   31.21    2.29
   1   6   4   29.08    2.23
   1   6   4   30.27    2.23
   1   6   4   28.98    2.23
   1   6   4   30.42    1.91
   1   6   4   32.51    2.21
  -1   6  -4   31.80    2.02
  -2  -6  -4   17.88    1.88
  -2  -6  -4   18.08    2.38
   2  -6   4   18.23    1.51
   2  -6   4   18.30    1.79
   2  -6   4   16.97    1.63
   2   6   4   19.86    1.29
   2   6   4   19.37    1.60
  -2   6  -4   19.23    1.46
  -2   6  -4   19.13    1.41
   2   6   4   20.07    1.51
   2   6   4   18.88    1.55
   2   6   4   18.80    1.58
   2   6   4   18.26    1.71
   2   6   4   17.84    1.58
   2   6   4   19.07    1.56
   2   6   4   18.57    1.62
  -2   6  -4   19.41    1.47
  -3  -6  -4   18.11    2.37
   3  -6   4   18.80    1.98
  -3  -6  -4   18.73    2.19
   3  -6   4   20.83    1.73
   3  -6   4   17.53    1.93
   3   6   4   23.93    2.03
   3   6   4   22.49    1.58
   3   6   4   22.10    1.74
   3   6   4   21.00    1.82
   3   6   4   24.76    1.70
   3   6   4   22.07    1.75
  -3   6  -4   22.28    1.61
  -3   6  -4   22.81    1.80
   3   6   4   25.53    1.82
  -3   6  -4   22.35    1.72
   3   6   4   26.82    1.83
   3   6   4   22.53    1.82
   4  -6   4   17.57    1.62
  -4  -6  -4   13.44    2.27
   4   6   4   11.62    1.22
   4   6   4   13.30    1.56
   4   6   4   15.86    1.51
   4   6   4   15.97    1.40
  -4   6  -4   13.78    1.44
  -4   6  -4   15.82    1.40
   4   6   4   15.82    1.37
   4   6   4   14.09    1.40
  -4   6  -4   13.46    1.32
   4   6   4   14.13    1.42
   4   6   4   13.39    1.45
  -5  -6  -4   12.64    2.29
   5   6   4   11.50    1.37
   5   6   4   12.98    1.67
  -5   6  -4   12.89    1.89
   5   6   4    8.92    1.27
  -5   6  -4   12.96    1.32
  -5   6  -4   11.38    1.48
  -6  -6  -4   13.18    2.33
  -6   6  -4   12.70    2.16
   6   6   4   14.50    1.64
  -7   6  -4    9.00    2.19
  -7  -7   4    3.41    1.52
  -7  -7   4    2.58    1.38
   6  -7  -4   16.81    2.47
  -6  -7   4   13.57    1.81
  -6  -7   4   19.64    2.48
   5  -7  -4    9.40    1.97
  -5  -7   4   12.56    1.53
  -5  -7   4   11.49    1.63
  -5  -7   4   10.13    1.72
  -5   7   4   15.37    1.27
  -5   7   4   16.43    1.37
   5   7  -4   13.95    1.43
   5   7  -4   12.22    1.40
  -5   7   4   11.68    1.44
  -5   7   4   12.26    1.54
  -4  -7   4   13.27    1.58
  -4  -7   4   11.95    1.80
  -4  -7   4   14.08    1.51
   4  -7  -4   14.79    1.97
  -4   7   4   14.19    1.37
  -4   7   4   12.18    1.60
  -4   7   4   17.01    1.62
   4   7  -4   13.99    1.40
  -4   7   4   15.01    1.32
   4   7  -4   14.73    1.41
  -4   7   4   15.59    1.56
  -3  -7   4   12.94    1.34
  -3  -7   4   12.29    1.60
   3  -7  -4   12.33    1.70
  -3  -7   4   13.40    1.23
   3   7  -4   11.91    1.16
  -3   7   4    9.78    1.24
   3   7  -4   10.75    1.15
  -3   7   4   10.91    1.10
  -3   7   4   11.23    1.30
  -3   7   4   11.33    1.02
   3   7  -4    9.22    1.05
  -2  -7   4   58.02    3.97
  -2  -7   4   51.61    4.46
   2  -7  -4   53.03    4.91
  -2  -7   4   54.43    4.04
   2   7  -4   58.74    3.90
  -2   7   4   57.72    3.81
   2   7  -4   61.05    3.74
  -2   7   4   56.47    4.18
  -2   7   4   62.43    3.64
   2   7  -4   58.96    3.54
  -2   7   4   59.57    3.43
   2   7  -4   58.08    3.69
  -1  -7   4   73.36    4.44
  -1  -7   4   63.12    4.86
   1  -7  -4   67.23    5.44
  -1  -7   4   68.48    4.47
  -1   7   4   63.98    4.56
   1   7  -4   61.60    4.04
   1   7  -4   61.03    4.30
   1   7  -4   62.60    3.89
   1   7  -4   63.64    4.12
   1   7  -4   58.39    4.44
  -1   7   4   65.67    3.97
   0  -7   4   22.69    1.77
   0  -7  -4   21.64    2.22
   0  -7   4   19.02    1.97
   0  -7  -4   22.52    1.84
   0  -7   4   23.88    2.19
   0  -7   4   21.62    1.76
   0   7   4   23.75    1.79
   0   7   4   19.90    1.63
   0   7  -4   21.88    1.65
   0   7  -4   22.82    1.63
   0   7   4   21.98    1.70
   0   7  -4   22.36    1.72
   0   7   4   22.30    1.39
   0   7   4   21.46    1.45
   0   7  -4   21.05    1.77
   0   7   4   22.02    1.75
   0   7  -4   20.26    1.56
   1  -7   4   50.55    4.30
  -1  -7  -4   52.79    4.72
   1  -7   4   51.33    3.95
  -1  -7  -4   48.81    4.44
   1   7   4   50.45    3.41
   1   7   4   49.13    3.46
  -1   7  -4   53.96    3.31
   1   7   4   50.40    3.55
   1   7   4   52.62    3.60
   1   7   4   48.22    3.50
  -1   7  -4   50.78    3.20
   1   7   4   51.92    3.37
   1   7   4   52.50    3.61
   1   7   4   52.13    3.04
  -1   7  -4   53.94    3.40
   1   7   4   48.97    3.45
   1   7   4   51.92    3.43
   1   7   4   50.05    3.40
   1   7   4   52.08    3.49
   2  -7   4   20.77    2.15
  -2  -7  -4   22.17    2.42
  -2  -7  -4   18.85    2.87
   2  -7   4   19.81    2.30
   2   7   4   27.90    1.98
   2   7   4   26.59    2.02
  -2   7  -4   27.02    1.79
   2   7   4   25.31    1.92
   2   7   4   28.32    1.72
   2   7   4   27.61    1.99
   2   7   4   24.23    1.87
   2   7   4   26.38    1.92
  -2   7  -4   26.82    1.82
  -2   7  -4   26.18    1.97
   2   7   4   29.11    2.06
   2   7   4   23.45    2.03
   2   7   4   25.75    2.17
   3  -7   4   25.53    2.02
  -3  -7  -4   25.45    2.38
   3  -7   4   24.69    2.11
  -3  -7  -4   22.68    2.56
   3   7   4   18.46    1.48
   3   7   4   20.86    1.80
  -3   7  -4   20.99    1.73
   3   7   4   18.58    1.82
   3   7   4   19.51    1.99
   3   7   4   16.25    1.69
  -3   7  -4   22.67    1.75
   3   7   4   17.87    1.80
   3   7   4   22.02    1.80
   3   7   4   21.39    1.85
  -3   7  -4   20.81    1.71
  -4  -7  -4    7.46    1.96
  -4   7  -4   10.88    1.31
  -4   7  -4   10.82    1.24
  -4   7  -4   10.55    1.18
   4   7   4   11.94    1.54
   4   7   4    8.92    1.15
   4   7   4   11.42    1.36
   4   7   4   10.71    1.32
  -5  -7  -4    5.49    1.93
   5   7   4    8.49    1.21
  -6  -7  -4    4.90    2.06
   6   7   4    2.43    1.12
  -6  -8   4    3.88    1.74
  -6  -8   4    7.65    1.55
   6  -8  -4    6.20    1.88
  -5  -8   4    2.70    1.18
  -5  -8   4    2.74    1.47
   5  -8  -4    3.40    1.56
  -5   8   4    3.35    0.74
  -5   8   4    1.94    1.00
  -4  -8   4    0.24    0.87
  -4  -8   4    0.46    0.83
   4  -8  -4    0.08    0.91
  -4  -8   4    0.53    0.76
  -4   8   4   -0.62    0.89
  -4   8   4    0.57    0.53
  -4   8   4   -0.08    0.83
  -4   8   4    0.55    0.84
  -4   8   4    0.43    0.65
   4   8  -4   -0.01    0.76
   3  -8  -4    2.49    1.05
  -3  -8   4    2.36    1.12
  -3  -8   4    1.90    0.71
  -3  -8   4    2.83    0.85
   3   8  -4    3.19    0.75
  -3   8   4    2.90    0.64
  -3   8   4    3.63    0.99
  -3   8   4    3.18    0.71
   3   8  -4    1.57    0.79
  -3   8   4    1.32    0.88
   3   8  -4    2.58    0.69
  -2  -8   4    5.88    1.23
  -2  -8   4    7.40    1.00
   2  -8  -4    5.09    1.29
  -2  -8   4    6.27    0.94
   2   8  -4    6.62    0.90
  -2   8   4    6.82    1.09
  -2   8   4    7.85    1.13
   2   8  -4    8.82    0.93
   2   8  -4    7.42    0.95
  -2   8   4    7.12    0.83
   2   8  -4    7.96    0.93
   1  -8  -4   12.17    1.79
  -1  -8   4   13.00    1.33
  -1  -8   4   12.25    1.25
  -1  -8   4   12.80    1.43
  -1   8   4   12.84    1.26
   1   8  -4   10.71    1.29
   1   8  -4   14.21    1.19
   1   8  -4   12.93    1.19
  -1   8   4   12.96    1.08
   1   8  -4   12.66    1.21
  -1   8   4   13.11    1.41
   1   8  -4   12.02    1.16
   0  -8   4    7.85    1.08
   0  -8   4    8.33    1.26
   0  -8  -4    8.03    1.62
   0  -8   4    8.90    1.08
   0  -8   4    8.71    1.44
   0   8  -4    9.68    1.15
   0   8   4    9.04    1.10
   0   8  -4   10.95    1.00
   0   8  -4    9.03    1.16
   0   8   4   10.33    1.13
   0   8   4    9.90    1.17
   0   8  -4   11.24    1.06
   0   8  -4   10.63    0.96
   1  -8   4    5.81    0.96
   1  -8   4    6.80    0.94
   1  -8   4    6.03    1.06
  -1  -8  -4    5.36    1.22
   1  -8   4    6.58    1.22
   1   8   4    6.48    1.00
   1   8   4    7.85    0.99
  -1   8  -4    5.40    0.83
   1   8   4    9.45    1.08
  -1   8  -4    5.85    0.87
  -1   8  -4    7.21    0.90
   1   8   4    5.09    0.81
   1   8   4    7.47    1.04
   1   8   4    6.19    0.74
   1   8   4    6.38    0.91
   1   8   4    7.10    1.01
   1   8   4    7.31    0.97
   1   8   4    5.23    1.01
  -2  -8  -4   12.33    2.27
   2  -8   4   13.74    1.54
  -2  -8  -4   13.41    1.82
   2  -8   4   13.53    1.68
  -2   8  -4   13.56    1.30
   2   8   4   11.71    1.28
  -2   8  -4   13.94    1.34
   2   8   4   15.71    1.43
   2   8   4   14.44    1.29
   2   8   4   12.96    1.14
   2   8   4   11.79    1.46
  -2   8  -4   13.05    1.33
   2   8   4   12.78    1.40
   2   8   4   12.21    1.44
   2   8   4   13.35    1.42
   2   8   4   13.63    1.45
   2   8   4   11.10    1.34
   2   8   4   14.41    1.43
   3  -8   4   15.33    1.53
   3  -8   4   15.16    1.63
  -3  -8  -4   15.05    1.99
  -3  -8  -4   17.66    2.34
   3   8   4    9.25    1.33
   3   8   4    8.43    1.24
   3   8   4   10.52    1.36
  -3   8  -4   10.02    1.23
   3   8   4    9.60    1.26
   3   8   4   11.28    1.10
  -3   8  -4    9.56    1.37
  -3   8  -4   12.01    1.30
   3   8   4   10.66    1.46
   3   8   4   10.74    1.31
  -4  -8  -4   19.54    3.06
   4   8   4   24.59    2.26
   4   8   4   17.81    1.75
  -4   8  -4   24.10    2.01
  -5  -8  -4   10.60    2.40
   5   8   4    9.39    1.33
  -6  -8  -4    1.66    1.93
   5  -9  -4   10.97    2.17
  -5  -9   4    8.59    1.72
  -4  -9   4   12.51    1.81
   4  -9  -4   14.59    2.29
  -4   9   4   10.68    1.46
  -4   9   4   10.92    1.64
  -4   9   4   13.57    1.33
   3  -9  -4   12.53    2.20
  -3  -9   4   10.48    1.81
  -3   9   4   14.53    1.63
   3   9  -4   14.10    1.47
  -3   9   4   13.65    1.60
  -3   9   4   14.63    1.56
   2  -9  -4   21.17    2.77
  -2  -9   4   18.74    2.28
   2   9  -4   22.36    1.86
  -2   9   4   21.18    2.08
  -2   9   4   20.90    1.88
   2   9  -4   23.11    1.69
  -1  -9   4    7.03    1.15
   1  -9  -4    5.02    1.60
   1   9  -4    6.97    0.90
   1   9  -4    5.47    1.01
  -1   9   4    5.41    1.11
   1   9  -4    6.00    0.87
  -1   9   4    6.26    1.09
   0  -9   4   27.86    2.47
   0  -9  -4   28.98    2.82
   0   9  -4   26.80    1.84
   0   9   4   24.91    2.05
   0   9  -4   27.44    1.94
   0   9   4   22.63    2.14
   0   9   4   24.63    2.10
   0   9  -4   24.27    2.06
   0   9   4   25.13    2.21
   1  -9   4   27.00    2.59
  -1  -9  -4   27.45    3.16
   1  -9   4   27.55    2.92
   1   9   4   26.98    2.22
   1   9   4   29.02    2.33
   1   9   4   28.44    2.29
   1   9   4   27.41    2.32
   1   9   4   28.48    2.22
   1   9   4   31.45    2.34
   1   9   4   29.41    2.30
   1   9   4   26.06    2.34
   1   9   4   32.91    2.49
   1   9   4   26.61    2.34
  -1   9  -4   30.50    2.05
  -1   9  -4   32.17    2.30
  -1   9  -4   30.81    2.13
   1   9   4   30.01    2.36
   2  -9   4   24.31    2.47
  -2  -9  -4   26.35    2.72
   2   9   4   22.20    2.10
   2   9   4   24.83    2.15
  -2   9  -4   27.78    1.99
   2   9   4   26.44    2.11
   2   9   4   21.14    1.91
  -2   9  -4   25.58    1.99
   2   9   4   23.34    1.98
  -2   9  -4   24.67    1.99
   2   9   4   25.13    1.79
   2   9   4   28.92    2.30
   2   9   4   22.90    2.04
  -3  -9  -4    9.37    2.31
  -3  -9  -4    9.09    1.74
   3   9   4   11.28    1.50
  -3   9  -4   13.52    1.38
   3   9   4   14.56    1.62
   3   9   4   10.12    1.43
   3   9   4   10.12    1.30
   3   9   4   13.89    1.29
  -4  -9  -4    1.75    1.74
   4   9   4   -0.09    0.99
   4   9   4    1.94    0.87
  -5  -9  -4    2.75    2.10
   5   9   4    8.00    1.30
  -4 -10   4    3.81    1.35
   4 -10  -4    5.05    1.88
  -4  10   4    4.93    1.44
   3 -10  -4    1.92    1.65
  -3 -10   4    1.96    1.05
  -3  10   4    0.52    0.87
  -3  10   4    2.45    1.21
   2 -10  -4    2.51    1.62
  -2 -10   4    1.28    0.92
  -2  10   4    3.36    1.15
  -2  10   4    3.36    1.11
  -2  10   4    0.08    0.81
   2  10  -4    2.44    0.91
  -1 -10   4    2.74    0.96
   1 -10  -4    3.10    1.62
  -1  10   4    1.12    1.06
  -1  10   4    1.86    0.93
   1  10  -4    3.06    0.93
  -1  10   4    2.30    0.96
   0 -10  -4   -0.09    0.98
   0 -10   4    1.23    1.00
   0  10   4   -0.17    0.90
   0  10  -4    0.02    0.76
   0  10  -4    1.02    0.72
   0  10   4    0.00    0.83
   1 -10   4    5.53    1.51
   1 -10   4    4.70    1.19
  -1 -10  -4    6.01    1.49
   1  10   4    6.02    1.15
   1  10   4    6.18    1.14
  -1  10  -4    5.15    0.98
   1  10   4    6.43    1.15
   1  10   4    4.61    0.96
   1  10   4    5.14    1.02
   1  10   4    6.38    1.16
   1  10   4    5.06    1.12
   1  10   4    6.37    1.14
   2 -10   4    3.73    1.35
  -2 -10  -4    4.36    1.65
   2  10   4    5.72    1.18
   2  10   4    3.03    1.03
   2  10   4    3.58    0.99
   2  10   4    3.19    1.05
   2  10   4    3.11    0.96
  -3 -10  -4    6.89    1.57
   3  10   4    1.96    1.11
   3  10   4    4.78    1.18
   3  10   4    4.15    0.91
   3  10   4    5.43    1.19
   3  10   4    5.64    1.09
   3  10   4    4.08    1.27
  -4 -10  -4   10.37    2.55
   4  10   4    8.35    1.50
   4  10   4    6.64    1.46
   4  10   4    7.83    1.23
   3 -11  -4    5.63    2.09
  -3 -11   4    5.74    1.74
  -3  11   4    8.02    1.69
  -3  11   4    5.33    1.48
  -2 -11   4    8.30    1.79
   2 -11  -4    8.94    1.98
  -2  11   4   12.11    1.67
  -2  11   4   11.08    1.71
   1 -11  -4   17.76    2.79
  -1 -11   4   15.12    2.14
  -1  11   4   18.42    2.04
  -1  11   4   16.23    1.96
   0 -11   4    7.19    1.45
   0 -11  -4    8.88    1.82
   0  11   4    4.86    1.32
   0  11   4    5.09    1.50
  -1 -11  -4    9.72    2.22
   1  11   4    8.16    1.30
   1  11   4   11.36    1.57
   1  11   4    9.41    1.41
   1  11   4    7.30    1.41
  -2 -11  -4    8.91    2.19
   2  11   4   10.53    1.44
   2  11   4    7.20    1.66
   2  11   4   10.65    1.52
   2  11   4    9.47    1.44
  -8   0   5    1.49    1.71
   7   0  -5   22.77    2.17
   7   0  -5   22.76    1.99
  -7   0   5   24.11    2.71
  -6   0   5   28.25    2.42
  -6   0   5   32.13    2.54
   6   0  -5   35.14    2.11
   6   0  -5   30.37    2.45
   6   0  -5   32.45    2.68
  -5   0   5   15.90    1.57
  -5   0   5   14.42    1.41
   5   0  -5   17.94    1.50
  -5   0   5   17.17    1.46
   5   0  -5   16.68    1.37
  -4   0   5    2.63    0.55
  -4   0   5    2.52    0.55
  -4   0   5    3.29    0.36
  -4   0   5    2.95    0.64
   4   0  -5    2.64    0.61
  -4   0   5    4.21    0.63
   4   0  -5    3.03    0.51
  -3   0   5   13.72    1.11
  -3   0   5   14.23    1.15
  -3   0   5   13.95    1.10
   3   0  -5   13.00    1.12
   3   0  -5   13.45    1.06
  -3   0   5   13.44    1.10
  -2   0   5   78.84    5.20
  -2   0   5   76.17    5.09
   2   0  -5   75.90    5.39
  -2   0   5   83.31    5.53
  -2   0   5   78.66    4.80
  -2   0   5   77.03    4.70
   2   0  -5   76.58    5.01
  -2   0   5   75.05    5.28
  -1   0   5    7.69    0.73
  -1   0   5    6.54    0.63
  -1   0   5    7.59    0.61
   1   0  -5    7.31    0.65
  -1   0   5    7.09    0.59
   1   0  -5    6.84    0.59
  -1   0   5    7.58    0.68
  -1   0   5    7.28    0.61
  -1   0   5    7.81    0.64
  -1   0   5    7.31    0.66
  -1   0   5    6.97    0.63
   0   0  -5    1.66    0.34
   0   0  -5    1.86    0.41
   0   0   5    2.37    0.37
   0   0  -5    1.70    0.31
   0   0   5    1.81    0.30
   0   0   5    2.11    0.28
   0   0   5    1.59    0.33
   0   0   5    1.92    0.37
   0   0   5    1.93    0.36
   0   0   5    1.91    0.32
   0   0   5    1.75    0.31
   0   0  -5    1.70    0.25
   0   0  -5    2.20    0.32
   0   0   5    1.97    0.31
   0   0  -5    2.09    0.32
   0   0  -5    1.89    0.31
   0   0   5    2.56    0.37
   0   0   5    1.79    0.35
   0   0  -5    1.82    0.30
  -1   0  -5    2.89    0.38
   1   0   5    3.49    0.44
   1   0   5    3.19    0.44
   1   0   5    3.91    0.36
   1   0   5    4.23    0.46
  -1   0  -5    3.73    0.43
   1   0   5    3.08    0.42
   1   0   5    2.91    0.43
  -1   0  -5    2.88    0.56
   1   0   5    2.87    0.43
   1   0   5    2.84    0.42
  -1   0  -5    2.75    0.34
   1   0   5    2.70    0.41
   1   0   5    3.04    0.42
  -1   0  -5    2.95    0.34
   2   0   5   36.54    2.31
   2   0   5   33.11    2.41
  -2   0  -5   35.40    2.94
   2   0   5   34.16    2.32
   2   0   5   34.21    2.25
  -2   0  -5   34.74    2.14
   2   0   5   34.16    2.25
   2   0   5   33.60    2.27
   2   0   5   36.49    2.30
   2   0   5   33.96    2.53
  -2   0  -5   32.67    2.16
  -2   0  -5   32.38    2.05
  -3   0  -5    1.94    0.39
  -3   0  -5    2.03    0.39
   3   0   5    1.45    0.41
  -3   0  -5    1.76    0.59
   3   0   5    2.16    0.43
   3   0   5    2.86    0.48
  -3   0  -5    2.11    0.40
   3   0   5    2.20    0.44
   3   0   5    2.71    0.55
   3   0   5    2.16    0.45
   3   0   5    2.70    0.56
   3   0   5    2.60    0.54
   4   0   5   23.46    1.80
  -4   0  -5   24.99    1.63
   4   0   5   25.02    1.80
   4   0   5   22.18    1.77
  -4   0  -5   24.10    1.66
   4   0   5   23.95    1.74
  -4   0  -5   23.95    2.33
   4   0   5   24.19    1.84
   4   0   5   24.49    2.00
   4   0   5   21.52    1.70
   4   0   5   23.01    1.77
  -5   0  -5   12.86    1.16
  -5   0  -5    9.39    1.55
   5   0   5   10.59    1.21
   5   0   5   12.21    1.29
  -5   0  -5   10.87    1.08
   5   0   5   11.04    1.23
   5   0   5   11.03    1.37
   5   0   5   12.80    1.33
   5   0   5   11.88    1.17
   5   0   5    9.92    1.15
   5   0   5   11.88    1.20
  -6   0  -5   19.63    2.71
   6   0   5   22.22    1.81
   6   0   5   23.07    1.93
   6   0   5   23.29    1.90
   6   0   5   22.09    1.88
   6   0   5   21.97    2.05
   6   0   5   22.93    2.12
   6   0   5   20.89    1.94
   6   0   5   21.09    2.20
   7   0   5    7.04    1.22
   7   0   5    6.79    1.19
  -7   0  -5    6.78    1.99
  -8  -1   5    0.77    1.19
  -8   1   5    0.13    1.72
  -7  -1   5    8.22    1.41
   7  -1  -5   12.52    1.49
  -7  -1   5   11.98    2.06
   7  -1  -5   10.03    1.40
   7   1  -5   11.28    1.23
   7   1  -5   11.93    1.45
   7   1  -5   10.24    1.31
   6  -1  -5    7.00    0.95
  -6  -1   5    7.54    1.32
  -6  -1   5    8.68    1.31
   6  -1  -5    8.48    1.23
  -6   1   5    7.25    1.03
   6   1  -5    7.34    1.04
   6   1  -5    8.05    0.94
   6   1  -5    6.97    0.97
  -5  -1   5   15.62    1.41
   5  -1  -5   16.99    1.14
  -5  -1   5   17.88    1.58
  -5  -1   5   14.49    1.54
   5  -1  -5   14.70    1.43
   5  -1  -5   17.78    1.34
  -5  -1   5   14.38    1.33
   5   1  -5   14.95    1.41
  -5   1   5   14.45    1.41
  -5   1   5   15.38    1.49
   5   1  -5   14.63    1.42
  -4  -1   5   28.31    2.28
  -4  -1   5   30.40    2.30
  -4  -1   5   28.91    2.43
  -4  -1   5   33.21    1.97
   4  -1  -5   29.73    2.34
   4  -1  -5   26.37    2.14
  -4  -1   5   29.70    2.26
  -4   1   5   32.93    2.32
   4   1  -5   31.85    2.38
  -4   1   5   35.20    1.97
   4   1  -5   31.30    2.23
  -4   1   5   30.27    2.27
  -4   1   5   30.93    2.31
  -3  -1   5   84.21    4.85
  -3  -1   5   77.56    5.57
  -3  -1   5   75.61    4.62
  -3  -1   5   78.60    4.61
  -3  -1   5   83.47    4.76
  -3  -1   5   84.49    4.63
  -3  -1   5   75.11    5.13
  -3  -1   5   75.32    5.22
   3  -1  -5   71.85    5.39
   3  -1  -5   74.96    5.00
  -3  -1   5   71.88    5.26
  -3  -1   5   80.96    4.68
  -3  -1   5   77.69    4.74
   3   1  -5   72.60    5.39
  -3   1   5   72.87    5.10
  -3   1   5   72.64    5.28
   3   1  -5   75.19    5.04
  -3   1   5   82.63    5.49
  -3   1   5   75.64    5.19
  -2  -1   5   55.62    3.55
  -2  -1   5   54.40    3.64
   2  -1  -5   54.15    3.82
   2  -1  -5   54.42    4.14
  -2  -1   5   55.94    3.92
  -2  -1   5   56.74    3.60
  -2  -1   5   55.55    4.05
  -2  -1   5   57.50    4.26
  -2  -1   5   56.17    3.99
  -2   1   5   70.33    3.91
  -2   1   5   66.81    4.08
   2   1  -5   66.02    3.87
   2   1  -5   67.21    4.14
  -1  -1   5  151.88    9.31
   1  -1  -5  156.98    9.92
   1  -1  -5  158.53    9.22
  -1  -1   5  155.47    9.43
  -1  -1   5  167.20   11.03
  -1  -1   5  158.55    9.74
  -1  -1   5  147.84   10.17
  -1  -1   5  161.83   10.44
  -1  -1   5  174.14   10.69
  -1  -1   5  165.14   10.11
  -1  -1   5  152.12    9.52
  -1  -1   5  150.96    9.35
  -1  -1   5  163.11    9.54
  -1  -1   5  165.56   10.31
   1   1  -5  158.22    9.36
  -1   1   5  149.67    9.56
  -1   1   5  164.46    9.92
  -1   1   5  161.59   10.26
  -1   1   5  145.03   10.42
   1   1  -5  150.37    9.94
   1   1  -5  145.68    9.52
   1   1  -5  150.45    9.26
  -1   1   5  158.38   10.05
   1   1  -5  151.60   10.67
  -1   1   5  146.86    9.39
   0  -1   5  177.00   11.03
   0  -1   5  176.08   10.00
   0  -1   5  175.08   10.77
   0  -1   5  180.44    9.88
   0  -1   5  174.74   10.12
   0  -1   5  177.15   10.10
   0  -1   5  193.10    9.82
   0  -1   5  173.38    9.92
   0  -1  -5  178.15   13.14
   0  -1  -5  182.17    9.75
   0  -1  -5  171.06   10.49
   0  -1   5  177.41   10.33
   0   1   5  151.75    9.95
   0   1  -5  158.59    9.91
   0   1  -5  152.21   10.30
   0   1   5  149.69   10.11
   0   1   5  158.88   10.36
   0   1   5  160.40   10.04
   0   1   5  168.65    9.74
   0   1  -5  173.69   10.81
   0   1   5  152.30   10.78
   0   1  -5  157.68   10.52
   0   1   5  174.99   10.50
   0   1   5  148.23    9.91
   0   1  -5  150.56    9.38
   0   1  -5  170.58   13.02
   0   1  -5  151.15    9.81
   0   1  -5  161.00    9.98
   0   1   5  150.52   10.16
   0   1  -5  164.85    9.87
   0   1   5  161.05    9.99
   0   1  -5  157.84    9.78
   0   1  -5  153.95   10.08
   0   1   5  171.09    9.88
   0   1   5  163.49   11.02
   0   1  -5  158.17   10.10
   1  -1   5  125.87    7.85
  -1  -1  -5  117.55    6.86
  -1  -1  -5  115.40    7.16
   1  -1   5  116.57    7.62
   1  -1   5  116.33    7.47
  -1  -1  -5  114.40    9.70
  -1  -1  -5  123.99    9.35
   1  -1   5  121.52    7.39
   1  -1   5  120.07    7.46
   1  -1   5  110.91    7.93
  -1  -1  -5  114.71    7.17
   1  -1   5  125.91    7.31
   1  -1   5  126.32    7.31
   1  -1   5  118.11    7.34
   1   1   5  122.20    7.44
  -1   1  -5  117.18    7.23
   1   1   5  121.68    7.53
   1   1   5  125.15    7.35
   1   1   5  123.32    8.11
   1   1   5  124.00    7.89
   1   1   5  120.84    7.50
  -1   1  -5  121.96    6.92
  -1   1  -5  128.44    9.62
   1   1   5  128.41    7.69
  -1   1  -5  122.34    7.22
  -1   1  -5  117.28    7.77
   1   1   5  120.00    7.38
   1   1   5  120.54    7.97
   1   1   5  139.18    7.19
   2  -1   5  184.93   11.06
   2  -1   5  183.85   11.02
   2  -1   5  188.86   12.31
  -2  -1  -5  172.44   14.29
   2  -1   5  178.28   11.26
  -2  -1  -5  185.46   10.17
   2  -1   5  169.43   11.70
  -2  -1  -5  202.90   13.75
  -2  -1  -5  173.65   10.61
   2  -1   5  178.04   10.78
   2  -1   5  183.98   10.92
   2  -1   5  183.19   10.85
  -2  -1  -5  191.64   10.63
   2   1   5  169.37   11.08
  -2   1  -5  184.15   14.24
  -2   1  -5  174.93   10.68
   2   1   5  166.75   11.72
   2   1   5  176.09   11.03
   2   1   5  172.06   10.80
  -2   1  -5  170.58   10.65
   2   1   5  170.84   10.86
  -2   1  -5  177.00   10.22
   2   1   5  177.78   10.94
   2   1   5  189.66   10.16
   2   1   5  189.69   10.62
   2   1   5  173.89   11.28
   3  -1   5   58.55    3.89
  -3  -1  -5   59.00    3.63
  -3  -1  -5   57.14    3.78
   3  -1   5   62.63    3.96
   3  -1   5   58.11    3.97
   3  -1   5   59.92    3.94
   3  -1   5   56.77    4.08
   3  -1   5   55.79    4.41
  -3  -1  -5   55.69    5.22
   3  -1   5   55.33    4.20
   3  -1   5   59.62    4.02
   3   1   5   66.80    4.49
   3   1   5   65.54    4.23
  -3   1  -5   63.77    3.87
   3   1   5   63.86    4.06
   3   1   5   69.56    4.01
   3   1   5   68.91    4.02
  -3   1  -5   63.77    3.69
   3   1   5   65.20    4.12
   3   1   5   67.98    3.96
  -3   1  -5   64.42    3.86
   3   1   5   71.73    4.04
  -3   1  -5   67.90    5.21
   4  -1   5   21.12    1.56
  -4  -1  -5   18.36    2.03
   4  -1   5   21.01    1.62
  -4  -1  -5   19.52    1.36
   4  -1   5   20.79    1.61
  -4  -1  -5   20.00    1.41
   4  -1   5   19.58    1.50
   4  -1   5   19.00    1.49
   4  -1   5   18.79    1.48
   4  -1   5   19.08    1.63
   4  -1   5   18.41    1.56
   4   1   5   19.17    1.51
   4   1   5   20.04    1.62
   4   1   5   19.37    1.55
   4   1   5   20.95    1.66
  -4   1  -5   17.88    1.36
   4   1   5   22.56    1.54
   4   1   5   18.85    1.76
   4   1   5   18.18    1.47
   4   1   5   19.37    1.54
  -4   1  -5   17.59    2.06
  -4   1  -5   20.71    1.44
   5  -1   5   37.04    2.69
   5  -1   5   39.58    2.69
   5  -1   5   35.89    2.65
   5  -1   5   39.46    2.77
   5  -1   5   39.12    3.07
   5  -1   5   37.40    2.78
   5  -1   5   38.88    2.96
  -5  -1  -5   35.02    3.73
   5  -1   5   35.75    2.74
  -5   1  -5   37.26    2.66
   5   1   5   42.47    2.76
   5   1   5   40.96    2.75
   5   1   5   40.85    3.15
   5   1   5   42.79    2.96
   5   1   5   37.99    2.84
   5   1   5   39.78    2.77
  -5   1  -5   39.63    2.58
  -5   1  -5   37.65    3.68
   5   1   5   37.09    2.72
   5   1   5   43.04    2.72
   6  -1   5   18.70    1.91
   6  -1   5   19.65    1.69
  -6  -1  -5   18.07    2.62
   6  -1   5   20.78    2.04
   6  -1   5   21.04    2.06
   6  -1   5   22.33    1.74
   6  -1   5   18.34    1.71
   6  -1   5   20.85    1.73
   6  -1   5   22.30    1.82
  -6   1  -5   22.25    1.78
   6   1   5   19.23    1.74
   6   1   5   17.52    1.93
   6   1   5   18.07    1.82
   6   1   5   19.35    1.67
   6   1   5   20.97    1.70
  -6   1  -5   19.37    2.56
   6   1   5   19.70    1.90
  -6   1  -5   20.27    1.80
   6   1   5   21.78    1.96
   6   1   5   19.95    1.99
  -7  -1  -5    8.97    2.24
  -7   1  -5   11.00    2.21
   7   1   5   11.61    1.43
  -8  -2   5    6.66    2.06
  -8   2   5    9.55    2.02
   8   2  -5   10.15    1.52
  -7  -2   5   15.20    2.21
   7  -2  -5   12.27    1.49
  -7  -2   5   12.29    1.66
   7  -2  -5   10.72    1.63
   7   2  -5   12.85    1.37
   7   2  -5   13.20    1.68
   6  -2  -5   13.00    1.57
  -6  -2   5   13.03    1.93
  -6  -2   5   11.80    1.64
   6  -2  -5   13.78    1.44
  -6  -2   5   13.45    1.68
  -6   2   5   14.78    1.37
   6   2  -5   15.87    1.48
   6   2  -5   14.19    1.51
  -5  -2   5   18.95    1.73
  -5  -2   5   15.58    1.40
   5  -2  -5   18.18    1.53
   5  -2  -5   17.09    1.44
  -5  -2   5   19.20    1.69
  -5  -2   5   17.45    1.62
  -5  -2   5   19.50    1.92
   5   2  -5   14.37    1.56
  -5   2   5   14.43    1.50
  -5   2   5   13.64    1.41
   5   2  -5   16.27    1.40
   4  -2  -5    8.52    0.90
   4  -2  -5   10.98    0.69
  -4  -2   5    8.57    0.99
  -4  -2   5    8.65    1.09
  -4  -2   5    8.58    0.93
  -4  -2   5   10.01    1.12
   4  -2  -5    8.89    0.95
  -4  -2   5   10.77    1.22
  -4   2   5    9.93    0.80
   4   2  -5    8.69    0.92
  -4   2   5    9.06    1.03
   4   2  -5    9.05    1.00
  -4   2   5    9.73    0.90
  -3  -2   5   15.73    1.02
   3  -2  -5   14.66    1.22
  -3  -2   5   15.72    1.30
  -3  -2   5   14.02    1.30
  -3  -2   5   16.46    1.07
  -3  -2   5   17.49    1.09
  -3  -2   5   16.51    1.33
  -3  -2   5   17.08    1.02
   3  -2  -5   15.65    1.34
  -3  -2   5   15.74    1.02
  -3  -2   5   16.07    1.46
   3   2  -5   18.24    1.36
   3   2  -5   19.04    1.34
  -3   2   5   18.96    1.30
  -3   2   5   17.76    1.30
  -3   2   5   18.35    1.37
  -2  -2   5   22.40    1.66
   2  -2  -5   21.64    1.53
  -2  -2   5   22.07    1.36
  -2  -2   5   20.82    1.37
  -2  -2   5   22.40    1.36
   2  -2  -5   22.36    1.74
  -2  -2   5   22.79    1.68
  -2  -2   5   22.48    1.45
  -2  -2   5   24.29    1.81
  -2  -2   5   23.00    1.64
  -2  -2   5   22.28    1.41
   2   2  -5   23.07    1.50
   2   2  -5   20.68    1.58
  -2   2   5   23.82    1.57
  -2   2   5   22.57    1.68
   2   2  -5   21.74    1.65
  -2   2   5   23.26    1.58
  -2   2   5   23.35    1.59
  -1  -2   5   53.22    3.65
   1  -2  -5   44.90    2.98
  -1  -2   5   44.89    2.80
  -1  -2   5   44.63    3.18
  -1  -2   5   46.02    2.77
  -1  -2   5   43.79    2.79
  -1  -2   5   46.84    3.12
  -1  -2   5   46.77    2.82
  -1  -2   5   50.80    3.21
  -1  -2   5   45.98    2.86
  -1  -2   5   48.47    3.08
  -1  -2   5   47.09    3.17
  -1  -2   5   47.59    2.91
  -1  -2   5   45.09    3.37
   1  -2  -5   49.52    2.79
   1   2  -5   43.73    3.20
   1   2  -5   44.17    2.87
   1   2  -5   40.63    2.83
   1   2  -5   43.21    2.82
  -1   2   5   45.39    2.88
   1   2  -5   46.19    2.79
  -1   2   5   45.61    2.98
  -1   2   5   45.94    3.01
   1   2  -5   44.19    3.05
  -1   2   5   45.51    2.95
   1   2  -5   43.19    2.80
  -1   2   5   48.18    3.07
  -1   2   5   41.82    3.19
   0  -2   5   13.77    0.95
   0  -2  -5   13.65    0.82
   0  -2  -5   12.74    0.91
   0  -2  -5   14.10    0.78
   0  -2   5   13.34    0.88
   0  -2   5   12.83    0.88
   0  -2   5   15.62    0.94
   0  -2   5   12.84    0.89
   0  -2   5   14.03    0.92
   0  -2  -5   12.67    1.31
   0  -2   5   14.35    0.96
   0  -2   5   13.03    0.87
   0   2  -5   12.24    0.89
   0   2  -5   10.80    0.93
   0   2  -5   11.61    0.87
   0   2   5   11.64    0.95
   0   2   5   11.87    1.03
   0   2  -5   12.90    0.88
   0   2  -5    9.46    1.00
   0   2   5   12.00    0.97
   0   2  -5   12.40    0.87
   0   2   5    9.55    0.97
   0   2   5   10.69    0.94
   0   2  -5   12.12    0.96
   0   2  -5   12.04    1.05
   0   2  -5   12.77    0.91
   0   2   5   11.91    0.99
   0   2   5   11.17    1.00
   0   2  -5   12.12    0.91
   0   2   5   11.19    0.95
   0   2   5   10.92    0.98
   0   2  -5   12.75    0.87
   0   2   5   13.30    0.92
   1  -2   5   12.48    0.95
  -1  -2  -5   12.38    1.03
   1  -2   5   12.07    0.93
   1  -2   5   11.86    0.92
   1  -2   5   11.92    0.95
   1  -2   5   11.08    0.97
   1  -2   5   11.90    0.91
  -1  -2  -5   12.45    1.14
  -1  -2  -5   10.70    1.34
  -1  -2  -5   12.55    0.81
   1  -2   5   13.18    0.80
  -1  -2  -5   12.20    0.73
   1  -2   5   11.71    0.88
   1   2   5   12.84    0.93
   1   2   5   11.76    1.06
   1   2   5   12.15    1.00
  -1   2  -5   11.80    1.12
   1   2   5   12.71    1.00
  -1   2  -5   12.46    0.87
  -1   2  -5   11.31    0.89
   1   2   5   12.58    1.02
   1   2   5   10.20    1.01
   1   2   5   13.45    0.81
  -1   2  -5   10.54    1.00
   1   2   5   12.36    1.04
   1   2   5   12.85    1.02
  -1   2  -5   12.95    0.92
   1   2   5   11.32    1.02
   1   2   5   12.77    0.99
   2  -2   5   20.03    1.25
   2  -2   5   17.98    1.25
   2  -2   5   17.46    1.29
   2  -2   5   18.58    1.29
  -2  -2  -5   19.38    1.51
   2  -2   5   18.50    1.28
   2  -2   5   19.57    1.38
  -2  -2  -5   17.39    1.73
  -2  -2  -5   19.40    1.33
   2  -2   5   17.14    1.34
  -2  -2  -5   18.54    1.06
   2  -2   5   19.13    1.26
   2  -2   5   16.87    1.26
  -2   2  -5   15.39    1.20
   2   2   5   16.21    1.38
   2   2   5   16.74    1.31
   2   2   5   15.78    1.33
   2   2   5   17.60    1.06
   2   2   5   17.77    1.29
   2   2   5   13.68    1.26
  -2   2  -5   16.04    1.59
   2   2   5   16.40    1.33
   2   2   5   14.52    1.28
   2   2   5   17.09    1.08
  -2   2  -5   16.46    1.26
   2   2   5   15.19    1.29
  -2   2  -5   15.18    1.23
   3  -2   5   30.67    2.09
   3  -2   5   30.40    2.18
  -3  -2  -5   29.48    1.88
   3  -2   5   30.98    2.32
  -3  -2  -5   30.40    2.92
   3  -2   5   31.64    2.11
   3  -2   5   32.86    2.23
   3  -2   5   32.45    2.30
   3  -2   5   31.97    2.14
  -3  -2  -5   34.79    2.22
   3  -2   5   31.96    2.12
   3   2   5   29.50    2.23
   3   2   5   29.70    2.18
  -3   2  -5   30.15    2.01
  -3   2  -5   31.09    2.08
   3   2   5   34.06    1.94
   3   2   5   29.13    2.11
   3   2   5   30.94    2.23
   3   2   5   32.33    2.17
   3   2   5   28.98    2.39
  -3   2  -5   28.99    2.06
   3   2   5   30.25    2.14
   3   2   5   31.55    2.25
  -3   2  -5   29.95    2.76
   4  -2   5    0.48    0.42
   4  -2   5    0.23    0.54
   4  -2   5   -0.03    0.41
   4  -2   5    0.66    0.54
   4  -2   5    0.62    0.56
   4  -2   5    0.19    0.39
   4  -2   5   -0.39    0.45
  -4  -2  -5    0.53    0.83
   4  -2   5   -0.03    0.40
   4   2   5    1.86    0.49
  -4   2  -5    1.14    0.42
  -4   2  -5    1.68    0.78
   4   2   5    1.03    0.52
   4   2   5    1.50    0.46
   4   2   5    1.10    0.62
  -4   2  -5    1.08    0.53
   4   2   5    1.45    0.61
  -4   2  -5    1.65    0.49
   4   2   5    1.27    0.57
   4   2   5    1.33    0.52
   4   2   5    1.15    0.46
   5  -2   5   31.63    2.52
   5  -2   5   27.72    2.60
   5  -2   5   29.74    2.49
   5  -2   5   31.23    2.35
   5  -2   5   28.32    2.37
   5  -2   5   30.82    2.32
  -5  -2  -5   27.59    3.18
   5  -2   5   29.53    2.32
   5  -2   5   30.98    2.42
   5   2   5   34.50    2.43
  -5   2  -5   33.48    3.23
   5   2   5   34.35    2.56
   5   2   5   34.52    2.52
   5   2   5   33.82    2.70
   5   2   5   36.75    2.40
   5   2   5   38.70    2.46
   5   2   5   38.84    2.54
  -5   2  -5   32.87    2.30
   5   2   5   38.42    2.37
  -5   2  -5   34.33    2.31
   6  -2   5   15.45    1.60
   6  -2   5   11.42    1.35
   6  -2   5   11.33    1.37
   6  -2   5   12.83    1.34
   6  -2   5   12.81    1.44
   6  -2   5   15.21    1.45
   6  -2   5   15.28    1.34
   6  -2   5   15.05    1.49
  -6  -2  -5   10.58    1.92
   6   2   5   10.81    1.47
   6   2   5   11.01    1.38
   6   2   5   10.28    1.32
  -6   2  -5   10.93    1.25
   6   2   5    8.86    1.26
   6   2   5   12.76    1.29
   6   2   5   10.19    1.31
  -6   2  -5   11.93    1.34
   6   2   5   10.12    1.43
   6   2   5    8.72    1.24
  -6   2  -5    8.84    1.84
  -7  -2  -5   10.67    2.28
  -7   2  -5    7.28    1.94
  -8  -3   5    0.57    1.59
   8   3  -5   -0.79    0.95
   7  -3  -5    3.28    1.00
  -7  -3   5    4.31    1.50
  -7  -3   5    2.92    1.09
  -7   3   5    3.80    1.04
   7   3  -5    5.96    0.91
  -6  -3   5    6.85    1.41
  -6  -3   5    7.42    1.36
  -6  -3   5    6.83    1.32
   6  -3  -5    6.08    0.87
   6  -3  -5    6.50    1.01
  -6  -3   5    6.16    1.23
   6   3  -5    6.29    0.98
   6   3  -5    6.02    0.95
  -6   3   5    5.15    0.94
  -5  -3   5    3.04    0.91
  -5  -3   5    3.29    0.88
   5  -3  -5    3.46    0.69
  -5  -3   5    2.82    0.90
  -5  -3   5    3.48    0.94
   5  -3  -5    3.80    0.59
   5   3  -5    2.07    0.74
  -5   3   5    2.28    0.61
   5   3  -5    1.79    0.71
  -4  -3   5   84.85    5.84
  -4  -3   5   82.23    5.88
   4  -3  -5   87.88    6.16
  -4  -3   5   95.31    7.13
   4  -3  -5   83.39    5.64
  -4  -3   5   83.41    5.94
  -4  -3   5   83.26    6.40
   4   3  -5   94.49    5.75
  -4   3   5   92.26    5.41
   4   3  -5   84.80    6.10
  -4   3   5   85.25    6.02
  -3  -3   5   44.52    3.76
   3  -3  -5   39.92    2.97
  -3  -3   5   40.86    3.43
  -3  -3   5   38.26    3.11
  -3  -3   5   40.15    3.16
  -3  -3   5   37.55    3.12
   3  -3  -5   38.65    3.25
  -3   3   5   53.97    3.11
  -3   3   5   49.83    2.87
   3   3  -5   52.78    3.09
  -3   3   5   50.17    3.28
   3   3  -5   51.41    2.89
   3   3  -5   51.69    3.25
  -2  -3   5   50.77    2.95
  -2  -3   5   49.04    3.37
  -2  -3   5   48.74    3.11
  -2  -3   5   50.91    3.09
   2  -3  -5   48.80    2.89
   2   3  -5   45.85    2.72
  -2   3   5   42.43    2.74
  -2   3   5   39.87    3.11
   2   3  -5   40.36    2.77
  -2   3   5   44.37    2.93
   2   3  -5   38.57    2.95
  -2   3   5   42.82    2.96
   2   3  -5   39.21    2.65
   2   3  -5   40.89    3.10
  -1  -3   5  123.39    7.56
  -1  -3   5  119.86    8.39
  -1  -3   5  120.77    9.00
  -1  -3   5  122.82    8.20
   1  -3  -5  133.04    7.51
  -1  -3   5  123.48    7.69
  -1  -3   5  135.09    8.62
  -1  -3   5  122.03    7.60
   1  -3  -5  140.43    7.18
  -1  -3   5  128.79    7.50
  -1  -3   5  126.90    7.84
   1  -3  -5  124.93    8.01
  -1  -3   5  127.81    8.25
   1   3  -5  120.78    7.56
  -1   3   5  123.53    8.49
   1   3  -5  124.17    8.62
   1   3  -5  122.35    7.85
   1   3  -5  126.83    7.61
   1   3  -5  126.82    7.57
   1   3  -5  124.29    7.68
  -1   3   5  119.57    7.64
  -1   3   5  137.25    8.10
   1   3  -5  124.13    7.70
  -1   3   5  132.19    8.00
   1   3  -5  126.49    7.52
   1   3  -5  122.60    8.10
  -1   3   5  132.33    8.26
   0  -3   5  101.02    5.71
   0  -3   5  104.65    6.48
   0  -3  -5  103.53    5.61
   0  -3   5   96.54    6.84
   0  -3   5   92.62    5.75
   0  -3   5  100.08    5.97
   0  -3  -5  104.57    5.58
   0  -3   5   97.13    5.84
   0  -3  -5  100.38    7.51
   0  -3   5  103.02    6.23
   0  -3  -5  101.91    7.82
   0  -3  -5  102.81    6.05
   0  -3   5   99.23    5.79
   0  -3   5  100.60    5.86
   0  -3  -5  107.54    5.37
   0   3  -5   86.31    5.76
   0   3   5   85.33    5.93
   0   3   5   90.69    6.41
   0   3   5   96.34    6.05
   0   3  -5   93.69    5.84
   0   3  -5   91.66    5.71
   0   3   5   86.12    5.79
   0   3  -5   92.43    5.79
   0   3  -5   83.26    5.73
   0   3   5   89.60    5.90
   0   3  -5   91.63    6.23
   0   3   5   95.32    6.10
   0   3  -5   94.75    5.97
   0   3   5   83.74    5.83
   0   3  -5   89.22    6.15
   0   3   5   88.98    5.85
   0   3  -5   84.58    5.49
   0   3   5   89.16    6.25
  -1  -3  -5  103.87    9.42
   1  -3   5  111.87    7.16
  -1  -3  -5  113.96    9.07
   1  -3   5  113.93    7.00
   1  -3   5  113.86    7.05
   1  -3   5  109.68    7.08
   1  -3   5  121.02    7.93
   1  -3   5  111.37    7.61
   1  -3   5  111.71    7.31
   1  -3   5  118.08    7.17
   1   3   5  107.99    7.10
   1   3   5  113.91    7.42
   1   3   5  116.57    7.25
  -1   3  -5  116.93    7.01
   1   3   5  116.82    7.14
  -1   3  -5  113.99    7.49
  -1   3  -5  129.40    9.19
   1   3   5  121.45    7.80
   1   3   5  111.13    7.28
   1   3   5  118.65    7.69
   1   3   5  113.57    7.61
   1   3   5  134.45    7.41
  -1   3  -5  117.63    6.98
   1   3   5  113.60    7.19
  -1   3  -5  113.83    6.70
   1   3   5  127.79    6.84
  -2  -3  -5   67.68    6.37
   2  -3   5   77.33    5.30
   2  -3   5   70.45    4.74
   2  -3   5   66.23    4.75
   2  -3   5   83.31    4.99
   2  -3   5   67.29    4.71
   2  -3   5   71.01    4.92
  -2  -3  -5   74.16    6.04
   2  -3   5   70.47    5.12
   2  -3   5   74.41    4.83
  -2  -3  -5   78.05    5.18
   2  -3   5   73.34    4.82
  -2   3  -5   84.49    6.21
  -2   3  -5   76.29    4.71
  -2   3  -5   74.25    4.71
   2   3   5   84.30    5.18
   2   3   5   87.63    4.58
   2   3   5   75.82    4.90
   2   3   5   77.55    5.01
   2   3   5   76.23    4.43
  -2   3  -5   81.66    4.52
   2   3   5   77.28    4.86
   2   3   5   79.69    4.89
   2   3   5   77.98    4.80
   2   3   5   78.53    5.14
   2   3   5   82.02    4.97
   2   3   5   80.30    4.52
  -3  -3  -5   63.64    5.59
   3  -3   5   64.88    4.24
   3  -3   5   69.53    4.63
   3  -3   5   66.01    4.32
   3  -3   5   63.41    4.15
   3  -3   5   65.83    4.13
   3  -3   5   65.79    4.24
  -3  -3  -5   71.89    5.23
   3  -3   5   65.65    4.50
   3  -3   5   67.63    4.19
   3   3   5   69.32    3.94
   3   3   5   65.42    4.20
  -3   3  -5   61.91    4.13
   3   3   5   63.81    4.32
   3   3   5   65.42    4.23
  -3   3  -5   67.33    5.44
  -3   3  -5   63.79    4.13
   3   3   5   61.18    4.23
  -3   3  -5   63.38    3.93
   3   3   5   64.94    3.88
   3   3   5   64.56    4.76
   3   3   5   65.83    4.37
   3   3   5   69.74    4.29
   3   3   5   64.97    4.47
   4  -3   5   28.09    2.15
   4  -3   5   25.36    1.93
   4  -3   5   28.76    2.10
   4  -3   5   28.03    1.94
   4  -3   5   29.26    2.02
   4  -3   5   28.13    1.99
  -4  -3  -5   27.23    2.81
   4  -3   5   27.28    2.03
   4  -3   5   29.86    2.00
   4   3   5   27.08    2.06
  -4   3  -5   24.37    1.87
   4   3   5   26.29    1.99
   4   3   5   26.15    1.98
  -4   3  -5   24.80    1.89
   4   3   5   25.83    2.03
   4   3   5   25.27    2.01
   4   3   5   24.37    2.19
   4   3   5   23.92    2.03
  -4   3  -5   24.19    2.55
  -4   3  -5   25.41    1.89
   4   3   5   26.92    1.92
   5  -3   5   34.17    2.83
   5  -3   5   38.56    2.86
  -5  -3  -5   31.96    3.86
   5  -3   5   36.73    2.95
   5  -3   5   39.48    2.84
   5  -3   5   36.56    2.85
   5  -3   5   36.58    2.74
   5  -3   5   38.27    2.82
   5  -3   5   41.54    3.07
   5   3   5   41.50    2.78
   5   3   5   41.53    3.28
   5   3   5   42.94    2.75
   5   3   5   40.99    2.92
   5   3   5   41.64    2.84
   5   3   5   42.35    2.92
   5   3   5   42.06    2.90
  -5   3  -5   40.04    2.63
   5   3   5   42.86    2.85
  -5   3  -5   39.62    3.72
  -5   3  -5   39.68    2.74
   6  -3   5   33.52    2.46
  -6  -3  -5   25.76    3.34
   6  -3   5   34.97    2.82
   6  -3   5   29.63    2.52
   6  -3   5   32.40    2.67
   6   3   5   32.73    2.57
   6   3   5   33.25    2.40
   6   3   5   32.61    2.64
  -6   3  -5   30.87    2.32
   6   3   5   35.76    2.65
  -6   3  -5   32.18    2.42
   6   3   5   33.85    2.50
   6   3   5   34.95    2.85
   6   3   5   31.16    2.47
  -6   3  -5   29.00    3.37
  -7  -3  -5    0.15    1.66
  -7   3  -5    0.24    1.09
   8   4  -5    4.72    1.27
  -7  -4   5    6.39    1.54
   7  -4  -5    3.28    1.02
  -7  -4   5    4.65    1.54
   7   4  -5    5.23    0.95
  -7   4   5    5.01    1.23
   6  -4  -5   14.31    1.38
  -6  -4   5   12.78    1.81
   6  -4  -5   15.23    1.65
  -6  -4   5   13.31    1.62
  -6  -4   5   14.93    2.04
  -6  -4   5   12.14    1.49
   6   4  -5   10.76    1.44
  -6   4   5   11.05    1.52
   6   4  -5   11.88    1.50
  -5  -4   5   21.79    2.34
  -5  -4   5   19.11    1.85
   5  -4  -5   20.64    2.01
  -5  -4   5   19.91    1.91
  -5  -4   5   21.59    2.11
   5  -4  -5   19.24    1.73
   5   4  -5   26.84    2.00
   5   4  -5   25.35    1.92
  -5   4   5   26.29    1.74
  -5   4   5   25.09    2.06
  -4  -4   5   20.16    1.72
  -4  -4   5   20.95    1.94
   4  -4  -5   21.37    1.79
  -4  -4   5   22.10    1.88
  -4  -4   5   23.11    2.18
   4  -4  -5   19.19    1.58
  -4   4   5   22.50    1.63
   4   4  -5   21.78    1.77
   4   4  -5   23.57    1.76
  -4   4   5   23.38    1.61
  -4   4   5   20.37    1.77
  -3  -4   5   28.06    2.14
  -3  -4   5   23.35    1.79
  -3  -4   5   23.81    1.75
   3  -4  -5   23.92    1.60
  -3  -4   5   19.57    1.98
   3   4  -5   22.58    1.74
  -3   4   5   20.77    1.79
   3   4  -5   21.94    1.73
   3   4  -5   21.79    1.60
  -3   4   5   22.42    1.64
  -3   4   5   21.65    1.55
  -2  -4   5    5.42    0.68
   2  -4  -5    4.97    0.49
  -2  -4   5    4.57    0.67
  -2  -4   5    5.13    0.75
  -2  -4   5    5.19    0.81
  -2  -4   5    5.04    0.40
   2   4  -5    6.07    0.42
  -2   4   5    4.57    0.54
  -2   4   5    5.89    0.71
   2   4  -5    5.58    0.70
   2   4  -5    5.77    0.66
   2   4  -5    6.31    0.43
   2   4  -5    5.37    0.54
   1  -4  -5    0.08    0.58
  -1  -4   5   -0.20    0.30
  -1  -4   5    0.82    0.36
  -1  -4   5    0.05    0.16
   1  -4  -5    0.47    0.14
  -1  -4   5    0.42    0.35
   1  -4  -5    0.04    0.17
   1  -4  -5   -0.14    0.20
   1  -4  -5    0.18    0.16
  -1  -4   5    0.37    0.17
   1   4  -5    0.05    0.15
  -1   4   5   -0.21    0.40
   1   4  -5    0.09    0.12
  -1   4   5    0.05    0.39
   1   4  -5    0.20    0.36
   1   4  -5    0.05    0.28
   1   4  -5    0.16    0.18
   1   4  -5   -0.01    0.28
   1   4  -5    0.04    0.17
   1   4  -5   -0.08    0.20
   1   4  -5    0.24    0.16
  -1   4   5    0.51    0.22
   1   4  -5    0.49    0.17
   0  -4   5    0.93    0.26
   0  -4   5    1.18    0.30
   0  -4   5    1.15    0.27
   0  -4   5    1.06    0.26
   0  -4  -5    1.05    0.17
   0  -4   5    1.23    0.50
   0  -4  -5    1.09    0.13
   0  -4  -5    1.21    0.61
   0  -4   5    1.35    0.27
   0  -4   5    1.32    0.31
   0  -4   5    1.05    0.25
   0  -4  -5    1.03    0.47
   0   4  -5    1.01    0.31
   0   4   5    1.46    0.47
   0   4   5    0.72    0.36
   0   4  -5    0.98    0.44
   0   4   5    1.05    0.17
   0   4  -5    0.50    0.41
   0   4  -5    0.68    0.23
   0   4  -5    0.61    0.31
   0   4   5    1.17    0.37
   0   4   5    0.60    0.37
   0   4  -5    0.63    0.39
   0   4   5    1.03    0.46
   0   4   5    0.98    0.42
   1  -4   5    7.05    0.61
   1  -4   5    7.68    0.66
  -1  -4  -5    7.55    1.00
   1  -4   5    6.57    0.90
   1  -4   5    6.79    0.65
   1  -4   5    7.87    0.66
   1  -4   5    7.01    0.67
   1  -4   5    6.66    0.62
  -1  -4  -5    6.95    1.12
   1  -4   5    6.98    0.64
   1   4   5    6.40    0.71
  -1   4  -5    6.85    0.73
  -1   4  -5    6.87    0.73
   1   4   5    5.78    0.58
   1   4   5    6.43    0.71
   1   4   5    4.93    0.79
   1   4   5    6.66    0.78
  -1   4  -5    6.10    0.71
  -1   4  -5    6.63    0.76
   1   4   5    5.83    0.73
   1   4   5    6.46    0.74
   1   4   5    6.34    0.78
   1   4   5    6.67    0.81
   1   4   5    5.88    0.75
   1   4   5    8.20    0.58
   1   4   5    6.50    0.79
  -1   4  -5    7.10    0.72
   2  -4   5   14.74    1.15
   2  -4   5   16.21    1.22
   2  -4   5   14.04    1.11
   2  -4   5   16.13    1.09
   2  -4   5   14.79    1.09
   2  -4   5   15.07    1.06
  -2  -4  -5   17.90    1.14
   2  -4   5   14.06    1.11
  -2  -4  -5   15.57    1.45
  -2  -4  -5   13.22    1.77
   2  -4   5   12.69    1.14
  -2   4  -5   12.74    1.05
   2   4   5   12.47    1.25
   2   4   5   12.82    1.27
   2   4   5   12.86    1.09
   2   4   5   12.31    1.19
  -2   4  -5   12.26    1.16
  -2   4  -5   14.99    1.35
   2   4   5   12.90    1.18
   2   4   5   13.01    1.24
   2   4   5   12.47    1.23
  -2   4  -5   13.00    1.17
   2   4   5   12.74    1.20
   2   4   5   11.96    0.97
  -3  -4  -5    8.55    1.07
   3  -4   5    8.85    0.88
   3  -4   5    8.70    0.90
   3  -4   5    9.19    1.00
   3  -4   5    9.40    0.84
   3  -4   5    9.07    0.89
   3  -4   5    8.72    0.89
   3  -4   5    9.75    0.88
  -3  -4  -5    9.12    1.38
   3  -4   5    9.61    0.96
   3  -4   5    8.93    0.90
   3   4   5    6.40    0.94
   3   4   5    7.47    0.97
   3   4   5    7.23    1.00
   3   4   5    7.72    0.89
  -3   4  -5    7.80    0.94
   3   4   5    5.84    0.96
   3   4   5    7.31    0.94
   3   4   5    6.78    0.99
  -3   4  -5    7.91    0.85
  -3   4  -5    7.12    1.06
   3   4   5    6.95    0.82
   3   4   5    6.91    0.87
  -3   4  -5    7.79    0.86
   4  -4   5   14.86    1.49
   4  -4   5   16.72    1.51
   4  -4   5   14.69    1.39
  -4  -4  -5   13.79    2.13
   4  -4   5   17.70    1.42
   4  -4   5   16.14    1.36
   4  -4   5   15.86    1.45
   4  -4   5   14.51    1.36
   4   4   5   16.02    1.50
   4   4   5   15.32    1.42
  -4   4  -5   14.93    1.42
   4   4   5   15.07    1.26
   4   4   5   16.95    1.44
   4   4   5   18.02    1.76
   4   4   5   17.83    1.54
  -4   4  -5   17.01    1.38
  -4   4  -5   15.53    1.37
   4   4   5   17.61    1.51
  -4   4  -5   19.38    1.89
   4   4   5   15.02    1.35
   4   4   5   16.65    1.44
   5  -4   5   15.53    1.38
   5  -4   5   13.78    1.51
   5  -4   5   10.94    1.45
   5  -4   5   13.68    1.36
   5  -4   5    9.76    1.36
   5  -4   5   11.06    1.32
  -5  -4  -5   10.73    1.91
   5   4   5   15.17    1.46
   5   4   5   12.70    1.57
   5   4   5   12.88    1.38
   5   4   5   15.74    1.44
  -5   4  -5   16.86    1.36
   5   4   5   15.52    1.45
  -5   4  -5   13.78    1.89
  -5   4  -5   14.85    1.50
   5   4   5   16.15    1.51
   5   4   5   14.54    1.36
   5   4   5   13.79    1.42
  -6  -4  -5   12.98    2.59
   6   4   5   19.03    1.66
   6   4   5   16.98    1.82
  -6   4  -5   17.23    1.76
  -6   4  -5   20.28    1.95
   6   4   5   20.68    1.80
  -6   4  -5   17.64    2.22
   6   4   5   17.89    1.72
  -7  -4  -5    5.73    2.10
  -7   4  -5    3.74    1.73
  -7  -5   5    3.13    1.43
  -7  -5   5    1.65    1.43
  -6  -5   5    8.03    1.33
  -6  -5   5    8.04    1.42
  -6  -5   5    9.60    1.66
   6  -5  -5    9.65    1.37
   6   5  -5    7.53    1.09
  -6   5   5    6.48    1.17
   6   5  -5    8.34    1.11
  -5  -5   5   20.52    2.17
  -5  -5   5   20.83    1.78
  -5  -5   5   21.91    1.87
   5  -5  -5   20.66    1.87
  -5   5   5   18.05    1.55
  -5   5   5   16.85    1.84
  -5   5   5   16.34    1.61
   5   5  -5   16.54    1.62
   5   5  -5   17.57    1.71
   5   5  -5   16.98    1.57
  -4  -5   5   15.82    1.71
  -4  -5   5   16.37    1.84
   4  -5  -5   17.04    1.55
  -4  -5   5   16.99    1.74
   4  -5  -5   16.48    1.35
  -4  -5   5   16.92    1.60
   4   5  -5   16.93    1.49
   4   5  -5   17.91    1.48
  -4   5   5   18.42    1.47
  -4   5   5   16.40    1.55
   4   5  -5   18.50    1.53
  -4   5   5   19.10    1.45
  -3  -5   5   19.63    1.99
  -3  -5   5   24.49    1.81
  -3  -5   5   20.95    1.90
   3  -5  -5   19.73    2.26
   3  -5  -5   22.26    1.61
   3   5  -5   26.56    1.82
  -3   5   5   25.67    1.66
   3   5  -5   26.00    1.74
   3   5  -5   25.42    1.77
  -3   5   5   21.30    1.67
  -3   5   5   22.71    1.88
  -2  -5   5   47.05    3.50
   2  -5  -5   47.41    3.18
  -2  -5   5   45.02    3.43
   2  -5  -5   43.91    4.23
  -2  -5   5   44.15    3.75
  -2   5   5   50.99    3.09
   2   5  -5   46.02    3.01
   2   5  -5   50.22    3.18
   2   5  -5   54.16    3.06
   2   5  -5   56.75    3.03
   2   5  -5   50.90    3.38
   2   5  -5   51.50    3.47
  -2   5   5   48.90    3.54
  -1  -5   5   75.95    5.29
   1  -5  -5   70.51    6.29
  -1  -5   5   73.29    5.67
  -1  -5   5   73.76    5.16
  -1  -5   5   82.34    5.03
   1   5  -5   81.40    4.71
   1   5  -5   82.90    4.60
   1   5  -5   77.37    4.78
   1   5  -5   72.17    4.57
  -1   5   5   75.41    5.34
  -1   5   5   75.58    4.65
   1   5  -5   82.31    4.85
  -1   5   5   77.17    4.83
   1   5  -5   84.86    4.65
   1   5  -5   69.02    4.78
   1   5  -5   74.58    5.09
   0  -5  -5  115.82    5.93
   0  -5  -5  100.60    8.35
   0  -5   5  117.28    6.87
   0  -5   5  103.64    7.61
   0   5   5  106.76    6.53
   0   5  -5  102.16    6.43
   0   5   5  102.62    6.94
   0   5  -5   99.17    6.12
   0   5   5  101.06    6.51
   0   5  -5   95.85    6.81
   0   5   5  108.45    6.23
   0   5   5   99.72    6.44
   0   5  -5  100.55    6.37
   0   5  -5  117.67    6.29
   0   5   5   97.16    6.59
   0   5   5  102.52    7.12
   1   5   5   13.38    1.01
  -1   5  -5   16.34    1.25
   1   5   5   15.61    1.26
  -1   5  -5   15.22    1.21
  -1   5  -5   17.50    1.30
   1   5   5   13.81    1.24
   1   5   5   14.48    1.29
   1   5   5   16.11    1.29
   1   5   5   13.65    1.25
   1   5   5   16.78    1.35
   1   5   5   15.26    1.24
  -1   5  -5   14.84    1.12
   1   5   5   13.50    1.21
   1   5   5   13.24    1.21
   1   5   5   16.98    1.36
   2  -5   5  110.19    6.81
  -2  -5  -5   92.84    9.00
   2  -5   5   99.65    7.87
   2  -5   5  104.33    8.49
   2  -5   5  102.83    6.72
   2  -5   5  100.43    6.64
   2  -5   5  106.68    6.94
  -2  -5  -5  100.52    8.61
   2  -5   5  106.91    7.21
   2   5   5  107.92    6.89
  -2   5  -5  113.63    6.40
   2   5   5  115.22    6.78
  -2   5  -5  109.82    6.69
   2   5   5  109.83    6.96
   2   5   5  116.27    7.06
   2   5   5  112.14    6.24
   2   5   5  112.72    6.85
   2   5   5  111.55    6.82
   2   5   5  122.46    7.31
  -2   5  -5  115.92    6.66
   2   5   5  115.14    7.24
  -3  -5  -5   37.90    3.88
   3  -5   5   43.28    2.85
  -3  -5  -5   41.72    3.60
   3  -5   5   41.60    2.85
   3  -5   5   41.99    3.05
   3  -5   5   39.25    3.43
   3  -5   5   39.27    2.81
   3  -5   5   43.00    2.89
   3  -5   5   39.69    2.94
   3   5   5   40.99    2.95
   3   5   5   39.87    2.60
   3   5   5   44.90    3.00
   3   5   5   42.09    2.96
  -3   5  -5   42.34    2.81
  -3   5  -5   46.73    3.66
   3   5   5   45.07    2.96
  -3   5  -5   45.14    2.77
   3   5   5   45.39    3.04
   3   5   5   45.43    2.98
   3   5   5   41.85    2.86
  -3   5  -5   44.29    2.85
   3   5   5   39.73    3.24
   4  -5   5   44.30    2.93
   4  -5   5   41.90    3.04
   4  -5   5   42.61    2.85
   4  -5   5   44.90    2.91
  -4  -5  -5   38.64    4.08
   4  -5   5   39.76    3.11
  -4   5  -5   37.57    2.77
  -4   5  -5   40.68    2.86
  -4   5  -5   39.97    3.70
   4   5   5   44.65    2.93
   4   5   5   42.42    3.03
   4   5   5   43.14    2.93
   4   5   5   41.00    2.66
  -4   5  -5   39.89    2.90
   4   5   5   42.01    3.37
   4   5   5   42.42    2.99
   4   5   5   41.58    3.00
   4   5   5   39.48    2.89
   4   5   5   42.27    2.96
   5  -5   5   11.08    1.49
   5  -5   5   12.19    1.36
   5  -5   5   13.28    1.47
  -5  -5  -5   11.72    2.02
   5  -5   5   11.95    1.33
   5   5   5   14.25    1.53
   5   5   5   10.29    1.33
  -5   5  -5   15.68    1.58
   5   5   5   12.12    1.72
   5   5   5   14.18    1.39
   5   5   5   13.64    1.42
  -5   5  -5   12.83    1.83
   5   5   5   15.69    1.53
  -5   5  -5   12.84    1.46
   5   5   5   12.67    1.38
  -6  -5  -5    4.24    1.57
  -6   5  -5    5.42    1.54
   6   5   5    7.49    1.21
  -7  -5  -5    6.27    1.89
  -7   5  -5    7.21    1.66
   7  -6  -5    6.86    1.89
  -7  -6   5    5.10    1.60
  -7  -6   5    4.43    1.42
   6  -6  -5    9.27    1.86
  -6  -6   5    9.31    1.61
   6  -6  -5   13.83    1.67
  -6  -6   5   11.51    1.97
  -6  -6   5   11.22    1.59
   6   6  -5   13.43    1.37
   6   6  -5   14.55    1.57
   6   6  -5   13.46    1.53
  -5  -6   5   10.28    1.36
  -5  -6   5   11.98    1.73
   5  -6  -5   10.34    1.64
  -5  -6   5   10.30    1.47
   5   6  -5    7.12    1.11
  -5   6   5    5.56    1.02
  -5   6   5    8.15    1.12
  -5   6   5    7.21    1.26
   5   6  -5    7.33    1.11
   5   6  -5    8.29    1.11
  -4  -6   5   16.86    1.53
   4  -6  -5   17.20    2.30
  -4  -6   5   17.79    1.61
  -4  -6   5   15.86    1.81
  -4   6   5   17.15    1.77
  -4   6   5   17.54    1.47
   4   6  -5   17.22    1.47
   4   6  -5   16.97    1.56
   4   6  -5   17.99    1.42
  -4   6   5   17.26    1.58
  -3  -6   5    8.23    1.08
   3  -6  -5    8.82    1.37
  -3  -6   5    9.34    1.07
  -3  -6   5    6.88    1.07
   3   6  -5    6.98    0.81
   3   6  -5    7.21    0.94
  -3   6   5    7.95    0.84
  -3   6   5    7.29    1.08
  -3   6   5    7.25    0.98
   3   6  -5    6.91    0.93
  -2  -6   5    7.59    0.99
  -2  -6   5    7.18    1.07
   2  -6  -5    6.68    1.23
  -2  -6   5    8.27    1.05
   2   6  -5    8.82    0.76
   2   6  -5    8.76    0.95
   2   6  -5    7.10    0.87
   2   6  -5    7.68    0.89
   2   6  -5    9.01    0.91
  -2   6   5    8.48    1.00
  -2   6   5    9.55    0.78
  -1  -6   5    3.63    0.75
   1  -6  -5    3.53    0.90
  -1  -6   5    4.37    0.78
  -1  -6   5    2.89    0.83
   1   6  -5    4.72    0.69
  -1   6   5    3.81    0.77
  -1   6   5    5.32    0.72
   1   6  -5    5.48    0.69
  -1   6   5    5.22    0.52
   1   6  -5    4.38    0.65
   1   6  -5    5.45    0.74
   0  -6  -5   15.16    1.73
   0  -6   5   14.65    1.33
   0  -6   5   13.67    1.47
   0  -6   5   14.16    1.31
   0   6  -5   14.07    1.21
   0   6   5   13.30    1.19
   0   6  -5   11.92    1.13
   0   6  -5   13.06    1.19
   0   6   5   13.68    0.94
   0   6   5   13.40    1.15
   0   6   5   14.10    1.28
   0   6   5   13.57    1.29
   0   6   5   15.67    1.27
   0   6  -5   13.41    1.08
  -1  -6  -5    0.98    0.81
  -1  -6  -5    1.49    0.85
   1  -6   5    1.44    0.61
   1  -6   5    1.81    0.57
   1  -6   5    2.32    0.46
  -1   6  -5    1.49    0.60
   1   6   5    1.61    0.62
   1   6   5    0.90    0.52
  -1   6  -5    1.34    0.52
   1   6   5    1.25    0.61
  -1   6  -5    1.42    0.45
   1   6   5    0.63    0.45
   1   6   5    1.62    0.66
   1   6   5    0.81    0.60
   1   6   5    1.43    0.61
   1   6   5    1.50    0.51
   1   6   5    1.16    0.57
   1   6   5    0.88    0.60
   1   6   5    1.62    0.37
   1   6   5    1.34    0.57
  -1   6  -5    1.59    0.58
   2  -6   5    6.50    0.83
   2  -6   5    5.33    0.90
  -2  -6  -5    6.16    1.15
  -2  -6  -5    6.34    1.34
   2  -6   5    6.61    0.95
   2   6   5    6.57    1.00
  -2   6  -5    7.66    0.83
  -2   6  -5    6.14    0.83
   2   6   5    6.86    0.96
   2   6   5    5.74    0.82
   2   6   5    7.06    0.83
  -2   6  -5    7.06    0.83
   2   6   5    7.39    0.91
   2   6   5    6.24    0.70
   2   6   5    6.13    0.89
   2   6   5    6.19    0.96
   2   6   5    5.71    0.92
  -3  -6  -5    1.90    1.28
  -3  -6  -5    2.37    0.90
   3  -6   5    2.00    0.67
   3  -6   5    3.18    0.72
   3  -6   5    1.95    0.81
   3  -6   5    2.95    0.63
   3   6   5    3.01    0.61
   3   6   5    3.08    0.68
   3   6   5    3.01    0.87
   3   6   5    2.77    0.76
  -3   6  -5    2.91    0.66
  -3   6  -5    3.58    0.71
   3   6   5    3.72    0.76
   3   6   5    2.25    0.78
   3   6   5    1.92    0.86
   3   6   5    3.34    0.79
  -3   6  -5    3.01    0.63
   3   6   5    2.86    0.55
   4  -6   5    6.69    1.07
  -4  -6  -5    5.43    1.44
   4  -6   5    8.26    1.04
   4   6   5    4.84    1.04
   4   6   5    9.17    1.05
  -4   6  -5    6.02    1.09
  -4   6  -5    7.52    1.32
   4   6   5    5.23    0.91
   4   6   5    5.77    0.97
  -4   6  -5    7.50    1.08
   4   6   5    5.96    1.20
   4   6   5    5.21    0.99
   4   6   5    7.35    1.11
  -4   6  -5    5.89    1.06
   4   6   5    7.29    0.93
  -5  -6  -5    7.07    1.96
   5  -6   5   10.12    1.35
   5  -6   5    8.90    1.39
  -5   6  -5    8.40    1.33
   5   6   5    8.85    1.30
   5   6   5    7.69    1.16
   5   6   5    6.12    1.40
  -5   6  -5    6.66    1.46
  -6  -6  -5    7.92    2.29
  -6   6  -5   12.70    2.02
  -7  -7   5    2.89    1.23
  -7  -7   5    1.85    1.38
  -6  -7   5   -1.81    0.94
  -6  -7   5    0.99    1.27
   6  -7  -5   -0.07    1.35
  -6  -7   5   -0.40    1.36
   5  -7  -5    2.05    1.40
  -5  -7   5    1.59    0.86
  -5  -7   5    3.37    1.40
  -5  -7   5    3.23    0.85
  -5   7   5    1.72    0.83
   5   7  -5    2.56    0.88
   5   7  -5    3.49    0.91
  -5   7   5    3.22    0.77
  -4  -7   5   17.28    1.80
  -4  -7   5   16.58    2.07
   4  -7  -5   17.79    2.51
  -4  -7   5   18.61    1.76
   4   7  -5   20.57    1.70
  -4   7   5   22.43    1.66
  -4   7   5   19.57    2.00
  -4   7   5   18.32    1.81
   4   7  -5   20.81    1.74
  -3  -7   5   37.06    2.54
  -3  -7   5   31.82    2.83
   3  -7  -5   36.41    3.24
  -3  -7   5   32.30    2.59
  -3   7   5   34.70    2.26
   3   7  -5   29.10    2.22
  -3   7   5   31.10    2.67
   3   7  -5   32.72    2.46
   3   7  -5   32.40    2.35
  -3   7   5   30.90    2.47
  -3   7   5   32.59    2.13
  -2  -7   5   27.70    2.63
   2  -7  -5   24.52    2.81
  -2  -7   5   27.63    2.26
  -2  -7   5   26.73    2.30
  -2   7   5   31.21    2.35
   2   7  -5   33.16    2.15
   2   7  -5   28.46    2.04
  -2   7   5   28.37    2.15
   2   7  -5   29.53    2.13
  -2   7   5   33.71    2.00
   2   7  -5   31.30    2.27
  -1  -7   5   52.09    3.57
  -1  -7   5   48.56    3.50
  -1  -7   5   49.48    3.92
   1  -7  -5   47.96    4.39
   1   7  -5   48.26    3.07
  -1   7   5   52.27    3.62
  -1   7   5   49.91    3.08
   1   7  -5   46.28    3.28
   1   7  -5   49.70    3.23
   1   7  -5   49.09    3.41
   0  -7   5   21.34    1.73
   0  -7   5   21.67    1.96
   0  -7  -5   17.59    2.08
   0  -7   5   18.15    1.70
   0   7   5   21.66    1.72
   0   7  -5   20.37    1.59
   0   7  -5   19.26    1.55
   0   7   5   21.40    1.30
   0   7   5   18.18    1.53
   0   7   5   17.94    1.56
   0   7  -5   19.64    1.45
   0   7  -5   19.85    1.57
   0   7   5   20.85    1.68
   1  -7   5   19.87    1.97
  -1  -7  -5   18.01    2.30
  -1  -7  -5   21.02    2.09
   1  -7   5   19.54    1.89
   1   7   5   18.68    1.61
   1   7   5   20.02    1.71
   1   7   5   18.47    1.71
   1   7   5   18.32    1.69
   1   7   5   18.88    1.66
  -1   7  -5   21.44    1.57
   1   7   5   17.01    1.49
  -1   7  -5   20.11    1.55
   1   7   5   19.38    1.67
   1   7   5   19.78    1.69
   1   7   5   18.36    1.71
   1   7   5   17.55    1.54
   1   7   5   21.30    1.59
  -1   7  -5   19.10    1.55
   2  -7   5   22.55    2.13
   2  -7   5   21.46    2.07
  -2  -7  -5   19.39    2.52
  -2  -7  -5   21.31    2.25
  -2   7  -5   22.87    1.68
   2   7   5   22.93    1.86
   2   7   5   22.44    1.89
   2   7   5   20.04    1.53
  -2   7  -5   24.40    1.67
   2   7   5   23.07    1.79
   2   7   5   24.01    2.07
   2   7   5   21.55    1.77
   2   7   5   21.65    1.90
  -2   7  -5   22.69    1.85
   2   7   5   23.00    1.86
   2   7   5   21.93    1.79
   2   7   5   22.46    1.81
   2   7   5   19.14    1.79
   3  -7   5   58.86    4.72
  -3  -7  -5   58.60    5.71
  -3  -7  -5   63.18    5.20
   3   7   5   58.52    3.73
   3   7   5   65.12    4.06
   3   7   5   56.31    4.14
   3   7   5   60.26    4.13
  -3   7  -5   62.64    4.05
   3   7   5   64.80    4.17
  -3   7  -5   65.67    3.93
   3   7   5   61.56    4.23
   3   7   5   60.47    4.60
   3   7   5   58.73    4.22
  -3   7  -5   63.29    4.03
   4  -7   5   21.00    2.41
  -4  -7  -5   21.77    2.99
   4   7   5   28.05    2.17
  -4   7  -5   26.92    2.09
   4   7   5   26.51    1.91
   4   7   5   30.75    2.58
   4   7   5   27.59    2.25
   4   7   5   27.49    2.29
  -4   7  -5   28.40    2.20
  -4   7  -5   27.22    2.30
   4   7   5   29.16    2.21
  -5  -7  -5   12.52    2.54
   5   7   5   11.25    1.42
   5   7   5   13.74    1.59
  -6  -7  -5    0.58    1.87
   6   7   5    2.56    0.88
  -6  -8   5    3.76    1.52
  -6  -8   5    5.37    1.83
   6  -8  -5    4.81    1.88
  -5  -8   5    9.36    1.57
  -5  -8   5    8.49    1.41
   5  -8  -5   10.92    2.14
  -5  -8   5    8.42    1.64
  -4  -8   5    7.72    1.20
  -4  -8   5    5.27    1.51
  -4  -8   5    6.31    1.09
   4  -8  -5    6.41    1.51
  -4   8   5    8.60    1.29
  -4   8   5    8.66    1.37
   4   8  -5    7.59    1.08
   4   8  -5    7.28    1.03
  -4   8   5    6.83    0.99
  -4   8   5    6.84    1.25
   3  -8  -5    8.06    1.61
  -3  -8   5    8.44    1.40
  -3  -8   5   10.49    1.34
  -3  -8   5   10.01    1.26
   3   8  -5   11.72    1.26
  -3   8   5   11.31    1.27
   3   8  -5    9.44    1.11
  -3   8   5    8.90    1.37
   3   8  -5    9.29    1.26
  -3   8   5   11.20    1.13
   3   8  -5   10.74    1.20
  -2  -8   5    0.89    0.67
  -2  -8   5    1.11    0.70
   2  -8  -5    0.15    0.86
  -2  -8   5    0.47    0.70
   2   8  -5    1.16    0.67
  -2   8   5    1.46    0.79
   2   8  -5   -0.24    0.67
   2   8  -5    0.31    0.61
  -2   8   5    1.26    0.63
   2   8  -5    0.36    0.63
  -1  -8   5    5.56    1.16
   1  -8  -5    4.91    1.21
  -1  -8   5    5.12    0.88
  -1  -8   5    5.21    0.89
   1   8  -5    5.10    0.81
   1   8  -5    4.48    0.82
   1   8  -5    4.77    0.82
   1   8  -5    4.91    0.92
  -1   8   5    4.56    0.89
  -1   8   5    3.27    0.77
   0  -8   5   -0.08    0.66
   0  -8   5    0.55    0.65
   0  -8  -5    1.24    1.09
   0  -8   5    0.93    0.81
   0   8   5   -0.48    0.69
   0   8  -5    0.31    0.59
   0   8   5    0.26    0.58
   0   8  -5    0.14    0.45
   0   8  -5    0.49    0.52
   0   8   5    0.98    0.72
   0   8   5    0.84    0.67
   0   8  -5    0.95    0.55
  -1  -8  -5    3.85    1.10
   1  -8   5    4.48    1.03
   1  -8   5    5.03    0.94
   1  -8   5    6.17    0.98
   1  -8   5    4.81    0.90
   1   8   5    3.91    0.91
   1   8   5    3.06    0.90
  -1   8  -5    4.30    0.77
   1   8   5    4.37    0.59
   1   8   5    4.70    0.89
   1   8   5    4.86    0.83
   1   8   5    4.55    0.95
   1   8   5    3.85    0.79
  -1   8  -5    4.30    0.82
   1   8   5    4.31    0.88
  -1   8  -5    3.53    0.82
   1   8   5    2.47    0.92
   1   8   5    4.34    0.87
  -2  -8  -5    2.86    1.58
   2  -8   5    2.05    0.89
   2  -8   5    1.91    0.90
  -2  -8  -5    1.84    0.94
   2   8   5    3.80    0.89
   2   8   5    1.86    0.69
   2   8   5    2.66    0.67
   2   8   5    2.61    0.84
  -2   8  -5    3.13    0.84
   2   8   5    3.10    0.88
   2   8   5    2.84    0.85
   2   8   5    2.53    0.87
  -2   8  -5    1.40    0.73
   2   8   5    3.09    0.62
   2   8   5    3.30    0.85
   2   8   5    2.07    0.69
   2   8   5    2.08    0.87
  -2   8  -5    3.83    0.94
   3  -8   5    4.83    1.14
  -3  -8  -5    7.63    1.56
  -3  -8  -5    6.81    1.95
  -3   8  -5    8.29    1.14
   3   8   5    5.88    1.13
   3   8   5    7.22    1.12
   3   8   5    7.73    1.21
  -3   8  -5    7.36    1.21
   3   8   5    7.88    1.29
  -3   8  -5    7.29    1.14
   3   8   5    6.18    0.91
   3   8   5    6.58    1.16
   3   8   5    7.66    1.15
  -4  -8  -5    2.67    1.74
   4   8   5    0.55    0.77
   4   8   5    1.35    0.78
   4   8   5    1.07    0.88
  -5  -8  -5    9.19    2.12
   5   8   5   11.00    1.41
   5  -9  -5    2.64    1.71
  -5  -9   5    5.46    1.75
  -5  -9   5    3.12    1.29
   4  -9  -5    8.89    2.06
  -4  -9   5   10.85    1.54
  -4  -9   5    8.61    1.86
  -4   9   5   10.29    1.40
  -4   9   5    9.75    1.53
  -3  -9   5    9.50    1.52
   3  -9  -5   13.64    2.19
  -3  -9   5    8.62    1.35
  -3   9   5    8.05    1.40
   3   9  -5    9.51    1.30
  -3   9   5    8.57    1.47
   2  -9  -5   17.67    2.37
  -2  -9   5   14.79    1.71
   2   9  -5   12.37    1.31
  -2   9   5   11.82    1.51
   2   9  -5   12.06    1.43
   2   9  -5   11.24    1.23
  -2   9   5    8.08    1.29
   1  -9  -5   42.21    4.27
  -1  -9   5   36.85    3.65
   1   9  -5   47.64    2.91
   1   9  -5   47.34    2.99
  -1   9   5   38.93    3.08
   1   9  -5   43.05    3.01
  -1   9   5   48.11    3.39
   0  -9  -5   19.58    2.64
   0  -9   5   17.50    2.11
   0   9   5   17.15    1.67
   0   9  -5   18.88    1.64
   0   9   5   20.40    1.86
   0   9   5   17.75    1.72
   0   9   5   21.67    1.80
   0   9   5   19.95    1.84
   0   9  -5   19.21    1.79
   0   9  -5   20.35    1.64
  -1  -9  -5   18.59    2.52
   1  -9   5   19.22    2.08
   1   9   5   19.13    1.77
   1   9   5   19.43    1.85
   1   9   5   17.30    1.69
   1   9   5   19.84    1.77
  -1   9  -5   19.16    1.56
   1   9   5   19.27    1.76
   1   9   5   22.90    1.93
   1   9   5   19.39    1.82
   1   9   5   17.79    1.83
  -1   9  -5   18.23    1.81
  -1   9  -5   22.15    1.71
  -2  -9  -5   15.70    2.23
   2  -9   5   14.91    1.87
   2  -9   5   11.68    1.64
   2   9   5   12.48    1.19
   2   9   5   16.80    1.73
   2   9   5   13.76    1.52
  -2   9  -5   12.89    1.41
   2   9   5   11.41    1.35
   2   9   5   12.29    1.41
   2   9   5   12.80    1.56
  -2   9  -5   15.46    1.61
   2   9   5   12.05    1.54
  -2   9  -5   11.42    1.38
   2   9   5   13.61    1.56
   2   9   5   12.17    1.47
   2   9   5   13.05    1.59
  -3  -9  -5   25.03    3.00
  -3  -9  -5   22.22    3.31
   3   9   5   26.65    2.46
   3   9   5   25.62    2.22
   3   9   5   24.27    1.89
   3   9   5   27.75    2.32
  -3   9  -5   26.90    2.16
   3   9   5   22.45    2.25
   3   9   5   23.86    2.30
  -4  -9  -5    5.03    2.14
   4   9   5    2.80    0.75
   4   9   5    3.19    1.21
  -5  -9  -5    9.78    2.73
   5   9   5   16.36    2.09
   5   9   5   14.14    1.66
   4 -10  -5    2.23    1.84
  -4 -10   5    2.56    1.61
  -4  10   5    4.23    1.36
  -4  10   5    4.29    1.11
   3 -10  -5    4.49    1.94
  -3 -10   5    5.83    1.62
  -3  10   5    4.71    1.09
  -3  10   5    5.27    1.41
   2 -10  -5    4.98    1.51
  -2 -10   5    2.83    1.36
  -2  10   5    5.98    1.30
  -1 -10   5    1.14    1.18
   1 -10  -5    3.07    1.33
   1  10  -5    3.51    0.85
  -1  10   5    3.54    0.93
  -1  10   5    2.14    0.93
   0 -10  -5    2.45    1.56
   0 -10   5    1.07    1.07
   0  10   5    0.98    0.71
   0  10   5    0.99    0.99
   0  10   5    0.24    0.66
   0  10  -5    1.10    0.81
   0  10   5    1.88    0.89
  -1 -10  -5    2.20    1.52
   1 -10   5   -0.31    0.91
   1  10   5    0.63    0.83
   1  10   5    1.23    0.85
   1  10   5    1.12    0.92
   1  10   5    0.34    0.88
   1  10   5    0.28    0.87
   1  10   5    1.59    0.92
   1  10   5   -0.04    0.66
  -2 -10  -5    0.88    1.47
   2  10   5   -0.44    0.83
   2  10   5    0.37    0.96
   2  10   5    0.61    0.67
   2  10   5    0.50    0.68
  -3 -10  -5    1.63    1.57
   3  10   5    1.90    1.13
   3  10   5    4.24    1.12
   3  10   5    3.19    1.14
  -4 -10  -5   10.09    2.73
   4  10   5    7.14    1.54
   4  10   5    7.11    1.53
   4  10   5    8.66    1.27
   4  10   5    7.37    1.52
  -3 -11   5    5.59    1.46
   3 -11  -5    5.27    2.16
  -3  11   5    3.47    1.49
   2 -11  -5   11.76    2.13
  -2 -11   5    9.64    1.90
  -2  11   5    9.00    1.74
  -2  11   5    7.32    1.40
   1 -11  -5    3.42    1.54
  -1 -11   5    3.52    1.43
  -1  11   5    6.31    1.20
  -1  11   5    5.62    1.61
   0 -11   5   18.01    2.23
   0 -11  -5   16.81    2.76
   0  11   5   16.74    2.04
   0  11   5   17.27    2.01
  -1 -11  -5    6.62    1.70
   1  11   5    5.73    1.29
   1  11   5    5.84    1.18
   1  11   5    2.36    1.20
  -2 -11  -5   13.47    2.32
   2  11   5   14.92    1.67
   2  11   5   15.03    2.04
   2  11   5   14.43    1.80
   7   0  -6    2.33    0.87
   7   0  -6    3.33    0.82
  -7   0   6    3.79    1.02
  -7   0   6    2.56    1.16
  -6   0   6   33.95    2.90
   6   0  -6   35.99    2.32
  -6   0   6   34.83    2.75
   6   0  -6   36.12    2.87
   6   0  -6   38.47    2.68
  -5   0   6   28.51    2.21
  -5   0   6   24.95    2.15
   5   0  -6   27.13    2.15
  -5   0   6   26.46    2.28
  -5   0   6   30.48    2.31
   5   0  -6   30.61    2.27
  -4   0   6   73.58    5.12
   4   0  -6   69.92    5.25
  -4   0   6   72.77    5.09
  -4   0   6   73.56    5.00
   4   0  -6   75.33    4.90
  -4   0   6   78.68    5.39
  -3   0   6    7.23    0.72
  -3   0   6    7.28    0.73
   3   0  -6    6.45    0.77
  -3   0   6    6.57    0.79
   3   0  -6    6.76    0.74
  -3   0   6    6.12    0.74
  -2   0   6   12.07    1.03
   2   0  -6   11.87    0.99
  -2   0   6   12.93    1.03
  -2   0   6   11.51    0.93
   2   0  -6   10.54    1.03
  -2   0   6   13.48    1.02
  -2   0   6   13.37    0.99
  -2   0   6   11.25    0.85
   1   0  -6   35.86    2.19
  -1   0   6   33.92    2.23
  -1   0   6   34.64    2.34
  -1   0   6   33.25    2.52
  -1   0   6   33.47    2.27
  -1   0   6   35.42    2.46
  -1   0   6   33.43    2.25
  -1   0   6   35.70    2.28
  -1   0   6   31.08    2.22
  -1   0   6   37.66    2.60
   1   0  -6   35.99    2.37
  -1   0   6   35.18    2.41
   1   0  -6   40.02    2.26
   0   0   6   55.96    3.61
   0   0   6   58.30    3.53
   0   0  -6   56.82    3.45
   0   0   6   62.75    3.47
   0   0  -6   59.06    4.64
   0   0   6   57.69    3.61
   0   0  -6   53.73    3.30
   0   0   6   58.67    3.85
   0   0   6   54.75    3.69
   0   0   6   51.20    3.53
   0   0   6   55.89    3.57
   0   0   6   59.96    3.93
   0   0  -6   52.51    3.71
   1   0   6   15.10    1.20
  -1   0  -6   15.40    1.50
  -1   0  -6   16.66    1.03
   1   0   6   16.05    1.24
   1   0   6   16.27    1.09
   1   0   6   15.76    1.22
  -1   0  -6   14.41    1.08
   1   0   6   14.30    1.15
   1   0   6   16.12    1.17
  -1   0  -6   16.17    1.05
   1   0   6   14.12    1.18
   1   0   6   15.77    1.27
   1   0   6   16.03    1.20
   1   0   6   14.72    1.26
  -1   0  -6   15.95    1.22
   2   0   6    0.81    0.35
  -2   0  -6    1.14    0.46
   2   0   6    1.13    0.37
   2   0   6    1.71    0.48
  -2   0  -6    0.83    0.30
   2   0   6    1.11    0.46
   2   0   6    1.23    0.38
   2   0   6    1.26    0.38
   2   0   6    1.38    0.47
  -2   0  -6    1.07    0.31
   2   0   6    0.93    0.37
   2   0   6    1.31    0.37
  -2   0  -6    1.51    0.30
   3   0   6    1.32    0.54
  -3   0  -6    0.84    0.67
   3   0   6    0.37    0.50
   3   0   6    0.29    0.48
   3   0   6    0.78    0.39
   3   0   6    1.00    0.42
  -3   0  -6    1.55    0.47
  -3   0  -6    0.83    0.34
  -3   0  -6    0.54    0.35
   3   0   6    0.99    0.52
   3   0   6    1.16    0.52
   3   0   6    0.36    0.35
   4   0   6    5.47    0.89
  -4   0  -6    5.79    1.20
   4   0   6    5.49    0.76
  -4   0  -6    6.11    0.71
  -4   0  -6    5.76    0.72
   4   0   6    6.18    0.82
   4   0   6    5.96    0.86
   4   0   6    5.83    0.79
   4   0   6    5.60    0.84
   4   0   6    6.36    0.83
   4   0   6    6.51    0.93
   5   0   6    2.00    0.78
   5   0   6    1.89    0.83
   5   0   6    2.64    0.86
   5   0   6    1.89    0.64
   5   0   6    2.04    0.59
  -5   0  -6    3.06    0.97
   5   0   6    2.88    0.72
  -5   0  -6    1.74    0.63
  -5   0  -6    2.05    0.62
   5   0   6    3.27    0.83
   5   0   6    1.07    0.76
   6   0   6    9.66    1.28
   6   0   6   13.72    1.56
   6   0   6   10.50    1.23
  -6   0  -6   10.77    1.19
   6   0   6   10.29    1.56
   6   0   6    9.28    1.42
   6   0   6    8.31    1.28
  -6   0  -6    9.98    1.96
   6   0   6   11.44    1.27
   6   0   6   10.45    1.28
  -7   0  -6    7.62    1.80
  -8  -1   6    2.44    1.73
  -8   1   6    0.00    1.76
   7  -1  -6    0.19    1.02
  -7  -1   6    0.27    1.28
   7  -1  -6   -0.03    0.84
  -7  -1   6    0.22    1.12
   7   1  -6    0.41    0.99
   7   1  -6    0.10    0.67
  -6  -1   6    2.75    0.86
  -6  -1   6    1.67    0.78
   6  -1  -6    3.32    0.97
   6  -1  -6    2.75    0.83
  -6  -1   6    3.19    0.97
  -6   1   6    2.78    0.80
   6   1  -6    2.74    0.72
  -6   1   6    3.62    0.99
   6   1  -6    4.60    0.98
   5  -1  -6    2.75    0.64
   5  -1  -6    2.03    0.66
  -5  -1   6    1.79    0.70
  -5  -1   6    2.10    0.78
  -5  -1   6    2.39    0.69
  -5  -1   6    2.08    0.61
   5   1  -6    3.79    0.78
   5   1  -6    2.92    0.63
  -5   1   6    3.47    0.61
  -5   1   6    4.14    0.85
  -4  -1   6    8.32    0.96
   4  -1  -6    7.76    0.93
  -4  -1   6    7.73    1.02
   4  -1  -6    7.37    0.90
  -4  -1   6    7.44    0.71
  -4  -1   6    8.15    0.93
  -4  -1   6    7.59    0.97
  -4   1   6   10.04    1.04
  -4   1   6   10.25    0.90
   4   1  -6    9.98    1.00
  -4   1   6    9.34    1.02
  -4   1   6   10.89    0.72
  -4   1   6    9.91    0.92
   4   1  -6   11.19    1.05
   3  -1  -6   57.59    4.03
  -3  -1   6   58.45    3.85
  -3  -1   6   57.14    3.90
  -3  -1   6   64.68    3.52
  -3  -1   6   52.94    3.40
   3  -1  -6   56.93    3.74
  -3  -1   6   60.28    4.16
  -3  -1   6   57.76    3.52
  -3  -1   6   54.61    3.94
  -3   1   6   57.10    4.05
  -3   1   6   53.76    3.78
   3   1  -6   54.28    3.74
  -3   1   6   52.45    3.95
   3   1  -6   52.74    4.00
  -3   1   6   55.95    3.85
   2  -1  -6   72.64    5.13
   2  -1  -6   74.34    4.75
  -2  -1   6   75.05    4.54
  -2  -1   6   72.24    4.42
  -2  -1   6   74.73    4.48
  -2  -1   6   74.23    4.64
  -2  -1   6   71.28    5.02
  -2  -1   6   75.09    4.43
  -2  -1   6   76.04    4.86
  -2  -1   6   75.73    4.95
  -2  -1   6   77.03    5.28
   2   1  -6   73.69    4.78
  -2   1   6   73.63    4.50
  -2   1   6   73.12    5.02
  -2   1   6   76.16    5.20
  -2   1   6   70.35    4.81
  -2   1   6   68.08    4.58
  -2   1   6   70.33    4.90
   2   1  -6   73.32    4.46
   2   1  -6   67.77    5.09
  -1  -1   6   60.11    3.70
  -1  -1   6   58.35    3.47
  -1  -1   6   58.66    3.83
  -1  -1   6   57.45    3.71
   1  -1  -6   60.82    3.34
   1  -1  -6   53.92    3.59
  -1  -1   6   57.80    3.37
  -1  -1   6   56.93    3.54
  -1  -1   6   58.47    3.41
  -1  -1   6   62.34    3.78
  -1  -1   6   58.08    3.38
  -1  -1   6   60.35    3.45
  -1  -1   6   60.22    4.02
  -1   1   6   54.38    3.63
  -1   1   6   52.90    3.70
   1   1  -6   52.16    3.38
  -1   1   6   48.24    3.41
  -1   1   6   50.89    3.44
   1   1  -6   49.60    3.36
  -1   1   6   49.96    3.79
   1   1  -6   50.90    3.45
  -1   1   6   49.64    3.48
   1   1  -6   48.65    3.61
  -1   1   6   47.09    3.41
   0  -1   6  149.37    9.58
   0  -1   6  148.53    9.36
   0  -1   6  143.16   10.21
   0  -1   6  140.10    9.47
   0  -1  -6  141.35    9.94
   0  -1   6  138.83    9.40
   0  -1  -6  144.00    9.23
   0  -1   6  157.86    9.30
   0  -1   6  144.34    9.59
   0  -1  -6  143.96   12.43
   0  -1   6  143.96    9.78
   0  -1   6  144.84   10.45
   0   1   6  166.16    9.67
   0   1   6  161.49    9.86
   0   1   6  166.31    9.44
   0   1  -6  168.55   10.00
   0   1   6  161.16    9.63
   0   1   6  163.14   10.47
   0   1   6  164.53    9.47
   0   1   6  165.55    9.55
   0   1  -6  161.84    9.60
   0   1  -6  166.14    9.32
   0   1   6  165.28   10.27
   0   1  -6  167.66    9.30
   0   1   6  177.19    9.38
   0   1  -6  172.63   12.36
   0   1  -6  162.78    8.91
   0   1   6  158.41    9.48
   1  -1   6   58.36    3.41
   1  -1   6   57.38    3.63
   1  -1   6   58.39    3.34
   1  -1   6   56.38    3.42
   1  -1   6   55.47    3.36
  -1  -1  -6   55.03    3.50
   1  -1   6   59.97    3.55
  -1  -1  -6   56.10    3.18
  -1  -1  -6   54.28    4.45
  -1  -1  -6   56.56    3.08
   1  -1   6   59.93    3.28
   1  -1   6   58.18    3.48
   1  -1   6   56.46    3.38
  -1  -1  -6   55.48    3.23
  -1   1  -6   48.84    4.32
   1   1   6   51.67    3.33
   1   1   6   49.66    3.37
   1   1   6   51.19    3.44
   1   1   6   49.53    3.56
   1   1   6   49.36    3.62
   1   1   6   50.86    3.37
  -1   1  -6   46.73    3.51
   1   1   6   51.48    3.51
  -1   1  -6   49.91    3.26
   1   1   6   49.51    3.67
   1   1   6   48.60    3.39
   1   1   6   50.89    3.45
  -1   1  -6   46.68    3.11
  -1   1  -6   46.30    3.24
   2  -1   6   61.58    3.73
   2  -1   6   58.29    3.76
   2  -1   6   64.48    3.90
  -2  -1  -6   61.18    3.53
  -2  -1  -6   57.48    4.89
   2  -1   6   59.47    4.16
   2  -1   6   60.21    4.00
   2  -1   6   59.80    3.74
  -2  -1  -6   61.24    3.40
  -2  -1  -6   66.91    4.55
   2  -1   6   60.22    3.70
   2  -1   6   56.15    3.76
   2  -1   6   58.61    3.85
  -2  -1  -6   58.42    3.57
   2   1   6   57.87    3.71
   2   1   6   56.28    3.80
   2   1   6   54.90    3.88
   2   1   6   56.58    3.80
   2   1   6   55.71    3.92
   2   1   6   56.31    3.75
   2   1   6   58.12    4.01
  -2   1  -6   56.13    4.82
  -2   1  -6   53.33    3.45
  -2   1  -6   51.92    3.61
   2   1   6   62.57    3.53
   2   1   6   55.09    3.73
  -2   1  -6   54.49    3.59
   3  -1   6  148.53    9.02
  -3  -1  -6  134.63   11.64
   3  -1   6  144.89    9.17
   3  -1   6  139.17    8.87
   3  -1   6  142.88    8.77
   3  -1   6  145.28    8.95
  -3  -1  -6  145.84    8.24
   3  -1   6  148.43    8.84
  -3  -1  -6  143.79    8.61
   3  -1   6  142.31    9.53
   3  -1   6  148.17   10.00
  -3   1  -6  143.89    8.66
  -3   1  -6  146.34    8.67
   3   1   6  138.82    9.51
   3   1   6  150.17    8.92
   3   1   6  144.67    8.80
   3   1   6  147.14    9.19
   3   1   6  148.76    8.99
  -3   1  -6  143.06   11.59
   3   1   6  144.09    9.03
   3   1   6  144.54    8.87
  -3   1  -6  141.79    8.29
   3   1   6  146.10   10.05
  -4  -1  -6   69.16    6.38
   4  -1   6   76.41    5.45
  -4  -1  -6   72.45    4.65
   4  -1   6   70.13    4.84
   4  -1   6   76.03    5.23
  -4  -1  -6   74.74    4.47
   4  -1   6   73.78    4.79
   4  -1   6   73.24    5.00
   4  -1   6   76.11    4.86
   4  -1   6   75.59    4.96
   4  -1   6   74.12    4.91
   4   1   6   78.30    4.88
  -4   1  -6   72.90    6.33
   4   1   6   79.10    4.93
   4   1   6   80.64    5.00
  -4   1  -6   77.33    4.54
   4   1   6   76.74    5.05
   4   1   6   78.95    4.89
   4   1   6   77.43    5.49
   4   1   6   80.18    4.86
  -4   1  -6   81.85    4.74
   4   1   6   76.38    5.18
   5  -1   6   19.16    1.82
   5  -1   6   19.22    1.78
   5  -1   6   20.01    1.60
   5  -1   6   20.37    1.59
  -5  -1  -6   17.82    1.42
   5  -1   6   18.57    1.63
   5  -1   6   19.95    1.68
   5  -1   6   20.49    1.71
  -5  -1  -6   18.81    2.19
   5  -1   6   20.51    1.59
  -5   1  -6   15.43    2.03
  -5   1  -6   17.00    1.44
   5   1   6   20.25    1.67
  -5   1  -6   17.13    1.52
   5   1   6   16.61    1.65
   5   1   6   16.56    1.54
   5   1   6   15.24    1.62
   5   1   6   18.72    1.76
   5   1   6   17.15    1.60
   5   1   6   18.05    1.90
   5   1   6   17.76    1.78
  -6  -1  -6   11.29    2.34
   6  -1   6   19.39    1.94
   6  -1   6   15.64    1.59
   6  -1   6   16.12    1.67
   6  -1   6   16.66    1.60
   6  -1   6   17.05    1.92
   6  -1   6   16.89    1.74
   6  -1   6   16.15    1.63
   6  -1   6   17.76    1.69
   6   1   6   21.51    2.08
   6   1   6   16.70    1.79
   6   1   6   17.49    1.68
   6   1   6   17.26    1.59
   6   1   6   15.56    1.75
   6   1   6   16.60    1.59
   6   1   6   17.29    1.85
  -6   1  -6   16.10    1.60
   6   1   6   19.23    1.77
  -6   1  -6   14.98    2.35
  -6   1  -6   16.97    1.61
  -7  -1  -6   14.80    2.42
  -7   1  -6   14.78    2.54
  -8  -2   6    2.86    1.33
  -7  -2   6    9.35    1.70
  -7  -2   6   10.60    1.94
   7  -2  -6   11.09    1.26
   7   2  -6    9.12    1.21
  -6  -2   6   13.04    1.89
   6  -2  -6   13.67    1.57
   6  -2  -6   12.36    1.35
  -6  -2   6   11.98    1.58
  -6  -2   6   13.47    1.57
  -6  -2   6   12.38    1.47
   6   2  -6   10.47    1.41
  -6   2   6   12.95    1.43
   6   2  -6   11.70    1.37
  -5  -2   6   28.79    2.35
   5  -2  -6   27.70    2.11
  -5  -2   6   30.10    2.46
  -5  -2   6   29.59    2.72
  -5  -2   6   28.02    2.16
  -5  -2   6   28.53    2.20
   5  -2  -6   28.34    2.34
   5   2  -6   26.12    2.17
  -5   2   6   26.30    2.20
  -5   2   6   24.95    2.23
   5   2  -6   28.20    2.22
   4  -2  -6   34.21    2.77
  -4  -2   6   34.75    2.66
  -4  -2   6   35.54    2.72
   4  -2  -6   34.97    2.56
  -4  -2   6   36.72    2.93
  -4  -2   6   32.98    2.67
  -4   2   6   38.83    2.74
  -4   2   6   39.52    2.67
  -4   2   6   38.22    2.68
   4   2  -6   39.48    2.62
  -4   2   6   41.25    2.40
   4   2  -6   36.67    2.74
  -3  -2   6   58.15    3.32
  -3  -2   6   53.83    3.34
  -3  -2   6   55.92    3.41
  -3  -2   6   53.61    3.88
   3  -2  -6   55.97    3.67
  -3  -2   6   56.95    3.35
  -3  -2   6   57.38    3.79
  -3  -2   6   60.45    4.16
  -3  -2   6   56.12    3.87
   3  -2  -6   54.85    4.01
  -3  -2   6   57.63    3.34
   3   2  -6   54.42    3.73
  -3   2   6   51.96    3.89
  -3   2   6   53.69    3.79
  -3   2   6   55.42    3.93
  -3   2   6   55.66    3.74
   3   2  -6   52.36    3.94
  -2  -2   6   27.99    2.17
  -2  -2   6   31.19    2.29
  -2  -2   6   27.98    2.14
  -2  -2   6   28.94    1.81
   2  -2  -6   29.24    2.00
  -2  -2   6   30.48    1.80
  -2  -2   6   29.19    1.83
  -2  -2   6   30.63    1.83
  -2  -2   6   30.86    2.17
  -2  -2   6   29.55    1.88
  -2  -2   6   32.26    1.82
  -2  -2   6   29.70    1.92
  -2   2   6   31.44    2.12
   2   2  -6   27.98    2.14
   2   2  -6   27.22    1.92
  -2   2   6   27.83    2.17
  -2   2   6   27.18    2.02
   2   2  -6   28.09    2.06
  -2   2   6   29.43    2.06
   1  -2  -6    3.92    0.44
  -1  -2   6    5.67    0.59
  -1  -2   6    4.42    0.64
  -1  -2   6    4.58    0.43
  -1  -2   6    4.87    0.54
   1  -2  -6    4.62    0.44
  -1  -2   6    4.89    0.44
   1  -2  -6    4.36    0.52
  -1  -2   6    3.83    0.40
  -1  -2   6    4.48    0.45
  -1  -2   6    5.14    0.69
  -1  -2   6    4.71    0.44
  -1  -2   6    5.45    0.65
  -1  -2   6    4.43    0.49
  -1  -2   6    4.39    0.60
   1   2  -6    5.66    0.58
  -1   2   6    5.26    0.60
  -1   2   6    5.63    0.59
  -1   2   6    5.52    0.62
  -1   2   6    4.88    0.61
   1   2  -6    5.47    0.48
   1   2  -6    6.12    0.46
   1   2  -6    5.15    0.49
   1   2  -6    6.48    0.68
  -1   2   6    7.10    0.55
   1   2  -6    5.27    0.47
  -1   2   6    5.98    0.51
  -1   2   6    5.72    0.52
   0  -2  -6   27.00    2.10
   0  -2   6   28.07    2.05
   0  -2  -6   28.49    2.81
   0  -2  -6   27.52    1.92
   0  -2   6   30.70    2.02
   0  -2   6   28.02    1.99
   0  -2   6   28.85    2.08
   0  -2   6   30.96    2.24
   0  -2   6   27.52    2.17
   0  -2  -6   32.02    1.90
   0  -2   6   27.81    2.01
   0  -2   6   30.17    2.02
   0   2   6   34.90    2.08
   0   2  -6   35.78    2.56
   0   2   6   34.20    2.16
   0   2   6   34.27    2.08
   0   2   6   32.94    2.17
   0   2   6   31.51    2.10
   0   2  -6   32.62    2.06
   0   2  -6   33.13    1.96
   0   2   6   33.10    2.18
   0   2   6   32.75    2.13
   0   2   6   33.60    2.20
   0   2  -6   33.00    2.04
   0   2   6   32.40    2.22
   0   2  -6   33.76    2.23
   0   2   6   31.81    2.26
   0   2   6   32.66    2.30
   0   2   6   38.35    2.15
   0   2  -6   32.82    2.04
  -1  -2  -6   21.56    1.38
   1  -2   6   25.80    1.59
   1  -2   6   23.82    1.60
   1  -2   6   25.39    1.62
   1  -2   6   26.44    1.60
  -1  -2  -6   26.07    1.38
   1  -2   6   26.40    1.73
  -1  -2  -6   24.86    2.00
   1  -2   6   25.37    1.59
  -1  -2  -6   22.40    2.17
   1  -2   6   25.27    1.64
  -1  -2  -6   27.49    1.48
  -1   2  -6   22.15    1.59
   1   2   6   21.71    1.74
  -1   2  -6   20.70    1.71
  -1   2  -6   20.82    1.57
   1   2   6   22.20    1.78
   1   2   6   21.39    1.64
   1   2   6   20.59    1.64
   1   2   6   23.08    1.65
   1   2   6   21.82    1.75
   1   2   6   21.77    1.57
   1   2   6   18.88    1.65
   1   2   6   23.77    1.70
  -1   2  -6   21.39    1.98
   1   2   6   23.99    1.47
   1   2   6   21.90    1.70
  -1   2  -6   21.86    1.52
   2  -2   6    7.29    0.81
   2  -2   6    8.02    0.77
   2  -2   6    8.39    0.84
   2  -2   6    8.79    0.73
   2  -2   6    7.68    0.78
   2  -2   6    8.78    0.82
  -2  -2  -6    6.70    1.10
   2  -2   6    9.52    0.77
   2  -2   6    8.10    0.77
  -2  -2  -6    7.17    0.65
   2  -2   6    7.35    0.76
  -2  -2  -6    7.82    0.57
  -2  -2  -6    8.72    0.85
   2   2   6    8.32    0.55
  -2   2  -6    8.95    0.85
  -2   2  -6    7.32    0.76
   2   2   6    6.81    0.83
  -2   2  -6    8.27    0.96
   2   2   6    6.76    0.87
   2   2   6    7.94    0.87
   2   2   6    8.60    0.95
   2   2   6    7.89    0.92
   2   2   6    6.51    0.80
  -2   2  -6    7.10    0.75
   2   2   6    7.60    0.87
   2   2   6    8.87    0.82
   3  -2   6    5.94    0.75
  -3  -2  -6    5.90    0.55
   3  -2   6    5.33    0.72
   3  -2   6    5.37    0.72
   3  -2   6    6.17    0.80
  -3  -2  -6    4.83    1.10
   3  -2   6    5.90    0.71
   3  -2   6    4.63    0.68
   3  -2   6    5.19    0.77
   3  -2   6    6.20    0.80
   3   2   6    6.61    0.77
  -3   2  -6    5.58    0.71
   3   2   6    5.11    0.80
   3   2   6    5.23    0.92
   3   2   6    5.91    0.79
  -3   2  -6    5.90    0.65
   3   2   6    5.85    0.76
   3   2   6    5.81    0.77
  -3   2  -6    6.40    0.92
   3   2   6    6.06    0.80
   3   2   6    5.68    0.84
   3   2   6    7.12    0.53
  -3   2  -6    5.99    0.78
   4  -2   6    4.03    0.77
   4  -2   6    3.79    0.71
   4  -2   6    3.46    0.73
  -4  -2  -6    3.97    0.53
   4  -2   6    3.09    0.62
   4  -2   6    2.98    0.76
   4  -2   6    2.28    0.70
   4  -2   6    2.85    0.62
   4  -2   6    2.80    0.74
  -4  -2  -6    2.80    1.09
  -4   2  -6    1.64    0.84
  -4   2  -6    2.88    0.65
   4   2   6    2.57    0.62
   4   2   6    2.16    0.67
   4   2   6    2.24    0.62
  -4   2  -6    1.65    0.55
   4   2   6    2.51    0.69
   4   2   6    1.20    0.70
   4   2   6    2.54    0.72
   4   2   6    1.69    0.70
   4   2   6    2.30    0.59
  -4   2  -6    1.58    0.60
   5  -2   6    4.53    0.99
   5  -2   6    3.00    0.72
  -5  -2  -6    2.48    1.33
   5  -2   6    6.06    0.87
   5  -2   6    4.20    0.84
   5  -2   6    5.45    0.97
   5  -2   6    5.60    0.86
   5  -2   6    5.74    0.88
   5  -2   6    5.67    0.84
   5   2   6    3.34    0.90
   5   2   6    5.16    0.97
  -5   2  -6    3.67    0.85
  -5   2  -6    3.97    1.05
   5   2   6    3.80    0.89
  -5   2  -6    3.97    0.84
   5   2   6    4.04    0.82
   5   2   6    4.20    0.80
   5   2   6    3.78    0.79
   5   2   6    6.01    1.00
   5   2   6    4.79    0.88
  -6  -2  -6    7.47    1.89
   6  -2   6    5.06    1.19
   6  -2   6    5.51    1.13
   6  -2   6    6.79    1.23
   6  -2   6    3.50    0.97
   6  -2   6    7.46    1.04
   6  -2   6    6.11    1.18
   6  -2   6    5.34    1.02
   6  -2   6    5.10    1.17
   6   2   6    5.03    0.96
   6   2   6    5.41    1.15
  -6   2  -6    6.28    1.09
   6   2   6    5.99    0.97
   6   2   6    4.95    1.12
  -6   2  -6    4.65    1.50
  -6   2  -6    5.76    1.09
   6   2   6    5.36    1.13
   6   2   6    6.25    1.16
   6   2   6    4.76    0.91
   6   2   6    3.79    0.95
  -7  -2  -6    8.49    2.21
  -7   2  -6    7.69    1.73
  -8  -3   6   -0.04    1.17
   8   3  -6    1.78    1.10
   7  -3  -6    0.41    0.86
  -7  -3   6    0.60    0.94
  -7  -3   6    0.26    1.20
  -7   3   6    1.58    0.96
  -6  -3   6    4.82    1.18
  -6  -3   6    3.69    0.94
   6  -3  -6    4.57    0.89
   6  -3  -6    5.92    1.12
  -6  -3   6    3.75    1.24
  -6  -3   6    4.66    1.02
   6   3  -6    3.76    0.98
   6   3  -6    6.31    0.94
  -6   3   6    5.62    1.03
   5  -3  -6   15.20    1.42
  -5  -3   6   15.71    1.86
  -5  -3   6   16.01    1.66
  -5  -3   6   16.37    1.57
  -5  -3   6   13.70    1.57
   5  -3  -6   16.90    1.68
   5   3  -6   17.40    1.49
  -5   3   6   16.44    1.63
   5   3  -6   18.73    1.48
  -4  -3   6   12.14    1.35
  -4  -3   6   13.36    1.13
   4  -3  -6   12.38    1.02
  -4  -3   6   12.39    1.14
  -4  -3   6   14.50    1.34
  -4  -3   6   12.34    1.08
   4  -3  -6   13.77    1.15
  -4   3   6    8.72    0.93
  -4   3   6    7.93    1.00
  -4   3   6    7.53    1.05
   4   3  -6    8.12    1.01
   4   3  -6    8.26    1.05
  -3  -3   6   32.16    2.24
   3  -3  -6   30.93    2.09
  -3  -3   6   30.89    2.25
  -3  -3   6   32.04    2.33
  -3  -3   6   36.30    2.65
  -3  -3   6   33.20    2.46
   3  -3  -6   30.55    2.37
  -3   3   6   26.82    2.31
   3   3  -6   28.93    2.20
  -3   3   6   27.24    2.12
   3   3  -6   29.16    2.25
   3   3  -6   26.88    2.02
  -3   3   6   30.76    2.16
  -2  -3   6   43.76    3.38
  -2  -3   6   45.01    3.15
  -2  -3   6   45.84    3.17
  -2  -3   6   44.18    3.08
  -2  -3   6   46.60    2.74
   2  -3  -6   43.67    2.92
  -2  -3   6   51.22    3.59
  -2  -3   6   46.97    3.00
  -2  -3   6   43.98    2.76
   2   3  -6   47.70    2.78
   2   3  -6   40.88    3.13
  -2   3   6   44.53    2.99
   2   3  -6   42.36    2.81
  -2   3   6   42.20    3.16
   2   3  -6   41.31    3.02
   2   3  -6   41.96    2.69
  -2   3   6   41.59    2.95
   1  -3  -6   67.77    4.72
  -1  -3   6   67.24    4.89
  -1  -3   6   67.12    4.46
  -1  -3   6   66.67    4.84
  -1  -3   6   74.65    5.07
  -1  -3   6   66.42    4.40
   1  -3  -6   66.05    4.37
  -1  -3   6   62.74    4.52
  -1  -3   6   62.86    5.33
   1  -3  -6   75.10    4.23
   1  -3  -6   72.90    4.41
  -1  -3   6   65.72    4.44
  -1  -3   6   62.36    4.98
  -1  -3   6   66.72    4.49
  -1  -3   6   67.22    4.60
  -1   3   6   85.66    4.87
   1   3  -6   74.24    4.33
  -1   3   6   80.74    4.59
   1   3  -6   82.82    4.64
  -1   3   6   83.71    5.09
   1   3  -6   77.15    4.52
   1   3  -6   81.07    4.56
  -1   3   6   78.55    4.61
   1   3  -6   75.18    4.83
  -1   3   6   83.07    4.77
   1   3  -6   80.73    4.49
   1   3  -6   80.17    4.44
   1   3  -6   84.61    4.48
  -1   3   6   85.10    4.73
   0  -3   6   65.08    4.27
   0  -3   6   67.39    4.14
   0  -3   6   66.68    4.09
   0  -3  -6   68.34    4.32
   0  -3  -6   68.17    3.97
   0  -3   6   65.66    4.17
   0  -3   6   63.97    4.19
   0  -3  -6   77.69    3.83
   0  -3  -6   67.50    5.41
   0  -3  -6   66.75    5.67
   0  -3   6   61.47    4.91
   0  -3   6   65.32    4.46
   0  -3   6   62.55    4.12
   0   3  -6   70.00    4.18
   0   3   6   64.92    4.21
   0   3   6   59.25    4.29
   0   3   6   67.98    4.25
   0   3  -6   64.89    3.96
   0   3  -6   66.52    4.14
   0   3  -6   66.07    4.43
   0   3   6   72.77    4.36
   0   3  -6   68.47    4.17
   0   3   6   65.24    4.52
   0   3   6   64.45    4.41
   0   3   6   79.34    4.35
   0   3   6   66.33    4.17
   0   3   6   71.06    4.64
   0   3   6   62.54    4.25
   0   3   6   66.14    4.22
   1  -3   6  107.65    6.27
   1  -3   6   99.81    6.72
  -1  -3  -6   98.41    8.36
   1  -3   6  102.87    6.45
   1  -3   6  105.12    6.99
   1  -3   6   97.35    6.32
   1  -3   6   98.90    6.22
   1  -3   6  108.11    6.35
   1  -3   6  103.22    6.19
  -1  -3  -6  101.73    8.01
   1   3   6  100.67    6.72
   1   3   6  106.99    6.90
   1   3   6   98.01    6.28
  -1   3  -6  101.24    5.92
  -1   3  -6   96.38    6.17
   1   3   6  100.17    6.38
  -1   3  -6  109.32    8.08
   1   3   6   97.03    6.40
   1   3   6  101.18    6.81
   1   3   6  110.72    6.02
   1   3   6   95.81    6.44
   1   3   6   99.72    6.58
   1   3   6  103.81    6.30
  -1   3  -6  102.43    6.19
  -1   3  -6   97.66    6.63
   1   3   6  103.24    6.34
   2  -3   6   68.90    4.17
   2  -3   6   69.19    4.11
   2  -3   6   68.36    4.00
  -2  -3  -6   60.87    5.40
  -2  -3  -6   71.12    5.11
   2  -3   6   70.52    4.35
   2  -3   6   67.64    4.04
   2  -3   6   74.49    3.86
   2  -3   6   71.27    4.46
   2  -3   6   64.67    4.03
   2  -3   6   68.45    4.10
   2   3   6   61.40    4.26
   2   3   6   57.36    4.35
  -2   3  -6   58.83    3.79
   2   3   6   62.00    4.35
  -2   3  -6   57.28    3.97
   2   3   6   58.29    4.10
   2   3   6   65.63    3.83
   2   3   6   59.30    4.08
  -2   3  -6   59.85    3.98
  -2   3  -6   61.40    5.18
   2   3   6   53.70    4.28
   2   3   6   57.60    4.15
   2   3   6   59.05    4.16
   2   3   6   56.00    4.10
   3  -3   6   69.82    4.62
   3  -3   6   65.55    4.18
   3  -3   6   64.05    4.24
   3  -3   6   65.58    4.18
   3  -3   6   65.36    4.21
   3  -3   6   60.21    4.28
   3  -3   6   68.56    4.30
  -3  -3  -6   54.69    5.57
   3  -3   6   64.41    4.14
   3  -3   6   65.27    4.46
  -3  -3  -6   69.47    5.18
   3   3   6   64.11    4.76
   3   3   6   65.06    4.24
  -3   3  -6   62.08    4.11
   3   3   6   69.06    4.41
  -3   3  -6   65.73    4.10
   3   3   6   66.10    4.22
  -3   3  -6   61.98    5.38
   3   3   6   69.10    4.28
   3   3   6   61.26    4.32
   3   3   6   68.40    4.49
   3   3   6   66.45    4.29
  -3   3  -6   62.91    3.92
   4  -3   6   68.01    4.45
   4  -3   6   66.66    4.37
   4  -3   6   65.65    4.61
   4  -3   6   65.87    4.75
   4  -3   6   69.30    4.31
   4  -3   6   67.83    4.31
  -4  -3  -6   59.11    5.73
   4  -3   6   68.87    4.37
   4  -3   6   68.23    4.39
   4   3   6   67.94    4.39
  -4   3  -6   63.33    4.07
   4   3   6   72.19    4.37
   4   3   6   65.44    4.90
   4   3   6   68.56    4.47
   4   3   6   68.70    4.61
  -4   3  -6   65.84    4.22
  -4   3  -6   61.37    5.59
   4   3   6   67.26    4.38
  -4   3  -6   64.87    4.25
   4   3   6   64.45    4.32
   4   3   6   63.87    4.45
  -5  -3  -6   17.12    2.40
   5  -3   6   21.32    1.83
   5  -3   6   18.52    1.78
   5  -3   6   17.35    1.72
   5  -3   6   19.28    1.77
   5  -3   6   20.12    1.65
   5  -3   6   21.05    1.72
   5  -3   6   17.93    1.66
   5  -3   6   19.51    1.75
   5   3   6   17.70    1.67
   5   3   6   17.76    1.72
   5   3   6   19.76    1.64
   5   3   6   18.92    2.04
   5   3   6   18.75    1.79
  -5   3  -6   16.93    2.23
   5   3   6   18.91    1.66
   5   3   6   18.19    1.67
  -5   3  -6   17.55    1.71
  -5   3  -6   16.02    1.50
   5   3   6   19.86    1.80
   6  -3   6   26.29    2.30
  -6  -3  -6   20.71    3.34
  -6   3  -6   25.89    2.31
   6   3   6   30.22    2.55
   6   3   6   30.57    2.41
  -6   3  -6   29.65    2.41
   6   3   6   33.24    2.56
   6   3   6   32.31    2.52
   6   3   6   29.52    2.42
   6   3   6   33.34    2.33
  -6   3  -6   25.94    3.21
  -7  -3  -6    8.83    2.00
  -7   3  -6    8.11    2.01
  -8  -4   6    5.02    1.43
   8   4  -6    3.05    1.24
  -7  -4   6    7.30    1.59
   7  -4  -6    6.24    1.01
  -7  -4   6    6.67    1.65
  -6  -4   6   14.37    1.72
   6  -4  -6   12.65    1.50
  -6  -4   6   10.96    1.71
  -6  -4   6   13.63    1.92
   6  -4  -6   12.23    1.35
  -6  -4   6   11.72    1.80
  -6   4   6   12.42    1.57
   6   4  -6   14.22    1.56
   6   4  -6   13.88    1.55
  -5  -4   6   29.44    2.61
   5  -4  -6   31.13    2.28
  -5  -4   6   33.22    2.73
   5  -4  -6   33.24    2.62
  -5  -4   6   29.26    2.52
  -5  -4   6   32.22    2.97
  -5   4   6   32.11    2.22
   5   4  -6   29.13    2.33
  -5   4   6   28.78    2.45
   5   4  -6   30.40    2.48
   4  -4  -6   19.97    1.67
   4  -4  -6   17.84    1.35
  -4  -4   6   16.76    1.53
  -4  -4   6   17.73    1.61
  -4  -4   6   18.46    1.69
  -4  -4   6   22.62    1.88
  -4   4   6   15.05    1.34
   4   4  -6   16.30    1.45
   4   4  -6   15.15    1.41
  -4   4   6   13.01    1.58
   4   4  -6   15.59    1.40
  -3  -4   6   26.10    2.18
  -3  -4   6   25.30    2.13
  -3  -4   6   26.82    2.37
   3  -4  -6   28.75    1.93
  -3  -4   6   30.98    2.46
   3   4  -6   27.05    1.91
   3   4  -6   28.35    2.09
  -3   4   6   27.94    2.16
   3   4  -6   27.43    2.08
  -2  -4   6   18.35    1.52
  -2  -4   6   16.47    1.72
   2  -4  -6   19.43    1.34
  -2  -4   6   17.00    1.52
  -2   4   6   20.41    1.33
   2   4  -6   20.86    1.45
   2   4  -6   19.10    1.21
   2   4  -6   18.68    1.52
   2   4  -6   18.12    1.45
  -2   4   6   17.10    1.53
   2   4  -6   20.07    1.26
   1  -4  -6   21.30    2.10
   1  -4  -6   20.46    1.31
   1  -4  -6   22.90    1.32
  -1  -4   6   20.63    1.48
  -1  -4   6   19.54    1.84
  -1  -4   6   18.30    1.64
  -1  -4   6   20.75    1.41
  -1  -4   6   21.94    1.34
  -1  -4   6   18.59    1.68
   1  -4  -6   23.16    1.38
   1  -4  -6   22.20    1.44
  -1  -4   6   23.22    1.53
  -1  -4   6   21.87    1.39
   1   4  -6   21.22    1.51
  -1   4   6   21.69    1.42
   1   4  -6   21.45    1.38
  -1   4   6   20.27    1.53
  -1   4   6   21.32    1.70
   1   4  -6   21.73    1.36
   1   4  -6   21.96    1.42
   1   4  -6   19.96    1.51
   1   4  -6   20.43    1.35
   1   4  -6   20.13    1.64
   1   4  -6   18.99    1.42
   0  -4  -6   20.94    2.33
   0  -4   6   23.67    1.62
   0  -4   6   23.41    1.69
   0  -4   6   19.37    1.99
   0  -4  -6   20.49    2.20
   0  -4  -6   22.36    1.37
   0  -4   6   21.66    1.55
   0  -4   6   21.85    1.60
   0  -4   6   20.48    1.58
   0  -4   6   21.60    1.57
   0  -4   6   22.71    1.57
   0   4  -6   24.47    1.60
   0   4   6   25.84    1.86
   0   4   6   25.45    1.81
   0   4   6   28.87    1.61
   0   4   6   26.79    1.82
   0   4   6   24.50    1.75
   0   4  -6   24.71    1.72
   0   4   6   26.49    1.74
   0   4   6   24.01    1.78
   0   4   6   24.22    1.69
   0   4   6   26.66    1.71
   0   4  -6   26.45    1.68
   0   4   6   24.25    1.79
   0   4   6   26.75    1.55
   0   4  -6   25.97    1.79
   1  -4   6   12.50    1.20
   1  -4   6   11.35    0.96
   1  -4   6   11.76    0.82
   1  -4   6   11.78    0.99
   1  -4   6   10.48    0.91
  -1  -4  -6   12.22    1.23
   1  -4   6   11.37    0.94
   1  -4   6   13.13    0.99
   1  -4   6   13.00    0.83
   1  -4   6   11.28    1.00
   1  -4   6   12.16    0.94
  -1  -4  -6   11.57    1.45
   1   4   6    9.81    1.12
  -1   4  -6   10.61    0.93
   1   4   6    9.69    1.09
   1   4   6   11.33    1.18
  -1   4  -6   10.93    1.11
   1   4   6   10.88    1.04
   1   4   6   10.43    1.13
   1   4   6   13.22    0.89
  -1   4  -6   11.49    0.98
   1   4   6    9.55    1.13
   1   4   6    9.17    1.00
   1   4   6   10.36    0.96
   1   4   6    9.59    1.09
  -1   4  -6   11.19    1.06
  -1   4  -6   11.80    1.06
   1   4   6   10.97    1.03
   2  -4   6    3.04    0.59
   2  -4   6    2.20    0.51
   2  -4   6    2.31    0.53
   2  -4   6    2.00    0.45
   2  -4   6    3.00    0.53
   2  -4   6    2.33    0.55
  -2  -4  -6    2.48    0.65
  -2  -4  -6    2.07    0.78
   2  -4   6    2.85    0.36
   2  -4   6    2.40    0.45
   2   4   6    1.55    0.62
  -2   4  -6    1.27    0.50
   2   4   6    1.41    0.63
  -2   4  -6    1.46    0.44
   2   4   6    2.39    0.64
   2   4   6    1.55    0.56
   2   4   6    2.00    0.65
   2   4   6    1.87    0.43
   2   4   6    2.11    0.69
   2   4   6    1.57    0.50
  -2   4  -6    0.94    0.42
   2   4   6    1.37    0.56
  -2   4  -6    2.34    0.60
   3  -4   6    0.67    0.53
  -3  -4  -6   -0.08    0.65
   3  -4   6    0.19    0.54
  -3  -4  -6    0.27    0.50
   3  -4   6    0.31    0.52
   3  -4   6    0.25    0.54
   3  -4   6   -0.54    0.51
   3  -4   6    0.16    0.55
   3  -4   6    0.72    0.44
  -3   4  -6    0.53    0.56
   3   4   6   -0.17    0.49
   3   4   6    0.29    0.46
   3   4   6   -0.35    0.50
  -3   4  -6    0.33    0.41
   3   4   6    0.10    0.61
  -3   4  -6   -0.11    0.43
  -3   4  -6    0.18    0.41
   3   4   6    0.08    0.62
   3   4   6    0.35    0.44
   3   4   6    0.76    0.68
   3   4   6    0.39    0.46
   4  -4   6    8.28    1.03
   4  -4   6    7.84    1.10
   4  -4   6    8.46    1.19
   4  -4   6    9.63    1.15
   4  -4   6    8.08    1.08
   4  -4   6    8.54    1.13
  -4  -4  -6    7.36    1.49
   4  -4   6    8.01    1.01
  -4   4  -6    7.85    0.99
  -4   4  -6    7.97    1.00
   4   4   6    8.42    1.04
   4   4   6    9.83    1.18
   4   4   6    9.98    1.18
  -4   4  -6    9.31    1.34
  -4   4  -6    9.66    1.01
   4   4   6    9.74    1.12
   4   4   6    8.26    1.05
   4   4   6    9.99    1.24
   4   4   6   11.65    1.27
   4   4   6    8.86    1.34
   5  -4   6    4.61    1.04
   5  -4   6    4.17    0.84
  -5  -4  -6    4.55    1.58
   5  -4   6    5.39    0.94
   5  -4   6    3.05    0.98
   5  -4   6    4.28    0.84
   5  -4   6    3.39    0.98
   5   4   6    2.46    0.90
   5   4   6    2.48    0.80
   5   4   6    2.12    0.87
   5   4   6    3.53    1.03
  -5   4  -6    2.32    0.75
   5   4   6    2.25    0.90
   5   4   6    3.15    0.92
   5   4   6    3.07    0.85
  -5   4  -6    3.16    0.76
   5   4   6    2.64    0.88
  -5   4  -6    2.64    1.14
  -6  -4  -6    7.92    1.83
   6   4   6    6.64    1.24
   6   4   6    7.88    1.27
   6   4   6    8.66    1.26
   6   4   6    7.26    1.24
  -6   4  -6    6.32    1.62
   6   4   6    7.33    1.35
  -7  -4  -6   -0.37    1.32
  -7   4  -6    3.58    1.69
  -7  -5   6    0.24    1.35
  -7  -5   6    1.29    1.03
  -6  -5   6    5.70    1.30
  -6  -5   6    4.70    1.36
  -6  -5   6    4.36    1.41
   6  -5  -6    6.80    1.25
   6   5  -6    4.93    1.10
   6   5  -6    5.24    1.09
  -6   5   6    4.86    1.03
   6   5  -6    5.84    1.10
  -5  -5   6   -0.54    0.89
  -5  -5   6   -0.47    0.66
  -5  -5   6   -0.36    0.62
   5  -5  -6    0.05    0.75
  -5   5   6   -0.34    0.56
   5   5  -6    0.68    0.56
   5   5  -6    0.32    0.47
   5   5  -6    0.09    0.54
  -5   5   6   -0.54    0.54
  -4  -5   6    7.81    1.09
  -4  -5   6    9.67    1.37
  -4  -5   6    8.35    1.07
   4   5  -6    9.17    0.98
  -4   5   6    7.71    0.93
  -4   5   6    7.83    1.14
   4   5  -6    9.55    1.12
  -4   5   6    8.56    0.98
   4   5  -6    6.74    0.99
  -3  -5   6   27.24    2.05
  -3  -5   6   27.69    2.32
  -3  -5   6   23.63    1.99
   3   5  -6   24.36    1.90
   3   5  -6   26.89    1.92
   3   5  -6   24.82    1.87
  -3   5   6   23.34    2.08
  -3   5   6   24.14    1.71
   2  -5  -6   18.69    2.20
  -2  -5   6   18.89    1.82
  -2  -5   6   19.23    1.71
  -2  -5   6   18.32    1.65
  -2   5   6   22.72    1.42
   2   5  -6   22.07    1.60
   2   5  -6   22.86    1.55
   2   5  -6   20.25    1.52
   2   5  -6   19.84    1.58
  -2   5   6   20.00    1.68
  -1  -5   6   24.53    1.96
  -1  -5   6   25.84    1.94
   1  -5  -6   23.18    2.40
  -1  -5   6   27.73    1.66
  -1  -5   6   27.16    2.15
  -1   5   6   23.65    1.80
   1   5  -6   23.20    1.56
   1   5  -6   24.24    1.54
   1   5  -6   21.98    1.84
   1   5  -6   24.23    1.59
   1   5  -6   21.66    1.69
   1   5  -6   20.48    1.76
  -1   5   6   24.33    1.55
   1   5  -6   24.18    1.69
  -1   5   6   23.67    1.87
   0  -5   6  102.02    8.09
   0  -5   6  115.05    7.03
   0  -5  -6  108.87    8.89
   0  -5   6  117.86    7.32
   0   5  -6  114.04    7.28
   0   5   6  119.65    7.59
   0   5   6  114.70    7.42
   0   5   6  106.87    6.93
   0   5  -6  109.53    6.83
   0   5   6  116.04    7.01
   0   5   6  110.52    6.94
   0   5   6  108.77    7.04
   0   5  -6  112.84    6.81
   0   5  -6  109.29    6.53
   0   5   6  109.77    6.87
  -1  -5  -6   65.08    5.89
   1  -5   6   73.69    4.25
   1  -5   6   70.97    4.33
   1  -5   6   63.94    5.12
  -1  -5  -6   69.26    5.62
   1  -5   6   69.56    4.29
   1  -5   6   67.76    4.28
   1  -5   6   72.52    4.60
   1  -5   6   70.65    4.43
   1   5   6   67.63    4.70
   1   5   6   65.26    4.66
  -1   5  -6   71.46    4.29
   1   5   6   67.73    4.41
   1   5   6   63.42    4.39
  -1   5  -6   67.74    4.11
   1   5   6   65.90    4.59
   1   5   6   67.18    4.72
   1   5   6   63.97    4.49
   1   5   6   69.47    4.45
  -1   5  -6   75.99    5.46
  -1   5  -6   70.48    4.32
   1   5   6   65.42    4.35
  -1   5  -6   64.47    4.58
   1   5   6   68.07    4.49
   2  -5   6   21.31    1.65
   2  -5   6   18.89    1.49
   2  -5   6   19.33    1.53
   2  -5   6   20.79    1.52
  -2  -5  -6   15.65    2.35
  -2  -5  -6   18.08    1.99
   2  -5   6   20.28    1.48
   2  -5   6   20.43    1.59
   2   5   6   22.15    1.70
   2   5   6   21.03    1.69
  -2   5  -6   20.42    1.49
   2   5   6   20.07    1.63
   2   5   6   20.51    1.67
   2   5   6   22.78    1.60
   2   5   6   19.19    1.69
   2   5   6   20.35    1.71
  -2   5  -6   19.66    1.53
   2   5   6   21.79    1.75
   2   5   6   19.54    1.41
   2   5   6   20.34    1.71
  -2   5  -6   21.73    1.86
  -2   5  -6   20.77    1.56
   3  -5   6   32.37    2.44
  -3  -5  -6   29.51    3.38
  -3  -5  -6   36.26    3.16
   3  -5   6   35.15    2.43
   3  -5   6   33.20    2.45
   3  -5   6   35.92    2.62
   3  -5   6   34.02    2.52
   3  -5   6   35.04    2.53
   3   5   6   36.93    2.62
   3   5   6   37.23    2.60
   3   5   6   38.22    2.57
   3   5   6   32.68    2.83
  -3   5  -6   37.19    3.12
  -3   5  -6   36.84    2.55
   3   5   6   38.07    2.60
   3   5   6   39.01    2.59
  -3   5  -6   37.22    2.47
   3   5   6   37.87    2.58
  -3   5  -6   36.70    2.38
   3   5   6   33.36    2.29
   3   5   6   33.05    2.58
   4  -5   6   32.18    2.26
   4  -5   6   31.79    2.36
  -4  -5  -6   27.43    3.32
   4  -5   6   29.17    2.35
   4  -5   6   32.47    2.23
   4  -5   6   28.42    2.23
   4  -5   6   31.94    2.31
   4   5   6   30.54    2.39
   4   5   6   30.54    2.69
   4   5   6   30.05    2.37
  -4   5  -6   26.93    2.18
   4   5   6   28.33    2.41
  -4   5  -6   28.49    2.21
   4   5   6   28.13    2.31
  -4   5  -6   31.15    2.86
   4   5   6   31.21    2.24
   4   5   6   29.84    2.31
   4   5   6   28.30    2.38
  -4   5  -6   29.70    2.32
  -5  -5  -6   31.92    3.78
   5  -5   6   40.63    2.76
   5  -5   6   39.21    2.94
   5  -5   6   39.74    2.79
   5  -5   6   39.85    2.99
   5   5   6   35.55    2.79
  -5   5  -6   33.69    3.55
   5   5   6   38.07    3.29
   5   5   6   38.58    2.81
  -5   5  -6   35.50    2.71
  -5   5  -6   34.66    2.71
   5   5   6   38.52    2.88
   5   5   6   35.90    2.86
   5   5   6   38.09    2.84
  -6  -5  -6   15.48    2.79
  -6   5  -6   14.43    2.23
  -7   5  -6   12.26    2.08
  -7  -6   6    7.62    1.77
  -7  -6   6    8.48    1.69
   7  -6  -6    5.48    1.99
   6  -6  -6   15.44    2.53
  -6  -6   6   16.81    2.13
  -6  -6   6   15.92    2.15
  -6  -6   6   18.48    2.07
   6   6  -6   18.17    1.87
  -5  -6   6    5.84    1.14
  -5  -6   6    7.95    1.35
   5  -6  -6    5.21    1.38
  -5  -6   6    7.76    1.14
   5   6  -6    5.35    1.04
   5   6  -6    7.12    1.13
  -5   6   6    6.24    1.03
   5   6  -6    6.33    0.97
  -5   6   6    5.84    1.20
  -5   6   6    5.59    0.97
  -4  -6   6    8.13    1.24
  -4  -6   6    6.65    1.26
  -4  -6   6    8.08    1.46
   4  -6  -6    7.30    1.65
   4   6  -6    9.68    1.13
  -4   6   6    8.64    1.02
  -4   6   6   10.52    1.03
   4   6  -6    9.40    1.16
  -4   6   6    8.78    1.17
  -3  -6   6   16.37    1.65
  -3  -6   6   15.55    1.46
  -3  -6   6   14.46    1.68
   3  -6  -6   15.54    2.06
  -3   6   6   15.38    1.50
  -3   6   6   17.54    1.33
   3   6  -6   17.12    1.48
  -3   6   6   16.29    1.54
   3   6  -6   18.91    1.41
   3   6  -6   17.80    1.53
  -2  -6   6   28.07    2.13
  -2  -6   6   30.38    2.25
   2  -6  -6   27.42    2.71
  -2  -6   6   28.59    2.49
  -2   6   6   27.56    2.18
   2   6  -6   27.73    1.96
   2   6  -6   27.45    2.11
   2   6  -6   26.42    1.99
   2   6  -6   25.80    1.93
  -1  -6   6   45.26    3.37
   1  -6  -6   41.44    4.06
  -1  -6   6   41.60    3.64
  -1  -6   6   44.90    3.42
   1   6  -6   50.48    3.13
   1   6  -6   47.06    2.95
  -1   6   6   52.00    2.91
   1   6  -6   45.29    3.10
  -1   6   6   46.88    3.40
  -1   6   6   50.59    3.20
   1   6  -6   52.06    3.32
   0  -6   6    1.31    0.67
   0  -6   6    1.25    0.69
   0  -6   6    1.70    0.38
   0  -6   6    2.11    0.78
   0  -6  -6    1.55    0.89
   0   6   6    0.52    0.59
   0   6   6    0.91    0.59
   0   6  -6    0.22    0.53
   0   6   6    0.23    0.49
   0   6   6    0.79    0.61
   0   6  -6    0.24    0.43
   0   6   6   -0.06    0.40
   0   6   6    0.88    0.43
   0   6  -6    0.44    0.49
   0   6  -6    0.26    0.54
  -1  -6  -6   -0.06    0.78
  -1  -6  -6    0.48    0.79
   1  -6   6    2.09    0.46
   1  -6   6    1.06    0.57
   1   6   6    0.39    0.55
  -1   6  -6    0.51    0.45
   1   6   6    0.28    0.58
  -1   6  -6    0.70    0.57
   1   6   6    0.78    0.45
   1   6   6    0.41    0.64
   1   6   6    0.24    0.59
  -1   6  -6    0.42    0.45
   1   6   6    0.93    0.65
   1   6   6    0.35    0.37
   1   6   6    0.40    0.45
   1   6   6    0.36    0.61
  -1   6  -6    0.86    0.57
   1   6   6    0.68    0.45
   1   6   6    0.58    0.49
   1   6   6    0.68    0.62
  -2  -6  -6    1.00    0.83
  -2  -6  -6    0.81    0.80
   2  -6   6    1.80    0.47
   2  -6   6    1.26    0.77
   2  -6   6    0.79    0.53
   2  -6   6    0.46    0.50
  -2   6  -6    0.63    0.66
   2   6   6    0.04    0.60
   2   6   6    0.84    0.45
   2   6   6    0.19    0.65
   2   6   6    0.33    0.68
  -2   6  -6    0.48    0.64
   2   6   6    0.28    0.65
   2   6   6    0.42    0.53
  -2   6  -6    1.12    0.65
   2   6   6   -0.19    0.53
   2   6   6    0.78    0.51
   2   6   6    0.46    0.63
   2   6   6    1.35    0.55
   3  -6   6    8.99    1.13
   3  -6   6    8.21    1.31
   3  -6   6    9.71    1.14
  -3  -6  -6    6.59    1.72
   3  -6   6    9.70    1.11
  -3  -6  -6    8.21    1.32
   3   6   6   11.48    1.11
  -3   6  -6    9.09    1.03
   3   6   6    9.62    1.27
   3   6   6    8.02    1.09
   3   6   6   10.50    1.26
   3   6   6    8.35    1.15
   3   6   6    8.56    1.33
   3   6   6    9.61    1.13
  -3   6  -6    7.75    1.12
   3   6   6    9.69    1.21
   3   6   6    8.31    1.14
  -3   6  -6    8.72    1.18
   3   6   6    7.80    0.94
   4  -6   6    0.93    0.65
   4  -6   6    1.66    0.90
   4  -6   6    3.53    0.92
  -4  -6  -6    1.26    1.06
  -4   6  -6    1.52    0.72
  -4   6  -6    0.68    0.83
   4   6   6    2.16    0.83
   4   6   6    1.85    0.80
   4   6   6    1.40    0.89
  -4   6  -6    1.82    0.71
   4   6   6    2.20    0.70
   4   6   6    0.78    0.80
   4   6   6    1.65    0.89
   4   6   6    2.14    0.77
   4   6   6    1.96    0.86
  -5  -6  -6    1.85    1.69
   5   6   6    2.22    0.95
   5   6   6    1.89    1.01
   5   6   6    1.25    0.92
   5   6   6    1.87    0.91
  -6  -6  -6    0.31    1.78
   6  -7  -6    0.98    1.57
  -6  -7   6    0.73    0.97
  -6  -7   6    1.30    1.24
  -6  -7   6    1.33    1.15
  -5  -7   6    0.92    1.03
   5  -7  -6    2.45    1.54
  -5  -7   6    1.85    1.39
  -5  -7   6    2.38    1.17
  -5   7   6    2.13    0.94
   5   7  -6    2.95    0.95
   5   7  -6    2.71    0.74
  -5   7   6    2.04    0.82
  -4  -7   6    3.77    1.29
  -4  -7   6    3.38    1.07
  -4  -7   6    2.46    0.95
   4  -7  -6    2.93    1.18
   4   7  -6    3.53    0.87
   4   7  -6    2.85    0.84
  -4   7   6    2.80    0.62
  -4   7   6    4.48    1.06
  -4   7   6    2.84    0.75
  -3  -7   6   12.97    1.88
  -3  -7   6   17.11    1.64
  -3  -7   6   15.41    1.71
   3  -7  -6   13.88    2.08
   3   7  -6   17.29    1.53
   3   7  -6   17.51    1.47
  -3   7   6   17.90    1.62
  -3   7   6   15.22    1.53
   3   7  -6   18.29    1.56
  -3   7   6   17.29    1.35
  -2  -7   6   18.22    1.91
  -2  -7   6   20.94    1.68
  -2  -7   6   19.02    1.80
   2  -7  -6   22.36    2.29
   2   7  -6   18.72    1.58
   2   7  -6   18.87    1.64
  -2   7   6   19.30    1.44
  -2   7   6   18.40    1.81
   2   7  -6   21.27    1.70
   2   7  -6   20.21    1.61
  -1  -7   6    7.27    1.05
   1  -7  -6    9.58    1.40
  -1  -7   6    9.36    1.10
  -1  -7   6    7.82    1.09
   1   7  -6    4.54    0.83
  -1   7   6    4.78    0.83
   1   7  -6    5.23    0.88
   1   7  -6    5.05    0.87
  -1   7   6    5.63    0.93
   1   7  -6    5.21    0.81
   0  -7   6   28.19    2.78
   0  -7  -6   28.75    3.14
   0  -7   6   30.28    2.61
   0  -7   6   32.50    2.65
   0   7   6   36.31    2.62
   0   7  -6   38.32    2.36
   0   7   6   37.16    2.46
   0   7   6   33.12    2.41
   0   7  -6   35.46    2.36
   0   7   6   36.89    2.51
   0   7  -6   36.89    2.52
   0   7  -6   36.38    2.49
   0   7   6   36.59    2.59
  -1  -7  -6   50.57    4.64
   1  -7   6   47.66    4.15
   1   7   6   51.66    3.65
   1   7   6   53.01    3.72
   1   7   6   50.96    3.74
  -1   7  -6   55.75    3.35
   1   7   6   54.21    3.57
   1   7   6   52.79    3.61
  -1   7  -6   54.16    3.57
   1   7   6   51.18    3.64
   1   7   6   53.68    3.79
   1   7   6   50.65    3.73
  -1   7  -6   56.61    3.51
  -1   7  -6   56.16    3.69
   1   7   6   52.03    3.57
   1   7   6   50.88    3.55
   1   7   6   56.92    3.80
   2  -7   6   41.28    3.10
  -2  -7  -6   38.01    3.40
  -2  -7  -6   38.45    3.96
   2   7   6   38.55    2.37
   2   7   6   34.89    2.77
   2   7   6   35.09    2.78
   2   7   6   40.61    2.88
   2   7   6   38.52    2.76
  -2   7  -6   36.44    2.65
   2   7   6   33.43    2.81
  -2   7  -6   37.62    2.64
   2   7   6   35.22    2.76
   2   7   6   40.85    2.74
   2   7   6   33.04    2.67
  -2   7  -6   38.71    2.59
   2   7   6   36.36    2.75
   3  -7   6   22.49    2.58
  -3  -7  -6   26.80    2.88
   3  -7   6   27.36    2.35
  -3  -7  -6   25.53    3.16
   3   7   6   29.34    2.03
   3   7   6   29.73    2.65
   3   7   6   31.88    2.43
   3   7   6   33.53    2.42
  -3   7  -6   31.45    2.38
   3   7   6   29.25    2.35
   3   7   6   28.26    2.32
   3   7   6   29.38    2.43
   3   7   6   30.40    2.41
   3   7   6   29.08    2.45
  -3   7  -6   31.23    2.20
  -3   7  -6   30.19    2.13
  -4  -7  -6   10.97    2.28
   4  -7   6   11.16    1.65
   4   7   6   10.60    1.41
   4   7   6   14.69    1.63
   4   7   6   12.59    1.54
   4   7   6    8.53    1.38
   4   7   6   12.32    1.29
   4   7   6   12.17    1.43
   4   7   6   13.98    1.77
  -4   7  -6    9.97    1.40
  -5  -7  -6    6.10    1.71
  -6  -8   6    6.98    2.00
  -6  -8   6   10.34    1.69
   6  -8  -6    6.21    2.08
  -6  -8   6    6.58    1.40
   5  -8  -6    3.51    1.83
  -5  -8   6    5.94    1.27
  -5  -8   6    3.92    1.36
  -5  -8   6    3.31    1.29
  -5   8   6    4.23    1.15
  -4  -8   6    4.98    1.26
  -4  -8   6    3.81    1.20
  -4  -8   6    5.69    1.17
   4  -8  -6    1.45    1.22
   4   8  -6    5.34    1.02
   4   8  -6    4.83    0.99
  -4   8   6    3.27    1.07
   4   8  -6    3.78    0.90
  -4   8   6    5.83    0.92
  -3  -8   6    8.76    1.61
  -3  -8   6    7.63    1.14
  -3  -8   6    7.73    1.23
   3  -8  -6    8.64    1.70
   3   8  -6    9.09    1.26
   3   8  -6    9.12    1.17
   3   8  -6    9.03    1.16
  -3   8   6    9.95    1.33
   3   8  -6    8.91    1.03
  -3   8   6    9.09    1.24
   2  -8  -6   34.64    3.38
  -2  -8   6   35.63    2.73
  -2  -8   6   34.78    2.66
  -2  -8   6   36.01    2.99
   2   8  -6   32.88    2.46
  -2   8   6   29.45    2.59
   2   8  -6   31.40    2.52
  -2   8   6   31.18    2.73
   2   8  -6   36.59    2.64
   2   8  -6   35.34    2.39
   1  -8  -6    2.95    1.34
  -1  -8   6    2.03    0.83
  -1  -8   6    3.23    0.89
  -1  -8   6    3.85    0.92
   1   8  -6    1.45    0.70
   1   8  -6    1.09    0.80
   1   8  -6    1.68    0.66
   1   8  -6    1.46    0.71
  -1   8   6    2.45    0.79
   0  -8   6    7.15    1.16
   0  -8   6    7.02    1.11
   0  -8  -6    5.28    1.53
   0  -8   6    7.21    1.30
   0   8   6    6.65    1.03
   0   8   6    8.30    1.18
   0   8  -6    7.55    0.97
   0   8   6    7.66    1.06
   0   8   6    6.70    1.11
   0   8   6    8.89    1.04
   0   8   6    8.34    1.05
   0   8  -6    7.48    1.12
   0   8  -6    7.38    1.01
   0   8  -6    7.72    0.94
   1  -8   6    0.83    0.88
  -1  -8  -6    0.39    0.82
   1  -8   6    0.41    0.80
   1  -8   6    0.69    0.78
   1   8   6    1.20    0.81
   1   8   6   -0.12    0.70
   1   8   6    1.11    0.65
   1   8   6    0.42    0.77
   1   8   6    1.02    0.81
   1   8   6    0.30    0.79
   1   8   6    1.18    0.59
   1   8   6    2.06    0.77
  -1   8  -6    1.09    0.75
  -1   8  -6    1.11    0.71
  -1   8  -6    0.82    0.60
   1   8   6    2.00    0.88
  -2  -8  -6    9.58    1.80
  -2  -8  -6   12.53    2.35
   2  -8   6   10.13    1.53
   2   8   6    9.98    1.40
   2   8   6   10.57    1.39
   2   8   6   12.57    1.50
   2   8   6   10.37    1.38
   2   8   6   12.58    1.45
  -2   8  -6   13.62    1.38
   2   8   6   10.42    1.39
   2   8   6    9.72    1.32
   2   8   6   11.52    1.43
  -2   8  -6   11.58    1.32
   2   8   6   11.69    1.07
   2   8   6   10.53    1.24
  -2   8  -6   12.28    1.31
   2   8   6   10.88    1.40
   3  -8   6    1.79    0.98
  -3  -8  -6    2.76    1.05
  -3  -8  -6    3.06    1.70
  -3   8  -6    4.29    1.05
   3   8   6    3.92    0.98
   3   8   6    1.82    1.05
  -3   8  -6    3.08    0.97
   3   8   6    3.11    1.01
   3   8   6    2.74    0.73
   3   8   6    2.27    0.79
   3   8   6    3.98    1.04
   3   8   6    2.53    0.97
   3   8   6    3.00    1.04
   3   8   6    2.26    0.90
  -4  -8  -6    3.62    1.91
   4   8   6    2.15    1.16
   4   8   6    2.65    0.73
   4   8   6    4.31    1.14
   4   8   6    4.04    1.10
  -5  -8  -6    3.04    2.05
   5   8   6    1.96    1.01
  -5  -9   6    3.93    1.44
   5  -9  -6    0.95    1.77
  -5  -9   6    3.65    1.75
  -5   9   6    3.05    0.99
   4  -9  -6    4.57    1.52
  -4  -9   6    2.73    1.16
  -4  -9   6    2.53    1.49
  -4   9   6    0.80    1.11
  -4   9   6    0.66    1.10
   3  -9  -6    7.23    1.76
  -3  -9   6    9.45    1.45
  -3  -9   6    8.90    1.58
   3   9  -6    9.69    1.27
   3   9  -6   10.17    1.39
  -3   9   6   11.33    1.37
   3   9  -6   10.10    1.25
  -2  -9   6    3.46    1.02
   2  -9  -6    2.33    1.56
  -2  -9   6    3.67    1.33
   2   9  -6    2.55    0.85
   2   9  -6    3.34    0.90
  -2   9   6    4.30    1.05
   2   9  -6    3.40    1.00
  -2   9   6    3.54    1.07
   1  -9  -6   21.26    2.47
  -1  -9   6   20.72    2.25
  -1  -9   6   20.79    1.87
  -1   9   6   17.79    1.86
   1   9  -6   18.59    1.66
   1   9  -6   17.74    1.81
  -1   9   6   18.16    1.88
   1   9  -6   18.55    1.71
   0  -9  -6   19.59    2.62
   0  -9   6   20.56    1.89
   0  -9   6   17.71    1.96
   0   9   6   20.00    1.74
   0   9  -6   18.96    1.72
   0   9   6   19.30    1.88
   0   9   6   18.62    1.94
   0   9   6   17.41    1.72
   0   9  -6   20.42    1.71
   0   9  -6   18.99    1.87
   0   9   6   18.46    1.79
   0   9   6   18.36    1.90
   0   9   6   20.25    1.94
  -1  -9  -6   26.32    2.80
   1  -9   6   22.88    2.49
   1  -9   6   26.71    2.28
   1   9   6   24.26    2.21
   1   9   6   27.09    2.31
  -1   9  -6   23.82    2.03
   1   9   6   23.19    2.12
   1   9   6   25.75    2.17
   1   9   6   27.39    2.15
  -1   9  -6   25.64    2.06
   1   9   6   23.94    2.24
   1   9   6   28.52    2.25
   1   9   6   22.74    2.06
   1   9   6   25.31    2.22
  -1   9  -6   27.32    2.09
  -2  -9  -6    8.27    1.89
   2  -9   6    8.21    1.50
   2   9   6   11.48    1.36
   2   9   6    9.77    1.23
   2   9   6    9.16    1.40
   2   9   6   10.06    1.43
   2   9   6   11.18    1.46
   2   9   6   12.14    1.47
   2   9   6    8.90    1.43
   2   9   6   14.44    1.67
   2   9   6   12.38    1.54
  -2   9  -6   11.45    1.34
   2   9   6    9.89    1.35
  -3  -9  -6    6.29    1.67
  -3  -9  -6    5.96    2.16
   3   9   6    4.29    1.21
   3   9   6    4.61    0.91
   3   9   6    2.74    1.08
   3   9   6    5.58    1.24
  -4  -9  -6   18.39    3.02
   4   9   6   20.08    1.81
   4   9   6   19.01    2.17
   4   9   6   20.85    2.04
   4 -10  -6    4.22    2.09
  -4 -10   6    2.89    1.73
  -4  10   6    4.72    1.40
  -4  10   6    2.85    1.34
   3 -10  -6    2.48    1.90
  -3 -10   6    4.11    1.59
  -3  10   6    5.26    1.33
  -3  10   6    2.80    1.06
   2 -10  -6    2.53    1.42
  -2 -10   6    4.90    1.50
  -2  10   6    5.13    1.08
  -1 -10   6    4.07    1.42
   1 -10  -6    4.49    1.49
   1  10  -6    4.89    1.01
  -1  10   6    4.69    1.04
   0 -10   6    4.94    1.33
   0 -10  -6    4.23    1.73
   0  10   6    1.57    0.80
   0  10   6    2.80    0.93
   0  10   6    3.58    1.08
   1 -10   6    2.48    0.93
  -1 -10  -6    3.13    1.64
   1  10   6    2.86    0.82
   1  10   6    2.41    1.10
  -2 -10  -6    4.38    1.43
   2  10   6    6.10    1.30
   2  10   6    5.53    1.20
   2  10   6    5.07    1.21
  -3 -10  -6   -0.67    1.45
   3  10   6    0.81    1.02
   3  10   6    0.80    1.09
   3  10   6    0.94    1.08
  -2 -11   6    5.63    1.48
   2 -11  -6    4.67    2.20
  -2  11   6    6.61    1.67
  -2  11   6    6.29    1.27
  -1 -11   6    9.07    1.83
   1 -11  -6   10.72    2.38
  -1  11   6    5.13    1.20
   0 -11  -6   14.06    2.62
   0 -11   6   13.80    1.87
   0  11   6   13.36    1.87
  -1 -11  -6    6.79    2.13
   1  11   6    5.94    1.27
   1  11   6    5.87    1.20
   1  11   6    6.84    1.42
  -2 -11  -6    7.81    2.18
   2  11   6    3.34    1.18
   2  11   6    4.66    1.33
   2  11   6    5.70    1.40
  -7   0   7   13.89    1.85
   6   0  -7   12.22    1.43
  -6   0   7   13.18    1.51
  -6   0   7   13.59    1.44
   6   0  -7   13.50    1.44
   5   0  -7   16.62    1.53
  -5   0   7   18.09    1.55
  -5   0   7   15.78    1.52
   5   0  -7   16.41    1.63
  -5   0   7   16.62    1.52
  -5   0   7   14.93    1.59
  -4   0   7    9.59    1.05
  -4   0   7   10.78    1.17
   4   0  -7    8.68    1.06
   4   0  -7   10.53    1.06
  -4   0   7   10.69    1.07
  -4   0   7    9.33    1.08
   3   0  -7   80.28    6.01
  -3   0   7   89.33    5.35
  -3   0   7   81.98    5.88
  -3   0   7   85.06    5.81
   3   0  -7   84.83    5.59
  -3   0   7   91.69    6.16
  -3   0   7   82.92    5.67
  -3   0   7   89.46    5.22
  -2   0   7  126.31    8.28
  -2   0   7  113.51    7.18
   2   0  -7  119.52    6.97
  -2   0   7  118.05    7.61
   2   0  -7  114.14    7.49
  -2   0   7  113.06    7.03
  -2   0   7  121.32    7.77
  -2   0   7  111.23    7.87
   2   0  -7  112.37    8.04
  -2   0   7  116.83    7.11
  -2   0   7  115.10    7.03
  -1   0   7   72.26    4.88
  -1   0   7   79.70    5.04
  -1   0   7   72.18    4.77
  -1   0   7   71.88    5.10
   1   0  -7   78.69    4.97
  -1   0   7   82.63    5.14
  -1   0   7   77.29    4.79
  -1   0   7   74.64    4.72
  -1   0   7   77.63    5.25
   1   0  -7   76.70    4.62
  -1   0   7   76.57    4.67
  -1   0   7   74.47    4.69
   0   0  -7   14.67    1.00
   0   0   7   14.40    1.08
   0   0   7   13.79    1.15
   0   0   7   13.84    1.19
   0   0  -7   13.00    0.98
   0   0  -7   14.80    1.12
   0   0  -7   14.44    1.01
   0   0   7   14.91    1.14
   0   0   7   12.88    1.11
   0   0  -7   13.65    1.40
   0   0   7   14.43    1.17
   0   0   7   15.68    1.02
   0   0   7   14.70    1.19
   0   0   7   14.08    1.13
   1   0   7   10.43    1.02
   1   0   7   12.03    0.94
   1   0   7    9.59    0.94
   1   0   7   10.19    0.97
   1   0   7   10.83    0.90
   1   0   7   10.95    0.92
  -1   0  -7   10.79    0.78
  -1   0  -7    9.61    0.90
   1   0   7   10.52    0.93
   1   0   7   10.37    0.82
   1   0   7    9.44    0.89
   1   0   7    9.61    1.01
  -1   0  -7   10.27    0.78
  -1   0  -7   11.06    0.86
  -1   0  -7   10.73    1.18
  -2   0  -7   29.14    1.86
   2   0   7   27.73    2.17
   2   0   7   27.90    2.02
   2   0   7   31.10    2.09
  -2   0  -7   29.17    2.63
   2   0   7   28.29    2.07
  -2   0  -7   28.36    1.80
   2   0   7   28.50    2.04
  -2   0  -7   28.15    1.92
   2   0   7   30.71    2.10
   2   0   7   29.45    2.05
   2   0   7   29.10    2.08
   3   0   7    0.51    0.55
   3   0   7    0.70    0.46
   3   0   7    0.37    0.56
   3   0   7    0.39    0.42
   3   0   7    0.41    0.56
  -3   0  -7    0.95    0.39
   3   0   7    0.20    0.41
  -3   0  -7    0.51    0.34
   3   0   7    0.46    0.43
  -3   0  -7   -0.01    0.45
   3   0   7    0.64    0.44
  -3   0  -7    0.54    0.69
  -4   0  -7    4.12    0.67
   4   0   7    3.86    0.87
   4   0   7    4.13    0.87
   4   0   7    4.38    0.89
   4   0   7    5.09    0.91
   4   0   7    4.94    0.79
   4   0   7    4.06    0.84
  -4   0  -7    4.69    0.66
  -4   0  -7    6.16    1.24
   4   0   7    5.59    0.93
   4   0   7    4.29    0.79
   5   0   7    2.38    0.73
   5   0   7    1.89    0.69
   5   0   7    1.90    0.74
   5   0   7    2.06    0.82
  -5   0  -7    1.42    0.65
   5   0   7    2.21    0.72
   5   0   7    1.32    0.89
   5   0   7    0.69    0.66
   5   0   7    1.78    0.69
  -5   0  -7    2.57    1.00
   6   0   7   -0.20    0.95
   6   0   7   -0.35    0.71
   6   0   7    0.33    0.65
   6   0   7    0.02    0.94
   6   0   7    0.41    0.92
   6   0   7   -1.37    0.97
   6   0   7   -0.01    0.66
  -6   0  -7    0.87    1.02
  -7   0  -7    1.14    1.72
  -8  -1   7    0.18    1.67
  -8   1   7   -1.12    1.24
  -7  -1   7    2.94    1.29
  -7  -1   7    2.16    1.09
   7  -1  -7    2.19    1.00
   6  -1  -7    0.08    0.73
  -6  -1   7   -0.02    0.92
  -6  -1   7    0.51    0.74
  -6  -1   7    0.02    0.62
   6  -1  -7    0.63    0.85
   6   1  -7   -0.43    0.77
  -6   1   7    0.13    0.66
  -6   1   7    0.80    0.66
   6   1  -7   -0.27    0.73
  -5  -1   7    0.25    0.60
  -5  -1   7   -0.69    0.64
  -5  -1   7    0.06    0.51
  -5  -1   7    0.11    0.54
   5  -1  -7    0.46    0.66
   5  -1  -7    0.57    0.60
   5   1  -7   -0.74    0.59
  -5   1   7    0.41    0.65
  -5   1   7   -0.09    0.58
  -5   1   7   -0.29    0.45
   5   1  -7   -0.09    0.44
  -4  -1   7    9.63    1.07
  -4  -1   7    8.67    0.77
  -4  -1   7    8.27    0.98
  -4  -1   7   10.92    1.12
  -4  -1   7    9.16    1.04
   4  -1  -7    9.36    0.99
   4  -1  -7    9.49    1.00
  -4   1   7   10.09    1.09
   4   1  -7    9.78    1.06
  -4   1   7    8.37    1.06
   4   1  -7   10.53    1.07
  -4   1   7    9.32    0.95
  -4   1   7   10.55    0.94
  -3  -1   7    6.89    0.52
  -3  -1   7    5.18    0.73
  -3  -1   7    6.36    0.50
   3  -1  -7    5.27    0.64
   3  -1  -7    5.61    0.75
  -3  -1   7    5.48    0.44
  -3  -1   7    4.89    0.66
  -3  -1   7    6.80    0.76
  -3  -1   7    5.12    0.69
  -3  -1   7    5.37    0.53
  -3   1   7    3.26    0.63
  -3   1   7    3.00    0.61
   3   1  -7    3.18    0.57
   3   1  -7    3.84    0.65
  -3   1   7    3.48    0.63
  -3   1   7    3.84    0.56
  -2  -1   7   20.44    1.47
   2  -1  -7   20.56    1.61
  -2  -1   7   20.89    1.73
  -2  -1   7   21.38    1.55
  -2  -1   7   21.03    1.66
  -2  -1   7   22.68    1.78
  -2  -1   7   20.52    1.48
  -2  -1   7   18.99    1.51
  -2  -1   7   21.77    1.73
   2  -1  -7   21.41    1.50
  -2  -1   7   20.51    1.45
  -2  -1   7   21.26    1.48
   2   1  -7   24.30    1.71
  -2   1   7   23.67    1.61
  -2   1   7   26.42    1.69
  -2   1   7   23.46    1.55
  -2   1   7   24.00    1.65
   2   1  -7   24.46    1.68
  -2   1   7   26.59    1.73
   2   1  -7   24.00    1.57
  -2   1   7   23.70    1.79
   1  -1  -7   34.44    2.10
  -1  -1   7   36.57    2.37
  -1  -1   7   36.11    2.47
  -1  -1   7   38.38    2.18
  -1  -1   7   35.76    2.56
  -1  -1   7   35.59    2.24
  -1  -1   7   38.59    2.15
  -1  -1   7   36.41    2.38
  -1  -1   7   36.97    2.20
  -1  -1   7   35.69    2.16
   1  -1  -7   33.61    2.27
  -1  -1   7   38.02    2.40
  -1  -1   7   35.20    2.14
   1   1  -7   29.84    2.11
  -1   1   7   29.35    2.42
  -1   1   7   29.00    2.25
  -1   1   7   30.83    2.20
  -1   1   7   28.36    2.24
  -1   1   7   28.79    2.15
   1   1  -7   27.56    2.26
  -1   1   7   31.03    2.33
  -1   1   7   29.59    2.20
  -1   1   7   28.53    2.16
   0  -1   7   39.87    2.77
   0  -1  -7   40.42    2.62
   0  -1   7   40.69    2.69
   0  -1  -7   38.51    2.84
   0  -1   7   37.79    2.70
   0  -1   7   38.63    2.74
   0  -1   7   38.06    2.72
   0  -1   7   39.06    2.82
   0  -1   7   40.20    3.04
   0  -1  -7   37.61    3.58
   0  -1   7   41.40    2.61
   0  -1   7   39.21    2.95
   0   1  -7   45.10    2.68
   0   1  -7   47.03    2.92
   0   1   7   44.70    2.84
   0   1   7   45.24    2.70
   0   1   7   43.95    2.84
   0   1   7   42.79    2.98
   0   1   7   45.78    3.04
   0   1   7   45.13    2.88
   0   1   7   44.98    2.81
   0   1  -7   44.76    2.56
   0   1  -7   45.43    3.51
   0   1   7   47.71    2.73
   0   1  -7   46.17    2.69
   0   1   7   46.12    2.79
   0   1   7   44.11    2.75
  -1  -1  -7  118.55    7.65
   1  -1   7  119.21    7.41
   1  -1   7  119.51    7.40
  -1  -1  -7  117.62    7.08
   1  -1   7  116.89    7.32
  -1  -1  -7  111.78    9.59
   1  -1   7  115.58    7.56
  -1  -1  -7  118.33    6.78
   1  -1   7  125.89    7.89
  -1  -1  -7  120.88    7.06
   1  -1   7  123.94    7.24
   1  -1   7  127.98    7.23
   1  -1   7  115.16    7.27
  -1   1  -7  119.69    6.85
   1   1   7  120.88    7.45
   1   1   7  120.30    7.80
   1   1   7  116.27    7.37
  -1   1  -7  115.84    7.13
   1   1   7  121.09    7.27
   1   1   7  123.49    7.32
  -1   1  -7  117.59    7.14
  -1   1  -7  114.81    9.49
   1   1   7  120.72    7.62
  -1   1  -7  116.90    7.68
   1   1   7  121.32    7.28
   1   1   7  121.01    7.91
   1   1   7  117.54    7.47
   1   1   7  116.32    8.03
   2  -1   7   84.53    5.26
   2  -1   7   77.20    5.23
  -2  -1  -7   82.53    4.94
   2  -1   7   77.97    5.79
  -2  -1  -7   78.68    4.98
   2  -1   7   82.49    5.56
  -2  -1  -7   72.58    6.77
   2  -1   7   78.70    5.33
  -2  -1  -7   85.78    6.37
   2  -1   7   81.99    5.18
   2  -1   7   81.21    5.15
  -2  -1  -7   81.42    4.74
   2  -1   7   76.86    5.10
   2  -1   7   82.08    5.44
   2   1   7   84.59    5.29
   2   1   7   86.63    5.41
  -2   1  -7   82.87    5.01
  -2   1  -7   80.48    6.69
   2   1   7   82.56    5.28
  -2   1  -7   87.13    4.83
  -2   1  -7   84.79    5.03
   2   1   7   86.09    5.22
   2   1   7   89.74    5.24
   2   1   7   82.18    5.48
   2   1   7   88.19    5.17
   2   1   7   85.91    5.57
  -3  -1  -7   12.43    1.49
   3  -1   7   12.96    1.27
   3  -1   7   15.12    1.21
   3  -1   7   15.11    1.16
   3  -1   7   13.57    1.20
   3  -1   7   14.72    1.17
   3  -1   7   14.14    1.27
  -3  -1  -7   13.53    0.97
  -3  -1  -7   13.40    1.08
   3  -1   7   14.46    1.12
   3  -1   7   13.82    1.26
  -3  -1  -7   13.59    0.94
   3  -1   7   13.03    1.15
  -3   1  -7   11.73    1.50
  -3   1  -7    9.05    1.09
  -3   1  -7   10.76    1.04
   3   1   7   12.25    1.29
   3   1   7   11.11    1.24
   3   1   7   11.28    1.17
  -3   1  -7   11.79    1.04
   3   1   7   11.71    1.25
   3   1   7   10.53    1.21
   3   1   7   10.96    1.20
   3   1   7   12.39    1.25
   3   1   7   11.76    1.27
   4  -1   7   55.60    3.46
   4  -1   7   51.81    3.70
   4  -1   7   54.21    3.54
  -4  -1  -7   50.29    4.52
   4  -1   7   50.34    3.81
  -4  -1  -7   54.20    3.12
   4  -1   7   53.21    3.49
   4  -1   7   53.07    3.42
   4  -1   7   53.78    3.50
   4  -1   7   55.98    3.51
   4   1   7   48.09    3.61
   4   1   7   48.05    3.52
   4   1   7   51.14    3.49
  -4   1  -7   51.75    3.29
   4   1   7   47.65    3.42
  -4   1  -7   49.17    3.16
  -4   1  -7   44.94    4.45
   4   1   7   50.20    3.43
   4   1   7   48.74    3.83
   4   1   7   50.24    3.39
   4   1   7   45.99    3.46
  -5  -1  -7   49.60    4.96
   5  -1   7   54.53    3.79
   5  -1   7   54.27    4.22
   5  -1   7   55.07    3.88
   5  -1   7   53.92    3.81
   5  -1   7   54.27    4.00
   5  -1   7   55.81    3.85
   5  -1   7   52.50    3.89
   5  -1   7   53.79    3.82
   5   1   7   59.11    3.95
   5   1   7   60.73    4.34
  -5   1  -7   55.67    3.51
  -5   1  -7   56.32    3.64
   5   1   7   59.78    3.78
   5   1   7   58.28    4.08
  -5   1  -7   45.85    4.84
   5   1   7   56.07    3.76
   5   1   7   59.86    3.87
   5   1   7   56.34    3.73
   5   1   7   56.33    3.88
  -6  -1  -7   22.67    3.12
   6  -1   7   26.37    2.31
   6  -1   7   31.40    2.55
   6  -1   7   30.78    2.61
   6   1   7   29.59    2.83
   6   1   7   33.22    2.57
  -6   1  -7   24.62    3.28
   6   1   7   31.56    2.53
   6   1   7   29.35    2.42
   6   1   7   31.91    2.62
   6   1   7   34.50    2.57
   6   1   7   30.02    2.66
  -7  -1  -7   16.83    2.80
  -7   1  -7   10.70    2.38
  -8  -2   7    2.30    1.20
  -8  -2   7    1.92    1.66
  -7  -2   7   14.16    1.97
   7  -2  -7   13.94    1.53
  -7  -2   7   11.69    1.85
  -7   2   7    9.60    1.49
   6  -2  -7   16.17    1.77
  -6  -2   7   17.82    2.13
  -6  -2   7   15.26    1.80
  -6  -2   7   16.32    1.90
   6  -2  -7   16.41    1.59
  -6  -2   7   15.29    1.81
   6   2  -7   17.25    1.70
  -6   2   7   12.63    1.62
   6   2  -7   15.68    1.70
  -6   2   7   14.01    1.64
   5  -2  -7   23.97    1.90
   5  -2  -7   25.33    2.15
  -5  -2   7   23.97    2.21
  -5  -2   7   23.81    2.10
  -5  -2   7   23.27    2.03
  -5  -2   7   25.68    2.45
  -5  -2   7   22.05    1.93
   5   2  -7   24.72    2.01
  -5   2   7   23.85    2.07
   5   2  -7   26.12    2.09
  -5   2   7   22.42    1.99
   4  -2  -7   47.65    3.80
  -4  -2   7   54.74    3.96
  -4  -2   7   51.07    3.65
  -4  -2   7   45.61    3.65
  -4  -2   7   46.88    3.66
   4  -2  -7   47.94    3.47
  -4   2   7   49.78    3.70
   4   2  -7   49.04    3.72
   4   2  -7   54.82    3.58
  -4   2   7   54.11    3.63
  -4   2   7   55.29    3.59
  -4   2   7   60.36    3.28
  -3  -2   7   33.59    1.96
  -3  -2   7   33.88    2.08
  -3  -2   7   33.46    2.55
  -3  -2   7   29.20    2.34
  -3  -2   7   32.20    2.02
   3  -2  -7   31.85    2.21
   3  -2  -7   31.29    2.42
  -3  -2   7   29.83    2.38
  -3  -2   7   33.15    2.37
  -3   2   7   30.90    2.27
   3   2  -7   31.17    2.16
  -3   2   7   33.47    2.30
  -3   2   7   31.98    2.26
   3   2  -7   30.78    2.29
  -3   2   7   29.28    2.37
   3   2  -7   29.06    2.36
  -2  -2   7   71.39    4.20
  -2  -2   7   65.82    4.57
  -2  -2   7   67.51    4.12
  -2  -2   7   70.11    5.02
  -2  -2   7   65.53    4.74
  -2  -2   7   68.17    4.62
  -2  -2   7   68.69    4.12
  -2  -2   7   68.68    4.17
   2  -2  -7   64.79    4.44
  -2  -2   7   70.37    4.33
  -2  -2   7   67.00    4.68
  -2  -2   7   68.09    4.24
  -2   2   7   63.29    4.73
  -2   2   7   69.18    4.50
  -2   2   7   72.08    4.29
  -2   2   7   68.62    4.59
   2   2  -7   67.25    4.78
   2   2  -7   63.84    4.52
   2   2  -7   66.90    4.22
  -2   2   7   67.27    4.35
  -2   2   7   77.22    4.85
   1  -2  -7   62.55    3.42
   1  -2  -7   58.32    3.69
  -1  -2   7   58.15    3.82
  -1  -2   7   58.38    3.51
  -1  -2   7   61.63    3.50
  -1  -2   7   57.57    3.46
  -1  -2   7   59.73    4.17
  -1  -2   7   57.48    3.82
  -1  -2   7   60.83    3.97
  -1  -2   7   59.34    3.62
  -1  -2   7   61.61    3.45
  -1  -2   7   57.35    3.55
   1  -2  -7   65.03    3.43
  -1  -2   7   57.81    3.90
   1   2  -7   47.93    3.74
  -1   2   7   49.57    3.59
  -1   2   7   54.40    3.63
  -1   2   7   49.10    3.50
  -1   2   7   49.93    3.93
   1   2  -7   52.07    3.50
  -1   2   7   51.72    3.54
  -1   2   7   47.53    3.53
   1   2  -7   56.20    3.50
  -1   2   7   52.99    3.79
  -1   2   7   54.01    3.71
   0  -2   7   20.63    1.32
   0  -2  -7   21.13    1.87
   0  -2   7   22.01    1.30
   0  -2   7   20.33    1.45
   0  -2   7   23.17    1.35
   0  -2   7   21.30    1.37
   0  -2  -7   21.92    1.22
   0  -2   7   20.57    1.29
   0  -2  -7   21.21    1.36
   0  -2   7   21.56    1.31
   0   2   7   15.54    1.43
   0   2  -7   14.53    1.43
   0   2  -7   15.33    1.26
   0   2   7   15.35    1.40
   0   2   7   15.76    1.33
   0   2   7   16.87    1.40
   0   2   7   18.03    1.33
   0   2   7   16.76    1.35
   0   2   7   17.10    1.31
   0   2   7   16.76    1.51
   0   2  -7   15.26    1.33
   0   2   7   16.18    1.45
   0   2  -7   16.29    1.32
   0   2   7   15.51    1.37
   0   2   7   15.34    1.41
  -1  -2  -7   61.07    3.70
  -1  -2  -7   54.42    5.40
   1  -2   7   61.21    4.02
   1  -2   7   57.93    4.18
  -1  -2  -7   58.69    3.89
  -1  -2  -7   57.07    5.12
   1  -2   7   60.23    4.11
   1  -2   7   55.29    4.09
   1  -2   7   60.49    4.04
   1  -2   7   59.52    4.05
   1  -2   7   58.84    4.37
  -1  -2  -7   60.08    3.82
  -1   2  -7   68.22    4.32
   1   2   7   66.42    4.15
  -1   2  -7   72.44    4.03
  -1   2  -7   71.40    4.04
  -1   2  -7   72.59    3.86
   1   2   7   69.53    4.45
   1   2   7   70.48    4.09
   1   2   7   70.41    4.38
  -1   2  -7   71.98    5.24
   1   2   7   70.95    4.24
   1   2   7   71.79    4.24
   1   2   7   71.53    4.34
   1   2   7   70.70    4.18
   1   2   7   70.52    4.49
   1   2   7   68.65    4.12
   2  -2   7   11.60    1.02
   2  -2   7   12.40    1.00
   2  -2   7   12.82    0.85
   2  -2   7   11.79    0.99
  -2  -2  -7   10.99    0.76
  -2  -2  -7   12.30    0.89
  -2  -2  -7   10.61    0.77
   2  -2   7   12.27    1.09
   2  -2   7   11.47    1.13
   2  -2   7   11.44    1.02
  -2  -2  -7   12.26    1.13
   2  -2   7   11.35    0.99
   2  -2   7   12.15    1.01
   2  -2   7   12.23    1.09
  -2  -2  -7    9.91    1.42
  -2   2  -7   11.15    1.06
   2   2   7   13.48    1.25
   2   2   7   10.83    1.02
   2   2   7   10.82    1.17
   2   2   7   12.16    1.18
   2   2   7   10.99    1.18
  -2   2  -7   11.58    1.00
  -2   2  -7   11.08    1.24
   2   2   7   11.11    1.07
  -2   2  -7   10.72    0.99
   2   2   7   12.24    1.11
   2   2   7   12.12    1.10
   2   2   7   13.10    1.07
   3  -2   7   24.63    1.79
   3  -2   7   22.52    1.77
   3  -2   7   24.64    1.93
  -3  -2  -7   22.98    2.50
  -3  -2  -7   24.67    1.52
   3  -2   7   26.37    1.79
   3  -2   7   26.30    1.79
   3  -2   7   22.58    1.87
   3  -2   7   26.46    1.89
   3  -2   7   26.12    1.86
   3  -2   7   24.44    1.87
   3   2   7   24.51    1.89
  -3   2  -7   23.71    1.73
   3   2   7   22.93    1.91
  -3   2  -7   22.37    1.68
   3   2   7   24.18    1.87
   3   2   7   23.89    2.04
  -3   2  -7   20.93    1.66
   3   2   7   25.84    1.99
  -3   2  -7   22.84    2.29
   3   2   7   24.45    1.82
   3   2   7   21.33    1.89
   3   2   7   24.89    1.86
  -4  -2  -7    3.03    1.14
   4  -2   7    2.81    0.71
   4  -2   7    2.43    0.62
   4  -2   7    2.41    0.64
   4  -2   7    2.57    0.79
   4  -2   7    2.23    0.76
   4  -2   7    2.42    0.81
   4  -2   7    1.67    0.59
   4  -2   7    2.39    0.76
   4   2   7    1.62    0.76
  -4   2  -7    1.95    0.60
   4   2   7    1.99    0.74
   4   2   7    1.58    0.67
  -4   2  -7    1.14    0.60
  -4   2  -7    2.83    0.93
   4   2   7    1.90    0.81
   4   2   7    1.71    0.80
  -4   2  -7    1.43    0.50
   4   2   7    1.13    0.59
   4   2   7    1.37    0.71
   4   2   7    0.65    0.73
   5  -2   7   -0.03    0.55
   5  -2   7    0.07    0.82
  -5  -2  -7    0.46    1.19
   5  -2   7   -0.14    0.58
   5  -2   7    0.36    0.56
   5  -2   7    0.56    0.83
   5  -2   7    0.42    0.82
   5  -2   7    0.63    0.65
   5  -2   7   -0.10    0.59
   5   2   7   -0.36    0.83
  -5   2  -7   -0.09    0.69
   5   2   7   -0.14    0.88
  -5   2  -7    1.23    1.07
   5   2   7    1.89    0.87
   5   2   7    0.69    0.64
  -5   2  -7    0.67    0.70
   5   2   7    1.38    0.66
   5   2   7    0.40    0.82
   5   2   7    0.36    0.56
   5   2   7    0.92    0.83
  -6  -2  -7    1.01    1.18
   6   2   7    0.58    0.97
   6   2   7    0.12    0.95
   6   2   7    1.26    0.78
  -6   2  -7    0.36    0.83
   6   2   7   -0.75    0.97
   6   2   7    0.19    0.84
  -6   2  -7    2.01    1.07
   6   2   7    0.93    0.95
  -6   2  -7    0.85    0.67
  -7  -2  -7    0.59    1.80
  -7   2  -7    1.06    1.19
  -8  -3   7    1.25    1.16
  -7  -3   7    0.03    1.27
   7  -3  -7    0.01    0.83
  -7  -3   7    0.51    1.11
  -7   3   7    0.68    0.97
  -6  -3   7    3.95    1.17
  -6  -3   7    2.07    1.11
   6  -3  -7    2.00    0.78
  -6  -3   7    3.22    1.16
   6  -3  -7    2.72    1.05
  -6  -3   7    1.76    0.83
   6   3  -7    2.50    0.92
  -6   3   7    2.59    0.93
   6   3  -7    3.33    0.82
  -5  -3   7   11.97    1.60
  -5  -3   7   14.35    1.58
   5  -3  -7   13.31    1.54
   5  -3  -7   15.81    1.33
  -5  -3   7   14.45    1.70
  -5  -3   7   13.10    1.63
   5   3  -7   13.21    1.33
  -5   3   7   13.60    1.36
   5   3  -7   13.54    1.44
  -5   3   7   12.90    1.49
  -4  -3   7    1.82    0.77
  -4  -3   7    2.42    0.72
  -4  -3   7    2.44    0.80
   4  -3  -7    1.70    0.52
  -4  -3   7    1.69    0.55
  -4  -3   7    2.24    0.79
   4  -3  -7    1.92    0.59
   4   3  -7    2.29    0.50
  -4   3   7    3.85    0.63
   4   3  -7    3.58    0.76
  -4   3   7    2.70    0.50
   4   3  -7    2.48    0.67
  -4   3   7    2.97    0.77
  -3  -3   7    3.55    0.61
  -3  -3   7    1.88    0.57
  -3  -3   7    2.19    0.59
  -3  -3   7    2.23    0.71
  -3  -3   7    2.05    0.67
   3  -3  -7    1.90    0.46
  -3   3   7    3.85    0.56
   3   3  -7    3.64    0.60
  -3   3   7    3.60    0.55
  -3   3   7    3.79    0.72
   3   3  -7    2.90    0.53
   3   3  -7    4.41    0.52
  -2  -3   7   18.98    1.81
  -2  -3   7   20.79    1.29
  -2  -3   7   20.21    1.35
  -2  -3   7   20.90    1.31
  -2  -3   7   20.32    1.64
  -2  -3   7   19.31    1.63
  -2  -3   7   18.96    1.71
  -2  -3   7   20.11    1.28
   2  -3  -7   19.71    1.50
  -2  -3   7   21.25    1.55
  -2  -3   7   23.61    1.75
   2   3  -7   19.73    1.48
  -2   3   7   21.93    1.49
   2   3  -7   19.06    1.57
  -2   3   7   18.55    1.65
  -2   3   7   23.83    1.50
   2   3  -7   21.25    1.34
  -2   3   7   20.26    1.50
   2   3  -7   22.73    1.42
   2   3  -7   19.48    1.58
  -1  -3   7   30.90    2.24
  -1  -3   7   31.63    1.97
  -1  -3   7   31.57    1.97
   1  -3  -7   32.60    2.04
  -1  -3   7   32.15    2.21
   1  -3  -7   31.33    1.87
  -1  -3   7   30.45    1.91
   1  -3  -7   34.90    1.90
  -1  -3   7   30.34    1.89
  -1  -3   7   28.91    2.38
  -1  -3   7   31.09    1.88
  -1  -3   7   32.31    1.91
  -1  -3   7   34.59    2.18
  -1  -3   7   31.67    2.12
  -1   3   7   28.58    2.27
  -1   3   7   26.09    2.03
   1   3  -7   27.90    1.92
   1   3  -7   26.58    1.93
   1   3  -7   28.57    1.91
   1   3  -7   26.43    1.99
  -1   3   7   26.81    2.04
   1   3  -7   29.06    1.99
  -1   3   7   27.62    2.12
   1   3  -7   26.62    2.16
  -1   3   7   28.06    2.02
  -1   3   7   28.68    2.08
   0  -3   7   65.56    3.84
   0  -3  -7   58.12    4.85
   0  -3  -7   62.92    3.55
   0  -3  -7   62.15    3.88
   0  -3  -7   60.05    5.08
   0  -3   7   65.68    4.13
   0  -3   7   60.43    3.72
   0  -3   7   62.81    3.71
   0  -3   7   61.45    4.46
   0  -3   7   62.16    4.01
   0  -3   7   62.88    3.78
   0  -3   7   59.53    3.66
   0  -3   7   63.92    3.71
   0   3   7   60.37    4.16
   0   3  -7   58.99    3.58
   0   3   7   54.54    3.97
   0   3   7   56.63    3.80
   0   3   7   52.01    4.07
   0   3   7   51.38    3.76
   0   3  -7   59.76    3.72
   0   3   7   54.97    3.82
   0   3   7   63.16    3.89
   0   3  -7   56.93    3.98
   0   3   7   56.07    3.77
   0   3   7   54.29    3.85
   0   3  -7   58.17    3.72
   0   3   7   55.57    3.73
   0   3   7   55.70    3.88
   1  -3   7   61.52    4.09
  -1  -3  -7   62.00    3.55
   1  -3   7   65.30    4.26
   1  -3   7   64.83    4.00
   1  -3   7   63.27    4.01
   1  -3   7   64.83    4.39
  -1  -3  -7   64.88    5.08
  -1  -3  -7   64.32    3.76
   1  -3   7   60.79    3.95
   1  -3   7   64.05    3.98
   1  -3   7   63.91    3.91
  -1  -3  -7   63.04    5.39
   1   3   7   60.01    4.07
   1   3   7   63.24    4.04
   1   3   7   62.66    4.21
  -1   3  -7   59.17    4.20
   1   3   7   62.51    4.17
   1   3   7   64.71    4.38
   1   3   7   73.30    3.78
   1   3   7   60.17    4.35
  -1   3  -7   59.29    3.94
   1   3   7   57.68    4.11
  -1   3  -7   61.84    3.79
   1   3   7   58.65    4.03
  -1   3  -7   63.58    3.95
   1   3   7   62.79    3.99
   1   3   7   58.41    4.26
  -1   3  -7   65.95    5.07
   2  -3   7   35.60    2.35
   2  -3   7   35.91    2.46
   2  -3   7   30.97    2.33
   2  -3   7   34.39    2.35
  -2  -3  -7   30.23    3.23
   2  -3   7   35.65    2.53
   2  -3   7   34.80    2.38
   2  -3   7   34.26    2.50
   2  -3   7   35.38    2.38
  -2  -3  -7   33.33    2.90
  -2   3  -7   32.57    2.31
   2   3   7   36.04    2.47
  -2   3  -7   33.79    2.30
   2   3   7   35.64    2.53
   2   3   7   35.50    2.60
   2   3   7   34.34    2.42
   2   3   7   39.45    2.53
   2   3   7   31.74    2.52
  -2   3  -7   36.24    2.28
   2   3   7   35.06    2.55
  -2   3  -7   36.45    2.97
   2   3   7   37.05    2.52
   2   3   7   37.19    2.47
   3  -3   7   35.71    2.41
   3  -3   7   33.55    2.42
   3  -3   7   36.25    2.60
  -3  -3  -7   30.25    3.19
   3  -3   7   37.17    2.52
   3  -3   7   35.91    2.39
   3  -3   7   35.26    2.45
   3  -3   7   35.68    2.41
   3  -3   7   36.85    2.58
   3   3   7   34.82    2.59
  -3   3  -7   30.70    2.99
   3   3   7   32.36    2.44
   3   3   7   30.27    2.48
   3   3   7   35.12    2.58
   3   3   7   33.44    2.73
   3   3   7   33.37    2.52
  -3   3  -7   32.96    2.35
   3   3   7   36.33    2.51
  -3   3  -7   31.96    2.27
  -3   3  -7   33.00    2.33
   3   3   7   34.37    2.53
   4  -3   7   55.57    3.92
   4  -3   7   58.91    4.03
   4  -3   7   57.84    4.05
   4  -3   7   56.13    4.32
   4  -3   7   53.72    3.94
   4  -3   7   56.30    3.97
   4  -3   7   51.61    4.16
   4  -3   7   55.91    4.00
  -4  -3  -7   50.27    5.29
   4   3   7   65.68    4.01
   4   3   7   61.18    4.22
  -4   3  -7   56.98    3.84
  -4   3  -7   60.96    3.84
   4   3   7   61.90    4.50
   4   3   7   67.45    4.03
   4   3   7   63.82    4.17
   4   3   7   67.30    4.03
  -4   3  -7   60.14    3.73
   4   3   7   66.17    4.03
   4   3   7   62.34    4.14
  -4   3  -7   59.01    5.09
   5  -3   7   42.19    3.17
   5  -3   7   44.28    3.37
  -5  -3  -7   35.11    4.24
   5  -3   7   43.19    3.15
   5  -3   7   40.49    3.09
   5  -3   7   42.58    3.04
   5  -3   7   41.79    3.11
   5  -3   7   42.27    3.16
   5   3   7   46.22    3.30
  -5   3  -7   42.88    3.04
   5   3   7   43.25    3.24
   5   3   7   41.03    3.01
  -5   3  -7   41.78    4.01
  -5   3  -7   42.33    2.94
   5   3   7   44.21    3.18
   5   3   7   44.28    3.04
   5   3   7   40.81    3.15
   5   3   7   44.39    3.62
   5   3   7   46.07    3.28
  -6  -3  -7    9.49    1.93
   6   3   7   10.24    1.41
   6   3   7    7.49    1.33
  -6   3  -7    7.78    1.73
   6   3   7    6.91    1.31
   6   3   7    6.99    1.32
   6   3   7    6.97    1.31
  -6   3  -7    6.43    1.23
  -7  -3  -7   17.23    2.73
  -7   3  -7   15.91    2.60
   8   4  -7    4.65    1.29
  -7  -4   7    7.63    1.40
  -7  -4   7   10.11    1.59
  -7  -4   7    7.21    1.47
   6  -4  -7    8.28    1.39
  -6  -4   7   10.73    1.65
   6  -4  -7    8.64    1.14
  -6  -4   7    6.88    1.53
  -6  -4   7    6.76    1.45
  -6   4   7    7.37    1.30
   6   4  -7   10.47    1.38
   6   4  -7    9.55    1.16
  -5  -4   7   26.08    2.51
  -5  -4   7   23.66    2.17
  -5  -4   7   21.98    2.09
   5  -4  -7   25.77    1.96
   5  -4  -7   23.53    2.16
   5   4  -7   28.53    2.07
   5   4  -7   27.85    2.16
  -5   4   7   23.51    2.11
   5   4  -7   26.78    2.06
  -4  -4   7   36.16    2.89
  -4  -4   7   34.61    2.52
  -4  -4   7   33.58    2.65
   4  -4  -7   35.29    2.35
  -4   4   7   30.70    2.54
   4   4  -7   30.03    2.48
   4   4  -7   31.90    2.29
   4   4  -7   31.94    2.52
  -4   4   7   33.23    2.28
  -3  -4   7   21.86    1.96
  -3  -4   7   24.61    2.14
   3  -4  -7   23.58    1.75
  -3  -4   7   24.02    2.03
  -3   4   7   28.58    1.81
   3   4  -7   25.89    1.91
   3   4  -7   24.92    1.85
  -3   4   7   25.13    2.07
   3   4  -7   23.65    1.95
   2  -4  -7   31.45    2.13
  -2  -4   7   28.18    2.31
  -2  -4   7   31.16    2.14
  -2  -4   7   29.57    2.53
  -2  -4   7   27.78    2.34
  -2   4   7   32.81    2.14
   2   4  -7   30.41    2.30
   2   4  -7   34.42    2.04
  -2   4   7   31.99    2.39
   2   4  -7   32.87    2.28
   2   4  -7   31.79    1.97
   2   4  -7   30.89    2.13
  -1  -4   7   38.84    2.36
   1  -4  -7   40.06    2.22
   1  -4  -7   35.58    3.21
  -1  -4   7   39.69    2.27
   1  -4  -7   41.57    2.19
   1  -4  -7   39.68    2.43
  -1  -4   7   34.71    2.68
  -1  -4   7   37.13    2.74
  -1  -4   7   40.34    2.52
  -1  -4   7   36.70    2.89
  -1  -4   7   37.65    2.36
   1  -4  -7   44.75    2.33
  -1  -4   7   41.34    2.31
  -1  -4   7   38.49    2.31
  -1   4   7   29.92    2.41
   1   4  -7   34.37    2.41
  -1   4   7   38.18    2.41
  -1   4   7   33.01    2.67
   1   4  -7   34.53    2.31
   1   4  -7   32.05    2.60
   1   4  -7   35.92    2.28
  -1   4   7   35.65    2.45
  -1   4   7   34.19    2.52
   1   4  -7   29.16    2.28
  -1   4   7   34.52    2.48
   1   4  -7   29.15    2.39
   1   4  -7   33.64    2.29
   1   4  -7   35.04    2.38
   0  -4   7   58.91    3.46
   0  -4   7   56.44    3.52
   0  -4   7   57.01    3.57
   0  -4   7   54.65    3.44
   0  -4   7   55.81    3.47
   0  -4  -7   50.40    4.58
   0  -4   7   55.40    3.41
   0  -4   7   53.27    4.19
   0  -4   7   55.02    3.73
   0   4   7   47.84    3.81
   0   4   7   52.01    3.55
   0   4   7   52.98    3.57
   0   4   7   55.56    3.57
   0   4  -7   51.70    3.37
   0   4   7   55.93    3.68
   0   4  -7   54.68    3.54
   0   4  -7   54.79    3.77
   0   4   7   55.66    3.60
   0   4  -7   56.95    3.54
   0   4   7   54.24    3.62
   0   4   7   58.61    3.92
   0   4   7   51.81    3.72
   0   4   7   65.42    3.60
   1  -4   7   17.85    1.31
   1  -4   7   20.71    1.30
   1  -4   7   18.98    1.65
  -1  -4  -7   17.69    2.08
  -1  -4  -7   19.06    1.78
   1  -4   7   19.64    1.36
   1  -4   7   20.95    1.35
   1  -4   7   20.29    1.32
   1  -4   7   20.52    1.30
   1  -4   7   18.67    1.30
   1  -4   7   23.10    1.46
   1   4   7   13.78    1.39
  -1   4  -7   16.18    1.51
  -1   4  -7   15.61    1.33
  -1   4  -7   16.25    1.35
   1   4   7   16.03    1.39
  -1   4  -7   13.69    1.31
   1   4   7   15.59    1.43
   1   4   7   14.39    1.41
   1   4   7   14.44    1.39
   1   4   7   15.88    1.54
   1   4   7   14.71    1.38
   1   4   7   15.87    1.53
   1   4   7   15.97    1.46
   1   4   7   16.74    1.42
  -2  -4  -7   18.91    2.00
   2  -4   7   19.72    1.63
   2  -4   7   20.16    1.55
   2  -4   7   21.03    1.62
   2  -4   7   21.51    1.66
  -2  -4  -7   17.78    2.23
   2  -4   7   19.65    1.73
   2  -4   7   19.26    1.61
   2  -4   7   17.28    1.55
  -2   4  -7   21.82    1.62
   2   4   7   22.57    1.86
   2   4   7   25.75    1.73
   2   4   7   24.88    1.86
  -2   4  -7   24.23    1.70
  -2   4  -7   24.48    1.99
   2   4   7   24.76    1.75
   2   4   7   24.06    1.85
   2   4   7   22.38    1.80
  -2   4  -7   23.19    1.64
   2   4   7   23.84    1.80
   2   4   7   21.69    1.79
   2   4   7   25.92    1.78
   3  -4   7    2.09    0.65
   3  -4   7    1.58    0.67
   3  -4   7    1.11    0.65
   3  -4   7    2.04    0.68
  -3  -4  -7    1.72    0.58
   3  -4   7    0.90    0.47
  -3  -4  -7    1.00    1.03
   3  -4   7    1.20    0.66
   3  -4   7    1.66    0.71
  -3   4  -7    1.53    0.72
   3   4   7    1.71    0.61
   3   4   7    2.02    0.79
  -3   4  -7    1.49    0.67
  -3   4  -7    1.74    0.55
   3   4   7    2.22    0.57
   3   4   7    1.64    0.64
   3   4   7    0.52    0.73
   3   4   7    1.13    0.78
   3   4   7    0.68    0.69
   3   4   7    2.38    0.72
  -3   4  -7    2.46    0.76
   3   4   7    1.06    0.54
   4  -4   7    2.10    0.68
   4  -4   7    2.07    0.82
   4  -4   7    1.19    0.77
   4  -4   7    2.59    0.83
   4  -4   7    1.61    0.65
   4  -4   7    2.74    0.70
   4  -4   7    1.21    0.61
  -4  -4  -7    1.13    0.94
   4   4   7    1.10    0.62
   4   4   7    1.22    0.74
   4   4   7    1.44    0.60
   4   4   7    0.48    0.79
  -4   4  -7    0.94    0.56
  -4   4  -7    0.88    0.79
   4   4   7    2.08    0.85
   4   4   7    0.23    0.82
  -4   4  -7    2.19    0.85
  -4   4  -7    1.61    0.76
   4   4   7    1.65    0.60
   4   4   7    0.79    0.60
   5  -4   7    0.73    0.94
   5  -4   7    3.02    1.06
  -5  -4  -7    0.33    1.03
   5  -4   7    1.12    0.72
   5  -4   7    0.20    0.90
   5  -4   7    1.95    0.76
   5  -4   7    1.05    0.93
   5  -4   7    1.63    0.75
   5   4   7    1.45    0.91
   5   4   7    1.23    0.99
   5   4   7    1.40    0.70
   5   4   7    1.49    0.72
  -5   4  -7    0.50    0.85
  -5   4  -7    0.51    0.86
   5   4   7    0.90    0.81
  -5   4  -7    0.71    1.03
   5   4   7   -0.22    0.89
   5   4   7    1.15    0.80
   5   4   7   -0.11    0.75
  -6  -4  -7    1.93    1.70
  -6   4  -7   -0.82    1.21
   6   4   7    1.42    0.80
  -7   4  -7    4.51    1.82
  -7  -5   7    1.41    1.03
  -7  -5   7    1.47    1.47
  -7  -5   7    0.35    0.99
  -6  -5   7    1.31    0.87
   6  -5  -7    1.95    0.83
  -6  -5   7    0.35    0.88
  -6  -5   7    1.56    0.97
  -6   5   7    1.59    1.00
   6   5  -7    0.67    0.92
   6   5  -7    1.99    0.88
   6   5  -7    2.33    1.03
  -5  -5   7    0.05    0.71
  -5  -5   7    0.39    0.91
  -5  -5   7   -0.34    0.98
  -5   5   7   -0.32    0.56
   5   5  -7   -0.07    0.56
   5   5  -7   -0.01    0.62
  -5   5   7   -0.02    0.66
   5   5  -7    0.40    0.76
  -4  -5   7    2.48    0.82
  -4  -5   7    2.95    0.94
  -4  -5   7    1.87    0.70
   4   5  -7    2.88    0.61
  -4   5   7    2.16    0.67
   4   5  -7    2.99    0.83
   4   5  -7    2.29    0.77
  -4   5   7    2.23    0.68
  -3  -5   7    3.91    0.90
  -3  -5   7    5.89    1.01
  -3  -5   7    4.52    1.00
   3   5  -7    8.28    0.82
  -3   5   7    6.67    1.00
   3   5  -7    6.73    0.83
   3   5  -7    7.15    0.93
   2  -5  -7   21.42    2.22
  -2  -5   7   21.17    1.77
  -2  -5   7   22.17    1.95
  -2  -5   7   21.70    1.85
   2   5  -7   22.51    1.62
   2   5  -7   21.03    1.75
  -2   5   7   20.11    1.83
   2   5  -7   20.38    1.53
   2   5  -7   21.80    1.68
  -1  -5   7   45.85    3.37
  -1  -5   7   42.25    3.00
  -1  -5   7   44.42    3.07
   1  -5  -7   39.03    3.64
   1   5  -7   42.55    2.65
   1   5  -7   41.59    2.97
  -1   5   7   42.65    3.06
  -1   5   7   41.99    2.84
   1   5  -7   43.80    2.77
  -1   5   7   39.56    2.83
   1   5  -7   38.13    2.79
  -1   5   7   39.15    2.86
   0   5  -7    3.40    0.62
   0   5   7    3.36    0.65
   0   5   7    3.67    0.66
   0   5   7    4.52    0.66
   0   5   7    4.82    0.79
   0   5  -7    3.49    0.62
   0   5   7    3.61    0.67
   0   5   7    4.11    0.70
   0   5   7    4.93    0.73
   0   5  -7    2.99    0.56
   0   5  -7    3.63    0.62
   0   5   7    2.93    0.72
   1  -5   7   40.68    2.87
   1  -5   7   41.44    2.77
   1  -5   7   35.95    2.67
  -1  -5  -7   38.02    3.56
   1  -5   7   37.62    2.62
  -1  -5  -7   36.07    3.86
   1  -5   7   36.29    2.69
   1  -5   7   34.87    3.21
   1  -5   7   40.49    2.69
   1  -5   7   40.14    2.75
   1   5   7   43.12    3.03
   1   5   7   41.87    2.81
   1   5   7   44.43    2.93
   1   5   7   46.67    3.00
   1   5   7   43.44    2.81
  -1   5  -7   46.71    2.98
   1   5   7   42.05    2.99
   1   5   7   40.63    2.98
  -1   5  -7   43.08    2.63
  -1   5  -7   43.98    2.79
   1   5   7   41.40    2.91
   1   5   7   44.67    2.99
   1   5   7   41.91    2.87
  -1   5  -7   44.78    2.77
   1   5   7   40.75    2.83
   2  -5   7   53.10    3.63
   2  -5   7   51.00    3.39
   2  -5   7   49.03    3.38
  -2  -5  -7   51.28    4.34
   2  -5   7   52.03    3.42
  -2  -5  -7   47.09    4.63
   2  -5   7   50.54    3.48
   2  -5   7   52.43    3.35
   2  -5   7   50.19    3.40
   2   5   7   53.61    3.53
   2   5   7   51.17    3.45
   2   5   7   52.64    3.68
   2   5   7   51.09    3.66
   2   5   7   50.49    3.49
   2   5   7   50.85    3.50
   2   5   7   49.67    3.66
  -2   5  -7   50.87    3.23
   2   5   7   50.93    3.52
  -2   5  -7   53.38    3.42
   2   5   7   53.96    3.58
  -2   5  -7   50.37    3.42
   2   5   7   56.92    3.64
  -3  -5  -7   37.60    4.24
   3  -5   7   47.12    3.18
   3  -5   7   50.34    3.11
   3  -5   7   45.17    3.13
   3  -5   7   54.95    3.44
   3  -5   7   50.51    3.22
  -3  -5  -7   47.74    3.94
   3  -5   7   48.90    3.15
   3  -5   7   50.83    3.25
  -3   5  -7   40.77    3.91
   3   5   7   48.10    3.31
   3   5   7   48.43    3.26
   3   5   7   46.81    3.38
   3   5   7   44.25    3.37
  -3   5  -7   43.89    3.17
   3   5   7   41.53    3.38
   3   5   7   44.13    3.18
  -3   5  -7   43.73    2.98
   3   5   7   46.44    3.37
  -3   5  -7   44.00    3.11
   3   5   7   49.90    3.34
   3   5   7   45.71    3.62
  -4  -5  -7   24.52    3.34
   4  -5   7   28.59    2.35
   4  -5   7   28.20    2.27
   4  -5   7   29.81    2.47
   4  -5   7   28.67    2.23
   4  -5   7   27.01    2.21
   4  -5   7   28.46    2.18
  -4   5  -7   27.86    2.77
  -4   5  -7   26.75    2.09
   4   5   7   30.05    2.58
   4   5   7   30.42    2.26
  -4   5  -7   28.29    2.20
   4   5   7   28.87    2.42
   4   5   7   33.33    2.40
   4   5   7   31.30    2.43
   4   5   7   28.57    2.29
   4   5   7   35.08    2.53
  -4   5  -7   28.21    2.19
   4   5   7   28.28    2.34
   5  -5   7   30.31    2.38
  -5  -5  -7   28.24    3.30
   5   5   7   29.47    2.48
  -5   5  -7   25.10    2.95
   5   5   7   31.72    2.44
   5   5   7   29.95    2.52
   5   5   7   26.00    2.47
   5   5   7   29.26    2.43
  -5   5  -7   30.57    2.48
  -6  -5  -7    7.90    2.32
  -7  -6   7    3.90    1.21
   7  -6  -7    2.58    1.82
  -7  -6   7    2.02    1.20
  -7  -6   7    2.60    1.69
  -6  -6   7    4.91    1.17
  -6  -6   7    4.06    1.46
  -6  -6   7    5.92    1.39
   6  -6  -7    5.24    1.89
  -5  -6   7   26.85    2.82
  -5  -6   7   27.73    2.46
   5  -6  -7   22.48    3.15
  -5  -6   7   24.36    2.50
   5   6  -7   26.10    2.15
   5   6  -7   25.89    2.05
  -5   6   7   25.46    2.45
  -5   6   7   29.82    2.19
  -4  -6   7   14.58    1.57
  -4  -6   7   14.88    1.62
  -4  -6   7   14.40    1.94
   4  -6  -7   15.34    2.14
   4   6  -7   17.37    1.61
  -4   6   7   15.21    1.53
  -4   6   7   16.65    1.58
   4   6  -7   14.48    1.51
  -3  -6   7   23.20    2.15
   3  -6  -7   23.42    2.57
  -3  -6   7   24.62    2.27
  -3  -6   7   24.26    2.10
  -3   6   7   26.15    1.74
   3   6  -7   22.64    1.74
   3   6  -7   25.15    1.93
   3   6  -7   25.80    1.94
  -3   6   7   22.85    2.13
  -2  -6   7   10.81    1.22
  -2  -6   7   10.38    1.21
  -2  -6   7   11.12    1.47
   2  -6  -7    8.60    1.51
   2   6  -7    9.64    1.09
   2   6  -7   11.31    1.21
  -2   6   7   11.48    0.89
   2   6  -7   11.29    1.13
   2   6  -7   11.31    1.22
  -2   6   7   10.48    1.18
   1  -6  -7   37.31    3.14
  -1  -6   7   33.72    2.75
  -1  -6   7   33.50    2.56
  -1  -6   7   34.74    2.62
  -1   6   7   32.11    2.33
   1   6  -7   31.35    2.27
   1   6  -7   33.10    2.32
  -1   6   7   34.92    2.52
  -1   6   7   30.86    2.46
   1   6  -7   28.93    2.16
   1   6  -7   32.03    2.46
   0  -6   7   13.75    1.38
   0  -6   7   12.57    1.18
   0  -6   7   14.01    1.50
   0  -6  -7   12.00    1.53
   0   6   7   10.42    1.21
   0   6   7   10.24    1.22
   0   6   7   10.07    1.09
   0   6   7    9.24    1.11
   0   6   7    8.60    1.17
   0   6  -7    8.51    1.12
   0   6   7    8.98    1.07
   0   6  -7    8.98    1.05
   0   6   7   10.11    1.24
   0   6   7   10.01    1.14
   0   6  -7   10.21    1.15
   0   6  -7   10.29    1.03
   1  -6   7   30.97    2.22
   1  -6   7   32.71    2.31
  -1  -6  -7   26.90    3.33
   1  -6   7   27.59    2.72
  -1  -6  -7   24.57    2.94
   1   6   7   34.72    2.45
  -1   6  -7   33.59    2.32
   1   6   7   34.76    2.42
   1   6   7   31.46    2.47
   1   6   7   31.04    2.47
   1   6   7   34.00    2.34
   1   6   7   31.75    2.34
   1   6   7   29.80    2.24
   1   6   7   34.24    2.42
   1   6   7   27.82    2.23
  -1   6  -7   35.72    2.45
  -1   6  -7   33.03    2.28
   1   6   7   32.81    2.42
   1   6   7   32.02    2.43
  -1   6  -7   34.55    2.17
  -2  -6  -7    9.20    1.91
   2  -6   7   11.10    1.13
   2  -6   7   11.14    1.16
   2  -6   7   11.94    1.16
   2  -6   7   11.12    1.10
  -2  -6  -7   11.41    1.54
   2  -6   7   11.72    1.11
   2  -6   7    9.25    1.30
  -2   6  -7   10.48    1.14
   2   6   7    9.16    1.18
  -2   6  -7   10.90    1.16
   2   6   7   10.10    1.28
  -2   6  -7   11.75    1.13
   2   6   7   10.12    1.27
   2   6   7   10.15    1.27
   2   6   7    9.40    1.30
   2   6   7   10.32    1.21
   2   6   7    9.43    1.30
   2   6   7    8.40    1.17
   2   6   7   10.34    1.24
   3  -6   7    2.04    0.77
  -3  -6  -7    3.10    1.00
   3  -6   7    3.19    0.84
   3  -6   7    4.65    0.89
   3  -6   7    2.07    1.01
   3  -6   7    3.69    0.85
   3  -6   7    2.01    0.82
  -3  -6  -7    3.93    1.53
   3   6   7    5.01    1.01
  -3   6  -7    3.28    0.79
   3   6   7    3.37    0.97
   3   6   7    4.04    1.12
   3   6   7    3.83    0.95
   3   6   7    2.51    0.77
   3   6   7    5.17    1.07
   3   6   7    4.56    0.95
   3   6   7    3.35    0.94
  -3   6  -7    5.55    0.98
   3   6   7    4.41    0.87
  -3   6  -7    4.38    0.82
   4  -6   7    2.39    0.77
   4  -6   7    3.09    0.81
   4  -6   7    1.85    0.92
   4  -6   7    3.38    1.04
  -4  -6  -7    2.49    1.30
   4  -6   7    3.25    0.79
   4   6   7    1.90    0.99
   4   6   7    1.44    0.76
   4   6   7    2.01    0.96
  -4   6  -7    2.09    0.74
  -4   6  -7    2.65    1.02
   4   6   7    2.99    1.06
   4   6   7    4.05    1.02
   4   6   7    2.77    0.80
   4   6   7    1.87    1.01
  -4   6  -7    3.17    1.03
   4   6   7    2.58    0.91
  -5  -6  -7    0.14    1.61
   5   6   7    1.09    0.97
   5   6   7   -1.14    0.90
   5   6   7    0.00    0.92
   5   6   7   -0.69    0.96
  -6  -6  -7    3.00    2.06
  -6  -7   7    3.12    1.34
  -6  -7   7    3.98    1.37
  -6  -7   7    1.27    1.06
   6  -7  -7    0.38    1.68
  -5  -7   7    0.87    1.00
   5  -7  -7    1.09    1.55
  -5  -7   7    1.39    0.92
  -5  -7   7    1.90    1.11
  -5   7   7    2.13    0.93
   5   7  -7    2.00    0.93
   5   7  -7    2.57    0.97
  -4  -7   7    1.15    0.95
   4  -7  -7    1.87    1.43
  -4  -7   7    1.35    0.80
  -4  -7   7    3.36    1.08
  -4   7   7    2.58    0.80
  -4   7   7    2.47    0.91
   4   7  -7    1.46    0.78
  -4   7   7    2.13    0.69
   4   7  -7    2.46    0.80
   4   7  -7    1.39    0.83
   3  -7  -7    4.52    1.53
  -3  -7   7    4.70    1.09
  -3  -7   7    4.48    1.03
  -3  -7   7    5.69    1.06
   3   7  -7    2.55    0.67
  -3   7   7    2.57    0.89
   3   7  -7    4.12    0.90
  -3   7   7    2.55    0.93
   3   7  -7    3.03    0.85
   3   7  -7    2.40    0.71
  -3   7   7    2.93    0.61
  -2  -7   7   10.08    1.34
  -2  -7   7   11.15    1.41
   2  -7  -7   11.34    1.92
  -2  -7   7    9.66    1.40
   2   7  -7   12.04    1.29
   2   7  -7   11.69    1.23
   2   7  -7   13.41    1.32
  -2   7   7   11.19    1.36
   2   7  -7   10.07    1.18
  -1  -7   7    5.93    1.08
  -1  -7   7    4.47    1.04
  -1  -7   7    4.92    1.02
   1  -7  -7    4.68    1.21
  -1   7   7    6.85    1.06
  -1   7   7    6.65    1.01
  -1   7   7    6.95    0.95
   1   7  -7    6.39    0.86
   1   7  -7    5.53    0.91
   1   7  -7    7.08    0.92
   1   7  -7    7.07    0.98
   0  -7   7   14.15    1.38
   0  -7  -7   16.26    2.05
   0  -7   7   15.14    1.57
   0  -7   7   11.64    1.49
   0   7  -7   15.49    1.41
   0   7   7   14.66    1.40
   0   7  -7   15.65    1.25
   0   7   7   10.50    1.38
   0   7   7   13.09    1.46
   0   7   7   12.07    1.40
   0   7   7   15.43    1.55
   0   7   7   14.36    1.44
   0   7   7   13.06    1.50
   0   7  -7   13.53    1.42
   0   7   7   10.82    1.32
   0   7  -7   13.87    1.26
   0   7   7   12.18    1.43
  -1  -7  -7   16.08    2.11
   1  -7   7   16.46    1.90
   1   7   7   17.73    1.67
  -1   7  -7   18.12    1.50
  -1   7  -7   17.60    1.55
   1   7   7   16.41    1.54
   1   7   7   15.63    1.64
   1   7   7   16.39    1.48
  -1   7  -7   16.33    1.44
  -1   7  -7   17.90    1.51
   1   7   7   17.29    1.61
   1   7   7   15.46    1.72
   1   7   7   16.75    1.68
   1   7   7   15.65    1.69
   1   7   7   15.82    1.59
   1   7   7   17.06    1.55
  -2  -7  -7   37.63    3.47
  -2  -7  -7   30.69    3.66
   2  -7   7   43.37    2.77
   2  -7   7   34.42    3.15
   2   7   7   37.63    2.71
   2   7   7   35.14    2.85
   2   7   7   34.54    2.60
   2   7   7   38.08    2.78
   2   7   7   34.77    2.84
  -2   7  -7   35.28    2.57
  -2   7  -7   39.33    2.52
   2   7   7   35.79    2.80
   2   7   7   33.52    2.58
  -2   7  -7   36.68    2.62
   2   7   7   37.15    2.78
   2   7   7   36.79    2.77
   2   7   7   35.67    2.84
  -3  -7  -7   20.10    2.88
   3  -7   7   20.80    1.99
  -3  -7  -7   19.93    2.41
   3  -7   7   18.14    2.10
   3   7   7   24.84    2.35
   3   7   7   20.37    1.84
   3   7   7   24.57    2.06
   3   7   7   21.86    1.95
  -3   7  -7   22.17    1.80
  -3   7  -7   24.93    2.05
   3   7   7   24.75    2.14
   3   7   7   21.34    2.09
   3   7   7   25.80    1.95
   3   7   7   22.40    2.09
  -3   7  -7   21.91    2.05
   4  -7   7   22.86    2.42
   4  -7   7   28.73    2.42
  -4  -7  -7   22.25    3.36
   4   7   7   30.42    2.36
   4   7   7   22.92    2.37
   4   7   7   28.54    2.40
   4   7   7   26.12    2.34
   4   7   7   23.65    2.42
   4   7   7   24.85    2.33
  -5  -7  -7    4.97    1.78
   5   7   7    8.64    1.53
  -6  -8   7    4.71    1.48
  -6  -8   7    5.17    1.65
   6  -8  -7    3.35    1.96
   5  -8  -7    6.34    2.04
  -5  -8   7    6.38    1.34
  -5  -8   7    9.04    1.56
  -5  -8   7    6.61    1.86
  -5   8   7   10.55    1.48
  -4  -8   7   30.06    2.54
  -4  -8   7   27.77    2.83
  -4  -8   7   26.52    2.44
   4  -8  -7   22.42    3.35
   4   8  -7   28.79    2.38
   4   8  -7   31.14    2.32
   4   8  -7   29.33    2.22
  -4   8   7   27.12    2.45
  -3  -8   7    5.33    1.41
   3  -8  -7    6.67    1.80
  -3  -8   7    6.39    1.21
  -3  -8   7    4.46    1.09
   3   8  -7    4.03    0.92
   3   8  -7    3.78    1.04
  -3   8   7    2.12    0.98
   3   8  -7    2.07    0.91
   3   8  -7    2.52    0.70
  -3   8   7    1.25    0.95
  -2  -8   7   14.59    1.75
  -2  -8   7   14.65    2.03
  -2  -8   7   17.45    1.80
   2  -8  -7   12.99    2.32
   2   8  -7   18.94    1.66
   2   8  -7   15.29    1.45
   2   8  -7   17.27    1.69
   2   8  -7   17.74    1.59
  -2   8   7   16.77    1.57
  -2   8   7   16.83    1.78
  -1  -8   7    8.81    1.32
   1  -8  -7    8.20    1.82
  -1  -8   7    8.79    1.30
  -1  -8   7    8.65    1.36
   1   8  -7    8.32    1.16
  -1   8   7    9.13    1.30
   1   8  -7    8.34    1.25
   1   8  -7    8.06    1.02
   1   8  -7   12.15    1.24
  -1   8   7    9.96    1.26
   0  -8   7   20.17    2.20
   0  -8   7   19.57    1.94
   0  -8  -7   16.11    2.45
   0  -8   7   16.95    1.92
   0   8   7   20.07    1.82
   0   8   7   20.67    1.83
   0   8   7   18.61    1.73
   0   8   7   19.42    1.77
   0   8   7   19.39    1.89
   0   8   7   21.32    1.94
   0   8  -7   20.40    1.77
   0   8  -7   21.48    1.61
   0   8   7   21.80    1.83
   0   8  -7   22.28    1.80
   0   8  -7   22.15    1.89
   0   8   7   21.05    1.85
   0   8   7   17.42    1.88
   1  -8   7    3.33    1.13
  -1  -8  -7    6.12    1.48
   1  -8   7    3.61    1.08
   1  -8   7    5.06    0.90
   1   8   7    3.83    0.90
  -1   8  -7    3.94    0.78
   1   8   7    3.78    0.87
  -1   8  -7    2.54    0.95
   1   8   7    2.96    0.97
   1   8   7    3.57    0.97
   1   8   7    4.26    1.06
  -1   8  -7    1.89    0.86
   1   8   7    4.15    1.00
   1   8   7    3.18    1.00
   1   8   7    4.08    0.96
   1   8   7    3.48    0.96
   1   8   7    4.68    0.90
   2  -8   7    7.76    1.36
  -2  -8  -7    8.21    1.60
  -2  -8  -7    7.22    1.74
   2   8   7    6.61    1.19
   2   8   7    4.93    0.94
  -2   8  -7    4.56    1.11
   2   8   7    4.37    0.95
  -2   8  -7    6.12    0.95
   2   8   7    5.48    0.99
   2   8   7    7.12    1.31
   2   8   7    4.88    1.18
   2   8   7    5.21    1.10
  -2   8  -7    4.94    0.91
   2   8   7    5.80    1.13
   2   8   7    4.79    0.98
   2   8   7    7.24    1.21
  -3  -8  -7    7.56    1.62
   3  -8   7    5.89    1.35
  -3  -8  -7    7.25    1.81
   3   8   7    5.29    1.21
   3   8   7    4.88    1.25
   3   8   7    7.26    1.31
   3   8   7    8.99    1.37
   3   8   7    6.79    1.27
   3   8   7    4.82    1.18
   3   8   7    7.15    1.44
   3   8   7    8.83    1.32
   4  -8   7   -0.03    1.10
  -4  -8  -7    2.95    1.54
   4   8   7    2.98    0.97
   4   8   7   -0.49    1.12
  -5  -8  -7    5.13    2.30
   5   8   7    2.07    1.39
  -5  -9   7   -0.02    0.95
   5  -9  -7   -0.23    1.79
  -5  -9   7    0.06    1.70
  -5   9   7    1.45    1.20
  -4  -9   7   -0.07    1.16
   4  -9  -7   -0.77    1.16
  -4  -9   7    1.26    1.11
  -4   9   7    0.18    1.06
  -3  -9   7    3.99    1.48
  -3  -9   7    4.10    1.09
   3  -9  -7    3.62    1.79
  -3  -9   7    3.41    1.18
   3   9  -7    3.85    0.98
   3   9  -7    2.80    0.97
  -3   9   7    3.67    0.98
  -2  -9   7   16.70    1.74
  -2  -9   7   14.99    1.74
  -2  -9   7   14.24    2.08
   2  -9  -7   11.13    2.14
   2   9  -7   13.04    1.52
  -2   9   7   16.48    1.66
  -2   9   7   14.32    1.73
   2   9  -7   16.28    1.56
  -1  -9   7    3.47    1.06
  -1  -9   7    2.68    1.01
   1  -9  -7    3.05    1.29
  -1  -9   7    1.53    0.94
   1   9  -7    4.45    0.97
   1   9  -7    4.33    0.97
  -1   9   7    5.83    1.07
  -1   9   7    5.08    1.12
   1   9  -7    3.32    1.05
   0  -9   7    7.12    1.27
   0  -9   7    6.17    1.23
   0  -9   7    4.79    1.11
   0  -9  -7    4.27    1.38
   0   9  -7    6.12    1.02
   0   9   7    5.66    1.24
   0   9   7    6.44    1.22
   0   9   7    5.55    1.19
   0   9   7    6.73    1.17
   0   9  -7    6.64    0.96
   0   9   7    4.44    1.13
   0   9   7    7.98    1.14
   0   9  -7    6.91    1.11
   0   9   7    9.76    1.34
  -1  -9  -7    8.61    1.85
   1  -9   7    9.25    1.41
   1  -9   7   10.11    1.56
   1   9   7    8.57    1.31
   1   9   7    8.03    1.34
   1   9   7    6.01    1.22
   1   9   7    4.81    1.19
   1   9   7    6.15    1.23
  -1   9  -7    6.47    1.01
  -1   9  -7    7.33    1.19
   1   9   7    5.70    1.00
   1   9   7    7.99    1.21
   1   9   7    5.72    1.11
  -2  -9  -7   14.54    2.18
   2  -9   7   16.07    2.04
   2   9   7   18.19    1.89
   2   9   7   15.66    1.77
   2   9   7   14.27    1.78
   2   9   7   15.84    1.66
   2   9   7   19.10    2.02
   2   9   7   15.11    1.79
   2   9   7   15.73    1.76
   2   9   7   14.97    1.67
  -3  -9  -7   19.04    2.45
  -3  -9  -7   12.98    2.77
   3  -9   7   11.66    1.81
   3   9   7   11.24    1.70
   3   9   7   11.93    1.68
   3   9   7   12.51    1.71
  -4  -9  -7   20.58    3.54
   4   9   7   23.91    2.48
   4   9   7   21.34    2.30
   4 -10  -7    6.41    2.27
  -4  10   7    4.33    1.20
  -4  10   7    5.65    1.48
  -3 -10   7    8.83    1.91
   3 -10  -7    9.61    2.05
  -3  10   7    6.64    1.47
   2 -10  -7    2.96    1.90
  -2 -10   7    3.21    1.44
  -2  10   7    1.27    0.88
   1 -10  -7   10.87    2.33
  -1 -10   7    8.49    1.78
  -1  10   7   11.92    1.61
   0 -10   7    7.46    1.61
   0 -10  -7    7.52    1.75
   0  10   7    6.67    1.20
   0  10   7    5.77    1.13
   1 -10   7    5.73    1.26
  -1 -10  -7    8.13    1.72
   1  10   7    5.78    1.35
   1  10   7    4.67    1.18
   2 -10   7    1.59    1.21
  -2 -10  -7    1.07    1.57
   2  10   7    2.59    1.07
   2  10   7    0.77    1.08
   2  10   7    0.92    1.12
  -3 -10  -7   -0.83    1.51
   3  10   7    2.18    1.28
   3  10   7    1.82    1.16
   3  10   7    2.40    0.98
  -2 -11   7    0.24    1.12
  -1 -11   7   10.33    1.99
   1 -11  -7    7.16    2.31
  -1  11   7    7.38    1.35
   0 -11   7    1.73    1.11
   0 -11  -7    2.25    1.50
   0  11   7    1.33    1.22
   1 -11   7   11.94    1.97
  -1 -11  -7   11.47    2.48
   1  11   7   10.89    1.59
   1  11   7   11.69    1.60
   1  11   7   11.25    1.74
  -8   0   8    0.96    1.79
  -7   0   8    7.76    1.53
  -6   0   8   10.42    1.25
  -6   0   8    7.21    1.36
  -6   0   8    9.72    1.40
   6   0  -8    7.73    1.16
   6   0  -8    9.44    1.23
   5   0  -8   30.68    2.42
  -5   0   8   31.20    2.48
   5   0  -8   29.54    2.25
  -5   0   8   28.96    2.41
  -5   0   8   32.28    2.45
  -5   0   8   27.05    2.31
  -4   0   8   18.09    1.54
  -4   0   8   18.49    1.35
   4   0  -8   18.83    1.45
   4   0  -8   16.75    1.52
  -4   0   8   17.51    1.50
  -4   0   8   17.01    1.57
  -4   0   8   15.93    1.58
   3   0  -8   84.38    5.56
  -3   0   8   84.45    5.18
  -3   0   8   84.96    5.67
  -3   0   8   84.75    5.31
   3   0  -8   86.57    5.99
  -3   0   8   81.82    5.85
  -3   0   8   82.73    5.76
  -3   0   8   89.16    6.13
  -2   0   8   28.00    1.91
  -2   0   8   26.11    1.80
  -2   0   8   28.02    2.07
   2   0  -8   26.12    1.95
  -2   0   8   27.64    1.99
  -2   0   8   28.94    2.11
  -2   0   8   27.95    2.00
  -2   0   8   23.71    1.84
  -2   0   8   27.53    1.83
  -2   0   8   24.72    1.77
   2   0  -8   26.43    1.78
  -1   0   8   67.76    4.40
  -1   0   8   69.63    4.36
  -1   0   8   70.55    4.43
  -1   0   8   68.31    4.82
  -1   0   8   71.56    4.65
  -1   0   8   65.86    4.71
   1   0  -8   69.80    4.58
   1   0  -8   69.65    4.25
  -1   0   8   71.37    4.31
  -1   0   8   68.58    4.32
  -1   0   8   70.75    4.52
   0   0   8   56.69    4.01
   0   0   8   59.81    3.58
   0   0  -8   56.19    3.85
   0   0  -8   54.65    3.41
   0   0  -8   57.42    3.54
   0   0   8   61.64    3.86
   0   0  -8   58.60    4.80
   0   0   8   60.19    4.08
   0   0   8   58.81    3.69
   0   0   8   57.64    3.77
   0   0   8   55.55    3.71
   0   0   8   57.26    3.65
   0   0  -8   57.42    3.56
   0   0   8   58.81    3.75
  -1   0  -8   30.23    1.90
  -1   0  -8   28.50    1.96
  -1   0  -8   31.82    1.87
   1   0   8   27.85    2.12
   1   0   8   31.03    1.98
   1   0   8   31.42    2.06
   1   0   8   30.08    2.09
   1   0   8   29.91    2.06
  -1   0  -8   28.39    2.65
  -1   0  -8   28.58    2.12
   1   0   8   29.97    2.28
   1   0   8   30.72    2.27
   1   0   8   30.48    2.13
   1   0   8   26.98    2.08
   1   0   8   29.87    2.12
  -2   0  -8   49.45    3.11
   2   0   8   52.01    3.47
   2   0   8   48.20    3.32
   2   0   8   49.81    3.43
  -2   0  -8   49.95    3.02
  -2   0  -8   49.54    3.18
  -2   0  -8   45.07    4.28
   2   0   8   50.42    3.55
   2   0   8   54.20    3.39
   2   0   8   52.25    3.38
   2   0   8   48.48    3.39
   2   0   8   53.02    3.21
   2   0   8   52.25    3.37
   3   0   8   32.00    2.41
  -3   0  -8   31.23    3.05
   3   0   8   31.52    2.53
   3   0   8   29.92    2.36
   3   0   8   30.54    2.39
   3   0   8   35.96    2.37
  -3   0  -8   31.99    2.13
   3   0   8   33.98    2.40
  -3   0  -8   31.87    2.23
   3   0   8   32.67    2.42
   3   0   8   33.45    2.38
   3   0   8   36.60    2.66
  -3   0  -8   33.07    2.08
   4   0   8   10.73    1.19
   4   0   8    8.78    1.11
   4   0   8    9.89    1.18
  -4   0  -8    8.39    1.45
  -4   0  -8   11.11    1.02
   4   0   8    9.71    1.29
   4   0   8    9.83    1.27
   4   0   8   10.70    1.19
  -4   0  -8    9.94    0.97
   4   0   8   11.17    1.27
   4   0   8   10.30    1.20
   5   0   8   -0.66    0.88
   5   0   8   -0.35    0.85
   5   0   8    0.45    0.85
   5   0   8   -0.24    0.86
   5   0   8    0.91    0.93
   5   0   8    1.16    0.74
   5   0   8    0.04    0.89
   5   0   8   -0.11    0.88
  -5   0  -8    0.70    0.90
   6   0   8    0.75    1.13
  -6   0  -8   -0.84    0.92
  -7   0  -8    4.14    1.98
  -8  -1   8    4.78    1.55
  -8  -1   8    3.71    1.60
  -7  -1   8    4.62    1.54
  -7  -1   8    4.90    1.18
  -7   1   8    4.41    1.32
   6  -1  -8    4.05    0.77
  -6  -1   8    2.18    1.05
  -6  -1   8    2.29    0.87
  -6  -1   8    3.13    0.91
   6  -1  -8    3.11    1.01
   6   1  -8    0.85    0.87
   6   1  -8    3.29    0.95
  -6   1   8    1.60    0.96
  -6   1   8    2.13    0.85
  -5  -1   8    0.90    0.80
  -5  -1   8    2.44    0.74
   5  -1  -8    1.83    0.71
  -5  -1   8    2.12    0.69
  -5  -1   8    2.53    0.75
   5  -1  -8    2.63    0.84
   5   1  -8    1.89    0.77
  -5   1   8    2.24    0.76
   5   1  -8    1.28    0.74
  -5   1   8    2.40    0.81
  -5   1   8    1.95    0.80
  -4  -1   8    2.94    0.71
   4  -1  -8    3.89    0.70
  -4  -1   8    3.31    0.80
  -4  -1   8    3.31    0.81
  -4  -1   8    2.82    0.69
   4  -1  -8    2.81    0.76
  -4   1   8    3.29    0.67
  -4   1   8    3.43    0.59
  -4   1   8    4.56    0.77
   4   1  -8    4.10    0.66
  -4   1   8    5.56    0.82
   4   1  -8    3.88    0.74
  -3  -1   8    4.99    0.74
   3  -1  -8    4.62    0.68
  -3  -1   8    4.28    0.51
   3  -1  -8    3.40    0.63
  -3  -1   8    4.03    0.44
  -3  -1   8    5.80    0.55
  -3  -1   8    4.69    0.76
  -3  -1   8    4.57    0.77
  -3  -1   8    4.82    0.82
  -3  -1   8    4.11    0.51
  -3   1   8    4.65    0.57
  -3   1   8    4.86    0.70
   3   1  -8    4.96    0.72
  -3   1   8    4.83    0.80
  -3   1   8    4.97    0.60
  -3   1   8    4.02    0.69
  -3   1   8    4.97    0.64
   3   1  -8    4.53    0.69
   3   1  -8    3.79    0.71
   2  -1  -8    1.53    0.47
  -2  -1   8    2.26    0.41
  -2  -1   8    2.61    0.43
  -2  -1   8    2.68    0.65
  -2  -1   8    2.36    0.56
  -2  -1   8    1.85    0.39
   2  -1  -8    2.42    0.45
  -2  -1   8    2.48    0.47
  -2  -1   8    2.00    0.38
  -2  -1   8    2.84    0.42
  -2  -1   8    2.31    0.61
  -2  -1   8    2.27    0.51
  -2   1   8    3.43    0.55
  -2   1   8    2.68    0.46
  -2   1   8    2.55    0.51
   2   1  -8    2.83    0.50
  -2   1   8    3.33    0.58
   2   1  -8    3.28    0.55
  -2   1   8    3.19    0.46
  -2   1   8    3.68    0.57
  -2   1   8    3.09    0.54
  -1  -1   8   18.62    1.39
  -1  -1   8   19.72    1.64
  -1  -1   8   18.57    1.39
  -1  -1   8   19.34    1.59
   1  -1  -8   17.99    1.35
  -1  -1   8   18.57    1.40
  -1  -1   8   18.60    1.39
  -1  -1   8   17.63    1.44
  -1  -1   8   18.78    1.59
  -1  -1   8   19.06    1.47
  -1  -1   8   17.58    1.51
   1  -1  -8   17.00    1.48
  -1   1   8   21.60    1.51
  -1   1   8   21.26    1.52
  -1   1   8   20.65    1.67
   1   1  -8   22.05    1.45
  -1   1   8   21.75    1.46
   1   1  -8   20.67    1.56
  -1   1   8   23.54    1.53
  -1   1   8   20.92    1.47
  -1   1   8   20.95    1.48
  -1   1   8   21.76    1.49
  -1   1   8   23.23    1.56
   0  -1   8    8.90    0.83
   0  -1   8    8.25    0.77
   0  -1   8    8.04    0.73
   0  -1  -8    8.25    0.71
   0  -1   8    9.08    0.82
   0  -1  -8    7.78    1.00
   0  -1  -8    7.35    0.59
   0  -1   8    8.26    0.62
   0  -1  -8    8.85    0.60
   0  -1   8    7.75    0.85
   0  -1   8    8.29    0.75
   0  -1   8    8.62    0.71
   0  -1   8    8.59    0.80
   0  -1  -8    7.60    0.77
   0   1  -8    5.54    0.66
   0   1  -8    4.93    0.76
   0   1   8    5.47    0.65
   0   1   8    5.49    0.71
   0   1   8    5.03    0.80
   0   1   8    5.99    0.69
   0   1   8    4.17    0.74
   0   1   8    4.74    0.78
   0   1  -8    5.83    0.81
   0   1   8    5.54    0.72
   0   1  -8    6.37    0.69
   0   1   8    4.42    0.72
   0   1   8    5.74    0.78
   0   1   8    4.44    0.69
   0   1  -8    5.85    0.66
  -1  -1  -8   10.68    0.84
   1  -1   8   11.41    1.00
   1  -1   8   10.57    0.92
   1  -1   8    9.73    1.01
   1  -1   8    9.21    0.90
  -1  -1  -8   10.27    1.20
  -1  -1  -8    9.74    0.90
  -1  -1  -8   10.09    0.74
   1  -1   8   10.62    0.91
   1  -1   8   10.25    1.10
  -1  -1  -8    9.93    0.78
   1  -1   8   10.72    0.81
   1  -1   8   10.50    1.04
   1   1   8    9.57    1.02
  -1   1  -8   10.00    0.96
   1   1   8   10.27    1.02
   1   1   8    9.52    1.03
   1   1   8   10.04    0.95
  -1   1  -8   10.46    0.86
   1   1   8    9.86    0.97
  -1   1  -8   10.56    0.87
   1   1   8   11.14    0.91
  -1   1  -8   10.74    0.89
   1   1   8    9.81    1.01
   1   1   8    9.08    0.92
   1   1   8    9.54    1.04
  -1   1  -8   10.35    1.18
   1   1   8    9.57    1.01
   2  -1   8   83.82    5.34
  -2  -1  -8   69.87    6.49
   2  -1   8   78.00    5.00
   2  -1   8   83.30    5.22
   2  -1   8   81.70    5.16
   2  -1   8   83.45    4.83
  -2  -1  -8   81.86    4.71
  -2  -1  -8   83.10    4.54
   2  -1   8   79.53    4.95
   2  -1   8   83.91    5.04
   2  -1   8   80.76    5.03
   2  -1   8   86.13    4.96
  -2  -1  -8   83.65    4.78
   2  -1   8   85.11    5.59
  -2   1  -8   69.95    4.77
  -2   1  -8   73.80    6.41
   2   1   8   77.64    5.09
   2   1   8   78.54    5.01
   2   1   8   73.01    4.88
   2   1   8   72.74    5.32
   2   1   8   71.44    5.22
   2   1   8   74.65    4.94
   2   1   8   74.00    4.97
   2   1   8   81.73    5.07
   2   1   8   75.71    5.18
  -2   1  -8   72.74    4.81
  -2   1  -8   73.08    4.60
  -3  -1  -8   59.23    5.51
   3  -1   8   61.10    4.29
   3  -1   8   62.41    4.38
   3  -1   8   62.75    4.69
  -3  -1  -8   60.40    4.03
   3  -1   8   60.24    4.53
  -3  -1  -8   61.54    3.82
   3  -1   8   63.05    4.25
   3  -1   8   66.87    4.20
   3  -1   8   66.04    4.24
   3  -1   8   62.54    4.31
   3  -1   8   59.02    4.34
  -3   1  -8   68.38    5.51
  -3   1  -8   67.92    3.90
  -3   1  -8   71.50    4.07
   3   1   8   69.88    4.42
  -3   1  -8   65.46    4.12
   3   1   8   69.68    4.32
   3   1   8   70.08    4.35
   3   1   8   65.19    4.26
   3   1   8   63.17    4.44
   3   1   8   66.89    4.35
   3   1   8   66.11    4.32
   3   1   8   69.29    4.58
   3   1   8   68.19    4.79
  -4  -1  -8   19.54    2.16
   4  -1   8   20.74    1.82
   4  -1   8   19.64    1.78
   4  -1   8   20.90    1.65
   4  -1   8   18.74    1.80
   4  -1   8   21.31    1.65
   4  -1   8   19.50    1.85
   4  -1   8   18.15    1.56
   4  -1   8   19.88    1.82
   4  -1   8   19.36    1.63
   4   1   8   18.10    1.91
   4   1   8   20.67    1.86
  -4   1  -8   18.05    1.49
  -4   1  -8   15.90    2.14
   4   1   8   16.83    1.74
   4   1   8   20.85    1.81
   4   1   8   18.76    1.82
   4   1   8   18.78    1.77
   4   1   8   17.22    1.82
   4   1   8   17.99    1.67
  -4   1  -8   16.96    1.38
  -4   1  -8   18.41    1.52
  -5  -1  -8   18.06    2.39
   5  -1   8   19.31    2.01
   5  -1   8   20.59    2.07
   5  -1   8   16.98    1.86
   5  -1   8   16.46    1.98
   5  -1   8   20.47    1.83
   5  -1   8   18.52    1.78
   5  -1   8   21.13    1.82
   5  -1   8   18.94    1.82
  -5   1  -8   19.02    2.52
   5   1   8   21.02    2.10
   5   1   8   23.71    2.06
   5   1   8   23.68    2.12
   5   1   8   22.99    2.12
   5   1   8   23.18    1.88
  -5   1  -8   20.03    1.59
   5   1   8   23.36    2.01
   5   1   8   22.37    2.04
   5   1   8   24.31    2.24
   6  -1   8   21.97    2.27
  -6  -1  -8   18.71    2.80
  -6   1  -8   16.38    2.65
   6   1   8   21.28    2.04
  -7  -1  -8   13.09    2.40
  -7   1  -8   14.66    2.34
  -8  -2   8    3.40    1.66
  -7  -2   8    8.35    1.82
  -7  -2   8    8.92    1.50
  -7   2   8    6.92    1.31
  -6  -2   8   13.35    1.77
  -6  -2   8   13.49    1.98
   6  -2  -8   13.72    1.51
   6  -2  -8   14.91    1.63
  -6  -2   8   13.66    1.74
  -6  -2   8   14.65    1.72
  -6   2   8   14.55    1.50
   6   2  -8   18.08    1.71
  -6   2   8   15.70    1.69
   6   2  -8   17.23    1.76
  -5  -2   8   17.39    1.66
  -5  -2   8   18.32    1.87
   5  -2  -8   17.33    1.51
  -5  -2   8   17.81    1.73
   5  -2  -8   17.50    1.85
  -5  -2   8   16.62    1.66
   5   2  -8   20.67    1.65
  -5   2   8   19.09    1.60
  -5   2   8   18.04    1.68
  -5   2   8   18.26    1.59
   5   2  -8   22.06    1.80
   4  -2  -8   66.91    4.19
   4  -2  -8   64.90    4.58
  -4  -2   8   64.84    4.46
  -4  -2   8   70.67    4.75
  -4  -2   8   64.87    4.33
  -4  -2   8   63.67    4.43
  -4   2   8   60.58    4.32
   4   2  -8   57.97    4.47
  -4   2   8   57.48    4.42
  -4   2   8   59.05    4.26
   4   2  -8   59.44    3.94
   4   2  -8   58.11    4.21
  -3  -2   8   18.68    1.29
  -3  -2   8   16.57    1.57
  -3  -2   8   18.10    1.68
  -3  -2   8   18.45    1.60
   3  -2  -8   16.68    1.41
  -3  -2   8   18.92    1.20
  -3  -2   8   18.05    1.54
  -3   2   8   18.38    1.34
  -3   2   8   19.11    1.48
  -3   2   8   18.47    1.64
  -3   2   8   16.69    1.44
   3   2  -8   17.34    1.46
   3   2  -8   17.60    1.52
   3   2  -8   20.04    1.47
  -3   2   8   16.19    1.43
  -3   2   8   19.75    1.40
  -2  -2   8   28.94    2.23
  -2  -2   8   28.37    1.85
  -2  -2   8   28.79    1.76
  -2  -2   8   29.90    2.12
  -2  -2   8   27.51    2.03
   2  -2  -8   28.36    1.95
  -2  -2   8   26.45    2.06
  -2  -2   8   30.07    1.79
  -2  -2   8   32.74    1.89
  -2  -2   8   28.97    1.79
  -2  -2   8   27.57    1.77
   2  -2  -8   28.21    1.81
  -2  -2   8   29.92    2.13
  -2   2   8   26.16    1.94
  -2   2   8   24.05    2.15
   2   2  -8   23.41    1.98
  -2   2   8   23.17    1.93
  -2   2   8   28.17    2.06
   2   2  -8   26.74    1.92
  -2   2   8   24.71    1.87
  -2   2   8   24.80    1.98
  -1  -2   8   76.38    5.65
  -1  -2   8   81.93    5.58
  -1  -2   8   77.47    5.20
  -1  -2   8   75.05    5.56
   1  -2  -8   81.86    5.41
  -1  -2   8   81.63    5.16
  -1  -2   8   84.68    5.31
   1  -2  -8   80.15    5.00
  -1  -2   8   77.51    5.12
  -1  -2   8   80.24    5.09
  -1  -2   8   73.82    6.05
  -1  -2   8   76.87    5.06
  -1  -2   8   76.65    5.73
  -1   2   8   83.62    5.20
  -1   2   8   99.06    5.61
  -1   2   8   92.41    5.48
  -1   2   8   87.65    5.45
  -1   2   8   91.04    5.77
  -1   2   8   83.73    5.31
  -1   2   8   94.64    5.16
   1   2  -8   84.85    5.10
  -1   2   8   85.39    5.21
   1   2  -8   87.09    5.49
  -1   2   8   90.27    5.26
   0  -2  -8   87.15    5.50
   0  -2   8   84.36    5.19
   0  -2   8   85.26    5.26
   0  -2   8   83.22    5.42
   0  -2  -8   89.22    4.86
   0  -2   8   87.73    5.30
   0  -2  -8   90.04    5.08
   0  -2   8   89.06    5.34
   0  -2   8   87.19    5.69
   0  -2   8   84.18    5.21
   0  -2  -8   91.26    7.05
   0   2   8   91.38    5.56
   0   2  -8   82.69    5.56
   0   2   8   78.10    5.52
   0   2   8   80.99    5.27
   0   2  -8   81.85    4.96
   0   2   8   82.42    5.28
   0   2   8   83.37    5.81
   0   2   8   78.95    5.28
   0   2   8   88.60    5.23
   0   2  -8   84.14    5.18
   0   2   8   83.42    5.36
   0   2   8   81.62    5.40
   0   2   8   79.84    5.40
   0   2  -8   82.02    5.17
   0   2   8   79.59    5.72
   1  -2   8   60.31    3.95
  -1  -2  -8   56.21    5.23
   1  -2   8   61.64    4.00
  -1  -2  -8   64.45    3.59
   1  -2   8   65.45    4.27
   1  -2   8   63.09    4.04
   1  -2   8   66.50    3.94
  -1  -2  -8   62.91    3.69
  -1  -2  -8   59.92    4.97
   1  -2   8   62.84    3.96
   1  -2   8   65.40    4.09
  -1  -2  -8   60.95    3.77
   1   2   8   65.24    4.37
   1   2   8   62.57    4.05
   1   2   8   60.85    4.01
   1   2   8   60.34    3.99
   1   2   8   64.77    4.11
  -1   2  -8   58.87    3.90
   1   2   8   60.17    4.23
   1   2   8   62.64    3.96
   1   2   8   64.39    4.12
   1   2   8   63.67    4.35
  -1   2  -8   61.44    3.72
   1   2   8   60.96    4.17
  -1   2  -8   62.69    3.89
  -1   2  -8   62.04    5.06
  -1   2  -8   59.99    4.21
  -2  -2  -8   22.51    2.36
   2  -2   8   26.27    1.77
   2  -2   8   26.09    1.74
  -2  -2  -8   26.59    1.99
   2  -2   8   26.67    1.76
  -2  -2  -8   25.48    1.56
   2  -2   8   26.24    1.84
  -2  -2  -8   26.54    1.41
   2  -2   8   27.80    1.53
   2  -2   8   27.20    1.72
   2  -2   8   26.34    1.82
   2  -2   8   25.82    1.82
   2  -2   8   26.81    1.69
   2  -2   8   25.66    1.71
  -2   2  -8   17.87    1.51
   2   2   8   18.09    1.77
   2   2   8   17.54    1.63
  -2   2  -8   17.72    1.59
   2   2   8   19.75    1.83
   2   2   8   18.81    1.69
   2   2   8   18.19    1.78
  -2   2  -8   18.08    1.66
   2   2   8   20.89    1.81
   2   2   8   18.80    1.76
  -2   2  -8   18.17    2.09
   2   2   8   18.39    1.77
   2   2   8   19.84    1.81
   2   2   8   18.69    1.71
   3  -2   8   24.41    1.80
   3  -2   8   23.45    1.72
   3  -2   8   24.77    1.88
   3  -2   8   24.37    1.77
   3  -2   8   20.72    1.85
  -3  -2  -8   18.69    2.31
   3  -2   8   21.48    1.88
   3  -2   8   22.38    1.86
   3  -2   8   21.37    1.77
   3  -2   8   22.72    1.91
   3   2   8   22.94    1.89
   3   2   8   22.97    1.95
  -3   2  -8   23.93    1.72
   3   2   8   23.62    1.87
   3   2   8   25.58    1.84
  -3   2  -8   22.79    2.26
   3   2   8   23.89    2.04
   3   2   8   23.49    1.89
   3   2   8   22.06    1.87
  -3   2  -8   24.34    1.81
  -3   2  -8   23.09    1.69
   3   2   8   23.77    1.94
   3   2   8   24.18    1.86
   4  -2   8    5.91    1.12
   4  -2   8    7.20    1.13
   4  -2   8    6.27    1.02
   4  -2   8    7.38    1.02
   4  -2   8    7.19    1.18
  -4  -2  -8    7.19    1.43
   4  -2   8    7.08    1.14
   4  -2   8    8.18    1.10
   4  -2   8    8.68    1.08
   4   2   8   10.50    1.31
   4   2   8    9.52    1.27
  -4   2  -8    9.65    1.06
  -4   2  -8    8.81    1.14
   4   2   8   12.05    1.36
   4   2   8    8.85    1.23
  -4   2  -8    8.71    1.31
   4   2   8   10.52    1.16
   4   2   8    8.59    1.27
   4   2   8    9.90    1.17
   4   2   8    8.37    1.08
  -4   2  -8    9.76    1.05
   5  -2   8    5.31    1.07
   5  -2   8    7.01    1.08
   5  -2   8    5.25    1.14
   5  -2   8    7.25    1.24
   5  -2   8    5.59    1.01
   5  -2   8    5.54    1.01
  -5  -2  -8    4.97    1.37
   5  -2   8    5.30    1.14
   5  -2   8    5.56    1.21
   5   2   8    7.03    1.24
   5   2   8    4.36    1.16
  -5   2  -8    4.79    0.96
  -5   2  -8    6.43    1.03
   5   2   8    3.53    1.23
   5   2   8    6.19    1.19
   5   2   8    5.23    1.24
  -5   2  -8    4.84    1.37
   5   2   8    7.57    1.19
   5   2   8    5.85    1.03
   5   2   8    3.69    1.12
  -6  -2  -8    0.65    1.62
   6   2   8   -0.03    0.95
  -6   2  -8   -0.79    0.89
  -6   2  -8    2.02    1.10
  -7  -2  -8   -0.27    1.87
  -7   2  -8   -1.16    1.52
  -8  -3   8    2.76    1.33
  -7  -3   8    0.01    1.22
  -7  -3   8    2.03    1.42
  -7  -3   8    0.52    0.88
  -6  -3   8    2.83    1.17
  -6  -3   8    2.90    1.22
   6  -3  -8    3.43    0.86
   6  -3  -8    4.13    0.95
  -6  -3   8    2.94    1.12
  -6   3   8    2.52    0.97
   6   3  -8    1.84    0.79
   6   3  -8    2.91    0.76
  -5  -3   8    9.70    1.32
  -5  -3   8    8.79    1.23
   5  -3  -8    6.73    1.22
  -5  -3   8    9.05    1.22
   5  -3  -8    8.05    0.96
  -5   3   8    7.44    1.08
  -5   3   8    8.10    1.07
   5   3  -8    6.89    0.97
   5   3  -8    7.79    1.10
   5   3  -8    9.13    1.19
  -4  -3   8    0.02    0.54
  -4  -3   8    0.09    0.50
  -4  -3   8    0.39    0.55
   4  -3  -8    0.81    0.55
  -4  -3   8    0.33    0.71
   4  -3  -8    0.95    0.49
  -4   3   8    0.95    0.57
  -4   3   8    0.10    0.48
   4   3  -8    0.79    0.54
   4   3  -8    0.79    0.66
   4   3  -8    0.58    0.65
  -4   3   8    0.36    0.53
  -3  -3   8    1.76    0.70
  -3  -3   8    2.09    0.48
  -3  -3   8    1.76    0.61
  -3  -3   8    1.82    0.59
  -3  -3   8    1.64    0.72
   3  -3  -8    1.83    0.46
   3   3  -8    2.00    0.52
   3   3  -8    2.09    0.53
  -3   3   8    2.72    0.56
  -3   3   8    2.81    0.53
  -3   3   8    1.71    0.57
   3   3  -8    1.91    0.54
   2  -3  -8    1.81    0.40
  -2  -3   8    1.66    0.69
  -2  -3   8    1.77    0.25
  -2  -3   8    2.73    0.73
  -2  -3   8    2.21    0.55
  -2  -3   8    1.73    0.67
  -2  -3   8    2.73    0.48
  -2  -3   8    1.77    0.29
  -2  -3   8    1.85    0.29
  -2  -3   8    2.01    0.27
  -2  -3   8    2.01    0.34
   2  -3  -8    2.00    0.41
  -2   3   8    2.19    0.51
   2   3  -8    2.30    0.59
  -2   3   8    3.18    0.49
  -2   3   8    1.91    0.57
  -2   3   8    2.97    0.34
  -2   3   8    2.73    0.57
   2   3  -8    2.80    0.36
  -2   3   8    2.22    0.43
   2   3  -8    2.20    0.51
  -1  -3   8    9.31    0.92
  -1  -3   8   10.40    0.78
  -1  -3   8    9.62    1.02
  -1  -3   8    8.69    1.03
   1  -3  -8    9.89    0.86
  -1  -3   8    9.65    1.08
  -1  -3   8    9.23    0.78
  -1  -3   8    9.81    0.73
  -1  -3   8    9.78    0.84
   1  -3  -8   10.84    0.76
  -1  -3   8    9.47    0.78
  -1  -3   8    9.88    0.82
   1  -3  -8   10.73    0.78
  -1   3   8   10.48    0.98
  -1   3   8    9.21    0.99
  -1   3   8    9.36    1.05
   1   3  -8    9.83    0.98
   1   3  -8    9.72    0.95
   1   3  -8   10.65    1.04
  -1   3   8   10.20    0.87
  -1   3   8    9.00    1.01
  -1   3   8   11.07    0.84
  -1   3   8   11.28    1.06
  -1   3   8   11.36    1.04
   0  -3   8   24.18    1.74
   0  -3   8   25.32    1.69
   0  -3  -8   22.98    2.49
   0  -3   8   27.04    1.68
   0  -3  -8   23.63    2.27
   0  -3   8   23.43    1.67
   0  -3   8   23.58    1.72
   0  -3   8   23.88    2.06
   0  -3  -8   25.02    1.75
   0  -3  -8   24.31    1.47
   0  -3   8   25.37    1.66
   0  -3  -8   26.41    1.55
   0  -3  -8   25.42    1.48
   0  -3   8   24.23    1.84
   0   3  -8   24.44    1.77
   0   3   8   22.48    1.96
   0   3   8   23.94    1.79
   0   3   8   23.55    1.88
   0   3   8   24.33    1.73
   0   3  -8   23.29    1.65
   0   3   8   24.22    1.83
   0   3  -8   24.53    1.92
   0   3  -8   24.36    1.73
   0   3   8   23.05    1.80
   0   3   8   23.84    1.95
   0   3   8   23.21    1.78
   0   3   8   25.54    1.81
   0   3   8   23.17    1.86
   0   3   8   26.44    1.73
  -1  -3  -8    7.86    1.26
   1  -3   8    7.80    0.77
   1  -3   8    7.60    0.77
  -1  -3  -8    8.54    0.96
   1  -3   8    8.43    0.77
   1  -3   8    7.84    0.70
   1   3   8    3.86    0.62
  -1   3  -8    5.06    0.67
   1   3   8    3.89    0.75
  -1   3  -8    3.59    0.70
   1   3   8    4.06    0.80
   1   3   8    3.84    0.71
  -1   3  -8    4.43    0.69
   1   3   8    4.18    0.46
   1   3   8    4.48    0.74
  -1   3  -8    3.95    0.78
   1   3   8    3.15    0.67
   1   3   8    3.85    0.69
   1   3   8    3.53    0.67
   1   3   8    4.35    0.73
   1   3   8    5.20    0.76
  -1   3  -8    4.30    0.70
   2  -3   8   29.08    2.14
  -2  -3  -8   24.30    2.87
   2  -3   8   28.79    2.19
  -2  -3  -8   29.74    2.62
   2  -3   8   30.70    2.31
   2  -3   8   29.46    2.28
   2  -3   8   31.79    2.16
   2  -3   8   29.47    2.18
   2  -3   8   32.44    2.27
   2  -3   8   29.40    2.16
   2   3   8   31.43    2.30
   2   3   8   30.04    2.18
   2   3   8   33.67    2.30
  -2   3  -8   32.96    2.72
   2   3   8   35.48    2.45
   2   3   8   33.19    2.34
  -2   3  -8   29.03    2.12
   2   3   8   29.21    2.34
  -2   3  -8   29.60    2.14
   2   3   8   32.83    2.35
   2   3   8   32.08    2.34
  -2   3  -8   32.83    2.06
   2   3   8   31.90    2.43
   2   3   8   34.12    2.37
   3  -3   8   51.03    3.40
   3  -3   8   49.63    3.31
   3  -3   8   49.55    3.37
   3  -3   8   49.35    3.29
   3  -3   8   46.26    3.55
   3  -3   8   48.93    3.39
  -3  -3  -8   41.30    4.45
   3  -3   8   46.97    3.28
   3  -3   8   52.10    3.58
   3   3   8   53.75    3.44
   3   3   8   54.14    3.42
   3   3   8   53.27    3.57
  -3   3  -8   44.68    3.06
   3   3   8   49.23    3.45
   3   3   8   51.05    3.39
   3   3   8   52.55    3.46
  -3   3  -8   48.96    3.29
   3   3   8   42.86    3.49
  -3   3  -8   47.63    3.19
   3   3   8   46.26    3.83
   3   3   8   48.58    3.58
  -3   3  -8   51.83    4.21
   4  -3   8   13.68    1.35
   4  -3   8   13.16    1.46
   4  -3   8   15.40    1.37
   4  -3   8   15.26    1.40
   4  -3   8   13.77    1.47
   4  -3   8   14.78    1.42
  -4  -3  -8   11.75    2.01
   4  -3   8   15.37    1.51
   4   3   8   12.79    1.37
   4   3   8   12.35    1.41
   4   3   8   11.38    1.34
   4   3   8   13.28    1.55
  -4   3  -8   11.87    1.21
   4   3   8   12.20    1.52
  -4   3  -8   11.88    1.32
  -4   3  -8   11.70    1.38
   4   3   8   10.69    1.52
  -4   3  -8   11.70    1.67
   4   3   8   12.17    1.48
   4   3   8   13.76    1.71
   5  -3   8   27.28    2.33
   5  -3   8   30.49    2.38
   5  -3   8   29.80    2.33
   5  -3   8   32.03    2.53
   5  -3   8   28.51    2.55
  -5  -3  -8   26.88    3.20
   5  -3   8   28.35    2.50
   5  -3   8   27.69    2.58
   5   3   8   30.97    2.44
  -5   3  -8   26.45    3.03
   5   3   8   32.76    2.58
   5   3   8   30.76    2.44
   5   3   8   26.27    2.49
   5   3   8   30.54    2.52
  -5   3  -8   29.43    2.16
   5   3   8   30.07    2.46
   5   3   8   32.13    2.71
  -5   3  -8   29.87    2.35
   5   3   8   26.58    2.58
  -6  -3  -8   25.55    3.67
  -6   3  -8   29.94    3.31
   6   3   8   30.25    2.54
  -7   3  -8    1.92    1.71
  -7  -4   8    6.11    1.58
  -7  -4   8    4.54    1.27
  -7  -4   8    4.71    1.31
  -6  -4   8   15.32    1.86
  -6  -4   8   15.83    1.80
  -6  -4   8   17.71    2.11
   6  -4  -8   16.01    1.89
   6   4  -8   15.65    1.78
   6   4  -8   15.17    1.67
   6   4  -8   13.26    1.50
  -6   4   8   13.28    1.73
  -5  -4   8   10.71    1.57
   5  -4  -8   12.36    1.44
  -5  -4   8    8.80    1.30
   5  -4  -8   10.29    1.06
  -5  -4   8    9.87    1.45
   5   4  -8    8.04    1.02
   5   4  -8    7.45    1.12
  -5   4   8    7.24    1.25
   5   4  -8    7.76    1.20
   4  -4  -8   25.85    2.08
  -4  -4   8   24.58    2.32
  -4  -4   8   26.84    2.28
  -4  -4   8   27.76    2.62
  -4   4   8   29.88    2.44
   4   4  -8   32.79    2.31
   4   4  -8   30.88    2.34
   4   4  -8   32.09    2.22
  -4   4   8   31.73    2.10
   3  -4  -8   36.81    2.44
  -3  -4   8   36.47    2.99
  -3  -4   8   34.80    2.70
  -3  -4   8   34.68    2.72
  -3   4   8   31.83    2.69
   3   4  -8   34.64    2.42
   3   4  -8   37.74    2.64
   3   4  -8   35.01    2.63
  -3   4   8   35.96    2.49
  -2  -4   8   39.84    2.88
  -2  -4   8   39.14    3.08
   2  -4  -8   42.16    2.82
  -2  -4   8   39.24    3.30
   2  -4  -8   40.90    2.60
  -2  -4   8   37.31    3.07
  -2   4   8   46.29    2.86
  -2   4   8   41.36    2.94
  -2   4   8   46.18    2.85
   2   4  -8   41.26    3.00
   2   4  -8   44.47    2.83
  -2   4   8   43.57    2.85
  -2   4   8   42.92    3.12
  -1  -4   8   44.94    3.00
  -1  -4   8   47.14    2.93
  -1  -4   8   48.94    3.20
  -1  -4   8   45.12    2.87
  -1  -4   8   45.83    2.92
  -1  -4   8   43.92    3.30
  -1  -4   8   40.64    3.35
   1  -4  -8   47.89    3.08
  -1  -4   8   44.39    2.98
  -1  -4   8   44.21    3.66
  -1   4   8   49.83    3.13
   1   4  -8   45.76    3.05
  -1   4   8   53.03    3.15
   1   4  -8   44.34    2.90
  -1   4   8   47.87    3.43
   1   4  -8   47.47    3.05
   1   4  -8   46.29    3.25
  -1   4   8   48.11    3.18
  -1   4   8   49.78    3.08
  -1   4   8   45.99    3.14
  -1   4   8   47.94    3.17
   0  -4   8   51.28    3.31
   0  -4   8   49.02    3.99
   0  -4   8   53.97    3.38
   0  -4   8   55.74    3.42
   0  -4  -8   49.65    4.36
   0  -4   8   52.95    3.26
   0  -4   8   54.04    3.32
   0  -4   8   53.50    3.58
   0  -4   8   53.28    3.32
   0   4   8   57.55    3.42
   0   4   8   48.54    3.51
   0   4   8   52.17    3.49
   0   4   8   49.53    3.72
   0   4   8   52.87    3.55
   0   4   8   48.43    3.42
   0   4   8   51.23    3.46
   0   4   8   47.28    3.60
   0   4  -8   52.81    3.26
   0   4   8   52.65    3.42
   0   4   8   53.35    3.73
   0   4   8   52.31    3.42
   0   4  -8   52.14    3.36
   0   4  -8   50.69    3.62
   0   4  -8   53.13    3.37
  -1  -4  -8   20.72    2.10
   1   4   8   14.00    1.45
  -1   4  -8   16.54    1.31
  -1   4  -8   13.25    1.23
   1   4   8   14.14    1.23
   1   4   8   14.35    1.35
   1   4   8   14.30    1.45
   1   4   8   14.01    1.45
   1   4   8   14.06    1.37
   1   4   8   14.16    1.42
   1   4   8   16.21    1.37
  -1   4  -8   15.51    1.47
   1   4   8   14.90    1.38
   1   4   8   14.45    1.23
  -1   4  -8   16.89    1.27
   1   4   8   15.64    1.35
   2  -4   8   36.33    2.68
   2  -4   8   37.84    2.63
   2  -4   8   42.34    2.65
  -2  -4  -8   36.58    3.57
   2  -4   8   36.63    2.54
   2  -4   8   40.59    2.65
  -2  -4  -8   39.82    3.27
   2  -4   8   39.15    2.63
   2  -4   8   37.86    2.80
  -2   4  -8   34.67    2.56
   2   4   8   35.00    2.81
   2   4   8   37.23    2.86
   2   4   8   36.99    2.75
   2   4   8   34.26    2.57
   2   4   8   39.27    2.89
   2   4   8   41.21    2.78
   2   4   8   37.73    2.79
  -2   4  -8   37.04    2.47
   2   4   8   40.16    2.77
   2   4   8   36.29    2.69
  -2   4  -8   37.31    2.62
  -2   4  -8   38.46    3.22
   2   4   8   41.35    2.75
   3  -4   8    7.11    1.08
   3  -4   8    6.30    1.00
  -3  -4  -8    6.61    1.40
   3  -4   8    7.88    1.12
   3  -4   8    6.63    1.03
   3  -4   8    6.95    1.06
   3  -4   8    8.59    1.07
   3  -4   8    7.15    1.06
   3   4   8    9.20    1.23
   3   4   8    9.19    1.08
   3   4   8    8.36    1.13
   3   4   8    7.78    1.03
  -3   4  -8    7.88    1.06
   3   4   8    9.30    1.13
  -3   4  -8    7.76    0.99
  -3   4  -8    8.26    0.97
   3   4   8    8.89    1.24
  -3   4  -8    9.24    1.22
   3   4   8    9.03    1.13
   3   4   8    8.84    1.17
   3   4   8    8.67    1.35
   4  -4   8   20.19    1.77
   4  -4   8   19.57    1.81
   4  -4   8   20.13    1.74
   4  -4   8   18.69    1.87
  -4  -4  -8   14.68    2.52
   4  -4   8   20.16    1.71
   4  -4   8   19.62    1.88
   4  -4   8   18.14    1.70
   4   4   8   21.05    1.92
   4   4   8   20.70    2.02
   4   4   8   22.29    1.86
  -4   4  -8   19.56    1.77
   4   4   8   16.23    1.73
  -4   4  -8   20.19    2.24
   4   4   8   20.88    1.97
   4   4   8   20.07    1.85
   4   4   8   21.26    1.82
  -4   4  -8   19.50    1.79
   4   4   8   21.64    1.78
  -4   4  -8   19.18    1.70
   4   4   8   23.13    1.99
  -5  -4  -8    5.87    1.71
   5  -4   8    8.07    1.38
   5  -4   8    8.49    1.44
   5   4   8   11.18    1.50
  -5   4  -8    8.27    1.13
  -5   4  -8    9.68    1.61
   5   4   8    8.10    1.40
  -5   4  -8   10.22    1.23
   5   4   8   10.13    1.40
   5   4   8   10.47    1.47
   5   4   8   10.17    1.37
   5   4   8   10.82    1.38
   5   4   8   11.27    1.55
  -6  -4  -8    8.73    2.26
  -6   4  -8    6.25    1.66
  -7  -5   8    5.01    1.34
  -7  -5   8    1.91    1.46
  -7  -5   8    5.83    1.72
  -6  -5   8    0.72    1.18
  -6  -5   8    0.99    0.94
  -6  -5   8    1.18    0.99
   6   5  -8    1.20    0.87
  -5  -5   8   -0.23    0.99
  -5  -5   8   -0.20    1.05
  -5  -5   8   -0.20    0.73
  -5   5   8    0.61    0.65
   5   5  -8   -0.26    0.80
   5   5  -8    0.08    0.80
   5   5  -8   -0.21    0.64
  -4  -5   8    1.44    0.89
  -4  -5   8    1.10    0.96
  -4  -5   8    1.18    0.99
   4   5  -8    2.80    0.64
  -4   5   8    2.59    0.71
  -4   5   8    2.19    0.70
   4   5  -8    2.33    0.69
   4   5  -8    2.69    0.68
  -3  -5   8   -0.08    0.82
  -3  -5   8    0.53    0.81
  -3  -5   8   -0.37    0.75
  -3   5   8    0.17    0.50
   3   5  -8   -0.09    0.38
   3   5  -8    0.27    0.63
   3   5  -8    0.99    0.67
  -2  -5   8    4.41    0.81
  -2  -5   8    4.94    0.84
   2  -5  -8    4.28    1.22
  -2  -5   8    5.89    1.07
  -2   5   8    4.79    0.89
   2   5  -8    4.13    0.80
   2   5  -8    3.80    0.74
   2   5  -8    3.41    0.69
  -1  -5   8   10.70    1.40
  -1  -5   8   13.54    1.02
   1  -5  -8   11.56    1.75
  -1  -5   8   12.25    1.52
  -1  -5   8   11.72    1.32
   1   5  -8   14.60    1.32
   1   5  -8   12.47    1.17
  -1   5   8   13.70    1.35
   1   5  -8   12.07    1.11
  -1   5   8   14.22    1.37
   1   5  -8   14.99    1.38
  -1   5   8   14.53    1.29
  -1   5   8   14.03    1.26
   0  -5   8   10.97    0.90
   0  -5   8    9.45    0.96
   0  -5   8    8.82    1.24
   0  -5   8   10.55    0.87
   0  -5   8    9.94    0.90
   0  -5  -8   10.48    1.54
   0  -5   8   10.57    0.97
   0  -5   8    8.87    1.25
   0  -5   8    9.62    0.92
   0  -5   8    9.13    0.94
   0   5   8   10.06    1.22
   0   5   8    9.45    1.20
   0   5  -8   12.01    1.08
   0   5  -8   11.30    1.22
   0   5   8   13.57    1.13
   0   5   8   12.39    1.22
   0   5  -8   10.46    1.04
   0   5   8   10.14    1.11
   0   5   8   13.19    1.33
   0   5   8   11.40    1.19
   0   5   8   10.76    1.25
   0   5   8   11.89    1.23
   0   5   8   13.67    1.18
   0   5  -8   13.55    1.22
   1  -5   8   19.15    1.48
   1  -5   8   16.48    1.71
  -1  -5  -8   18.43    2.12
   1  -5   8   19.23    1.43
  -1  -5  -8   19.49    1.95
   1  -5   8   20.21    1.42
   1  -5   8   18.71    1.39
   1  -5   8   19.50    1.35
   1  -5   8   21.12    1.39
   1  -5   8   20.45    1.47
   1   5   8   16.56    1.67
  -1   5  -8   15.48    1.45
   1   5   8   15.98    1.49
   1   5   8   16.76    1.51
   1   5   8   15.82    1.50
   1   5   8   16.08    1.49
   1   5   8   14.78    1.48
   1   5   8   17.11    1.65
  -1   5  -8   14.38    1.50
   1   5   8   16.17    1.52
   1   5   8   14.78    1.64
  -1   5  -8   14.61    1.40
  -1   5  -8   17.55    1.65
   1   5   8   17.45    1.52
   1   5   8   16.03    1.54
   2  -5   8   19.72    1.66
   2  -5   8   19.92    1.55
   2  -5   8   20.17    1.59
   2  -5   8   19.68    1.55
  -2  -5  -8   18.75    1.97
   2  -5   8   18.32    1.51
   2  -5   8   18.87    1.54
   2  -5   8   19.61    1.61
  -2  -5  -8   17.20    2.22
   2   5   8   17.29    1.61
   2   5   8   20.94    1.56
   2   5   8   19.36    1.65
   2   5   8   18.82    1.74
   2   5   8   16.78    1.82
   2   5   8   20.23    1.61
  -2   5  -8   18.83    1.56
   2   5   8   17.59    1.63
  -2   5  -8   17.39    1.48
   2   5   8   16.96    1.81
  -2   5  -8   19.26    1.66
   2   5   8   18.38    1.65
   2   5   8   19.34    1.64
   3  -5   8   19.36    1.73
   3  -5   8   15.69    1.48
   3  -5   8   17.22    1.54
   3  -5   8   17.80    1.59
   3  -5   8   18.54    1.53
   3  -5   8   19.82    1.56
  -3  -5  -8   13.93    2.22
   3  -5   8   17.85    1.47
   3   5   8   17.60    1.84
  -3   5  -8   18.65    1.68
  -3   5  -8   14.40    1.53
   3   5   8   13.37    1.64
   3   5   8   16.72    1.75
   3   5   8   17.30    1.79
  -3   5  -8   16.43    1.59
   3   5   8   15.45    1.92
   3   5   8   18.02    1.70
   3   5   8   16.71    1.61
   3   5   8   19.39    1.80
   3   5   8   18.32    1.65
  -4  -5  -8   20.89    2.89
   4  -5   8   26.34    2.12
   4  -5   8   28.76    2.14
   4  -5   8   28.45    2.26
   4  -5   8   29.15    2.19
   4  -5   8   27.72    2.37
   4  -5   8   29.63    2.18
   4  -5   8   28.90    2.11
   4   5   8   24.33    2.12
   4   5   8   28.00    2.30
   4   5   8   21.93    2.29
   4   5   8   26.91    2.19
   4   5   8   25.36    2.34
   4   5   8   24.38    2.27
   4   5   8   23.98    2.41
   4   5   8   25.22    2.39
  -4   5  -8   23.91    2.12
  -4   5  -8   22.01    2.15
   4   5   8   25.89    2.36
  -5  -5  -8   16.54    2.81
   5   5   8   14.58    1.83
   5   5   8   15.05    1.74
   5   5   8   16.40    1.77
   5   5   8   17.00    1.72
  -6  -5  -8    9.92    2.54
  -7  -6   8    8.11    1.98
  -7  -6   8    6.28    1.55
  -7  -6   8    7.56    1.83
   7  -6  -8    4.97    2.18
  -6  -6   8    6.88    1.63
  -6  -6   8    5.31    1.49
  -6  -6   8    7.26    1.75
   6  -6  -8    4.32    1.64
  -5  -6   8    4.21    1.41
  -5  -6   8    3.84    1.24
  -5  -6   8    3.44    1.31
   5  -6  -8    1.70    1.22
  -5   6   8    3.13    0.91
   5   6  -8    3.59    1.03
   5   6  -8    3.33    1.01
  -4  -6   8   11.61    1.57
  -4  -6   8   11.33    1.45
   4  -6  -8    6.91    1.86
  -4  -6   8   11.14    1.38
   4   6  -8   11.18    1.33
  -4   6   8    9.71    1.43
   4   6  -8   11.93    1.38
  -4   6   8   10.92    1.28
  -3  -6   8   44.33    3.15
  -3  -6   8   43.46    3.51
  -3  -6   8   46.05    3.23
   3  -6  -8   41.49    3.93
   3   6  -8   39.79    2.80
   3   6  -8   41.43    3.10
   3   6  -8   39.41    2.85
  -3   6   8   39.88    3.18
  -2  -6   8   30.31    2.63
  -2  -6   8   32.87    2.84
   2  -6  -8   27.17    3.26
  -2  -6   8   31.70    2.58
   2   6  -8   36.51    2.50
   2   6  -8   31.33    2.23
  -2   6   8   34.87    2.68
   2   6  -8   35.54    2.37
   2   6  -8   36.10    2.40
  -1  -6   8   16.41    1.54
  -1  -6   8   15.24    1.69
   1  -6  -8   17.40    2.17
  -1  -6   8   15.11    1.55
  -1   6   8   15.09    1.59
   1   6  -8   17.25    1.58
   1   6  -8   16.45    1.55
   1   6  -8   16.60    1.47
  -1   6   8   18.08    1.66
  -1   6   8   18.19    1.62
   1   6  -8   17.70    1.56
  -1   6   8   16.69    1.61
   0  -6   8   18.45    1.87
   0  -6  -8   17.91    2.25
   0  -6   8   22.55    2.11
   0   6   8   21.23    1.71
   0   6   8   19.34    1.74
   0   6  -8   21.24    1.56
   0   6   8   20.05    1.85
   0   6   8   18.24    1.78
   0   6   8   19.42    1.71
   0   6  -8   19.51    1.71
   0   6   8   17.71    1.79
   0   6  -8   21.11    1.78
   0   6   8   22.65    1.79
   0   6  -8   18.86    1.60
   0   6   8   19.58    1.77
   0   6   8   21.30    1.82
   0   6   8   19.84    1.72
   1  -6   8   19.82    1.49
  -1  -6  -8   19.84    2.39
   1  -6   8   21.55    1.60
   1  -6   8   19.29    1.90
  -1  -6  -8   18.56    2.03
   1  -6   8   20.33    1.58
   1  -6   8   20.68    1.53
  -1   6  -8   19.35    1.61
   1   6   8   15.73    1.80
  -1   6  -8   20.05    1.72
   1   6   8   19.13    1.59
   1   6   8   18.95    1.71
   1   6   8   17.07    1.67
   1   6   8   14.31    1.63
  -1   6  -8   17.65    1.77
  -1   6  -8   18.42    1.51
   1   6   8   21.72    1.73
   1   6   8   20.43    1.70
   1   6   8   21.10    1.82
   1   6   8   18.12    1.83
   1   6   8   20.20    1.69
   1   6   8   20.40    1.81
   2  -6   8   17.70    1.52
   2  -6   8   20.16    1.55
  -2  -6  -8   18.20    2.04
  -2  -6  -8   15.70    2.50
   2  -6   8   17.95    1.51
   2  -6   8   14.80    1.80
   2  -6   8   16.35    1.54
   2   6   8   17.66    1.64
  -2   6  -8   18.31    1.71
   2   6   8   16.20    1.50
   2   6   8   18.71    1.65
  -2   6  -8   19.27    1.65
   2   6   8   18.32    1.80
   2   6   8   17.28    1.61
   2   6   8   16.80    1.70
  -2   6  -8   20.95    1.60
   2   6   8   19.91    1.72
   2   6   8   18.32    1.85
   2   6   8   17.10    1.62
  -3  -6  -8   17.06    2.60
   3  -6   8   19.82    1.74
   3  -6   8   17.64    1.76
   3  -6   8   17.27    2.07
   3  -6   8   22.07    1.73
   3  -6   8   18.14    1.72
   3   6   8   15.76    1.79
   3   6   8   15.86    1.79
   3   6   8   18.45    1.85
   3   6   8   18.59    1.90
  -3   6  -8   17.59    1.55
  -3   6  -8   17.51    1.77
   3   6   8   15.57    1.87
  -3   6  -8   16.58    1.72
   3   6   8   15.94    1.88
   3   6   8   16.18    1.83
   3   6   8   15.85    1.72
   3   6   8   16.51    1.70
   3   6   8   18.66    1.67
   4  -6   8    4.04    1.09
  -4  -6  -8    2.36    1.33
   4  -6   8    2.48    1.06
   4  -6   8    4.48    1.07
   4  -6   8    4.35    0.91
   4  -6   8    3.21    0.84
   4   6   8    3.09    0.90
   4   6   8    4.21    1.09
  -4   6  -8    2.76    1.06
   4   6   8    2.83    1.12
   4   6   8    3.84    1.22
   4   6   8    3.89    1.14
   4   6   8    3.84    0.97
   4   6   8    2.75    1.11
  -5  -6  -8    2.78    1.85
   5   6   8    1.07    1.18
  -6  -7   8    1.38    1.27
   6  -7  -8    1.64    1.41
  -6  -7   8    1.28    1.45
  -6  -7   8    1.70    1.34
  -5  -7   8    0.17    0.89
  -5  -7   8    0.65    0.89
   5  -7  -8    1.67    1.31
  -5  -7   8    1.25    1.10
  -5   7   8    0.35    0.89
  -4  -7   8   -0.27    0.98
   4  -7  -8   -0.86    1.40
  -4  -7   8    1.48    0.94
  -4  -7   8    0.63    1.05
  -4   7   8    1.33    0.86
   4   7  -8   -0.28    0.78
  -4   7   8    0.08    0.66
   4   7  -8   -0.32    0.79
   4   7  -8    1.10    0.85
  -3  -7   8    1.61    1.03
  -3  -7   8    1.83    0.93
   3  -7  -8    0.71    1.02
  -3  -7   8    1.81    0.98
  -3   7   8    0.24    0.82
  -3   7   8    2.17    0.71
   3   7  -8    1.37    0.77
   3   7  -8    1.74    0.84
   3   7  -8    0.99    0.79
   3   7  -8    2.77    0.75
  -2  -7   8    0.47    0.90
  -2  -7   8   -0.77    0.67
  -2  -7   8   -0.32    0.84
   2  -7  -8    1.07    0.96
  -2   7   8   -0.42    0.51
   2   7  -8    0.65    0.57
   2   7  -8   -0.03    0.76
   2   7  -8    0.61    0.55
   2   7  -8   -0.07    0.67
  -1  -7   8    1.63    0.95
  -1  -7   8    3.20    0.90
  -1  -7   8    2.32    0.98
   1  -7  -8    3.55    1.38
  -1   7   8    2.63    0.88
   1   7  -8    3.43    0.73
  -1   7   8    2.56    0.75
  -1   7   8    4.41    0.78
   1   7  -8    2.52    0.82
  -1   7   8    3.02    0.91
   1   7  -8    3.86    0.91
   1   7  -8    2.59    0.89
   0  -7   8   18.35    2.03
   0  -7   8   18.57    1.98
   0  -7  -8   20.70    2.30
   0  -7   8   21.24    2.02
   0   7   8   20.32    1.79
   0   7   8   20.40    1.83
   0   7   8   22.19    1.82
   0   7   8   21.61    1.82
   0   7   8   22.09    1.93
   0   7   8   21.76    1.85
   0   7   8   19.34    1.75
   0   7   8   22.73    1.86
   0   7   8   18.93    1.88
   0   7   8   22.62    1.89
   0   7  -8   19.83    1.63
   0   7  -8   23.95    1.90
   0   7  -8   22.09    1.72
   0   7  -8   19.77    1.85
  -1  -7  -8   11.76    1.72
   1  -7   8   10.83    1.50
  -1   7  -8   11.49    1.26
   1   7   8   13.05    1.48
   1   7   8   12.25    1.49
  -1   7  -8   11.90    1.30
   1   7   8   11.00    1.39
  -1   7  -8   15.02    1.46
   1   7   8   11.49    1.40
   1   7   8   12.59    1.41
   1   7   8   11.04    1.42
   1   7   8   11.81    1.50
   1   7   8   12.38    1.49
  -1   7  -8   11.61    1.24
   1   7   8   11.24    1.38
   1   7   8   11.36    1.33
  -2  -7  -8   12.88    1.76
  -2  -7  -8   13.64    2.33
   2  -7   8   10.68    1.46
  -2   7  -8    8.79    1.31
  -2   7  -8    9.17    1.26
   2   7   8   10.14    1.32
   2   7   8    8.83    1.25
   2   7   8    8.53    1.16
   2   7   8    7.68    1.15
   2   7   8    9.53    1.24
  -2   7  -8   10.01    1.33
   2   7   8   10.38    1.48
   2   7   8    9.45    1.26
   2   7   8   10.16    1.39
   2   7   8    8.61    1.24
   2   7   8   10.06    1.26
  -3  -7  -8    1.48    1.66
   3  -7   8    2.46    0.90
   3  -7   8    1.49    1.13
   3   7   8    4.44    1.06
   3   7   8    3.34    0.92
   3   7   8    2.92    1.06
  -3   7  -8    3.68    0.89
   3   7   8    3.62    0.96
   3   7   8    3.77    1.05
   3   7   8    3.09    1.07
  -3   7  -8    5.28    1.10
  -3   7  -8    4.96    0.98
   3   7   8    4.65    1.15
   3   7   8    4.23    1.06
   3   7   8    3.77    1.14
  -4  -7  -8    6.20    2.08
   4  -7   8    4.69    1.17
   4   7   8    3.61    1.21
   4   7   8    4.21    1.22
   4   7   8    4.08    1.05
  -5  -7  -8   25.00    3.66
   5  -7   8   29.72    2.89
   5   7   8   31.90    2.69
   5  -8  -8    2.09    1.44
  -5  -8   8    3.75    1.73
  -5  -8   8    6.14    1.46
  -5  -8   8    2.35    1.41
  -5   8   8    2.81    1.18
  -4  -8   8   10.83    1.72
  -4  -8   8   12.38    1.89
   4  -8  -8   10.51    2.35
  -4  -8   8   12.35    1.72
   4   8  -8   13.22    1.44
  -4   8   8   10.57    1.53
  -3  -8   8   18.33    1.99
  -3  -8   8   13.28    1.81
   3  -8  -8   14.41    2.35
  -3  -8   8   18.21    2.28
   3   8  -8   16.78    1.72
   3   8  -8   17.58    1.68
  -3   8   8   15.95    1.88
   3   8  -8   17.86    1.64
  -3   8   8   15.19    1.65
   3   8  -8   19.03    1.79
  -2  -8   8   14.51    1.70
   2  -8  -8   14.53    2.34
  -2  -8   8   12.86    1.91
  -2  -8   8   16.19    1.74
   2   8  -8   11.83    1.43
   2   8  -8   11.96    1.41
   2   8  -8   12.51    1.49
  -2   8   8   12.22    1.59
   2   8  -8   16.15    1.60
  -1  -8   8   18.17    1.94
   1  -8  -8   17.20    2.38
  -1  -8   8   18.67    2.04
  -1  -8   8   17.30    1.94
  -1   8   8   20.34    1.97
   1   8  -8   19.95    1.79
   1   8  -8   18.72    1.77
  -1   8   8   17.26    1.89
   1   8  -8   16.83    1.55
   1   8  -8   18.20    1.85
  -1   8   8   21.00    1.89
   0  -8   8    8.35    1.39
   0  -8   8   11.87    1.53
   0  -8   8   10.42    1.66
   0  -8  -8   10.88    1.82
   0   8   8   10.34    1.35
   0   8   8   10.94    1.48
   0   8   8   11.72    1.34
   0   8   8   11.41    1.33
   0   8  -8    9.79    1.37
   0   8  -8   10.16    1.29
   0   8   8   11.87    1.52
   0   8   8   10.18    1.42
   0   8  -8   10.51    1.20
   0   8   8    8.60    1.24
   0   8   8   12.67    1.54
   0   8   8   11.03    1.34
   0   8  -8   11.24    1.36
   0   8   8   10.08    1.33
   1  -8   8   17.86    1.96
  -1  -8  -8   17.02    2.21
   1  -8   8   16.60    2.06
   1   8   8   15.60    1.70
  -1   8  -8   15.28    1.64
   1   8   8   15.28    1.81
   1   8   8   16.30    1.76
  -1   8  -8   15.67    1.75
   1   8   8   17.79    1.84
   1   8   8   19.30    1.75
   1   8   8   17.22    1.64
   1   8   8   16.60    1.78
  -1   8  -8   15.81    1.63
   1   8   8   14.61    1.62
   1   8   8   16.16    1.84
   1   8   8   14.76    1.67
  -2  -8  -8    4.45    1.48
   2  -8   8    6.99    1.29
  -2  -8  -8    4.41    1.97
   2   8   8    5.82    1.19
   2   8   8    6.65    1.30
   2   8   8    6.84    1.26
   2   8   8    7.05    1.27
   2   8   8    6.59    1.23
   2   8   8    7.20    1.11
   2   8   8    5.65    1.21
   2   8   8    5.97    1.28
   2   8   8    7.30    1.13
  -2   8  -8    4.48    1.14
  -3  -8  -8    8.35    1.96
   3  -8   8    9.38    1.43
   3   8   8    5.26    1.08
   3   8   8    4.92    1.10
   3   8   8    7.10    1.18
   3   8   8    7.58    1.33
   3   8   8    6.73    1.18
  -4  -8  -8    3.79    2.06
   4  -8   8    3.97    1.44
   4   8   8    5.33    1.37
   4   8   8    3.15    1.32
  -5  -9   8    2.29    1.14
  -5   9   8    2.95    1.33
  -4  -9   8    0.82    1.26
  -4  -9   8    1.49    1.21
  -4  -9   8    0.48    1.15
   4  -9  -8    1.81    1.85
  -4   9   8    2.11    0.94
  -3  -9   8   -0.14    0.99
   3  -9  -8    0.03    1.64
  -3  -9   8    0.74    1.02
  -3  -9   8    2.58    1.18
  -3   9   8    1.76    1.11
  -2  -9   8    4.77    1.20
  -2  -9   8    4.03    0.99
  -2  -9   8    2.46    1.42
   2  -9  -8    0.82    1.59
   2   9  -8    0.67    0.90
  -2   9   8    2.78    1.04
  -2   9   8    2.75    0.89
  -1  -9   8    2.36    1.13
  -1  -9   8    3.99    1.42
  -1  -9   8    3.61    1.19
   1  -9  -8    4.39    1.76
  -1   9   8    5.15    1.07
   1   9  -8    5.90    1.07
   1   9  -8    4.52    1.06
   0  -9  -8    5.86    1.81
   0  -9   8    6.11    1.44
   0  -9   8    4.10    1.24
   0  -9   8    3.63    1.18
   0   9   8    8.73    1.24
   0   9   8    6.71    1.30
   0   9  -8    5.60    1.14
  -1  -9  -8    3.88    1.59
   1  -9   8    2.66    1.30
   1  -9   8    3.12    1.17
   1  -9   8    3.46    1.00
   1   9   8    2.67    0.84
   1   9   8    3.66    1.14
   1   9   8    4.25    1.16
   2  -9   8    2.59    1.31
  -2  -9  -8    5.95    1.69
   2   9   8    5.83    1.08
   2   9   8    3.98    0.98
   2   9   8    6.84    1.35
   3  -9   8   11.16    1.87
  -3  -9  -8   14.89    2.63
   3   9   8   10.79    1.65
   3   9   8   11.02    1.73
   3   9   8   11.71    1.54
   3 -10  -8   12.08    2.64
  -3 -10   8   14.64    2.35
  -3  10   8    8.56    1.64
   2 -10  -8    6.25    1.80
  -2 -10   8    5.86    1.70
  -2  10   8    1.99    0.98
  -1 -10   8   10.71    1.99
   1 -10  -8   14.47    2.33
  -1  10   8    9.82    1.62
   0 -10  -8   10.48    2.30
   1 -10   8    2.19    1.38
  -1 -10  -8    3.18    1.79
   1  10   8    5.01    1.24
   1  10   8    4.21    1.31
   2 -10   8    4.71    1.54
  -2 -10  -8    5.61    1.92
   2  10   8    5.23    1.43
   2  10   8    7.47    1.44
   2  10   8    8.18    1.45
  -8   0   9    0.37    1.30
  -8   0   9    1.44    1.08
  -7   0   9    2.29    1.30
  -6   0   9    3.21    0.92
  -6   0   9    3.89    1.20
   6   0  -9    3.28    0.80
   6   0  -9    2.40    0.83
  -6   0   9    3.19    0.89
  -5   0   9   11.14    1.21
  -5   0   9    8.85    1.25
  -5   0   9   10.63    1.25
   5   0  -9    9.95    1.23
  -5   0   9   10.03    1.26
   5   0  -9   11.23    1.26
   4   0  -9   29.82    2.21
   4   0  -9   27.93    2.34
  -4   0   9   26.61    2.17
  -4   0   9   29.34    2.29
  -4   0   9   27.37    2.32
  -4   0   9   29.33    2.29
  -4   0   9   28.49    1.98
   3   0  -9   87.20    6.39
  -3   0   9   89.92    5.56
  -3   0   9   88.55    6.07
  -3   0   9   89.91    5.58
  -3   0   9   89.16    5.63
  -3   0   9  103.41    6.58
  -3   0   9   91.44    6.20
   3   0  -9   90.40    5.98
   3   0  -9   94.36    5.58
  -3   0   9   89.17    5.70
  -3   0   9   85.33    6.27
  -2   0   9   22.33    1.63
  -2   0   9   22.79    1.66
   2   0  -9   23.72    1.76
   2   0  -9   22.58    1.66
  -2   0   9   24.06    1.80
  -2   0   9   26.20    1.95
  -2   0   9   20.64    1.70
  -2   0   9   23.51    1.88
  -2   0   9   24.32    1.97
  -2   0   9   25.22    1.69
  -2   0   9   25.72    1.69
  -2   0   9   22.69    1.75
  -1   0   9   40.25    2.92
   1   0  -9   38.27    2.57
  -1   0   9   39.22    2.83
  -1   0   9   37.72    2.94
  -1   0   9   41.71    2.68
  -1   0   9   40.41    2.75
   1   0  -9   39.62    2.81
  -1   0   9   41.67    2.65
  -1   0   9   40.82    2.69
  -1   0   9   40.17    2.72
  -1   0   9   41.63    2.62
   0   0   9   42.55    2.85
   0   0  -9   40.72    2.59
   0   0   9   42.90    2.96
   0   0  -9   43.58    2.70
   0   0   9   43.73    2.71
   0   0   9   41.90    2.87
   0   0   9   42.71    3.15
   0   0   9   40.71    2.78
   0   0  -9   43.46    3.66
   0   0  -9   42.92    2.93
   0   0   9   41.28    3.08
   0   0  -9   43.51    2.69
   0   0   9   42.73    2.90
   0   0   9   42.35    2.83
   1   0   9   64.50    4.54
   1   0   9   64.35    4.09
  -1   0  -9   63.46    3.98
   1   0   9   68.98    4.20
   1   0   9   65.81    4.21
  -1   0  -9   61.86    4.03
  -1   0  -9   63.61    4.36
  -1   0  -9   63.65    3.85
   1   0   9   64.27    4.27
  -1   0  -9   60.40    5.42
   1   0   9   70.61    4.61
   1   0   9   68.33    4.20
   1   0   9   66.46    4.38
   1   0   9   68.93    4.31
  -2   0  -9   46.08    4.15
  -2   0  -9   45.04    2.89
   2   0   9   50.04    3.32
   2   0   9   46.91    3.32
   2   0   9   46.17    3.20
  -2   0  -9   45.36    3.06
   2   0   9   48.55    3.34
   2   0   9   51.09    3.28
   2   0   9   48.72    3.24
   2   0   9   51.42    3.08
   2   0   9   48.57    3.44
   2   0   9   45.07    3.21
  -2   0  -9   47.94    2.99
   3   0   9   34.22    2.40
  -3   0  -9   31.56    2.13
   3   0   9   32.21    2.34
   3   0   9   29.62    2.29
   3   0   9   29.97    2.36
   3   0   9   29.05    2.41
   3   0   9   30.76    2.32
  -3   0  -9   29.64    2.01
   3   0   9   33.42    2.42
   3   0   9   32.64    2.53
  -3   0  -9   28.24    2.89
   3   0   9   31.39    2.28
  -3   0  -9   30.44    2.07
   4   0   9   29.92    2.48
   4   0   9   32.70    2.40
   4   0   9   30.33    2.37
   4   0   9   31.72    2.41
   4   0   9   31.18    2.68
   4   0   9   30.83    2.37
  -4   0  -9   28.10    2.99
   4   0   9   32.09    2.57
   4   0   9   29.03    2.33
  -4   0  -9   30.38    2.07
   4   0   9   31.22    2.36
   5   0   9    4.97    1.26
   5   0   9    3.68    1.19
   5   0   9    4.71    1.18
  -5   0  -9    4.62    1.28
   5   0   9    5.72    0.87
   5   0   9    6.14    1.09
   5   0   9    4.30    1.20
   5   0   9    4.53    1.20
   5   0   9    4.64    1.03
   5   0   9    4.19    0.98
  -6   0  -9    9.78    1.88
  -8  -1   9    8.28    1.92
  -7  -1   9    3.73    1.52
  -7  -1   9    2.17    1.05
  -7   1   9    3.25    1.25
   6  -1  -9    4.74    1.00
   6  -1  -9    3.42    1.10
  -6  -1   9    1.59    1.07
  -6  -1   9    2.96    0.97
   6   1  -9    4.88    0.93
  -6   1   9    4.37    1.14
   6   1  -9    4.85    1.07
  -6   1   9    5.60    1.00
  -6   1   9    6.14    1.10
  -5  -1   9    1.72    0.96
  -5  -1   9    2.02    0.92
   5  -1  -9    2.28    0.88
   5  -1  -9    3.78    0.84
  -5  -1   9    2.94    0.88
  -5  -1   9    1.81    0.75
   5   1  -9    3.04    0.71
  -5   1   9    2.91    0.73
  -5   1   9    4.25    0.92
  -5   1   9    2.90    0.72
   5   1  -9    3.11    0.71
  -4  -1   9   11.23    1.29
  -4  -1   9    9.84    1.26
   4  -1  -9   10.37    1.18
   4  -1  -9   10.64    1.24
  -4  -1   9   11.32    1.36
  -4  -1   9   10.60    1.33
  -4   1   9   11.37    1.28
   4   1  -9   13.60    1.33
   4   1  -9   11.79    1.19
   4   1  -9   12.44    1.22
  -4   1   9   11.98    1.13
  -4   1   9   14.52    1.15
  -4   1   9   12.23    1.24
  -4   1   9   12.43    1.03
  -4   1   9   12.44    1.28
  -3  -1   9   21.51    1.77
  -3  -1   9   20.64    1.42
  -3  -1   9   20.38    1.71
  -3  -1   9   22.63    1.44
   3  -1  -9   21.42    1.63
   3  -1  -9   24.32    1.49
  -3  -1   9   22.59    1.38
  -3  -1   9   22.71    1.51
  -3  -1   9   20.61    1.48
  -3  -1   9   19.55    1.64
  -3  -1   9   24.68    1.83
  -3   1   9   16.49    1.75
  -3   1   9   18.13    1.45
  -3   1   9   17.57    1.54
   3   1  -9   16.80    1.47
  -3   1   9   19.67    1.58
   3   1  -9   18.25    1.70
   3   1  -9   18.19    1.58
  -3   1   9   19.25    1.64
  -3   1   9   18.57    1.65
   2  -1  -9    7.02    0.79
  -2  -1   9    8.23    0.76
  -2  -1   9    7.70    1.02
  -2  -1   9    8.19    1.04
  -2  -1   9    7.56    0.77
  -2  -1   9    8.28    0.99
  -2  -1   9    8.31    0.79
   2  -1  -9    7.99    0.83
  -2  -1   9    9.05    0.83
  -2  -1   9    8.78    0.77
  -2  -1   9    6.61    0.78
  -2  -1   9    8.42    0.95
  -2  -1   9    7.47    1.00
   2   1  -9    7.48    0.88
   2   1  -9    7.64    0.82
  -2   1   9    8.33    0.94
  -2   1   9    7.85    0.90
  -2   1   9    7.24    0.82
  -2   1   9    9.14    0.87
  -2   1   9    9.02    0.94
  -2   1   9    8.40    0.89
  -2   1   9    7.54    0.94
  -2   1   9    8.54    0.88
  -2   1   9    9.36    0.91
  -1  -1   9   -0.53    0.45
  -1  -1   9    0.49    0.32
  -1  -1   9    0.34    0.41
  -1  -1   9    0.17    0.39
  -1  -1   9    0.26    0.52
  -1  -1   9    0.41    0.36
  -1  -1   9    0.57    0.39
  -1  -1   9   -0.19    0.35
  -1  -1   9   -0.41    0.44
   1  -1  -9   -0.22    0.41
  -1  -1   9    0.24    0.34
   1  -1  -9    0.09    0.34
  -1   1   9   -0.57    0.39
   1   1  -9    0.16    0.50
   1   1  -9    0.22    0.43
  -1   1   9   -0.22    0.40
  -1   1   9   -0.07    0.38
  -1   1   9   -0.43    0.49
  -1   1   9   -0.23    0.38
  -1   1   9   -0.32    0.41
  -1   1   9    0.03    0.43
  -1   1   9    0.09    0.45
  -1   1   9    0.37    0.35
  -1   1   9   -0.22    0.41
   0  -1  -9   17.51    1.79
   0  -1  -9   17.63    1.15
   0  -1  -9   17.23    1.38
   0  -1   9   17.12    1.17
   0  -1   9   16.13    1.31
   0  -1   9   17.33    1.39
   0  -1  -9   16.28    1.13
   0  -1  -9   16.62    1.20
   0  -1   9   17.16    1.34
   0  -1   9   16.88    1.48
   0  -1   9   16.48    1.54
   0  -1   9   16.33    1.32
   0  -1   9   19.02    1.35
   0  -1   9   17.37    1.33
   0   1   9   16.07    1.31
   0   1   9   15.68    1.44
   0   1   9   15.02    1.41
   0   1  -9   15.14    1.23
   0   1   9   16.03    1.43
   0   1   9   16.47    1.31
   0   1   9   16.88    1.41
   0   1  -9   16.72    1.24
   0   1   9   16.70    1.44
   0   1  -9   15.10    1.43
   0   1   9   17.52    1.42
   0   1   9   16.43    1.22
   0   1  -9   14.85    1.22
  -1  -1  -9   24.52    1.63
   1  -1   9   24.80    1.95
   1  -1   9   25.02    2.04
   1  -1   9   26.29    1.90
  -1  -1  -9   26.83    1.89
  -1  -1  -9   24.40    1.71
   1  -1   9   24.27    1.88
   1  -1   9   24.82    1.87
  -1  -1  -9   24.67    1.62
  -1  -1  -9   23.23    2.44
   1  -1   9   23.89    1.93
   1  -1   9   23.90    1.83
   1   1   9   26.74    1.91
   1   1   9   27.30    2.03
   1   1   9   25.92    1.95
   1   1   9   25.97    1.80
  -1   1  -9   26.96    1.75
  -1   1  -9   25.85    1.81
   1   1   9   25.39    1.92
   1   1   9   26.19    1.97
  -1   1  -9   25.93    2.33
   1   1   9   25.49    1.87
   1   1   9   25.03    1.92
   1   1   9   25.44    1.91
  -1   1  -9   26.42    1.94
  -1   1  -9   26.99    1.73
   1   1   9   27.25    2.07
  -2  -1  -9    7.02    0.60
   2  -1   9    6.76    0.84
   2  -1   9    7.14    0.86
  -2  -1  -9    5.26    1.09
   2  -1   9    7.77    0.95
   2  -1   9    7.29    0.80
   2  -1   9    6.18    0.82
   2  -1   9    7.19    0.83
  -2  -1  -9    5.76    0.69
   2  -1   9    6.46    0.96
   2  -1   9    7.40    0.66
   2  -1   9    7.19    0.90
   2  -1   9    7.08    0.83
   2   1   9    3.09    0.83
   2   1   9    3.55    0.74
   2   1   9    4.37    0.87
  -2   1  -9    3.52    0.65
   2   1   9    5.13    0.90
   2   1   9    4.19    0.78
   2   1   9    3.80    0.76
  -2   1  -9    3.31    0.70
   2   1   9    3.34    0.58
   2   1   9    3.94    0.75
  -2   1  -9    4.28    0.95
  -2   1  -9    3.00    0.62
   2   1   9    3.17    0.83
   3  -1   9   10.40    1.13
   3  -1   9   10.41    1.25
   3  -1   9   10.18    1.27
   3  -1   9   10.62    1.02
   3  -1   9    9.42    1.25
   3  -1   9   11.68    1.32
   3  -1   9   11.36    1.34
  -3  -1  -9    9.60    1.07
   3  -1   9   11.71    1.27
   3  -1   9   12.31    1.35
   3  -1   9    9.39    1.17
  -3  -1  -9   10.16    0.96
  -3  -1  -9   10.43    1.58
   3   1   9   12.58    1.33
  -3   1  -9   12.51    1.61
  -3   1  -9   11.40    1.19
   3   1   9   12.25    1.13
  -3   1  -9   13.24    1.12
   3   1   9   12.03    1.29
   3   1   9   13.17    1.41
   3   1   9   14.37    1.32
   3   1   9   13.30    1.50
   3   1   9   12.65    1.38
   3   1   9   12.78    1.41
   3   1   9   13.72    1.33
  -3   1  -9   12.69    1.06
   4  -1   9   25.47    2.13
   4  -1   9   22.85    2.15
   4  -1   9   22.63    1.93
   4  -1   9   25.49    2.06
   4  -1   9   22.69    2.00
   4  -1   9   22.84    2.12
  -4  -1  -9   23.44    2.61
   4  -1   9   27.36    2.19
   4  -1   9   24.11    2.07
   4  -1   9   25.86    2.26
   4   1   9   26.68    2.27
  -4   1  -9   24.20    1.82
   4   1   9   25.02    2.27
   4   1   9   25.94    2.21
   4   1   9   23.88    2.22
   4   1   9   29.03    2.41
   4   1   9   26.42    2.19
   4   1   9   25.30    2.19
  -4   1  -9   25.10    2.01
   4   1   9   23.55    2.18
   4   1   9   24.47    2.04
  -4   1  -9   19.79    2.59
  -4   1  -9   25.96    1.85
   5  -1   9   17.79    1.93
   5  -1   9   19.14    1.89
   5  -1   9   18.90    1.93
   5  -1   9   15.79    2.00
   5  -1   9   17.64    1.85
   5  -1   9   20.79    2.00
  -5  -1  -9   16.91    2.55
   5  -1   9   22.63    2.12
   5  -1   9   17.87    1.96
   5   1   9   21.12    1.94
  -5   1  -9   16.57    2.45
   5   1   9   18.40    1.95
   5   1   9   18.35    1.88
   5   1   9   18.32    1.85
   5   1   9   21.72    1.87
   5   1   9   21.40    1.94
   5   1   9   21.84    2.24
   5   1   9   19.07    1.90
   5   1   9   20.66    2.11
  -5   1  -9   18.48    1.69
  -6  -1  -9   18.01    2.71
   6   1   9   13.58    1.53
  -6   1  -9   11.60    2.32
  -8  -2   9    3.15    1.69
  -7  -2   9    4.71    1.46
  -7  -2   9    3.51    1.22
  -7   2   9    5.77    1.08
  -6  -2   9   11.46    1.65
   6  -2  -9   11.37    1.44
  -6  -2   9   12.34    1.62
   6  -2  -9   12.25    1.38
  -6  -2   9   12.16    1.57
   6   2  -9   10.69    1.34
   6   2  -9   10.71    1.44
  -6   2   9   11.15    1.49
  -6   2   9   11.34    1.49
  -5  -2   9    8.66    1.35
  -5  -2   9    8.73    1.42
  -5  -2   9    9.45    1.25
   5  -2  -9   10.42    1.19
   5  -2  -9    9.45    1.36
  -5  -2   9    9.64    1.27
   5   2  -9   12.01    1.22
  -5   2   9   11.46    1.31
  -5   2   9   11.39    1.33
  -5   2   9   12.11    1.33
   5   2  -9   10.72    1.20
   5   2  -9   10.45    1.21
  -4  -2   9    8.26    1.05
  -4  -2   9    8.73    1.21
  -4  -2   9    8.96    1.09
   4  -2  -9    8.74    1.14
   4  -2  -9    8.67    0.95
  -4  -2   9    7.81    1.04
  -4   2   9    7.95    1.00
   4   2  -9    6.34    0.88
   4   2  -9    5.68    0.87
  -4   2   9    7.50    1.02
  -4   2   9    6.68    0.82
   4   2  -9    7.32    1.05
  -4   2   9    6.81    0.92
  -4   2   9    6.08    1.07
  -3  -2   9   33.80    2.57
   3  -2  -9   28.05    2.20
  -3  -2   9   30.34    2.04
  -3  -2   9   30.94    2.39
  -3  -2   9   28.01    2.40
  -3  -2   9   29.23    2.36
  -3   2   9   32.26    2.27
  -3   2   9   29.71    2.12
  -3   2   9   30.64    2.24
   3   2  -9   30.08    2.26
  -3   2   9   33.17    2.24
   3   2  -9   32.01    2.38
  -3   2   9   31.53    2.47
   3   2  -9   30.29    2.17
  -2  -2   9  106.12    7.50
  -2  -2   9  103.36    6.26
   2  -2  -9  106.63    6.23
  -2  -2   9  106.30    6.92
  -2  -2   9   98.20    7.03
  -2  -2   9  103.98    6.90
  -2  -2   9  105.57    6.55
   2  -2  -9  103.41    6.70
  -2  -2   9  102.49    6.32
  -2  -2   9  105.60    6.42
  -2  -2   9  106.40    6.25
  -2  -2   9  104.03    7.11
  -2  -2   9  110.56    6.38
   2   2  -9   99.99    6.31
  -2   2   9  114.47    7.36
   2   2  -9   94.53    6.74
  -2   2   9  101.60    6.47
  -2   2   9  100.90    6.92
  -2   2   9   99.27    6.38
  -2   2   9  102.07    6.54
  -2   2   9   98.76    7.10
  -2   2   9   97.45    6.77
  -1  -2   9   28.72    1.75
   1  -2  -9   27.04    1.86
  -1  -2   9   27.32    1.82
  -1  -2   9   25.14    1.97
  -1  -2   9   25.09    2.09
  -1  -2   9   25.50    1.94
   1  -2  -9   28.27    1.70
  -1  -2   9   27.26    2.04
  -1  -2   9   26.67    1.73
  -1  -2   9   27.30    1.97
  -1  -2   9   26.07    1.73
  -1  -2   9   25.58    1.80
  -1  -2   9   27.59    1.73
   1   2  -9   23.41    1.81
  -1   2   9   23.10    1.80
  -1   2   9   21.13    1.92
  -1   2   9   23.61    2.04
   1   2  -9   23.10    1.67
  -1   2   9   23.19    1.83
  -1   2   9   23.91    1.86
  -1   2   9   22.44    1.81
  -1   2   9   27.34    1.85
  -1   2   9   23.54    1.87
   1   2  -9   24.26    1.96
  -1   2   9   22.38    1.78
  -1   2   9   23.72    1.90
   0  -2   9   59.41    4.29
   0  -2  -9   64.31    4.49
   0  -2   9   65.55    4.67
   0  -2   9   63.07    4.32
   0  -2   9   62.39    4.27
   0  -2   9   64.59    4.45
   0  -2  -9   61.68    3.95
   0  -2   9   63.83    4.25
   0  -2   9   65.81    4.38
   0  -2  -9   62.28    5.76
   0  -2  -9   64.82    4.09
   0  -2  -9   61.76    4.13
   0   2   9   73.25    4.50
   0   2   9   79.15    4.45
   0   2  -9   72.36    4.26
   0   2   9   69.72    4.76
   0   2   9   71.88    4.30
   0   2   9   71.49    4.37
   0   2  -9   73.93    4.28
   0   2  -9   71.24    4.59
   0   2   9   75.02    4.58
   0   2   9   74.59    4.56
   0   2  -9   75.57    4.10
   0   2   9   71.97    4.36
   0   2   9   69.16    4.45
   0   2   9   70.28    4.37
   0   2   9   74.59    4.81
  -1  -2  -9   58.51    3.34
  -1  -2  -9   56.60    4.65
   1  -2   9   58.91    3.77
   1  -2   9   59.51    3.75
   1  -2   9   64.83    4.05
  -1  -2  -9   58.94    3.52
  -1  -2  -9   55.39    4.96
   1  -2   9   55.91    3.68
   1  -2   9   57.18    3.69
   1  -2   9   65.55    3.53
   1  -2   9   58.27    3.71
   1  -2   9   59.05    3.86
   1   2   9   51.35    3.93
   1   2   9   55.88    3.74
   1   2   9   53.34    3.74
  -1   2  -9   57.24    3.63
  -1   2  -9   55.35    3.95
   1   2   9   52.23    3.66
  -1   2  -9   56.87    3.48
   1   2   9   58.03    3.80
  -1   2  -9   56.34    3.63
   1   2   9   54.54    3.81
   1   2   9   61.86    4.11
   1   2   9   56.99    4.09
  -1   2  -9   54.61    4.71
   1   2   9   55.50    3.91
   1   2   9   57.45    3.84
   2  -2   9   27.88    2.04
   2  -2   9   25.35    1.90
   2  -2   9   26.93    1.97
   2  -2   9   24.93    1.87
   2  -2   9   25.77    1.98
  -2  -2  -9   24.51    1.74
   2  -2   9   26.83    1.91
  -2  -2  -9   19.91    2.55
   2  -2   9   25.74    2.02
   2  -2   9   26.55    2.09
   2   2   9   25.96    2.00
   2   2   9   24.72    2.06
  -2   2  -9   25.46    2.37
   2   2   9   23.07    2.02
   2   2   9   27.79    2.00
   2   2   9   27.15    2.06
   2   2   9   27.02    2.06
   2   2   9   25.88    1.88
   2   2   9   25.78    2.07
  -2   2  -9   25.37    1.74
   2   2   9   27.33    2.10
  -2   2  -9   24.79    1.82
  -2   2  -9   25.49    1.91
   2   2   9   25.36    2.04
   3  -2   9   29.17    2.23
  -3  -2  -9   24.05    2.68
   3  -2   9   30.96    2.15
   3  -2   9   30.27    2.05
   3  -2   9   30.08    2.19
   3  -2   9   30.55    2.09
   3  -2   9   31.24    2.22
   3  -2   9   28.15    2.07
   3  -2   9   32.04    2.18
   3  -2   9   29.56    2.20
  -3   2  -9   23.39    1.82
   3   2   9   24.57    2.09
   3   2   9   24.43    2.14
   3   2   9   24.53    2.06
   3   2   9   26.30    2.11
   3   2   9   27.90    2.18
   3   2   9   24.01    2.41
   3   2   9   24.55    2.09
  -3   2  -9   23.29    1.92
  -3   2  -9   27.01    1.97
   3   2   9   25.60    2.25
  -3   2  -9   23.38    2.55
   3   2   9   25.35    2.28
   4  -2   9   19.54    1.84
   4  -2   9   19.18    1.83
   4  -2   9   18.09    1.84
  -4  -2  -9   13.60    2.20
   4  -2   9   21.01    1.70
   4  -2   9   18.51    1.74
   4  -2   9   16.73    1.65
   4  -2   9   20.50    1.70
   4  -2   9   17.25    1.75
  -4   2  -9   15.31    2.11
   4   2   9   17.09    1.82
   4   2   9   19.79    2.09
  -4   2  -9   17.85    1.55
  -4   2  -9   16.77    1.54
   4   2   9   19.69    1.94
   4   2   9   19.08    1.93
   4   2   9   17.24    1.75
   4   2   9   15.93    1.71
   4   2   9   18.27    1.70
  -4   2  -9   18.12    1.57
   4   2   9   20.23    1.94
   4   2   9   17.97    1.68
   5  -2   9   16.92    1.78
   5  -2   9   18.34    1.96
  -5  -2  -9   13.37    2.46
   5  -2   9   19.31    2.02
   5  -2   9   16.84    1.76
   5  -2   9   18.45    1.82
   5  -2   9   18.74    2.02
   5  -2   9   15.99    1.97
   5   2   9   15.50    1.79
   5   2   9   17.98    1.83
   5   2   9   20.49    2.03
  -5   2  -9   15.20    2.16
   5   2   9   19.25    1.98
   5   2   9   21.67    1.87
  -5   2  -9   20.97    1.75
   5   2   9   20.64    1.97
   5   2   9   20.57    2.09
   5   2   9   17.19    1.97
   5   2   9   16.38    2.01
  -6  -2  -9    5.86    1.72
  -6   2  -9    8.87    1.88
  -7  -3   9    4.98    1.53
  -7  -3   9    6.28    1.73
  -7  -3   9    6.73    1.55
   6  -3  -9    4.98    0.99
  -6  -3   9    4.85    1.32
  -6  -3   9    3.99    1.39
  -6  -3   9    5.88    1.32
   6  -3  -9    5.02    1.09
   6   3  -9    6.60    1.12
   6   3  -9    5.48    1.18
  -6   3   9    5.47    1.18
  -6   3   9    4.16    1.04
   6   3  -9    6.15    1.04
  -5  -3   9    6.07    1.07
   5  -3  -9    5.88    0.89
  -5  -3   9    4.67    1.07
  -5  -3   9    6.75    1.25
   5  -3  -9    6.99    1.21
   5   3  -9    6.55    1.01
  -5   3   9    4.95    0.95
  -5   3   9    6.43    0.97
   5   3  -9    5.42    0.91
   5   3  -9    4.07    1.05
   4  -3  -9    7.72    0.87
  -4  -3   9    5.63    1.09
  -4  -3   9    7.71    1.03
  -4  -3   9    5.40    0.99
  -4  -3   9    7.39    1.08
   4   3  -9    6.74    0.92
  -4   3   9    4.63    1.02
  -4   3   9    5.80    0.90
   4   3  -9    5.71    1.03
   4   3  -9    5.67    0.86
  -4   3   9    6.99    0.96
   3  -3  -9    2.59    0.55
  -3  -3   9    1.08    0.76
  -3  -3   9    2.99    0.70
  -3  -3   9    2.57    0.57
  -3  -3   9    2.23    0.72
  -3  -3   9    1.49    0.65
  -3   3   9    3.45    0.58
   3   3  -9    2.35    0.57
  -3   3   9    2.75    0.79
   3   3  -9    2.13    0.69
   3   3  -9    2.58    0.63
  -3   3   9    3.05    0.59
  -3   3   9    3.31    0.73
  -3   3   9    2.59    0.58
  -2  -3   9    1.51    0.32
  -2  -3   9    1.87    0.75
  -2  -3   9    1.60    0.66
   2  -3  -9    2.26    0.45
  -2  -3   9    1.53    0.48
  -2  -3   9    1.23    0.56
  -2  -3   9    1.67    0.35
  -2  -3   9    2.04    0.40
  -2  -3   9    2.07    0.61
   2  -3  -9    1.98    0.47
  -2   3   9    1.75    0.63
  -2   3   9    2.56    0.73
  -2   3   9    2.71    0.51
  -2   3   9    2.90    0.50
  -2   3   9    2.11    0.61
   2   3  -9    1.66    0.50
  -2   3   9    3.11    0.40
   2   3  -9    1.70    0.53
  -1  -3   9    1.37    0.33
  -1  -3   9    1.61    0.70
  -1  -3   9    1.36    0.37
  -1  -3   9    1.00    0.34
  -1  -3   9    1.71    0.42
  -1  -3   9    1.85    0.41
  -1  -3   9    1.66    0.32
  -1  -3   9    1.49    0.51
   1  -3  -9    1.31    0.35
   1  -3  -9    1.39    0.46
  -1  -3   9    1.09    0.52
  -1  -3   9    1.77    0.57
  -1   3   9    0.66    0.56
  -1   3   9    1.64    0.45
  -1   3   9    0.97    0.62
  -1   3   9    0.63    0.43
   1   3  -9    1.11    0.60
  -1   3   9    1.42    0.60
   1   3  -9    0.66    0.52
   1   3  -9    1.87    0.66
  -1   3   9    1.35    0.40
  -1   3   9    1.25    0.48
  -1   3   9    0.48    0.42
  -1   3   9    0.62    0.59
   0  -3  -9    2.77    0.49
   0  -3   9    2.62    0.56
   0  -3   9    2.27    0.50
   0  -3   9    2.08    0.41
   0  -3  -9    2.59    0.37
   0  -3   9    2.21    0.63
   0  -3  -9    2.49    0.67
   0  -3   9    2.79    0.53
   0  -3   9    2.04    0.58
   0  -3   9    2.47    0.51
   0  -3  -9    2.31    0.33
   0  -3   9    3.16    0.50
   0   3   9    2.04    0.68
   0   3  -9    1.58    0.58
   0   3   9    1.64    0.65
   0   3   9    3.00    0.56
   0   3   9    3.08    0.48
   0   3  -9    3.16    0.73
   0   3   9    2.98    0.59
   0   3  -9    1.13    0.60
   0   3   9    1.89    0.59
   0   3   9    2.41    0.69
   0   3   9    2.35    0.63
   0   3   9    2.61    0.58
   0   3   9    2.14    0.58
   0   3  -9    1.35    0.46
   0   3   9    2.59    0.70
   1  -3   9    0.21    0.46
   1  -3   9    0.60    0.42
  -1  -3  -9    0.42    0.86
   1  -3   9    0.74    0.47
   1  -3   9    0.12    0.47
  -1  -3  -9    0.71    0.57
   1  -3   9    0.32    0.36
   1  -3   9    0.83    0.54
   1  -3   9    0.42    0.53
  -1  -3  -9   -0.01    0.28
   1   3   9    0.50    0.55
   1   3   9    0.08    0.57
  -1   3  -9    0.30    0.38
   1   3   9    0.29    0.62
   1   3   9    0.49    0.48
   1   3   9    0.07    0.62
   1   3   9    0.58    0.50
   1   3   9    1.00    0.51
  -1   3  -9    0.47    0.63
   1   3   9    0.73    0.54
   1   3   9   -0.14    0.59
  -1   3  -9    0.38    0.45
  -1   3  -9    0.26    0.39
   1   3   9    0.36    0.48
   1   3   9    0.61    0.43
  -1   3  -9    1.62    0.59
  -2  -3  -9   10.06    1.86
   2  -3   9   16.27    1.30
   2  -3   9   15.26    1.34
   2  -3   9   15.66    1.41
   2  -3   9   16.07    1.36
   2  -3   9   15.64    1.39
   2  -3   9   15.11    1.31
   2  -3   9   15.99    1.38
   2  -3   9   16.25    1.48
   2   3   9   14.40    1.45
   2   3   9   14.37    1.57
   2   3   9   16.19    1.46
  -2   3  -9   13.52    1.29
  -2   3  -9   13.74    1.32
  -2   3  -9   15.75    1.35
   2   3   9   16.00    1.41
   2   3   9   14.65    1.56
  -2   3  -9   15.92    1.61
   2   3   9   13.94    1.47
   2   3   9   15.74    1.43
   2   3   9   15.91    1.44
   2   3   9   15.30    1.37
   2   3   9   17.61    1.59
   3  -3   9   14.11    1.41
   3  -3   9   15.97    1.50
   3  -3   9   15.29    1.39
   3  -3   9   13.91    1.48
   3  -3   9   13.43    1.45
   3  -3   9   14.13    1.32
  -3  -3  -9   10.68    1.81
   3  -3   9   12.84    1.45
   3   3   9   16.52    1.47
   3   3   9   14.10    1.58
   3   3   9   12.89    1.45
   3   3   9   14.31    1.52
  -3   3  -9   14.96    1.36
   3   3   9   13.97    1.56
   3   3   9   13.18    1.59
  -3   3  -9   14.19    1.71
   3   3   9   16.00    1.63
   3   3   9   15.19    1.77
  -3   3  -9   14.34    1.37
  -3   3  -9   11.89    1.29
   3   3   9   14.92    1.50
   4  -3   9   25.08    2.05
   4  -3   9   23.47    2.22
   4  -3   9   23.78    2.02
  -4  -3  -9   17.24    2.69
   4  -3   9   21.43    2.09
   4  -3   9   23.41    1.98
   4  -3   9   22.05    2.15
   4  -3   9   27.17    2.07
   4   3   9   25.81    2.08
   4   3   9   21.62    2.13
  -4   3  -9   24.18    1.96
   4   3   9   27.44    2.29
   4   3   9   30.38    2.37
   4   3   9   24.21    2.26
  -4   3  -9   26.26    1.97
  -4   3  -9   22.33    2.52
   4   3   9   24.04    2.30
  -4   3  -9   28.24    2.02
   4   3   9   26.38    2.12
   4   3   9   25.09    2.24
   4   3   9   25.74    2.34
  -5  -3  -9    7.62    1.97
   5   3   9    5.48    1.32
   5   3   9    6.82    1.23
   5   3   9    6.77    1.37
   5   3   9    7.29    1.40
  -5   3  -9    7.04    1.19
  -5   3  -9    6.90    1.19
   5   3   9    7.46    1.31
   5   3   9    7.05    1.34
   5   3   9    5.58    1.14
  -5   3  -9    6.54    1.51
  -6  -3  -9    9.11    2.03
   6   3   9    6.93    1.19
  -6   3  -9    5.93    1.68
  -7  -4   9    2.99    1.27
  -7  -4   9    5.08    1.58
  -7  -4   9    2.91    1.20
  -6  -4   9    9.35    1.72
  -6  -4   9    7.99    1.40
  -6  -4   9    9.47    1.52
   6   4  -9    9.77    1.34
  -5  -4   9   17.43    2.09
  -5  -4   9   16.95    1.92
  -5  -4   9   16.18    1.86
   5   4  -9   18.46    1.71
   5   4  -9   18.64    1.60
  -5   4   9   16.13    1.87
   5   4  -9   15.89    1.63
  -4  -4   9    9.20    1.23
  -4  -4   9    8.05    1.28
  -4  -4   9    8.36    1.12
  -4  -4   9    8.85    1.24
   4   4  -9    9.42    1.27
  -4   4   9    9.48    1.32
   4   4  -9   11.37    1.24
   4   4  -9   10.72    1.15
  -3  -4   9   25.49    2.29
  -3  -4   9   25.77    2.49
  -3  -4   9   22.58    2.19
   3  -4  -9   26.99    1.99
   3   4  -9   26.93    2.21
   3   4  -9   28.55    2.10
  -3   4   9   28.83    2.35
  -3   4   9   29.98    2.11
  -3   4   9   28.10    2.02
   3   4  -9   30.48    2.18
  -2  -4   9   31.45    2.53
  -2  -4   9   30.00    2.60
  -2  -4   9   32.72    2.24
   2  -4  -9   33.23    2.19
  -2  -4   9   31.44    2.40
   2   4  -9   28.20    2.15
  -2   4   9   28.34    2.27
   2   4  -9   30.57    2.32
  -2   4   9   31.72    2.53
  -2   4   9   29.69    2.28
  -2   4   9   32.17    2.16
  -1  -4   9   45.06    3.48
  -1  -4   9   47.51    3.26
  -1  -4   9   47.82    2.75
  -1  -4   9   50.19    2.88
  -1  -4   9   46.74    2.79
   1  -4  -9   49.02    2.96
  -1  -4   9   48.09    2.79
  -1  -4   9   47.83    2.88
  -1  -4   9   48.96    3.08
  -1  -4   9   44.36    3.23
   1   4  -9   38.50    2.80
  -1   4   9   36.83    3.02
   1   4  -9   40.62    3.14
  -1   4   9   44.03    3.00
  -1   4   9   38.78    2.94
  -1   4   9   41.24    3.28
  -1   4   9   37.48    2.95
   1   4  -9   39.93    2.93
   1   4  -9   41.86    2.90
  -1   4   9   36.90    3.11
  -1   4   9   37.54    3.05
  -1   4   9   41.99    2.92
   0  -4   9   49.64    2.88
   0  -4   9   48.81    2.97
   0  -4   9   53.68    3.17
   0  -4   9   49.28    2.98
   0  -4   9   49.26    2.86
   0  -4   9   44.57    3.52
   0  -4   9   51.79    2.91
   0  -4   9   49.82    2.91
   0  -4  -9   44.37    3.87
   0   4   9   39.94    3.07
   0   4  -9   43.60    2.99
   0   4   9   37.85    2.99
   0   4   9   38.21    2.98
   0   4   9   40.67    2.94
   0   4  -9   42.94    2.99
   0   4  -9   44.23    3.15
   0   4  -9   41.67    2.81
   0   4   9   37.31    3.01
   0   4   9   42.80    3.29
   0   4   9   43.95    3.15
   0   4   9   40.20    3.01
   0   4   9   40.04    3.22
   0   4   9   38.55    3.17
   1  -4   9   52.03    3.60
   1  -4   9   49.75    3.86
   1  -4   9   53.51    3.55
   1  -4   9   50.00    3.58
  -1  -4  -9   49.33    4.97
  -1  -4  -9   51.62    4.62
   1  -4   9   51.84    3.63
   1  -4   9   49.27    4.27
   1  -4   9   52.13    3.70
   1  -4   9   48.94    3.58
   1   4   9   56.04    3.81
  -1   4  -9   57.21    3.51
   1   4   9   59.42    3.99
   1   4   9   57.95    3.74
  -1   4  -9   60.82    3.67
   1   4   9   58.25    3.82
   1   4   9   58.37    3.92
   1   4   9   58.13    3.77
   1   4   9   60.43    3.81
   1   4   9   62.30    3.97
   1   4   9   66.81    4.03
   1   4   9   55.52    3.68
   1   4   9   55.69    3.61
  -1   4  -9   61.73    3.64
  -1   4  -9   62.02    3.90
   2  -4   9   20.64    1.75
   2  -4   9   21.06    1.75
   2  -4   9   20.36    1.89
   2  -4   9   20.86    1.84
   2  -4   9   21.18    1.74
   2  -4   9   20.84    1.71
  -2  -4  -9   21.03    2.15
   2  -4   9   21.17    1.78
  -2  -4  -9   17.76    2.38
   2   4   9   22.96    1.98
   2   4   9   23.16    1.72
   2   4   9   23.08    1.86
   2   4   9   27.73    2.06
  -2   4  -9   22.00    1.80
   2   4   9   27.01    2.11
   2   4   9   24.70    1.93
   2   4   9   22.23    1.95
   2   4   9   27.58    1.93
  -2   4  -9   23.40    1.68
  -2   4  -9   21.46    1.85
   2   4   9   25.06    1.94
   3  -4   9   31.63    2.17
   3  -4   9   30.17    2.13
   3  -4   9   28.46    2.16
   3  -4   9   25.43    2.09
   3  -4   9   29.76    2.37
   3  -4   9   30.13    2.29
  -3  -4  -9   22.70    2.85
   3  -4   9   27.79    2.18
  -3   4  -9   27.08    2.05
   3   4   9   23.86    2.03
   3   4   9   30.59    2.27
   3   4   9   26.15    2.32
   3   4   9   28.78    2.44
   3   4   9   24.35    2.18
   3   4   9   26.66    2.41
   3   4   9   25.89    2.36
  -3   4  -9   25.46    2.09
   3   4   9   31.45    2.41
   3   4   9   29.98    2.51
  -3   4  -9   27.91    2.12
   3   4   9   29.90    2.36
   4  -4   9   27.55    2.28
   4  -4   9   29.31    2.37
   4  -4   9   28.43    2.29
   4  -4   9   29.33    2.06
   4  -4   9   26.40    2.23
  -4  -4  -9   25.71    2.88
   4  -4   9   26.03    2.06
   4  -4   9   29.41    2.25
   4   4   9   26.00    2.32
   4   4   9   24.21    2.10
   4   4   9   18.62    1.99
   4   4   9   21.26    2.10
   4   4   9   22.61    2.21
  -4   4  -9   19.16    2.00
  -4   4  -9   22.87    2.15
  -4   4  -9   22.68    1.87
   4   4   9   22.53    2.05
   4   4   9   20.90    2.48
   4   4   9   23.43    2.27
   4   4   9   21.62    2.12
  -5  -4  -9    5.73    2.01
  -5   4  -9    8.99    1.18
   5   4   9    7.45    1.30
   5   4   9    7.22    1.20
   5   4   9    8.11    1.38
  -6  -4  -9    0.80    1.36
   6   4   9    3.39    1.32
  -7  -5   9    2.40    1.22
  -7  -5   9    2.86    1.67
  -7  -5   9    3.33    1.61
  -6  -5   9    0.16    0.94
  -6  -5   9    1.14    1.28
  -6  -5   9   -1.09    1.20
  -5  -5   9    7.59    1.33
  -5  -5   9    8.27    1.60
  -5  -5   9    7.58    1.44
   5   5  -9    7.10    1.06
  -5   5   9    7.19    1.19
   5   5  -9    7.46    1.29
   5   5  -9    8.15    1.10
  -4  -5   9    5.24    1.00
  -4  -5   9    4.88    1.24
  -4  -5   9    4.97    1.25
  -4   5   9    2.80    0.97
   4   5  -9    2.92    0.93
   4   5  -9    2.68    0.77
  -3  -5   9    3.74    1.11
  -3  -5   9    4.18    0.89
  -3  -5   9    2.32    1.03
   3   5  -9    4.58    0.92
   3   5  -9    4.21    0.90
  -3   5   9    3.87    0.82
   2  -5  -9    0.25    0.77
  -2  -5   9   -0.42    0.79
  -2  -5   9    0.29    0.80
  -2  -5   9    0.22    0.83
   2   5  -9    0.48    0.45
  -2   5   9    0.09    0.62
   2   5  -9   -0.38    0.64
   2   5  -9   -0.49    0.64
  -2   5   9    0.66    0.54
  -2   5   9   -0.26    0.50
  -1  -5   9    8.48    1.14
  -1  -5   9    8.61    1.13
   1  -5  -9    9.32    1.43
  -1  -5   9    9.45    0.83
  -1  -5   9    8.99    1.21
  -1   5   9    7.22    1.10
  -1   5   9    7.49    1.11
  -1   5   9    8.12    1.05
   1   5  -9    7.62    1.04
   1   5  -9    9.18    1.12
  -1   5   9    7.51    1.10
  -1   5   9    8.04    1.13
  -1   5   9   10.16    1.22
   1   5  -9    9.35    1.09
   1   5  -9    8.50    1.14
  -1   5   9   10.73    1.11
   0  -5   9    1.31    0.53
   0  -5   9    0.62    0.60
   0  -5   9    0.79    0.45
   0  -5   9    0.29    0.41
   0  -5   9    0.66    0.37
   0  -5   9    1.23    0.49
   0  -5   9    0.33    0.38
   0  -5   9    0.06    0.80
   0  -5  -9    0.26    0.64
   0   5   9    0.53    0.67
   0   5   9    1.15    0.72
   0   5   9    2.10    0.70
   0   5   9    1.22    0.73
   0   5   9    1.48    0.73
   0   5   9    0.41    0.51
   0   5   9    0.95    0.57
   0   5   9    1.38    0.55
   0   5  -9    0.73    0.69
   0   5   9    1.12    0.72
   0   5  -9    0.70    0.51
   0   5  -9    0.92    0.55
   0   5  -9    1.29    0.67
   0   5   9    1.40    0.74
   1  -5   9   13.48    1.30
   1  -5   9   11.56    1.53
   1  -5   9   11.81    1.20
  -1  -5  -9   12.97    1.97
   1  -5   9   14.44    1.24
  -1  -5  -9   12.73    1.72
   1  -5   9   14.19    1.20
   1  -5   9   12.78    1.14
   1  -5   9   13.83    1.26
   1  -5   9   13.09    1.30
   1   5   9   11.77    1.43
  -1   5  -9   13.81    1.27
   1   5   9   14.11    1.45
   1   5   9   15.12    1.44
   1   5   9   14.68    1.48
  -1   5  -9   13.27    1.47
   1   5   9   14.50    1.56
  -1   5  -9   15.79    1.40
   1   5   9   12.96    1.48
   1   5   9   12.68    1.40
  -1   5  -9   14.47    1.30
   1   5   9   14.46    1.27
   1   5   9   12.48    1.39
   1   5   9   14.49    1.52
   1   5   9   13.76    1.50
   2  -5   9    8.43    1.00
   2  -5   9    8.16    0.95
   2  -5   9    7.19    0.90
   2  -5   9    7.44    0.98
   2  -5   9    8.50    0.95
  -2  -5  -9    6.54    1.43
   2  -5   9    6.44    0.86
   2  -5   9    8.81    0.99
  -2  -5  -9    6.75    1.16
   2   5   9    7.23    1.13
   2   5   9    6.41    0.99
   2   5   9    5.02    1.10
   2   5   9    5.20    0.92
   2   5   9    5.65    1.01
   2   5   9    5.74    1.16
  -2   5  -9    5.44    0.90
  -2   5  -9    5.16    1.00
   2   5   9    7.28    1.08
  -2   5  -9    5.80    1.01
   2   5   9    4.32    0.97
   2   5   9    4.81    1.05
  -3  -5  -9    8.79    1.80
   3  -5   9   12.65    1.28
   3  -5   9   10.86    1.39
   3  -5   9   10.89    1.36
   3  -5   9   10.07    1.17
   3  -5   9   11.66    1.33
   3  -5   9   11.27    1.20
   3  -5   9   12.60    1.31
   3   5   9   12.05    1.40
   3   5   9    7.88    1.22
   3   5   9    9.10    1.18
   3   5   9   10.20    1.45
   3   5   9   11.00    1.35
  -3   5  -9   10.96    1.33
  -3   5  -9    9.32    1.22
   3   5   9   10.59    1.63
   3   5   9   11.53    1.50
   3   5   9   10.34    1.51
  -3   5  -9   11.60    1.35
   3   5   9   10.29    1.35
   3   5   9    8.95    1.37
   4  -5   9   14.24    1.60
  -4  -5  -9   10.74    2.10
   4  -5   9   12.91    1.65
   4  -5   9   16.16    1.63
   4  -5   9   10.63    1.41
   4  -5   9   13.90    1.67
   4  -5   9   13.55    1.64
   4  -5   9   12.96    1.53
  -4   5  -9   16.65    1.66
   4   5   9   11.98    1.63
   4   5   9   15.84    1.83
  -4   5  -9   14.16    1.44
  -4   5  -9   11.58    1.65
   4   5   9   14.87    1.63
   4   5   9   14.11    1.60
   4   5   9   11.43    1.49
   4   5   9   12.15    1.90
   4   5   9   12.44    1.49
   4   5   9   10.76    1.55
   4   5   9   11.89    1.53
  -5  -5  -9    0.31    1.72
   5   5   9    2.71    1.18
  -6  -6   9    7.19    1.43
  -6  -6   9    4.95    1.63
  -6  -6   9    6.15    1.77
  -5  -6   9    9.29    1.67
  -5  -6   9    7.17    1.52
  -5  -6   9    8.03    1.72
  -4  -6   9   11.56    1.67
  -4  -6   9   12.94    1.62
   4  -6  -9   10.52    1.99
  -4  -6   9   13.45    1.56
   4   6  -9   12.15    1.42
  -4   6   9   14.27    1.70
   4   6  -9   13.81    1.40
  -4   6   9   12.07    1.42
  -3  -6   9   13.64    1.71
  -3  -6   9   14.73    1.73
  -3  -6   9   16.74    1.71
   3  -6  -9    8.93    1.99
   3   6  -9   12.41    1.32
  -3   6   9   13.05    1.58
   3   6  -9    9.91    1.19
   3   6  -9   13.80    1.43
  -2  -6   9   16.09    1.93
  -2  -6   9   15.02    1.53
   2  -6  -9   12.60    2.11
  -2  -6   9   13.38    1.70
  -2   6   9   16.28    1.46
   2   6  -9   14.11    1.43
   2   6  -9   14.63    1.51
  -2   6   9   15.49    1.51
   2   6  -9   17.81    1.58
  -2   6   9   14.51    1.60
   2   6  -9   13.36    1.52
   1  -6  -9   22.94    2.45
  -1  -6   9   20.82    1.94
  -1  -6   9   23.77    2.17
  -1  -6   9   23.03    2.19
   1   6  -9   24.79    1.91
  -1   6   9   23.25    2.04
  -1   6   9   21.98    1.95
   1   6  -9   22.73    1.91
  -1   6   9   20.33    1.85
   1   6  -9   22.13    1.83
   1   6  -9   22.33    1.79
  -1   6   9   22.35    1.88
  -1   6   9   24.51    1.89
  -1   6   9   24.48    2.06
   0  -6  -9   33.95    3.60
   0  -6   9   36.79    3.02
   0  -6   9   34.67    3.29
   0   6   9   41.68    2.83
   0   6  -9   40.42    2.79
   0   6  -9   39.79    2.80
   0   6   9   41.76    2.92
   0   6   9   40.92    3.01
   0   6   9   42.60    2.90
   0   6   9   39.82    3.03
   0   6   9   41.85    2.93
   0   6   9   39.27    3.10
   0   6  -9   43.40    2.71
   0   6  -9   40.52    3.02
   0   6   9   43.91    3.10
   0   6   9   42.96    3.02
   0   6   9   41.34    2.91
   1  -6   9   25.65    2.16
   1  -6   9   29.95    1.94
   1  -6   9   23.98    2.56
  -1  -6  -9   32.00    2.81
   1  -6   9   29.45    1.99
  -1  -6  -9   29.06    3.24
  -1   6  -9   28.02    2.07
   1   6   9   26.92    2.15
   1   6   9   23.69    2.20
  -1   6  -9   27.56    2.06
   1   6   9   22.66    2.13
   1   6   9   24.42    2.12
   1   6   9   25.16    2.25
   1   6   9   26.43    2.27
   1   6   9   26.84    2.33
   1   6   9   24.69    2.16
  -1   6  -9   26.99    2.29
   1   6   9   23.81    2.11
   1   6   9   28.55    2.32
  -1   6  -9   24.72    2.05
   1   6   9   27.85    2.18
  -2  -6  -9   21.64    2.69
   2  -6   9   25.39    1.85
  -2  -6  -9   22.38    2.35
   2  -6   9   23.65    1.81
   2  -6   9   23.74    1.88
   2  -6   9   28.90    2.01
   2  -6   9   21.66    2.21
   2  -6   9   22.36    1.91
   2  -6   9   25.69    1.91
  -2   6  -9   23.55    2.03
  -2   6  -9   19.56    1.81
   2   6   9   21.46    2.14
   2   6   9   19.28    1.91
   2   6   9   20.86    2.07
   2   6   9   18.45    1.78
   2   6   9   21.90    1.95
   2   6   9   24.22    2.08
   2   6   9   21.53    1.91
   2   6   9   18.67    1.91
   2   6   9   20.13    1.90
   2   6   9   24.15    2.18
  -2   6  -9   22.71    1.93
   3  -6   9   16.52    1.51
   3  -6   9   14.80    1.55
   3  -6   9   14.90    1.56
   3  -6   9   12.78    1.59
   3  -6   9   13.83    2.01
   3  -6   9   14.15    1.66
  -3  -6  -9   16.62    2.44
  -3   6  -9   16.31    1.71
  -3   6  -9   15.29    1.53
   3   6   9   14.65    1.65
   3   6   9   15.14    1.87
   3   6   9   15.09    1.59
   3   6   9   15.21    1.62
   3   6   9   13.43    1.52
  -3   6  -9   16.37    1.61
   3   6   9   19.27    1.86
   3   6   9   15.15    1.77
   3   6   9   18.43    1.89
   3   6   9   14.83    1.81
   3   6   9   16.20    1.88
  -4  -6  -9    9.60    2.01
   4  -6   9    8.81    1.22
   4   6   9    7.03    1.37
   4   6   9    8.34    1.45
   4   6   9    9.59    1.31
   4   6   9    6.78    1.42
  -5  -6  -9    1.46    1.83
   5   6   9    1.25    1.20
  -6  -7   9    3.09    1.44
  -6  -7   9    2.95    1.62
  -6  -7   9    2.62    1.49
   6  -7  -9    4.29    2.16
  -5  -7   9    0.94    1.15
   5  -7  -9    0.15    1.71
  -5  -7   9    1.06    0.99
  -5  -7   9    0.65    0.93
   4  -7  -9    4.10    1.87
  -4  -7   9    4.46    1.29
  -4  -7   9    5.52    1.19
  -4  -7   9    6.91    1.40
  -4   7   9    7.83    1.24
   4   7  -9    7.82    1.24
   4   7  -9    6.07    1.09
   4   7  -9    7.85    1.11
  -3  -7   9    2.33    0.86
  -3  -7   9    0.27    1.05
  -3  -7   9   -0.23    0.84
   3  -7  -9    0.82    1.42
   3   7  -9    1.90    0.91
   3   7  -9    1.08    0.83
  -3   7   9    0.78    0.71
   3   7  -9    1.19    0.63
   3   7  -9    0.39    0.84
  -2  -7   9    0.41    0.71
  -2  -7   9   -0.35    0.78
   2  -7  -9   -0.45    1.26
  -2  -7   9   -0.18    0.68
   2   7  -9    1.27    0.81
   2   7  -9    0.68    0.60
  -2   7   9    0.90    0.85
   2   7  -9    0.86    0.65
   2   7  -9    0.89    0.66
  -2   7   9    0.17    0.86
  -2   7   9    0.62    0.81
  -1  -7   9    3.55    1.08
  -1  -7   9    3.01    1.06
   1  -7  -9    2.59    1.14
  -1  -7   9    2.60    1.16
  -1   7   9    2.13    0.95
   1   7  -9    4.10    0.81
   1   7  -9    3.60    0.93
  -1   7   9    1.76    0.73
   1   7  -9    1.94    0.67
  -1   7   9    3.40    0.92
   1   7  -9    2.82    0.94
  -1   7   9    2.78    0.94
  -1   7   9    1.97    0.72
   0  -7  -9    0.24    1.16
   0  -7   9    0.06    0.92
   0  -7   9    0.06    1.02
   0  -7   9    0.20    0.93
   0   7   9    0.75    0.86
   0   7  -9    0.04    0.78
   0   7   9    0.10    0.60
   0   7   9    0.73    0.61
   0   7   9   -0.02    0.63
   0   7  -9    1.08    0.61
   0   7   9    0.51    0.86
   0   7   9    0.14    0.81
   0   7  -9   -1.36    0.77
   0   7   9    0.37    0.59
   0   7  -9    0.51    0.59
   0   7   9    0.12    0.65
   0   7   9    0.35    0.85
   0   7   9    0.75    0.85
  -1  -7  -9    2.17    1.19
   1  -7   9    2.34    1.16
   1   7   9    1.07    0.70
  -1   7  -9    2.50    0.71
   1   7   9    1.50    0.74
  -1   7  -9    2.71    0.79
   1   7   9    2.32    0.77
   1   7   9    1.66    0.72
   1   7   9    1.18    0.89
   1   7   9   -0.31    0.89
   1   7   9    1.64    0.91
   1   7   9    2.67    0.90
  -1   7  -9    2.41    0.75
  -1   7  -9    2.01    0.93
   1   7   9    3.33    1.01
   1   7   9    1.71    0.73
  -2  -7  -9    4.33    1.30
  -2  -7  -9    3.76    1.43
   2  -7   9    2.67    0.97
  -2   7  -9    3.08    1.01
   2   7   9    3.47    1.04
  -2   7  -9    2.50    1.03
   2   7   9    1.87    0.79
   2   7   9    3.51    1.07
   2   7   9    2.09    1.03
   2   7   9    2.99    0.85
  -2   7  -9    3.45    1.09
   2   7   9    3.15    1.08
   2   7   9    2.55    1.00
   2   7   9    3.89    0.92
   2   7   9    1.80    0.90
   2   7   9    3.60    1.13
  -3  -7  -9   21.50    3.25
   3  -7   9   20.39    2.47
   3   7   9   22.15    1.99
   3   7   9   23.53    2.22
   3   7   9   21.54    1.91
   3   7   9   19.37    2.01
   3   7   9   26.32    2.28
   3   7   9   20.13    2.18
  -4  -7  -9    1.51    1.89
   4  -7   9    1.57    1.06
   4   7   9    6.04    1.33
   4   7   9    5.72    1.41
   5  -7   9   12.25    2.10
  -5  -8   9    9.01    1.86
  -5  -8   9   12.52    1.89
   5  -8  -9    9.73    2.53
  -5  -8   9    9.51    1.86
  -5   8   9   10.11    1.60
  -4  -8   9    2.82    1.29
   4  -8  -9    2.16    1.90
  -4  -8   9    4.42    1.18
  -4  -8   9    6.56    1.46
  -4   8   9    4.26    1.23
  -3  -8   9    5.94    1.71
  -3  -8   9    6.70    1.50
   3  -8  -9    5.95    2.02
  -3  -8   9    6.58    1.22
   3   8  -9    7.28    1.26
  -3   8   9    7.66    1.15
   3   8  -9    7.76    1.28
  -2  -8   9   19.95    2.13
   2  -8  -9   16.07    2.67
  -2  -8   9   16.85    2.01
  -2  -8   9   18.46    2.20
  -2   8   9   18.33    1.81
   2   8  -9   17.08    1.76
   2   8  -9   20.89    1.91
   2   8  -9   18.95    1.68
  -1  -8   9   11.10    1.80
  -1  -8   9    8.01    1.30
  -1  -8   9    8.46    1.48
   1  -8  -9    6.82    1.88
  -1   8   9   10.21    1.38
   1   8  -9    9.69    1.18
  -1   8   9   10.04    1.46
  -1   8   9    9.98    1.30
  -1   8   9    9.63    1.33
   1   8  -9    9.93    1.38
   1   8  -9   10.77    1.35
   1   8  -9    9.19    1.21
  -1   8   9   10.43    1.46
  -1   8   9   11.57    1.39
   0  -8   9   16.53    1.87
   0  -8   9   12.33    1.57
   0  -8   9   12.00    1.74
   0  -8  -9   11.97    2.15
   0   8  -9   15.30    1.50
   0   8  -9   14.65    1.66
   0   8   9   13.61    1.60
   0   8   9   12.25    1.43
   0   8  -9   14.40    1.58
   0   8   9   12.55    1.52
   0   8   9   10.96    1.54
   0   8   9   12.04    1.62
   0   8   9   12.63    1.65
   0   8   9   15.94    1.61
   0   8   9   14.95    1.72
   0   8  -9   12.78    1.49
   0   8   9   12.52    1.62
  -1  -8  -9   29.31    3.15
   1  -8   9   31.52    2.61
   1  -8   9   31.24    2.89
   1   8   9   26.54    2.43
   1   8   9   28.60    2.46
   1   8   9   27.12    2.33
   1   8   9   26.52    2.33
   1   8   9   26.39    2.38
   1   8   9   27.87    2.52
   1   8   9   24.23    2.27
   1   8   9   24.47    2.39
   1   8   9   26.81    2.25
  -1   8  -9   24.17    2.29
  -2  -8  -9    8.28    1.71
   2  -8   9    7.12    1.62
  -2  -8  -9    8.17    1.97
   2   8   9    8.58    1.46
   2   8   9   10.70    1.45
   2   8   9   10.75    1.49
   2   8   9    7.89    1.37
   2   8   9    7.48    1.37
  -3  -8  -9    9.04    2.51
   3  -8   9    8.41    1.78
   3   8   9   12.65    1.67
   3   8   9   11.63    1.75
   3   8   9   13.73    1.57
  -4  -8  -9    1.49    2.14
   4  -8   9    3.99    1.55
   4   8   9    4.53    1.38
   4   8   9    5.93    1.48
  -4  -9   9    0.84    1.38
   4  -9  -9    1.41    1.49
  -4  -9   9    1.47    1.32
  -4  -9   9    2.48    1.73
  -4   9   9    4.27    1.08
  -3  -9   9    3.90    1.29
  -3  -9   9    1.81    1.18
   3  -9  -9    0.81    1.79
  -3  -9   9    2.43    1.33
  -3   9   9    2.75    1.22
  -2  -9   9    0.70    1.41
   2  -9  -9    2.02    1.36
  -2  -9   9    1.07    1.15
  -2  -9   9    1.80    1.19
  -2   9   9    1.12    0.85
  -1  -9   9    1.07    1.33
  -1  -9   9   -0.76    1.04
   1  -9  -9   -0.16    1.51
  -1  -9   9    0.01    1.06
  -1   9   9    1.23    0.69
   0  -9   9    4.34    1.26
   0  -9  -9    4.24    1.40
   0  -9   9    3.55    1.25
   0  -9   9    3.43    1.44
   0   9   9    1.84    1.16
   1  -9   9    1.82    1.19
   1  -9   9    1.32    0.99
  -1  -9  -9    1.94    1.54
   1  -9   9    0.46    1.16
   1   9   9    2.16    1.15
   1   9   9    2.04    1.06
   2  -9   9    7.63    1.38
  -2  -9  -9    9.76    2.01
   2  -9   9    4.56    1.56
   2   9   9    5.28    1.14
   2   9   9    5.57    1.14
   2   9   9    6.83    1.47
   3  -9   9    0.94    1.36
  -3  -9  -9    0.85    2.13
   3   9   9    4.39    1.37
   3   9   9    3.64    1.07
   3   9   9    4.25    1.31
  -3  10   9    2.87    1.39
  -2 -10   9    6.22    1.87
   2 -10  -9    4.54    2.16
  -2  10   9    6.07    1.26
   1 -10  -9    6.75    2.15
  -1 -10   9    6.07    1.74
   0 -10  -9   11.89    2.38
   0 -10   9    9.95    1.72
  -1 -10  -9    6.14    1.92
   1 -10   9    3.24    1.56
   1  10   9    3.99    1.14
   1  10   9    4.63    1.27
   2 -10   9    7.05    1.80
  -2 -10  -9   10.55    1.99
  -8   0  10   -1.29    1.37
  -8   0  10   -2.04    1.72
  -7   0  10    1.15    1.28
   6   0 -10    4.03    0.86
  -6   0  10    2.86    0.95
  -6   0  10    3.00    1.21
  -6   0  10    2.89    0.90
   6   0 -10    2.11    0.84
   5   0 -10   14.38    1.51
   5   0 -10   13.96    1.61
  -5   0  10   13.82    1.59
  -5   0  10   14.56    1.51
  -5   0  10   14.68    1.47
  -4   0  10   19.21    1.82
   4   0 -10   20.80    1.80
   4   0 -10   20.69    1.59
  -4   0  10   18.24    1.77
  -4   0  10   20.95    1.87
   4   0 -10   21.96    1.92
  -4   0  10   21.61    1.86
  -3   0  10    3.11    0.64
   3   0 -10    2.21    0.56
  -3   0  10    3.33    0.79
  -3   0  10    3.14    0.57
  -3   0  10    1.78    0.48
  -3   0  10    2.66    0.53
  -3   0  10    1.94    0.75
  -3   0  10    2.53    0.49
   3   0 -10    3.09    0.67
  -3   0  10    2.98    0.64
  -3   0  10    3.05    0.75
   2   0 -10   22.10    1.71
  -2   0  10   21.68    1.65
  -2   0  10   22.52    1.68
   2   0 -10   20.62    1.56
  -2   0  10   24.16    1.89
  -2   0  10   20.25    1.76
  -2   0  10   21.87    1.77
  -2   0  10   22.34    1.85
  -2   0  10   21.45    1.61
  -2   0  10   22.43    1.71
  -2   0  10   22.09    1.62
  -2   0  10   24.65    1.61
  -2   0  10   20.89    1.79
  -1   0  10   54.11    3.98
  -1   0  10   55.34    3.57
  -1   0  10   53.49    3.52
   1   0 -10   53.21    3.45
  -1   0  10   57.46    3.63
  -1   0  10   53.31    3.58
  -1   0  10   52.87    3.84
  -1   0  10   56.82    3.54
   1   0 -10   55.20    3.75
  -1   0  10   55.18    3.70
  -1   0  10   54.54    3.78
   0   0  10   41.29    2.88
   0   0  10   38.70    3.10
   0   0  10   43.23    2.82
   0   0  10   43.45    2.85
   0   0  10   42.26    3.08
   0   0 -10   38.88    2.87
   0   0  10   40.75    2.75
   0   0  10   43.44    2.94
   0   0 -10   40.67    2.62
   0   0 -10   40.54    2.68
   0   0 -10   41.00    2.56
   0   0  10   42.87    2.84
   0   0  10   40.69    2.66
   1   0  10   72.52    4.54
   1   0  10   68.43    4.33
   1   0  10   69.30    4.41
  -1   0 -10   64.17    4.64
  -1   0 -10   65.02    4.26
   1   0  10   74.11    4.54
  -1   0 -10   65.88    4.21
   1   0  10   70.93    4.91
  -1   0 -10   69.65    5.76
   1   0  10   69.28    4.50
   1   0  10   71.37    4.80
  -1   0 -10   67.12    4.07
   1   0  10   65.15    4.44
   1   0  10   66.92    4.27
   1   0  10   73.27    4.63
   2   0  10  104.56    6.45
  -2   0 -10  101.17    6.07
   2   0  10  108.94    6.71
  -2   0 -10  102.33    6.30
   2   0  10  111.35    6.75
   2   0  10  107.52    7.11
   2   0  10  115.58    6.59
   2   0  10  110.89    6.65
   2   0  10   95.16    6.93
   2   0  10  106.18    6.84
   2   0  10  110.15    6.64
  -2   0 -10   95.35    6.35
  -2   0 -10   94.52    8.52
   3   0  10    4.40    1.00
  -3   0 -10    3.44    0.78
   3   0  10    3.70    0.83
  -3   0 -10    3.97    1.11
   3   0  10    4.93    1.08
   3   0  10    5.00    1.06
  -3   0 -10    4.80    0.68
   3   0  10    3.92    0.99
   3   0  10    3.72    0.78
   3   0  10    4.55    0.89
   3   0  10    2.90    0.95
   3   0  10    4.71    0.70
   3   0  10    4.16    0.99
  -4   0 -10   18.40    2.43
   4   0  10   19.43    1.79
   4   0  10   18.86    1.74
   4   0  10   19.11    2.06
   4   0  10   19.35    1.97
   4   0  10   18.26    1.81
   4   0  10   18.70    2.02
  -4   0 -10   19.81    1.74
   4   0  10   21.89    2.06
   4   0  10   20.17    1.90
   4   0  10   18.52    1.79
  -5   0 -10   13.17    2.06
   5   0  10   14.14    1.56
   5   0  10   14.40    1.87
  -6   0 -10   11.95    2.38
  -8  -1  10    7.32    1.61
  -7  -1  10    3.37    1.41
  -7  -1  10    4.26    1.22
  -7   1  10    2.27    1.27
  -6  -1  10    7.53    1.31
  -6  -1  10    6.89    1.45
   6  -1 -10    6.74    1.21
   6  -1 -10    7.34    1.39
  -6   1  10    9.39    1.45
  -6   1  10    8.26    1.25
   6   1 -10    9.70    1.26
  -6   1  10    9.47    1.38
   6   1 -10    9.72    1.37
  -5  -1  10    8.84    1.20
  -5  -1  10    9.27    1.35
   5  -1 -10    8.27    1.15
   5  -1 -10    7.71    1.13
  -5  -1  10    8.81    1.36
  -5  -1  10    7.48    1.18
   5   1 -10    7.84    1.23
  -5   1  10    9.81    1.29
   5   1 -10    8.28    1.20
  -5   1  10    7.95    1.25
  -5   1  10    7.41    1.13
   5   1 -10    7.51    1.02
  -4  -1  10   11.05    1.33
   4  -1 -10   11.56    1.17
  -4  -1  10    8.60    1.32
  -4  -1  10   11.39    1.31
   4  -1 -10    9.04    1.04
   4  -1 -10    9.37    1.19
  -4  -1  10    9.19    1.31
  -4   1  10   11.66    1.29
  -4   1  10   11.53    1.29
   4   1 -10   11.91    1.29
   4   1 -10   13.67    1.27
  -4   1  10   11.24    1.30
  -4   1  10    9.12    1.06
   4   1 -10   12.19    1.24
   3  -1 -10   11.72    1.09
   3  -1 -10   11.50    1.07
  -3  -1  10   13.40    1.30
  -3  -1  10   12.90    1.05
  -3  -1  10   13.40    1.38
  -3  -1  10   12.31    0.94
  -3  -1  10   10.62    1.00
  -3  -1  10   13.62    1.40
  -3  -1  10   14.70    1.00
  -3  -1  10   11.73    1.24
   3   1 -10    7.97    1.15
  -3   1  10   10.17    1.08
   3   1 -10    8.77    1.02
  -3   1  10   11.09    1.23
  -3   1  10    9.56    1.06
  -3   1  10    8.63    0.97
  -3   1  10   11.06    1.33
  -3   1  10    9.86    1.05
  -3   1  10   11.89    1.15
  -3   1  10   10.50    1.11
  -2  -1  10    5.76    0.71
  -2  -1  10    5.24    0.82
  -2  -1  10    6.50    0.69
  -2  -1  10    6.19    0.68
  -2  -1  10    5.80    0.83
  -2  -1  10    6.23    0.67
  -2  -1  10    6.29    0.76
   2  -1 -10    4.45    0.76
  -2  -1  10    5.21    0.84
  -2  -1  10    5.15    0.95
   2  -1 -10    6.16    0.72
  -2  -1  10    5.94    0.88
  -2  -1  10    5.52    0.73
  -2   1  10    5.71    0.82
  -2   1  10    5.71    0.78
  -2   1  10    5.00    0.77
  -2   1  10    6.74    0.80
  -2   1  10    5.89    0.87
   2   1 -10    6.01    0.80
  -2   1  10    6.41    0.79
  -2   1  10    5.96    0.83
  -2   1  10    6.51    0.80
  -2   1  10    5.35    0.76
  -2   1  10    5.47    0.73
   2   1 -10    5.57    0.70
   1  -1 -10    2.25    0.53
  -1  -1  10    3.55    0.62
  -1  -1  10    3.37    0.60
   1  -1 -10    3.73    0.60
  -1  -1  10    3.82    0.60
  -1  -1  10    2.96    0.58
  -1  -1  10    3.10    0.63
  -1  -1  10    3.39    0.65
  -1  -1  10    2.89    0.56
  -1  -1  10    4.11    0.78
  -1  -1  10    4.03    0.78
  -1  -1  10    3.16    0.67
  -1   1  10    4.11    0.71
  -1   1  10    4.28    0.69
  -1   1  10    3.39    0.65
   1   1 -10    3.80    0.65
  -1   1  10    2.87    0.63
  -1   1  10    3.67    0.68
  -1   1  10    3.27    0.62
  -1   1  10    3.58    0.63
  -1   1  10    3.97    0.70
  -1   1  10    4.11    0.71
   1   1 -10    4.48    0.61
  -1   1  10    4.04    0.69
   0  -1  10   12.00    1.10
   0  -1 -10   12.44    0.92
   0  -1 -10   10.21    0.95
   0  -1  10   10.60    1.22
   0  -1 -10   11.46    1.14
   0  -1  10   11.92    1.12
   0  -1 -10   11.37    0.87
   0  -1  10   14.27    1.22
   0  -1  10   11.02    0.93
   0  -1  10   11.90    1.19
   0  -1  10   11.38    1.13
   0  -1  10   10.11    1.24
   0  -1  10   11.76    1.03
   0   1 -10   13.45    1.05
   0   1 -10   10.90    1.00
   0   1  10   10.04    1.07
   0   1  10   12.42    1.22
   0   1 -10   12.35    1.24
   0   1 -10   11.55    1.10
   0   1  10   12.78    1.14
   0   1  10   11.96    1.07
   0   1  10    9.93    1.02
   0   1  10   12.38    1.10
   0   1  10   10.52    1.17
   0   1  10   10.46    1.10
   0   1  10   12.88    1.31
   0   1  10    9.87    1.29
  -1  -1 -10    7.06    0.75
  -1  -1 -10    7.33    0.84
  -1  -1 -10    6.15    1.18
   1  -1  10    5.35    0.80
   1  -1  10    7.73    0.75
   1  -1  10    6.35    0.92
   1  -1  10    7.04    1.06
   1  -1  10    6.65    0.89
  -1  -1 -10    6.18    0.61
  -1  -1 -10    6.93    0.67
   1  -1  10    8.67    0.99
   1  -1  10    7.85    1.00
   1  -1  10    6.43    0.90
   1   1  10    7.27    1.02
   1   1  10    6.88    0.82
  -1   1 -10    6.31    0.98
   1   1  10    8.15    1.04
   1   1  10    7.86    0.99
  -1   1 -10    6.45    0.73
   1   1  10    8.39    0.87
  -1   1 -10    7.99    0.79
   1   1  10    6.49    0.92
  -1   1 -10    7.34    1.10
   1   1  10    8.23    1.03
   1   1  10    7.88    0.96
  -1   1 -10    7.06    0.88
   1   1  10    7.08    0.99
   1   1  10    6.55    0.90
  -2  -1 -10   15.23    1.36
   2  -1  10   16.29    1.49
  -2  -1 -10   13.67    2.03
  -2  -1 -10   18.14    1.28
   2  -1  10   17.20    1.56
   2  -1  10   16.74    1.64
   2  -1  10   17.74    1.53
   2  -1  10   17.43    1.55
   2  -1  10   18.66    1.36
   2  -1  10   15.19    1.58
   2  -1  10   16.73    1.61
   2   1  10   22.83    1.64
   2   1  10   17.43    1.42
   2   1  10   19.99    1.59
   2   1  10   20.01    1.60
   2   1  10   19.46    1.61
   2   1  10   23.01    1.66
  -2   1 -10   17.66    1.40
   2   1  10   17.85    1.61
  -2   1 -10   18.80    1.51
   2   1  10   19.76    1.67
  -2   1 -10   16.08    1.38
  -2   1 -10   18.57    1.92
   2   1  10   17.66    1.62
   3  -1  10    0.15    0.57
  -3  -1 -10    0.68    0.75
   3  -1  10   -0.15    0.61
   3  -1  10    1.49    0.90
  -3  -1 -10    0.89    0.57
   3  -1  10    0.74    0.80
   3  -1  10    0.45    0.74
   3  -1  10    0.63    0.79
   3  -1  10    0.51    0.60
   3  -1  10   -0.50    0.79
   3  -1  10    0.56    0.80
   3   1  10    0.35    0.84
   3   1  10   -0.50    0.80
  -3   1 -10    1.20    0.51
   3   1  10    1.28    0.66
   3   1  10    0.64    0.58
   3   1  10    0.79    0.62
   3   1  10   -0.26    0.58
   3   1  10    1.32    0.70
  -3   1 -10    0.38    0.51
   3   1  10   -0.18    0.80
  -3   1 -10    0.91    0.83
   3   1  10   -0.10    0.62
  -3   1 -10    0.78    0.57
   3   1  10    0.38    0.80
   4  -1  10    4.94    0.96
   4  -1  10    5.09    0.84
   4  -1  10    6.39    1.16
   4  -1  10    4.57    1.18
   4  -1  10    3.75    0.92
   4  -1  10    4.06    1.12
   4  -1  10    5.77    0.99
  -4  -1 -10    4.32    1.17
   4  -1  10    6.51    1.07
   4  -1  10    5.17    1.17
   4   1  10    3.42    0.92
   4   1  10    4.39    1.14
  -4   1 -10    3.46    0.79
   4   1  10    3.82    0.78
  -4   1 -10    3.52    0.67
   4   1  10    6.08    1.28
   4   1  10    1.60    1.04
   4   1  10    4.01    1.12
  -4   1 -10    4.14    1.26
   4   1  10    2.01    1.07
   4   1  10    4.00    0.97
   4   1  10    3.51    1.14
  -5  -1 -10    2.88    1.58
   5  -1  10    5.44    1.28
   5   1  10    4.12    1.03
   5   1  10    5.46    1.42
   5   1  10    5.05    1.06
  -5   1 -10    3.88    1.46
  -6  -1 -10    9.38    2.21
  -6   1 -10    8.10    2.05
   6   1  10    8.14    1.35
  -7  -2  10    1.37    1.11
  -7  -2  10    1.44    1.31
  -7   2  10    1.65    1.18
  -6  -2  10    0.44    0.96
  -6  -2  10    0.80    1.13
  -6  -2  10    2.40    0.99
   6  -2 -10    0.80    0.84
   6  -2 -10    1.20    0.82
   6   2 -10    0.98    0.99
  -6   2  10    0.86    0.94
  -6   2  10    1.04    0.71
   6   2 -10    0.47    0.69
  -5  -2  10    9.78    1.29
  -5  -2  10   11.73    1.47
   5  -2 -10    9.49    1.19
  -5  -2  10    8.99    1.29
  -5  -2  10   10.68    1.54
   5  -2 -10    9.52    1.39
  -5   2  10    9.58    1.30
  -5   2  10    9.87    1.28
  -5   2  10    9.18    1.26
   5   2 -10   10.13    1.25
   5   2 -10    8.94    1.26
  -5   2  10    9.64    1.15
   5   2 -10    9.65    1.17
  -4  -2  10   12.47    1.49
  -4  -2  10   12.73    1.57
   4  -2 -10   11.50    1.26
  -4  -2  10   12.69    1.52
  -4  -2  10   12.33    1.44
  -4   2  10   15.75    1.36
  -4   2  10   12.99    1.23
  -4   2  10   13.30    1.37
   4   2 -10   12.73    1.38
   4   2 -10   12.71    1.43
  -4   2  10   12.43    1.30
  -4   2  10   10.68    1.46
   4   2 -10   12.87    1.28
   3  -2 -10   13.01    1.13
  -3  -2  10   12.21    1.22
   3  -2 -10   12.37    1.03
  -3  -2  10   14.71    1.35
  -3  -2  10   11.71    1.12
  -3  -2  10   12.70    1.22
  -3  -2  10   12.43    1.19
  -3   2  10    9.20    1.03
   3   2 -10    9.91    1.12
  -3   2  10    7.30    0.99
  -3   2  10    8.85    1.18
  -3   2  10    8.32    0.99
  -3   2  10    8.86    1.07
   3   2 -10    8.96    1.10
  -3   2  10    8.76    1.06
  -2  -2  10   47.39    3.81
  -2  -2  10   50.83    4.14
  -2  -2  10   49.19    3.37
  -2  -2  10   52.32    3.41
  -2  -2  10   50.39    3.54
  -2  -2  10   53.67    3.39
  -2  -2  10   51.77    3.50
  -2  -2  10   48.72    3.94
  -2  -2  10   49.83    3.85
   2  -2 -10   52.02    3.38
  -2  -2  10   52.35    3.78
   2  -2 -10   50.76    3.65
  -2   2  10   60.14    3.64
  -2   2  10   58.02    3.95
  -2   2  10   60.07    3.59
  -2   2  10   57.83    3.78
  -2   2  10   58.23    3.71
  -2   2  10   56.49    3.54
   2   2 -10   61.37    3.50
  -2   2  10   55.69    3.70
   2   2 -10   60.23    3.79
  -2   2  10   56.56    3.55
  -1  -2  10   52.68    3.17
   1  -2 -10   47.39    2.93
  -1  -2  10   46.49    3.01
  -1  -2  10   49.77    3.04
  -1  -2  10   50.64    3.53
  -1  -2  10   47.48    3.32
  -1  -2  10   49.53    3.01
  -1  -2  10   48.19    3.03
  -1  -2  10   45.54    3.38
  -1  -2  10   45.22    3.60
  -1  -2  10   51.03    3.37
   1  -2 -10   45.12    3.20
  -1  -2  10   47.33    3.11
  -1   2  10   43.37    3.12
  -1   2  10   43.48    3.08
  -1   2  10   45.89    3.04
  -1   2  10   44.40    3.16
   1   2 -10   45.68    2.93
  -1   2  10   50.25    3.46
   1   2 -10   47.74    3.08
  -1   2  10   42.27    3.27
  -1   2  10   40.72    3.34
  -1   2  10   46.66    3.22
  -1   2  10   48.04    3.24
  -1   2  10   47.07    3.29
   1   2 -10   46.00    3.26
  -1   2  10   41.07    3.11
   0  -2  10   40.13    2.64
   0  -2  10   40.16    2.74
   0  -2  10   38.75    2.71
   0  -2  10   43.51    2.92
   0  -2  10   37.97    2.63
   0  -2 -10   41.41    2.37
   0  -2 -10   40.13    2.75
   0  -2  10   39.77    2.65
   0  -2  10   39.02    2.62
   0  -2 -10   37.54    2.48
   0   2  10   38.64    2.77
   0   2 -10   37.71    2.52
   0   2  10   41.72    3.00
   0   2  10   36.46    2.79
   0   2 -10   37.47    2.79
   0   2  10   37.48    2.67
   0   2  10   38.26    2.96
   0   2 -10   39.76    2.60
   0   2 -10   40.54    2.61
   0   2  10   41.20    2.74
   0   2  10   36.85    2.73
   0   2  10   37.53    2.62
   0   2  10   37.51    2.72
   0   2  10   35.84    2.84
   1  -2  10   44.73    2.64
   1  -2  10   42.75    2.68
  -1  -2 -10   42.62    3.25
   1  -2  10   44.23    2.61
   1  -2  10   40.75    2.64
  -1  -2 -10   38.36    3.55
  -1  -2 -10   43.96    2.45
   1  -2  10   44.93    2.91
   1  -2  10   43.15    2.68
   1  -2  10   45.37    2.78
   1   2  10   35.11    2.69
  -1   2 -10   35.21    2.46
   1   2  10   35.64    2.84
   1   2  10   36.45    2.76
  -1   2 -10   31.45    2.56
  -1   2 -10   34.33    2.51
   1   2  10   35.80    2.87
   1   2  10   34.60    2.68
   1   2  10   31.50    2.53
  -1   2 -10   34.09    2.73
   1   2  10   33.19    2.68
  -1   2 -10   34.62    3.24
   1   2  10   36.88    2.65
   1   2  10   34.67    2.54
   1   2  10   33.75    2.65
   2  -2  10   35.23    2.71
   2  -2  10   34.04    2.67
   2  -2  10   31.10    2.50
  -2  -2 -10   30.03    3.29
  -2  -2 -10   32.62    2.31
   2  -2  10   36.19    2.78
   2  -2  10   32.45    2.57
   2  -2  10   35.73    2.51
   2  -2  10   36.26    2.67
   2  -2  10   34.14    2.53
  -2   2 -10   33.97    2.51
   2   2  10   37.78    2.76
   2   2  10   38.70    2.67
   2   2  10   35.49    2.72
   2   2  10   40.68    2.78
   2   2  10   41.40    2.76
   2   2  10   36.86    2.72
   2   2  10   37.55    2.61
  -2   2 -10   33.70    2.41
   2   2  10   37.16    2.50
   2   2  10   38.54    2.63
  -2   2 -10   36.90    3.19
   2   2  10   39.04    2.88
  -2   2 -10   36.48    2.39
   3  -2  10   44.69    3.25
   3  -2  10   47.12    3.52
   3  -2  10   40.73    3.25
  -3  -2 -10   36.90    4.23
   3  -2  10   46.46    3.31
   3  -2  10   45.32    3.38
   3  -2  10   45.08    3.50
   3  -2  10   46.20    3.25
   3  -2  10   44.08    3.19
   3   2  10   49.17    3.36
   3   2  10   48.90    3.44
  -3   2 -10   45.77    2.93
   3   2  10   46.47    3.37
  -3   2 -10   45.82    3.16
  -3   2 -10   42.42    3.03
   3   2  10   50.58    3.39
   3   2  10   44.67    3.11
   3   2  10   48.11    3.39
  -3   2 -10   44.15    4.05
   3   2  10   49.09    3.55
   3   2  10   53.47    3.35
   3   2  10   42.92    3.35
   3   2  10   52.41    3.80
   4  -2  10   30.00    2.60
   4  -2  10   30.79    2.40
   4  -2  10   28.87    2.53
   4  -2  10   26.96    2.63
   4  -2  10   29.22    2.36
  -4  -2 -10   22.04    3.21
   4  -2  10   29.18    2.37
   4  -2  10   28.90    2.33
  -4   2 -10   30.26    2.38
   4   2  10   28.82    2.63
  -4   2 -10   30.70    2.19
  -4   2 -10   26.68    2.97
   4   2  10   34.93    2.62
   4   2  10   30.68    2.63
   4   2  10   33.14    2.60
   4   2  10   31.98    2.87
   4   2  10   28.25    2.58
   4   2  10   30.10    2.65
   4   2  10   24.33    2.40
   4   2  10   37.33    2.66
  -5  -2 -10   11.35    2.22
  -5   2 -10   12.52    1.97
   5   2  10   11.15    1.50
  -5   2 -10   10.61    1.38
  -6  -2 -10    8.25    2.20
  -6   2 -10    4.30    1.72
   6   2  10    5.44    1.08
  -7  -3  10    8.76    1.81
  -7  -3  10    9.24    1.95
   6  -3 -10    8.42    1.18
  -6  -3  10    8.05    1.64
  -6  -3  10    6.84    1.48
  -6  -3  10    8.18    1.58
  -6   3  10    8.32    1.27
   6   3 -10    6.84    1.26
  -5  -3  10    6.82    1.24
  -5  -3  10    8.29    1.43
   5  -3 -10    7.21    1.05
  -5  -3  10    6.70    1.36
   5   3 -10    9.88    1.21
   5   3 -10   10.18    1.36
   5   3 -10    8.12    1.24
  -5   3  10    7.26    1.16
  -5   3  10    8.65    1.15
  -5   3  10    8.24    1.12
  -4  -3  10    5.80    1.02
  -4  -3  10    5.71    1.22
  -4  -3  10    5.99    1.17
  -4  -3  10    4.95    1.11
   4  -3 -10    5.29    0.85
  -4   3  10    6.94    0.92
  -4   3  10    6.43    0.93
  -4   3  10    6.48    0.90
  -4   3  10    6.34    0.99
   4   3 -10    5.97    0.93
   4   3 -10    6.99    0.98
  -4   3  10    5.09    1.09
   4   3 -10    5.80    0.88
  -3  -3  10    5.73    1.01
   3  -3 -10    7.36    0.78
   3  -3 -10    6.65    0.83
  -3  -3  10    5.53    1.10
  -3  -3  10    5.75    0.98
  -3  -3  10    7.74    0.86
  -3  -3  10    3.74    1.02
   3   3 -10    5.98    0.89
  -3   3  10    7.68    0.91
  -3   3  10    6.39    1.10
  -3   3  10    5.48    0.86
   3   3 -10    6.33    0.97
  -3   3  10    7.39    0.84
  -3   3  10    5.67    0.85
  -2  -3  10    2.50    0.58
   2  -3 -10    3.33    0.62
  -2  -3  10    2.08    0.46
  -2  -3  10    1.42    0.82
  -2  -3  10    3.07    0.73
  -2  -3  10    1.93    0.79
  -2  -3  10    1.00    0.60
   2  -3 -10    2.40    0.48
   2   3 -10    1.81    0.73
  -2   3  10    1.74    0.48
  -2   3  10    2.23    0.53
  -2   3  10    0.71    0.50
  -2   3  10    1.17    0.64
  -2   3  10    1.36    0.61
  -2   3  10    1.69    0.57
   2   3 -10    1.30    0.66
  -2   3  10    1.17    0.72
   1  -3 -10   17.66    1.37
  -1  -3  10   15.79    1.62
  -1  -3  10   17.79    1.27
  -1  -3  10   15.88    1.49
   1  -3 -10   19.10    1.22
  -1  -3  10   16.50    1.30
  -1  -3  10   16.87    1.24
  -1  -3  10   18.44    1.56
  -1  -3  10   16.50    1.46
  -1  -3  10   17.57    1.28
  -1  -3  10   16.78    1.38
  -1   3  10   16.90    1.44
  -1   3  10   13.46    1.48
  -1   3  10   16.01    1.60
  -1   3  10   16.94    1.45
  -1   3  10   17.57    1.40
  -1   3  10   17.48    1.34
  -1   3  10   16.16    1.56
   1   3 -10   14.45    1.40
  -1   3  10   16.54    1.45
  -1   3  10   15.54    1.63
   1   3 -10   16.44    1.39
   1   3 -10   16.77    1.58
  -1   3  10   18.07    1.54
  -1   3  10   15.00    1.39
   1   3 -10   18.50    1.50
   0  -3 -10    3.05    0.76
   0  -3  10    3.85    0.62
   0  -3  10    3.70    0.62
   0  -3  10    3.77    0.79
   0  -3  10    4.05    0.65
   0  -3  10    3.34    0.62
   0  -3  10    3.57    0.69
   0  -3  10    4.16    0.78
   0  -3 -10    3.98    0.67
   0  -3  10    3.45    0.58
   0   3  10    2.62    0.81
   0   3 -10    3.79    0.71
   0   3  10    4.10    0.92
   0   3  10    3.75    0.71
   0   3  10    4.65    0.73
   0   3  10    3.59    0.72
   0   3  10    2.82    0.61
   0   3  10    3.16    0.69
   0   3  10    3.70    0.69
   0   3 -10    4.67    0.81
   0   3  10    3.45    0.73
   0   3 -10    3.47    0.82
   0   3  10    4.98    0.63
   0   3  10    3.24    0.80
   0   3 -10    3.94    0.65
   1  -3  10    0.00    0.53
  -1  -3 -10   -0.45    0.53
   1  -3  10   -0.28    0.53
   1  -3  10   -0.02    0.47
  -1  -3 -10   -0.35    0.61
   1  -3  10   -0.09    0.38
   1  -3  10    0.02    0.44
   1  -3  10    0.20    0.44
   1  -3  10   -0.05    0.52
   1   3  10    0.56    0.51
   1   3  10    0.65    0.69
   1   3  10    0.11    0.55
   1   3  10    0.37    0.52
  -1   3 -10    0.35    0.43
   1   3  10   -0.31    0.51
   1   3  10    0.14    0.68
   1   3  10    0.25    0.52
  -1   3 -10   -0.04    0.51
   1   3  10    1.10    0.62
   1   3  10    0.97    0.57
   1   3  10   -0.85    0.63
  -1   3 -10    0.49    0.56
  -1   3 -10    0.09    0.62
   1   3  10   -0.26    0.58
   2  -3  10    6.45    1.00
   2  -3  10    5.50    0.83
   2  -3  10    6.85    0.92
  -2  -3 -10    6.13    1.45
   2  -3  10    7.51    1.12
   2  -3  10    5.75    0.98
   2  -3  10    6.43    0.93
   2  -3  10    7.90    1.07
   2   3  10    7.53    1.20
   2   3  10    9.06    1.03
  -2   3 -10    6.35    0.90
   2   3  10    7.77    1.04
   2   3  10    7.09    1.02
  -2   3 -10    7.77    0.95
  -2   3 -10    7.18    0.97
   2   3  10    5.57    1.01
   2   3  10    7.75    1.10
   2   3  10    6.78    0.98
   2   3  10    7.44    1.06
   2   3  10    7.34    1.06
   2   3  10    6.29    1.13
   3  -3  10    3.88    0.85
   3  -3  10    3.67    0.90
   3  -3  10    4.27    0.84
   3  -3  10    3.33    0.96
   3  -3  10    3.17    0.78
  -3  -3 -10    3.27    1.34
   3  -3  10    3.10    0.78
   3  -3  10    3.62    0.94
   3   3  10    1.65    0.97
   3   3  10    3.66    1.06
  -3   3 -10    2.51    0.78
   3   3  10    2.43    0.87
   3   3  10    3.06    1.02
   3   3  10    2.34    0.80
  -3   3 -10    1.64    0.80
   3   3  10    2.08    0.79
   3   3  10    1.79    0.76
   3   3  10    3.49    0.91
   3   3  10    3.53    1.06
  -3   3 -10    3.60    0.78
   3   3  10    2.28    1.00
  -3   3 -10    3.23    0.90
   4  -3  10    3.32    0.90
   4  -3  10    4.32    1.14
   4  -3  10    3.15    1.07
  -4  -3 -10    2.24    1.45
   4  -3  10    3.84    0.93
   4  -3  10    4.83    0.94
   4  -3  10    2.02    1.12
   4  -3  10    3.51    0.89
  -4   3 -10    2.29    0.80
   4   3  10    2.05    1.09
   4   3  10    2.78    1.14
   4   3  10    2.94    0.95
  -4   3 -10    2.57    0.93
   4   3  10    2.34    0.93
   4   3  10    2.91    1.27
   4   3  10    3.76    1.19
   4   3  10    4.08    1.00
   4   3  10    2.63    1.10
  -4   3 -10    2.39    0.84
   4   3  10    5.04    1.24
  -4   3 -10    1.58    1.00
  -5  -3 -10   10.47    2.10
   5   3  10   13.07    1.65
  -6  -3 -10   -0.54    1.85
   6   3  10    0.67    0.82
  -7  -4  10    2.70    1.32
  -7  -4  10    4.73    1.33
  -7  -4  10    4.85    1.65
  -6  -4  10   -0.30    1.18
  -6  -4  10    1.07    1.24
  -6  -4  10    0.97    1.02
   6   4 -10    2.21    0.96
  -5  -4  10    5.03    1.14
  -5  -4  10    5.86    1.13
  -5  -4  10    6.04    1.37
   5   4 -10    5.65    1.17
   5   4 -10    4.11    1.13
   5   4 -10    6.34    1.03
  -5   4  10    3.94    1.14
  -4  -4  10    6.98    1.10
  -4  -4  10    6.49    1.18
  -4  -4  10    7.36    1.39
  -4  -4  10    7.18    1.27
  -4   4  10    6.14    1.08
  -4   4  10    6.70    0.92
   4   4 -10    6.22    1.03
  -4   4  10    7.24    1.11
   4   4 -10    9.10    1.07
   4   4 -10    7.88    0.99
  -3  -4  10   14.15    1.57
  -3  -4  10   12.86    1.68
  -3  -4  10   14.10    1.73
   3   4 -10   13.22    1.50
  -3   4  10   14.00    1.48
  -3   4  10   13.55    1.49
  -3   4  10   17.15    1.46
   3   4 -10   13.78    1.30
  -2  -4  10   24.52    2.14
  -2  -4  10   20.80    1.82
  -2  -4  10   22.59    1.82
  -2   4  10   19.30    1.91
   2   4 -10   18.73    1.81
  -2   4  10   18.59    1.62
   2   4 -10   20.32    1.61
   2   4 -10   16.81    1.58
  -2   4  10   20.35    1.82
  -2   4  10   20.78    1.80
  -1  -4  10   42.11    3.42
  -1  -4  10   38.53    3.39
  -1  -4  10   43.97    2.98
  -1  -4  10   47.04    3.30
  -1  -4  10   41.90    3.73
  -1  -4  10   43.80    3.06
  -1   4  10   54.10    3.30
  -1   4  10   43.24    3.35
  -1   4  10   48.48    3.32
   1   4 -10   46.77    3.10
  -1   4  10   48.40    3.19
  -1   4  10   51.84    3.22
   1   4 -10   50.25    3.40
   1   4 -10   52.05    3.18
  -1   4  10   50.08    3.54
  -1   4  10   43.20    3.15
  -1   4  10   50.33    3.30
   1   4 -10   46.99    2.97
   0  -4  10   15.27    1.60
   0  -4  10   14.52    1.22
   0  -4  10   16.90    1.20
   0  -4 -10   14.69    1.76
   0  -4  10   17.00    1.24
   0  -4  10   17.21    1.23
   0  -4  10   15.10    1.56
   0  -4  10   16.26    1.30
   0  -4  10   16.43    1.35
   0   4 -10   12.59    1.29
   0   4  10   10.12    1.34
   0   4  10   11.82    1.36
   0   4  10   10.24    1.40
   0   4  10   13.69    1.50
   0   4 -10   14.12    1.22
   0   4 -10   12.74    1.34
   0   4  10   13.68    1.55
   0   4  10   11.88    1.44
   0   4  10   13.87    1.48
   0   4  10   14.08    1.27
   0   4 -10   12.02    1.22
   0   4  10   12.41    1.43
   0   4  10   14.21    1.49
   1  -4  10   55.16    3.54
   1  -4  10   55.67    3.58
   1  -4  10   57.92    3.55
   1  -4  10   54.14    3.67
  -1  -4 -10   49.03    4.53
   1  -4  10   53.93    4.27
   1  -4  10   59.13    3.68
   1  -4  10   56.35    3.53
  -1  -4 -10   50.75    4.96
   1  -4  10   59.38    3.88
  -1   4 -10   57.47    3.91
  -1   4 -10   54.72    3.63
   1   4  10   50.89    3.62
   1   4  10   54.32    3.94
   1   4  10   57.48    3.74
  -1   4 -10   58.71    3.62
   1   4  10   47.01    3.57
   1   4  10   58.06    3.92
   1   4  10   52.20    3.75
   1   4  10   54.30    3.67
   1   4  10   45.53    3.86
   1   4  10   51.33    3.73
  -1   4 -10   55.49    3.47
   1   4  10   50.53    3.77
   1   4  10   53.84    3.92
   2  -4  10   27.18    2.08
  -2  -4 -10   22.04    2.85
   2  -4  10   26.23    2.04
   2  -4  10   24.63    1.96
   2  -4  10   24.27    2.07
   2  -4  10   28.30    1.94
   2  -4  10   29.70    2.01
   2  -4  10   30.43    2.19
   2   4  10   24.83    2.05
  -2   4 -10   23.44    1.97
  -2   4 -10   22.40    1.91
   2   4  10   20.64    2.11
   2   4  10   23.88    2.24
   2   4  10   23.75    2.16
   2   4  10   26.01    2.22
   2   4  10   22.52    2.20
   2   4  10   24.12    2.25
   2   4  10   22.39    1.96
   2   4  10   23.13    2.16
   2   4  10   27.66    2.10
  -2   4 -10   23.19    1.83
   3  -4  10   36.28    2.74
   3  -4  10   33.88    2.61
   3  -4  10   34.27    2.69
   3  -4  10   35.38    2.73
   3  -4  10   34.03    2.51
   3  -4  10   35.08    2.67
   3  -4  10   36.02    2.66
  -3  -4 -10   30.20    3.63
   3   4  10   36.42    2.77
   3   4  10   37.30    2.85
   3   4  10   30.40    2.45
   3   4  10   31.85    2.84
   3   4  10   34.58    2.65
  -3   4 -10   33.66    2.47
   3   4  10   29.34    2.74
   3   4  10   33.05    2.78
   3   4  10   35.81    3.00
  -3   4 -10   34.55    2.66
   3   4  10   41.11    2.89
  -3   4 -10   35.03    2.42
   3   4  10   38.40    2.77
   4  -4  10   10.97    1.70
   4  -4  10   15.04    1.69
   4  -4  10   12.20    1.53
   4  -4  10   13.28    1.57
   4  -4  10   10.96    1.51
   4  -4  10   13.00    1.54
   4  -4  10   12.39    1.50
  -4  -4 -10    9.64    2.28
   4   4  10   14.86    1.57
  -4   4 -10   12.99    1.63
   4   4  10   16.21    1.94
  -4   4 -10   17.71    1.48
   4   4  10   15.65    1.72
   4   4  10   16.03    2.07
   4   4  10   14.64    1.82
   4   4  10   16.40    1.89
   4   4  10   16.52    1.70
   4   4  10   13.80    1.48
   4   4  10   14.40    1.73
  -4   4 -10   14.15    1.56
   4   4  10   12.15    1.66
  -5  -4 -10   23.94    3.12
   5   4  10   19.80    2.18
  -7  -5  10    0.59    1.17
  -7  -5  10    1.76    1.61
  -6  -5  10    5.45    1.36
  -6  -5  10    4.25    1.23
  -6  -5  10    4.19    1.28
  -5  -5  10    6.01    1.53
  -5  -5  10    5.34    1.23
  -5  -5  10    3.90    1.34
  -4  -5  10   10.45    1.57
  -4  -5  10    8.73    1.55
  -4  -5  10    8.53    1.28
   4   5 -10    8.11    1.30
  -4   5  10    6.44    1.32
   4   5 -10    9.04    1.16
  -3  -5  10   16.01    1.84
  -3  -5  10   17.01    1.87
  -3  -5  10   15.80    1.70
  -3   5  10   16.57    1.71
   3   5 -10   17.08    1.51
  -3   5  10   17.00    1.85
   3   5 -10   17.73    1.60
  -3   5  10   17.71    1.53
  -2  -5  10    4.10    0.91
  -2  -5  10    4.42    0.97
   2  -5 -10    2.70    1.02
  -2  -5  10    2.90    1.02
   2   5 -10    3.16    0.74
  -2   5  10    3.18    0.89
   2   5 -10    3.78    0.80
  -2   5  10    3.27    0.95
  -2   5  10    4.26    0.84
  -2   5  10    4.13    0.82
   2   5 -10    2.58    0.68
   2   5 -10    3.40    0.72
  -1  -5  10    0.68    0.92
  -1  -5  10    1.45    0.73
   1  -5 -10    0.57    0.78
  -1  -5  10    0.82    0.70
   1   5 -10    1.14    0.74
  -1   5  10    2.14    0.67
  -1   5  10    0.73    0.56
  -1   5  10    2.68    0.84
  -1   5  10    1.07    0.79
  -1   5  10    1.52    0.82
   1   5 -10    1.59    0.57
  -1   5  10    1.48    0.81
   1   5 -10    0.99    0.80
  -1   5  10    2.26    0.85
   1   5 -10    0.62    0.74
   0  -5  10    5.32    1.08
   0  -5 -10    3.21    1.13
   0  -5  10    4.07    0.68
   0  -5  10    3.59    1.10
   0  -5  10    4.53    0.71
   0  -5  10    4.39    0.78
   0   5  10    2.27    0.84
   0   5 -10    4.12    0.75
   0   5  10    1.85    0.85
   0   5  10    1.62    0.83
   0   5  10    3.51    0.81
   0   5  10    3.75    0.80
   0   5 -10    3.56    0.70
   0   5  10    3.77    0.93
   0   5  10    3.68    0.85
   0   5  10    4.59    0.86
   0   5  10    2.50    0.89
   0   5 -10    3.56    0.75
   0   5 -10    3.21    0.93
   0   5  10    3.88    0.82
   1  -5  10    0.14    0.55
   1  -5  10    0.13    0.52
   1  -5  10    0.91    0.57
   1  -5  10    0.64    0.63
   1  -5  10    0.25    0.60
  -1  -5 -10    0.77    0.91
  -1  -5 -10   -0.21    0.75
   1  -5  10   -0.53    0.61
   1  -5  10    0.55    0.73
   1   5  10    0.55    0.84
   1   5  10    1.18    0.85
  -1   5 -10    1.03    0.65
   1   5  10    0.72    0.82
   1   5  10    0.52    0.76
  -1   5 -10    0.78    0.61
   1   5  10    0.47    0.58
  -1   5 -10   -0.79    0.71
   1   5  10    0.63    0.75
   1   5  10    0.64    0.59
   1   5  10    0.62    0.80
   1   5  10    0.65    0.60
  -1   5 -10    0.66    0.76
   1   5  10    0.38    0.58
   1   5  10    1.05    0.65
   2  -5  10    1.99    0.84
  -2  -5 -10    2.97    1.19
   2  -5  10    2.69    0.87
   2  -5  10    2.57    0.93
   2  -5  10    1.06    0.71
   2  -5  10    2.34    0.64
   2  -5  10    1.89    0.76
   2  -5  10    2.13    0.69
   2  -5  10    2.94    0.85
   2   5  10    1.89    0.76
   2   5  10    1.95    0.93
   2   5  10    2.28    0.95
   2   5  10    1.90    0.78
   2   5  10    1.77    0.89
  -2   5 -10    1.91    0.87
   2   5  10    1.80    0.77
  -2   5 -10    0.36    0.78
   2   5  10    1.25    0.88
   2   5  10    1.08    0.62
   2   5  10    1.73    0.97
  -2   5 -10    1.03    0.67
  -3  -5 -10    1.89    1.52
   3  -5  10    2.09    1.01
   3  -5  10    1.00    0.87
   3  -5  10    2.84    1.03
   3  -5  10    0.52    0.80
   3  -5  10    2.46    0.95
   3  -5  10    2.40    0.77
   3  -5  10    2.24    0.91
   3   5  10    1.72    0.93
   3   5  10    1.59    0.97
   3   5  10    1.92    1.08
  -3   5 -10    2.46    1.03
   3   5  10    0.50    0.77
   3   5  10    1.54    1.05
   3   5  10    1.70    1.05
   3   5  10    0.80    0.94
   3   5  10    1.57    0.74
   3   5  10    1.31    0.89
  -3   5 -10    0.58    0.88
  -3   5 -10    1.04    0.70
   3   5  10    2.38    1.10
  -4  -5 -10    4.32    1.90
   4  -5  10    5.42    1.23
   4   5  10    5.16    1.28
   4   5  10    6.22    1.31
   4   5  10    8.32    1.41
   4   5  10    5.30    1.20
  -4   5 -10    5.83    1.24
  -5  -5 -10    3.31    1.59
   5   5  10    3.03    1.31
  -6  -6  10    4.88    1.36
  -6  -6  10    3.24    1.66
  -6  -6  10    6.26    1.54
  -5  -6  10    3.89    1.49
  -5  -6  10    5.15    1.64
  -5  -6  10    4.46    1.18
  -4  -6  10   13.15    1.75
  -4  -6  10    9.76    1.81
   4  -6 -10    5.73    1.69
  -4  -6  10   11.91    1.58
  -4   6  10   12.85    1.61
   4   6 -10   11.25    1.50
   4   6 -10   10.33    1.28
  -4   6  10   12.37    1.41
  -3  -6  10    7.06    1.35
   3  -6 -10    6.53    1.84
  -3  -6  10    8.83    1.48
  -3  -6  10    7.79    1.46
   3   6 -10    9.86    1.34
   3   6 -10   10.08    1.11
  -3   6  10   10.12    1.45
   3   6 -10   10.71    1.21
  -3   6  10    9.86    1.33
  -3   6  10    6.97    1.13
   2  -6 -10   10.35    1.92
  -2  -6  10   11.60    1.59
  -2  -6  10   15.29    1.99
  -2  -6  10   13.25    1.61
  -2   6  10   15.32    1.55
  -2   6  10   17.06    1.75
   2   6 -10   17.77    1.65
   2   6 -10   16.60    1.69
  -2   6  10   14.61    1.66
   2   6 -10   16.37    1.54
   2   6 -10   17.84    1.64
  -1  -6  10   20.40    1.80
  -1  -6  10   20.74    2.04
   1  -6 -10   16.86    2.15
  -1  -6  10   20.59    2.22
   1   6 -10   16.63    1.59
  -1   6  10   20.07    1.72
  -1   6  10   21.89    1.76
  -1   6  10   16.40    1.64
  -1   6  10   19.84    1.88
   1   6 -10   17.15    1.53
   1   6 -10   18.87    1.62
  -1   6  10   16.96    1.62
  -1   6  10   16.28    1.84
  -1   6  10   19.45    1.90
   1   6 -10   18.10    1.68
   0  -6  10   18.28    1.86
   0  -6  10   17.17    1.84
   0  -6  10   17.74    1.67
   0  -6 -10   15.67    2.11
   0   6  10   16.28    1.65
   0   6  10   18.83    1.62
   0   6 -10   17.37    1.68
   0   6  10   16.04    1.64
   0   6  10   15.47    1.71
   0   6 -10   16.19    1.69
   0   6  10   13.88    1.61
   0   6  10   15.29    1.69
   0   6 -10   16.12    1.57
   0   6  10   13.20    1.58
   0   6  10   12.97    1.56
   0   6 -10   14.53    1.59
   0   6  10   15.82    1.64
   0   6  10   13.24    1.68
   1  -6  10   19.44    1.69
  -1  -6 -10   18.97    2.27
   1  -6  10   19.38    1.65
   1  -6  10   17.29    2.20
   1  -6  10   20.77    1.73
   1   6  10   19.36    1.83
   1   6  10   21.39    1.99
   1   6  10   20.27    1.79
   1   6  10   17.75    1.66
   1   6  10   19.81    1.98
   1   6  10   18.47    1.76
   1   6  10   18.91    1.79
  -1   6 -10   21.12    2.01
  -1   6 -10   19.64    1.87
   1   6  10   18.47    1.94
   1   6  10   19.90    2.00
  -1   6 -10   18.57    1.61
  -1   6 -10   19.34    1.71
   1   6  10   20.02    2.04
   2  -6  10   47.70    3.08
   2  -6  10   47.93    3.19
   2  -6  10   48.86    3.06
   2  -6  10   45.45    3.30
  -2  -6 -10   40.53    4.31
   2  -6  10   37.97    3.64
   2  -6  10   43.57    3.04
   2  -6  10   46.01    3.21
   2   6  10   44.17    3.19
   2   6  10   43.25    3.41
   2   6  10   41.98    3.42
   2   6  10   43.71    3.41
   2   6  10   39.27    3.28
   2   6  10   44.91    3.34
   2   6  10   39.79    3.06
  -2   6 -10   40.57    2.95
  -2   6 -10   43.51    3.08
  -2   6 -10   48.60    3.26
   2   6  10   47.22    3.37
   2   6  10   44.75    3.24
   2   6  10   37.61    3.03
   3  -6  10    1.86    0.79
   3  -6  10    1.71    0.96
   3  -6  10    2.14    1.27
   3  -6  10    1.33    0.70
   3  -6  10    2.77    0.80
  -3  -6 -10    2.05    1.62
   3  -6  10    2.36    1.03
   3   6  10    3.96    1.06
   3   6  10    1.31    1.08
   3   6  10    1.26    1.01
  -3   6 -10    1.45    1.02
   3   6  10    2.26    1.09
   3   6  10    3.05    1.16
   3   6  10    1.32    0.86
   3   6  10    3.65    0.94
  -4  -6 -10   20.13    3.09
   4   6  10   18.48    1.98
   4   6  10   18.12    1.99
  -5  -6 -10   10.59    2.39
   5   6  10   14.68    1.93
   5   6  10   14.03    1.74
  -6  -7  10    2.88    1.66
  -6  -7  10    3.29    1.88
  -5  -7  10   -0.32    1.50
   5  -7 -10    2.24    1.95
  -5  -7  10    1.37    1.10
  -5  -7  10    1.22    1.34
  -4  -7  10    2.44    1.07
  -4  -7  10    4.30    1.12
   4  -7 -10    3.06    1.46
  -4  -7  10    4.50    1.59
  -4   7  10    3.55    1.07
  -3  -7  10    7.80    1.52
  -3  -7  10    7.23    1.45
  -3  -7  10    5.28    1.54
   3  -7 -10    4.94    1.80
   3   7 -10    5.46    1.15
  -3   7  10    5.51    1.20
  -3   7  10    5.48    1.07
  -3   7  10    4.04    0.99
   3   7 -10    8.16    1.30
   3   7 -10    5.96    1.13
   2  -7 -10    3.80    1.67
  -2  -7  10    5.87    1.18
  -2  -7  10    7.51    1.46
  -2  -7  10    6.68    1.59
  -2   7  10    8.18    1.34
  -2   7  10    7.83    1.30
   2   7 -10   10.75    1.34
   2   7 -10    8.40    1.31
   2   7 -10    9.54    1.32
  -2   7  10   10.35    1.42
   2   7 -10    7.14    1.19
  -1  -7  10    1.35    1.07
  -1  -7  10    0.13    1.16
  -1  -7  10    1.02    0.81
   1  -7 -10    1.41    1.34
  -1   7  10   -0.34    0.84
  -1   7  10    1.05    0.93
   1   7 -10    1.39    0.89
   1   7 -10    1.03    0.67
  -1   7  10    0.56    0.62
  -1   7  10    1.38    0.93
   1   7 -10    0.89    0.90
   1   7 -10    0.98    0.66
  -1   7  10    1.22    0.71
  -1   7  10   -0.06    0.87
   0  -7  10    1.97    1.12
   0  -7 -10    0.48    1.15
   0  -7  10    1.24    1.17
   0  -7  10    0.43    0.77
   0   7 -10    1.94    0.95
   0   7  10    2.01    0.84
   0   7 -10    1.41    0.70
   0   7  10    1.05    0.72
   0   7  10    1.12    0.95
   0   7  10    0.62    0.90
   0   7 -10    1.61    0.87
   0   7  10    1.06    0.95
   0   7 -10    1.94    0.75
   0   7  10    1.74    0.95
   0   7  10    1.18    0.75
   0   7  10    1.43    0.76
   0   7  10    1.81    0.75
   0   7  10    1.50    0.93
  -1  -7 -10    5.37    1.46
   1  -7  10    5.17    1.44
   1  -7  10    5.21    1.12
   1   7  10    5.77    1.26
   1   7  10    5.12    1.20
   1   7  10    4.38    1.15
   1   7  10    4.24    0.94
   1   7  10    6.39    1.20
  -1   7 -10    4.40    0.92
   1   7  10    5.97    1.07
  -1   7 -10    4.81    1.13
  -1   7 -10    4.27    0.95
  -1   7 -10    5.79    1.00
   1   7  10    5.59    1.10
   1   7  10    5.15    1.15
   1   7  10    6.37    1.10
   2  -7  10    0.85    1.19
  -2  -7 -10    1.37    1.28
   2   7  10    0.50    0.90
   2   7  10    0.75    0.97
   2   7  10    0.85    0.98
   2   7  10   -0.18    1.01
   2   7  10   -0.83    0.96
   2   7  10    1.24    0.80
   2   7  10   -0.69    0.63
   3  -7  10    1.02    1.28
  -3  -7 -10    2.85    1.49
   3   7  10    0.05    0.76
   3   7  10    0.33    1.02
   3   7  10    1.12    1.13
   4  -7  10    7.93    1.86
  -4  -7 -10    8.18    2.44
   4   7  10   11.35    1.58
   4   7  10   11.55    1.63
  -5  -8  10    0.51    1.12
  -5  -8  10    1.48    1.37
   5  -8 -10    0.89    2.05
  -5  -8  10    0.52    1.05
   4  -8 -10    4.78    1.73
  -4  -8  10    6.89    1.58
  -4  -8  10    7.65    1.46
  -4  -8  10    7.21    1.95
  -4   8  10    8.65    1.47
  -3  -8  10   11.12    1.67
   3  -8 -10    5.66    2.00
  -3  -8  10    8.24    1.87
  -3  -8  10    8.75    1.43
  -3   8  10    5.06    1.13
  -2  -8  10   10.96    1.58
   2  -8 -10   12.50    2.10
  -2  -8  10   10.91    1.75
  -2  -8  10    9.51    1.49
  -2   8  10   11.92    1.59
   2   8 -10   11.25    1.48
  -1  -8  10    7.87    1.54
  -1  -8  10    7.96    1.55
  -1  -8  10    7.88    1.54
   1  -8 -10    6.77    1.93
  -1   8  10    9.39    1.41
   1   8 -10   10.04    1.39
  -1   8  10   13.15    1.53
   0  -8  10   10.63    1.69
   0  -8  10    9.31    1.66
   0  -8  10   10.73    1.86
   0  -8 -10   13.20    2.17
   0   8  10   12.65    1.62
   0   8 -10    9.10    1.44
   0   8  10   13.48    1.59
   1  -8  10   11.71    1.78
   1  -8  10   13.24    1.87
  -1  -8 -10   11.30    2.10
   1   8  10   14.37    1.63
   1   8  10   11.28    1.58
   1   8  10   13.81    1.71
   2  -8  10    7.53    1.68
   2   8  10    6.55    1.18
   2   8  10    6.94    1.38
   2   8  10    6.24    1.19
  -3  -8 -10   17.63    3.14
   3  -8  10   14.26    2.27
   3   8  10   17.22    2.08
   3   8  10   18.40    1.87
   3   8  10   15.76    1.93
  -4  -9  10    7.23    1.71
  -4  -9  10   10.74    1.92
  -4   9  10    5.18    1.43
   3  -9 -10    2.38    1.55
  -3  -9  10    5.84    1.51
  -3  -9  10    5.07    1.62
  -3  -9  10    3.96    1.75
  -3   9  10    5.85    1.36
  -2  -9  10   -0.56    1.25
   2  -9 -10   -0.17    1.68
  -2  -9  10    0.56    1.20
  -2  -9  10   -0.37    1.01
  -1  -9  10    2.42    1.30
  -1  -9  10    1.77    1.26
  -1  -9  10    2.25    1.22
   1  -9 -10    3.00    1.41
   0  -9  10    0.53    0.92
   0  -9 -10    1.00    1.59
   0  -9  10   -0.27    1.16
   0  -9  10    0.77    1.03
   0   9  10    1.37    0.91
   1  -9  10   -0.50    1.31
   1  -9  10   -1.25    1.21
  -1  -9 -10    0.27    1.45
   1  -9  10    0.97    1.28
   1   9  10    1.11    1.09
   1   9  10   -0.07    0.81
   2  -9  10    2.08    1.51
   2  -9  10    3.62    1.48
   2   9  10    0.70    0.87
   2   9  10    0.63    0.88
  -1 -10  10    6.83    1.60
   1 -10 -10    6.36    2.28
   0 -10  10    4.35    1.52
   0 -10  10    3.16    1.74
   0 -10 -10    4.37    1.63
   1 -10  10    4.13    1.51
   1 -10  10    2.86    1.62
  -1 -10 -10    2.94    1.79
  -7   0  11   -0.36    1.29
  -6   0  11    3.19    1.04
  -6   0  11    1.39    1.10
   6   0 -11    2.77    1.04
  -6   0  11    2.39    1.23
  -5   0  11   -0.26    0.62
   5   0 -11    0.21    0.60
   5   0 -11   -0.43    0.57
   5   0 -11    0.29    0.87
  -5   0  11    0.70    0.63
  -5   0  11   -0.59    0.61
   4   0 -11    9.21    1.24
  -4   0  11   10.39    1.33
  -4   0  11    9.35    1.31
  -4   0  11    8.92    1.31
   4   0 -11   11.57    1.21
  -4   0  11   10.59    1.21
  -3   0  11    3.78    0.68
  -3   0  11    2.72    0.57
   3   0 -11    2.98    0.61
  -3   0  11    2.80    0.56
  -3   0  11    3.00    0.87
  -3   0  11    2.47    0.59
  -3   0  11    3.43    0.71
  -3   0  11    2.60    0.57
  -3   0  11    2.95    0.82
   3   0 -11    4.09    0.81
  -3   0  11    3.29    0.71
  -2   0  11   18.95    1.65
  -2   0  11   18.67    1.56
  -2   0  11   20.06    1.71
  -2   0  11   16.93    1.69
  -2   0  11   18.44    1.46
  -2   0  11   17.58    1.68
  -2   0  11   21.37    1.49
  -2   0  11   19.33    1.80
   2   0 -11   18.62    1.54
  -2   0  11   16.66    1.50
  -2   0  11   18.34    1.46
  -2   0  11   17.93    1.43
   2   0 -11   17.62    1.39
  -1   0  11   17.47    1.46
  -1   0  11   17.21    1.51
  -1   0  11   18.70    1.54
  -1   0  11   18.29    1.45
  -1   0  11   18.93    1.61
   1   0 -11   17.81    1.58
   1   0 -11   16.92    1.40
  -1   0  11   16.75    1.45
  -1   0  11   17.59    1.72
  -1   0  11   17.48    1.46
  -1   0  11   18.41    1.49
  -1   0  11   17.22    1.47
  -1   0  11   15.61    1.64
   0   0 -11   53.39    3.54
   0   0  11   55.67    3.73
   0   0  11   53.30    3.77
   0   0  11   55.74    3.65
   0   0  11   57.14    4.05
   0   0 -11   54.13    3.82
   0   0 -11   54.21    3.37
   0   0  11   51.68    3.87
   0   0 -11   56.81    3.51
   0   0  11   61.41    3.77
   0   0  11   56.53    3.53
   0   0  11   58.68    4.13
   0   0  11   56.33    3.70
   0   0  11   58.33    3.87
   1   0  11   20.29    1.71
   1   0  11   22.84    1.73
   1   0  11   21.55    1.77
  -1   0 -11   21.93    1.53
  -1   0 -11   20.45    1.51
  -1   0 -11   21.32    1.76
   1   0  11   23.21    1.75
  -1   0 -11   19.93    2.19
   1   0  11   24.87    1.95
   1   0  11   20.92    1.57
   1   0  11   21.39    1.98
   1   0  11   21.55    1.82
   1   0  11   20.92    1.86
  -1   0 -11   19.92    1.62
   2   0  11   19.22    1.71
  -2   0 -11   15.41    1.31
   2   0  11   15.74    1.68
  -2   0 -11   14.51    1.97
   2   0  11   17.24    1.72
  -2   0 -11   16.35    1.47
   2   0  11   18.13    1.62
   2   0  11   19.59    1.59
   2   0  11   18.10    1.58
   2   0  11   17.82    1.43
   2   0  11   18.69    1.81
   3   0  11   36.85    2.65
   3   0  11   32.84    2.34
   3   0  11   30.38    2.56
   3   0  11   32.07    2.70
   3   0  11   34.14    2.62
   3   0  11   34.33    2.90
   3   0  11   35.38    2.77
  -3   0 -11   32.90    3.33
   3   0  11   35.14    2.74
   3   0  11   36.91    2.97
   3   0  11   36.13    2.70
  -3   0 -11   31.04    2.43
   4   0  11   23.37    2.42
   4   0  11   25.16    2.36
   4   0  11   22.68    2.09
   4   0  11   27.16    2.43
   4   0  11   22.83    2.41
   4   0  11   25.98    2.42
   4   0  11   25.88    2.37
  -4   0 -11   18.91    2.72
   4   0  11   23.11    2.11
   4   0  11   21.91    2.02
  -5   0 -11   27.85    3.59
   5   0  11   38.84    3.09
  -6   0 -11    5.31    1.96
  -7  -1  11    4.69    1.52
  -7  -1  11    3.28    1.57
  -7   1  11    5.18    1.52
  -6  -1  11    7.40    1.29
   6  -1 -11    7.97    1.13
  -6  -1  11    6.75    1.32
  -6   1  11    8.53    1.25
  -6   1  11    7.52    1.42
   6   1 -11    7.62    1.20
  -6   1  11    7.96    1.40
   5  -1 -11    7.80    1.03
  -5  -1  11   10.69    1.35
   5  -1 -11    8.95    1.24
   5  -1 -11   10.45    1.28
  -5  -1  11    7.39    1.35
  -5  -1  11    9.80    1.48
   5   1 -11    7.65    1.29
  -5   1  11    6.06    1.09
   5   1 -11    9.12    1.31
   5   1 -11    9.48    1.26
  -5   1  11    7.97    1.20
  -5   1  11   10.43    1.38
   4  -1 -11   18.61    1.50
  -4  -1  11   17.60    1.80
  -4  -1  11   18.06    1.60
  -4  -1  11   19.55    1.73
   4  -1 -11   18.40    1.62
  -4  -1  11   15.92    1.54
  -4   1  11   15.12    1.59
   4   1 -11   14.24    1.48
  -4   1  11   13.45    1.58
   4   1 -11   15.04    1.52
   4   1 -11   14.23    1.50
  -4   1  11   14.11    1.64
  -4   1  11   14.42    1.46
  -3  -1  11   26.89    2.33
  -3  -1  11   26.02    2.11
  -3  -1  11   26.36    2.41
  -3  -1  11   27.79    2.31
   3  -1 -11   28.59    2.06
  -3  -1  11   28.53    2.45
  -3  -1  11   27.42    2.04
   3  -1 -11   27.52    2.23
  -3   1  11   30.42    2.48
  -3   1  11   27.47    2.09
   3   1 -11   30.94    2.33
  -3   1  11   32.61    2.36
  -3   1  11   30.61    2.32
   3   1 -11   30.24    2.15
  -3   1  11   30.11    2.24
  -3   1  11   28.48    2.11
  -3   1  11   28.82    2.26
  -3   1  11   31.44    2.09
  -3   1  11   31.33    2.18
  -2  -1  11   10.99    1.04
  -2  -1  11   12.51    1.13
  -2  -1  11   10.32    0.99
  -2  -1  11   12.49    1.06
   2  -1 -11    9.28    1.15
  -2  -1  11   11.61    1.34
  -2  -1  11   11.38    1.29
  -2  -1  11   11.71    1.05
  -2  -1  11   10.08    1.22
  -2  -1  11   11.16    1.26
  -2  -1  11   10.92    1.10
  -2  -1  11    9.44    1.23
   2  -1 -11    9.80    1.04
  -2   1  11   11.74    1.11
  -2   1  11   12.63    1.27
  -2   1  11   11.84    1.08
  -2   1  11   13.44    1.24
   2   1 -11   13.03    1.19
  -2   1  11   10.65    1.35
  -2   1  11   11.98    1.19
  -2   1  11   12.16    1.24
  -2   1  11   13.80    1.22
  -2   1  11   10.59    1.24
   2   1 -11   13.01    1.08
  -2   1  11   12.74    1.30
  -2   1  11   12.57    1.18
  -1  -1  11    4.94    0.82
   1  -1 -11    3.68    0.78
  -1  -1  11    4.51    0.81
  -1  -1  11    4.62    0.74
  -1  -1  11    4.35    0.70
  -1  -1  11    4.78    0.81
  -1  -1  11    6.80    0.83
  -1  -1  11    4.83    0.81
  -1  -1  11    6.14    0.92
   1  -1 -11    4.80    0.71
  -1  -1  11    4.74    0.84
  -1  -1  11    4.76    0.80
  -1  -1  11    4.72    0.73
   1   1 -11    5.09    0.92
  -1   1  11    7.80    0.94
  -1   1  11    6.98    0.88
  -1   1  11    6.31    0.80
   1   1 -11    6.60    0.72
  -1   1  11    7.66    0.89
  -1   1  11    7.73    0.92
  -1   1  11    5.48    0.83
  -1   1  11    6.18    1.01
   1   1 -11    5.87    0.83
  -1   1  11    7.84    0.96
  -1   1  11    7.23    0.90
  -1   1  11    6.05    1.01
   0  -1  11    5.02    0.60
   0  -1  11    5.56    0.76
   0  -1  11    4.99    0.81
   0  -1 -11    5.60    0.73
   0  -1  11    3.87    0.92
   0  -1  11    4.05    0.84
   0  -1  11    3.99    0.65
   0  -1 -11    5.41    0.54
   0  -1 -11    4.00    0.62
   0  -1  11    3.83    0.75
   0  -1  11    5.65    0.74
   0  -1  11    3.77    0.75
   0  -1  11    5.18    0.84
   0  -1 -11    5.20    0.59
   0   1  11    1.47    0.78
   0   1  11    3.46    0.68
   0   1  11    2.00    0.84
   0   1  11    1.95    0.70
   0   1 -11    2.24    0.55
   0   1  11    2.29    0.64
   0   1 -11    3.29    0.82
   0   1  11    2.26    0.63
   0   1  11    4.20    0.81
   0   1  11    4.03    0.85
   0   1 -11    2.38    0.62
   0   1  11    2.29    0.73
   0   1 -11    2.11    0.56
   0   1  11    2.41    0.67
   1  -1  11   23.00    1.87
  -1  -1 -11   23.74    1.58
   1  -1  11   21.68    1.95
   1  -1  11   21.21    1.78
   1  -1  11   24.15    1.98
  -1  -1 -11   23.86    1.67
   1  -1  11   23.77    1.65
   1  -1  11   23.50    1.87
   1  -1  11   22.22    1.90
   1  -1  11   23.02    1.79
  -1  -1 -11   21.45    2.41
  -1  -1 -11   22.24    1.91
  -1   1 -11   22.55    1.89
   1   1  11   24.21    1.97
   1   1  11   23.09    2.10
   1   1  11   23.15    1.97
   1   1  11   25.04    1.88
  -1   1 -11   21.55    2.23
  -1   1 -11   22.94    1.67
   1   1  11   22.08    1.74
   1   1  11   24.29    1.96
  -1   1 -11   23.41    1.79
   1   1  11   25.60    2.07
   1   1  11   24.56    2.10
   1   1  11   24.13    1.74
   1   1  11   22.38    1.99
  -1   1 -11   25.01    1.70
   2  -1  11    6.42    1.08
   2  -1  11    6.41    1.09
   2  -1  11    8.11    1.13
  -2  -1 -11    7.38    1.39
   2  -1  11    8.47    1.07
   2  -1  11    7.54    1.16
   2  -1  11    9.27    1.19
   2  -1  11    8.51    1.04
  -2  -1 -11    6.25    0.89
   2   1  11    6.79    1.15
  -2   1 -11    6.42    1.18
  -2   1 -11    5.57    0.94
   2   1  11    6.31    1.12
   2   1  11    7.38    1.04
   2   1  11    6.23    0.89
   2   1  11    6.92    1.02
   2   1  11    6.80    1.21
  -2   1 -11    6.24    0.79
   2   1  11    6.58    1.16
  -2   1 -11    6.76    0.88
   2   1  11    7.83    1.23
   2   1  11    7.06    1.16
   3  -1  11    4.66    1.15
   3  -1  11    3.43    0.86
   3  -1  11    5.04    1.12
   3  -1  11    3.93    0.93
  -3  -1 -11    5.57    1.21
   3  -1  11    4.36    0.83
  -3  -1 -11    4.04    0.79
   3  -1  11    4.23    1.11
   3  -1  11    4.75    1.10
   3  -1  11    2.56    1.05
   3  -1  11    4.28    1.04
  -3   1 -11    5.41    0.73
   3   1  11    6.36    1.22
   3   1  11    4.62    1.20
   3   1  11    4.68    0.98
   3   1  11    5.30    1.03
  -3   1 -11    5.52    0.83
   3   1  11    4.12    0.93
   3   1  11    4.86    1.15
   3   1  11    5.00    0.97
   3   1  11    3.23    0.75
  -3   1 -11    4.21    1.16
   3   1  11    6.01    1.02
   3   1  11    5.65    0.98
   4  -1  11    1.75    1.03
   4  -1  11    2.47    1.13
  -4  -1 -11    1.85    1.32
   4  -1  11    2.81    1.18
   4  -1  11    2.77    0.95
   4  -1  11    2.88    1.18
   4  -1  11    2.72    0.98
   4  -1  11    3.95    1.00
   4  -1  11    3.56    0.95
   4   1  11    4.07    1.22
  -4   1 -11    4.47    1.02
   4   1  11    3.59    0.94
   4   1  11    4.65    1.04
   4   1  11    5.36    1.27
   4   1  11    3.86    1.02
   4   1  11    2.26    0.90
   4   1  11    3.64    1.04
   4   1  11    3.11    0.80
   4   1  11    3.09    1.18
  -4   1 -11    2.49    1.17
   4   1  11    5.04    1.23
  -5  -1 -11    0.65    1.45
   5   1  11    1.52    0.74
  -5   1 -11    2.15    1.41
  -6  -1 -11    3.20    1.46
  -6   1 -11    2.80    1.75
  -7  -2  11   -0.07    1.47
  -7  -2  11    1.31    1.41
   6  -2 -11   -0.47    0.61
  -6  -2  11   -0.80    1.18
  -6  -2  11   -1.55    1.08
   6   2 -11    0.98    0.97
  -6   2  11    0.85    0.97
  -6   2  11    0.63    0.93
  -5  -2  11   -0.27    0.77
   5  -2 -11    0.01    0.71
  -5  -2  11   -0.30    0.96
  -5  -2  11    0.10    0.73
  -5  -2  11   -0.12    0.86
   5   2 -11   -0.33    0.77
  -5   2  11    0.50    0.75
   5   2 -11    0.19    0.88
   5   2 -11    0.56    0.87
  -5   2  11   -0.37    0.86
  -5   2  11    0.36    0.82
  -4  -2  11    5.49    1.02
  -4  -2  11    6.55    1.12
   4  -2 -11    6.33    0.91
  -4  -2  11    6.36    1.14
   4  -2 -11    5.72    0.93
  -4  -2  11    5.71    1.10
  -4   2  11    7.15    1.00
  -4   2  11    7.51    1.04
  -4   2  11    8.16    1.25
   4   2 -11    5.98    1.09
  -4   2  11    5.31    0.99
   4   2 -11    6.54    0.93
   4   2 -11    7.46    1.04
  -3  -2  11   29.95    2.58
   3  -2 -11   29.49    2.31
   3  -2 -11   32.29    2.16
  -3  -2  11   32.02    2.50
  -3  -2  11   29.55    2.39
  -3  -2  11   31.06    2.53
  -3  -2  11   31.27    2.69
  -3   2  11   28.73    2.33
   3   2 -11   29.23    2.36
  -3   2  11   29.36    2.21
  -3   2  11   32.77    2.24
  -3   2  11   30.78    2.35
  -3   2  11   34.42    2.34
  -3   2  11   31.09    2.52
  -3   2  11   33.59    2.40
   3   2 -11   31.57    2.31
   2  -2 -11    2.98    0.66
  -2  -2  11    2.58    0.83
  -2  -2  11    2.13    0.69
  -2  -2  11    2.48    0.57
  -2  -2  11    1.69    0.62
  -2  -2  11    3.10    0.58
  -2  -2  11    3.44    0.74
   2  -2 -11    2.13    0.52
  -2  -2  11    2.31    0.85
  -2   2  11    2.18    0.56
  -2   2  11    1.37    0.63
  -2   2  11    2.06    0.71
  -2   2  11    2.72    0.69
   2   2 -11    2.53    0.59
  -2   2  11    1.05    0.47
  -2   2  11    1.96    0.66
  -2   2  11    0.77    0.61
  -2   2  11    2.11    0.63
  -2   2  11    1.76    0.67
   2   2 -11    0.71    0.71
  -2   2  11    2.32    0.62
  -1  -2  11   22.39    1.85
  -1  -2  11   19.89    1.63
  -1  -2  11   21.37    1.55
   1  -2 -11   22.70    1.68
  -1  -2  11   20.07    1.86
  -1  -2  11   24.86    1.57
   1  -2 -11   23.29    1.48
  -1  -2  11   21.44    1.63
  -1  -2  11   20.72    1.88
  -1  -2  11   20.57    1.54
  -1  -2  11   21.11    1.80
  -1  -2  11   22.18    1.54
  -1  -2  11   22.95    1.86
  -1   2  11   21.17    1.69
  -1   2  11   18.36    1.76
   1   2 -11   19.23    1.56
   1   2 -11   20.28    1.57
   1   2 -11   19.82    1.52
  -1   2  11   14.61    1.74
  -1   2  11   18.75    1.76
  -1   2  11   20.47    1.67
  -1   2  11   17.86    1.61
  -1   2  11   16.85    1.56
  -1   2  11   20.36    1.72
   1   2 -11   19.23    1.82
  -1   2  11   18.92    1.63
  -1   2  11   18.90    1.78
   0  -2  11   26.25    1.96
   0  -2 -11   25.20    1.79
   0  -2  11   24.92    2.17
   0  -2  11   25.77    2.05
   0  -2 -11   27.14    1.72
   0  -2 -11   25.78    2.04
   0  -2  11   27.78    2.07
   0  -2  11   28.27    2.14
   0  -2  11   24.95    1.97
   0  -2  11   25.73    1.94
   0  -2  11   25.34    1.97
   0   2  11   26.95    2.07
   0   2 -11   26.25    1.92
   0   2  11   27.77    2.11
   0   2  11   28.98    2.21
   0   2  11   27.77    2.19
   0   2 -11   27.33    2.10
   0   2  11   26.57    2.01
   0   2 -11   25.57    1.90
   0   2  11   29.01    2.16
   0   2  11   27.24    1.97
   0   2  11   25.98    2.20
   0   2  11   27.63    2.05
   0   2 -11   26.37    1.93
   0   2  11   28.48    2.02
   1  -2  11   22.19    1.72
   1  -2  11   21.52    1.79
   1  -2  11   20.61    1.75
   1  -2  11   19.40    1.95
   1  -2  11   21.10    1.75
   1  -2  11   21.64    1.87
   1  -2  11   20.35    1.68
  -1  -2 -11   17.61    2.23
  -1  -2 -11   21.00    1.57
  -1   2 -11   21.55    1.67
   1   2  11   23.58    1.95
   1   2  11   23.21    1.73
   1   2  11   24.06    1.99
  -1   2 -11   22.50    1.98
   1   2  11   22.28    1.84
   1   2  11   22.63    1.75
   1   2  11   24.74    1.83
   1   2  11   22.43    1.92
   1   2  11   27.16    1.95
  -1   2 -11   21.86    1.68
  -1   2 -11   22.00    1.68
   1   2  11   20.96    1.80
   1   2  11   20.42    1.80
   2  -2  11   38.39    3.02
   2  -2  11   40.86    2.92
   2  -2  11   35.90    2.69
   2  -2  11   35.38    2.69
   2  -2  11   38.45    2.79
   2  -2  11   40.12    2.79
   2  -2  11   40.78    2.89
  -2  -2 -11   35.26    3.65
   2  -2  11   37.45    3.01
   2   2  11   41.06    3.02
   2   2  11   40.08    2.79
  -2   2 -11   33.39    3.34
  -2   2 -11   37.96    2.58
   2   2  11   42.78    2.97
   2   2  11   41.27    2.98
   2   2  11   39.11    2.83
  -2   2 -11   35.99    2.47
   2   2  11   35.38    2.63
   2   2  11   42.15    2.82
   2   2  11   33.39    2.87
  -2   2 -11   34.99    2.68
   2   2  11   37.90    2.80
  -3  -2 -11   30.25    3.66
   3  -2  11   39.25    2.83
   3  -2  11   35.57    2.84
   3  -2  11   36.81    2.97
   3  -2  11   39.88    3.10
   3  -2  11   35.69    2.87
   3  -2  11   38.92    2.88
   3  -2  11   36.99    2.76
  -3   2 -11   37.09    2.56
   3   2  11   37.97    3.29
   3   2  11   39.24    2.89
   3   2  11   41.05    3.13
  -3   2 -11   38.20    2.75
  -3   2 -11   33.93    3.41
   3   2  11   38.12    2.97
   3   2  11   35.66    2.63
  -3   2 -11   34.97    2.57
   3   2  11   35.71    2.93
   3   2  11   38.80    3.06
   3   2  11   35.71    2.88
   3   2  11   40.30    2.83
   3   2  11   38.18    2.84
   4  -2  11   20.87    1.99
   4  -2  11   20.30    2.02
   4  -2  11   24.06    1.99
   4  -2  11   22.72    2.15
  -4  -2 -11   17.78    2.72
   4  -2  11   18.35    2.05
   4  -2  11   20.98    1.94
   4  -2  11   20.80    1.91
   4   2  11   17.65    1.74
   4   2  11   22.10    2.17
   4   2  11   19.80    2.14
  -4   2 -11   18.46    2.44
   4   2  11   23.98    2.34
   4   2  11   22.23    2.03
   4   2  11   16.69    2.04
   4   2  11   19.26    2.12
   4   2  11   16.61    1.90
   4   2  11   20.12    2.11
  -4   2 -11   18.93    1.75
   4   2  11   19.50    2.01
  -4   2 -11   18.33    1.90
  -5  -2 -11   15.78    2.34
   5   2  11   12.85    1.65
  -5   2 -11   10.94    2.02
  -6  -2 -11   15.48    2.87
   6   2  11   13.72    1.68
  -7  -3  11    6.06    1.92
  -7  -3  11    7.64    1.54
  -6  -3  11    4.07    1.52
  -6  -3  11    1.56    1.18
  -6  -3  11    2.31    1.02
   6   3 -11    2.12    0.98
  -5  -3  11   14.55    1.93
  -5  -3  11   14.05    1.83
   5  -3 -11   14.71    1.48
  -5  -3  11   13.60    1.84
  -5   3  11   15.68    1.60
  -5   3  11   12.06    1.56
   5   3 -11   13.34    1.65
  -5   3  11   13.31    1.48
   5   3 -11   13.27    1.55
   5   3 -11   13.10    1.58
  -4  -3  11   10.89    1.54
  -4  -3  11   11.39    1.54
   4  -3 -11   10.09    1.06
   4  -3 -11   10.27    1.13
  -4  -3  11    9.20    1.30
  -4  -3  11    9.23    1.30
   4   3 -11   11.20    1.23
   4   3 -11    9.64    1.35
  -4   3  11    7.69    1.11
  -4   3  11    6.93    1.32
  -4   3  11    8.71    1.19
   4   3 -11    8.45    1.25
  -4   3  11    8.79    1.11
  -3  -3  11    7.54    1.16
  -3  -3  11    6.61    1.28
  -3  -3  11    7.22    1.11
   3  -3 -11    8.53    0.96
  -3  -3  11    6.87    1.05
   3  -3 -11    8.35    0.87
   3   3 -11    8.52    1.08
  -3   3  11    7.41    1.23
  -3   3  11    7.97    0.98
  -3   3  11    7.88    0.95
  -3   3  11    8.03    1.11
  -3   3  11    7.65    0.99
   3   3 -11    6.65    0.96
  -3   3  11    8.34    1.05
  -2  -3  11   26.38    1.95
  -2  -3  11   25.75    2.21
   2  -3 -11   25.91    1.87
  -2  -3  11   21.30    1.99
  -2  -3  11   25.41    2.09
  -2  -3  11   21.31    2.25
  -2   3  11   22.52    1.83
  -2   3  11   25.70    2.20
  -2   3  11   22.64    1.92
  -2   3  11   24.27    1.85
   2   3 -11   24.25    1.96
   2   3 -11   23.98    1.82
  -2   3  11   24.21    2.07
  -2   3  11   23.74    1.92
  -2   3  11   24.90    1.97
  -2   3  11   22.01    1.86
  -1  -3  11   10.08    1.00
  -1  -3  11    9.20    1.15
  -1  -3  11   10.59    1.08
  -1  -3  11   11.13    1.33
  -1  -3  11    9.96    1.32
  -1  -3  11    9.83    0.94
  -1  -3  11    8.98    0.98
   1  -3 -11   10.50    1.05
  -1  -3  11   10.78    1.27
  -1  -3  11    9.84    0.94
   1   3 -11   10.87    1.13
  -1   3  11   10.11    1.09
  -1   3  11   11.24    1.26
  -1   3  11    9.07    1.25
  -1   3  11   10.41    1.23
   1   3 -11   10.98    1.13
  -1   3  11   11.17    1.12
   1   3 -11   11.56    1.21
  -1   3  11   10.81    1.03
  -1   3  11   12.58    1.38
   1   3 -11   10.19    1.12
  -1   3  11    9.71    1.14
  -1   3  11   10.03    1.16
  -1   3  11   11.23    1.30
  -1   3  11   11.01    1.25
   0  -3  11    8.41    0.96
   0  -3  11    9.58    1.00
   0  -3  11    8.39    1.04
   0  -3  11    8.89    0.94
   0  -3 -11    8.53    0.97
   0  -3  11    8.82    1.01
   0  -3  11    7.88    1.31
   0  -3 -11    7.43    1.30
   0  -3  11    8.54    1.23
   0  -3  11    8.52    1.00
   0  -3  11    9.22    1.16
   0   3 -11    8.96    1.05
   0   3 -11    9.30    1.08
   0   3  11    8.34    1.20
   0   3  11    8.66    1.20
   0   3  11   10.61    1.00
   0   3  11    9.89    1.16
   0   3  11    9.65    1.16
   0   3  11    7.90    1.15
   0   3  11   10.15    1.17
   0   3 -11   10.38    1.15
   0   3  11    9.05    1.09
   0   3  11    9.12    1.21
   0   3  11   10.23    1.31
   0   3 -11    8.94    1.09
   1  -3  11    0.44    0.65
  -1  -3 -11    0.48    0.64
  -1  -3 -11    0.48    0.76
   1  -3  11    0.63    0.73
   1  -3  11    1.60    0.67
   1  -3  11    0.28    0.45
   1  -3  11    0.96    0.66
   1  -3  11    0.60    0.56
   1  -3  11    0.86    0.56
  -1   3 -11    0.88    0.54
   1   3  11    1.54    0.71
   1   3  11   -0.40    0.80
   1   3  11    0.79    0.64
   1   3  11    0.75    0.77
   1   3  11    1.64    0.66
   1   3  11    0.54    0.49
   1   3  11    1.16    0.60
   1   3  11    0.44    0.60
   1   3  11    0.78    0.61
  -1   3 -11    0.89    0.74
  -1   3 -11    0.52    0.82
  -1   3 -11    0.44    0.62
   1   3  11    0.34    0.49
  -2  -3 -11    3.28    1.09
   2  -3  11    4.24    0.87
   2  -3  11    4.21    0.98
   2  -3  11    3.10    0.75
   2  -3  11    3.42    0.77
   2  -3  11    3.11    0.89
   2  -3  11    3.54    0.80
   2  -3  11    3.16    1.00
   2   3  11    4.10    1.05
   2   3  11    4.39    1.10
   2   3  11    4.87    0.93
  -2   3 -11    4.18    0.75
   2   3  11    5.05    1.11
   2   3  11    4.29    1.04
   2   3  11    4.99    0.96
   2   3  11    4.17    0.86
   2   3  11    3.86    0.81
  -2   3 -11    4.04    0.71
   2   3  11    3.14    0.84
  -2   3 -11    3.99    0.81
   3  -3  11    1.21    0.75
  -3  -3 -11    1.40    1.00
   3  -3  11    2.78    0.96
   3  -3  11    0.98    0.94
   3  -3  11    2.35    0.80
   3  -3  11    3.51    1.04
   3  -3  11    2.41    1.04
   3  -3  11    1.82    0.81
   3   3  11    3.17    0.89
   3   3  11    4.58    0.98
  -3   3 -11    2.91    0.90
   3   3  11    2.12    1.07
   3   3  11    3.83    0.89
   3   3  11    1.93    0.92
   3   3  11    3.60    1.16
  -3   3 -11    1.26    0.73
   3   3  11    3.14    0.93
   3   3  11    2.33    0.95
   3   3  11    2.08    0.85
  -3   3 -11    1.73    0.62
   3   3  11    1.85    1.04
   4  -3  11    6.51    1.19
  -4  -3 -11    6.08    1.50
   4  -3  11    6.89    1.35
  -4   3 -11    6.38    1.14
   4   3  11    5.03    1.32
   4   3  11    4.89    1.32
   4   3  11    4.19    1.13
  -4   3 -11    4.13    1.17
   4   3  11    4.74    1.06
  -5  -3 -11    2.38    1.79
   5   3  11    1.72    1.11
   5   3  11    0.49    0.94
  -7  -4  11    0.87    1.52
  -7  -4  11    1.84    1.72
  -6  -4  11    2.16    1.36
  -6  -4  11    1.64    1.40
  -6  -4  11    2.33    1.48
   6   4 -11    0.13    0.94
  -5  -4  11    1.14    1.18
  -5  -4  11    1.27    0.97
  -5  -4  11    1.07    1.20
   5   4 -11    0.21    0.78
  -5   4  11    2.46    0.89
  -4  -4  11    3.45    0.97
  -4  -4  11    2.23    1.18
  -4  -4  11    1.78    1.11
  -4  -4  11    1.70    1.06
   4   4 -11    3.31    0.79
  -4   4  11    1.88    0.88
  -4   4  11    3.22    0.88
  -4   4  11    3.31    0.85
   4   4 -11    3.78    1.01
   4   4 -11    3.26    0.84
  -3  -4  11    6.84    1.19
  -3  -4  11    7.64    1.25
  -3  -4  11    8.97    1.24
  -3   4  11    7.72    1.12
   3   4 -11    9.02    1.18
   3   4 -11    8.63    1.12
  -3   4  11    7.33    1.08
  -3   4  11    7.64    1.17
  -2  -4  11   14.26    1.54
  -2  -4  11   14.56    1.52
  -2  -4  11   16.41    1.61
   2   4 -11   11.99    1.36
  -2   4  11   11.56    1.43
  -2   4  11   12.99    1.46
  -2   4  11   13.75    1.46
  -2   4  11   10.70    1.30
   2   4 -11   13.22    1.41
  -2   4  11   11.23    1.37
   2   4 -11   11.63    1.28
  -2   4  11   12.97    1.50
  -1  -4  11   20.80    2.19
  -1  -4  11   22.98    1.78
  -1  -4  11   21.18    2.01
  -1  -4  11   24.02    1.99
  -1  -4  11   21.36    2.06
  -1   4  11   24.47    1.94
   1   4 -11   25.52    1.88
  -1   4  11   23.70    2.08
  -1   4  11   26.18    1.96
   1   4 -11   24.78    2.12
  -1   4  11   23.53    2.19
  -1   4  11   27.27    2.15
   1   4 -11   26.92    1.82
  -1   4  11   23.66    2.06
   1   4 -11   24.32    1.95
  -1   4  11   25.30    2.04
  -1   4  11   25.38    1.88
  -1   4  11   25.21    2.09
   0  -4  11   22.32    2.05
   0  -4 -11   20.81    2.48
   0  -4  11   25.64    1.93
   0  -4  11   21.08    2.25
   0  -4  11   23.17    1.91
   0  -4  11   24.14    1.82
   0  -4  11   26.04    2.06
   0  -4  11   23.02    1.78
   0  -4  11   22.18    1.83
   0   4  11   24.40    2.00
   0   4  11   30.30    2.25
   0   4 -11   27.86    1.87
   0   4  11   24.64    2.04
   0   4  11   27.02    2.07
   0   4  11   25.31    2.22
   0   4 -11   25.71    1.92
   0   4  11   25.65    2.03
   0   4 -11   26.20    2.00
   0   4  11   24.43    1.90
   0   4  11   25.77    2.14
   0   4  11   26.68    2.15
   0   4 -11   29.80    2.24
   1  -4  11   12.69    1.16
   1  -4  11   12.12    1.42
   1  -4  11   10.90    1.19
   1  -4  11   12.96    1.33
  -1  -4 -11    8.49    1.92
   1  -4  11   11.37    1.68
   1  -4  11   11.08    1.35
   1  -4  11   11.86    1.28
   1  -4  11   13.41    1.35
  -1  -4 -11   11.14    1.60
   1   4  11   16.77    1.50
   1   4  11   13.34    1.48
   1   4  11   13.10    1.58
   1   4  11   11.37    1.36
   1   4  11   13.78    1.46
  -1   4 -11   14.53    1.28
  -1   4 -11   11.75    1.50
  -1   4 -11   15.17    1.40
   1   4  11   13.02    1.58
   1   4  11   13.81    1.45
   1   4  11   12.84    1.42
  -1   4 -11   13.14    1.28
   1   4  11   14.55    1.45
   1   4  11   14.89    1.46
   2  -4  11   31.56    2.51
   2  -4  11   30.47    2.27
   2  -4  11   31.18    2.33
   2  -4  11   29.91    2.34
   2  -4  11   29.16    2.28
   2  -4  11   30.20    2.41
   2  -4  11   31.14    2.29
  -2  -4 -11   28.26    3.26
  -2   4 -11   26.23    2.09
   2   4  11   28.33    2.43
   2   4  11   31.75    2.47
   2   4  11   32.19    2.51
   2   4  11   28.31    2.37
   2   4  11   29.12    2.38
  -2   4 -11   30.02    2.27
   2   4  11   29.39    2.38
   2   4  11   24.95    2.24
   2   4  11   29.41    2.52
   2   4  11   25.65    2.14
   2   4  11   28.18    2.48
  -2   4 -11   29.28    2.23
   2   4  11   28.45    2.53
  -3  -4 -11   34.92    3.88
   3  -4  11   37.97    2.79
   3  -4  11   39.69    2.75
   3  -4  11   40.61    2.85
   3  -4  11   44.70    2.86
   3  -4  11   41.07    3.07
   3  -4  11   42.60    2.97
   3  -4  11   39.73    2.89
   3   4  11   36.62    2.83
   3   4  11   33.04    2.88
  -3   4 -11   32.80    2.66
   3   4  11   33.20    2.84
   3   4  11   31.39    2.90
   3   4  11   35.26    3.00
   3   4  11   37.62    3.01
   3   4  11   32.37    3.11
   3   4  11   33.43    2.94
   3   4  11   29.34    2.65
  -3   4 -11   34.59    2.53
   3   4  11   35.99    3.08
  -3   4 -11   33.01    2.78
  -4  -4 -11   11.06    2.33
   4   4  11   11.12    1.35
  -4   4 -11   13.64    1.55
   4   4  11   12.83    1.67
  -5  -4 -11    5.59    2.23
   5   4  11   10.21    1.58
   5   4  11    9.84    1.49
  -6  -5  11   16.93    2.46
  -6  -5  11   18.41    2.41
  -6  -5  11   17.62    2.46
  -5  -5  11    3.81    1.44
  -5  -5  11    3.81    1.45
  -5  -5  11    2.29    1.04
  -5   5  11    2.37    1.04
  -4  -5  11    6.16    1.31
  -4  -5  11    7.43    1.40
  -4  -5  11    5.96    1.42
   4   5 -11    9.72    1.38
  -4   5  11    9.10    1.45
  -4   5  11    8.44    1.21
  -4   5  11    7.60    1.13
   4   5 -11    9.12    1.37
  -3  -5  11    5.90    1.12
  -3  -5  11    6.08    1.38
  -3  -5  11    7.38    1.28
  -3   5  11    8.13    1.29
  -3   5  11    4.75    1.06
  -3   5  11    4.65    0.92
   3   5 -11    5.78    1.11
   3   5 -11    6.87    1.20
   3   5 -11    5.66    1.02
  -2  -5  11   10.90    1.54
   2  -5 -11    8.69    1.63
  -2  -5  11   10.84    1.64
  -2  -5  11    9.43    1.41
  -2   5  11   11.33    1.31
  -2   5  11    9.55    1.29
  -2   5  11   11.89    1.33
   2   5 -11   11.82    1.30
   2   5 -11   11.99    1.26
  -2   5  11   12.11    1.53
   2   5 -11   14.60    1.52
  -2   5  11   11.77    1.43
   2   5 -11   11.76    1.21
  -2   5  11   12.07    1.46
   1  -5 -11    8.52    1.47
  -1  -5  11    7.30    1.19
  -1  -5  11    8.83    1.34
  -1  -5  11    8.93    1.52
  -1   5  11    8.13    1.12
  -1   5  11    6.91    1.08
  -1   5  11    8.45    1.17
   1   5 -11    7.05    1.04
  -1   5  11    7.99    1.25
   1   5 -11    7.65    0.99
  -1   5  11    7.62    1.13
  -1   5  11    9.35    1.28
  -1   5  11    8.29    1.28
  -1   5  11   10.33    1.30
   1   5 -11    8.10    1.25
   1   5 -11    9.71    1.10
  -1   5  11    8.53    1.08
   0  -5  11   11.32    1.36
   0  -5  11    9.80    1.56
   0  -5  11    9.53    1.01
   0  -5  11   11.45    1.11
   0  -5 -11   10.08    1.61
   0   5 -11    7.09    1.00
   0   5  11    5.68    1.20
   0   5  11    8.47    1.23
   0   5  11    7.49    1.31
   0   5  11    7.88    1.17
   0   5  11    7.29    1.10
   0   5  11    7.99    1.32
   0   5  11    9.02    1.15
   0   5 -11    9.52    1.13
   0   5 -11    9.11    1.31
   0   5 -11    8.57    1.10
   0   5  11    8.56    1.18
   0   5  11    7.98    1.15
  -1  -5 -11    3.42    1.09
  -1  -5 -11    5.71    1.67
   1  -5  11    5.35    0.84
   1  -5  11    5.82    0.96
   1  -5  11    3.56    0.84
   1  -5  11    6.01    0.96
   1  -5  11    4.81    0.86
   1  -5  11    3.33    1.05
   1  -5  11    3.69    0.91
   1   5  11    5.38    1.16
   1   5  11    6.09    1.15
  -1   5 -11    5.21    1.02
   1   5  11    5.25    0.95
  -1   5 -11    4.85    0.87
  -1   5 -11    6.12    1.18
   1   5  11    4.69    1.12
   1   5  11    5.05    0.90
   1   5  11    6.05    1.04
   1   5  11    5.66    1.00
   1   5  11    5.53    1.16
  -1   5 -11    3.84    1.04
   1   5  11    4.16    1.00
   1   5  11    6.39    1.01
   2  -5  11    2.14    1.27
   2  -5  11    0.45    0.63
   2  -5  11    1.99    0.92
  -2  -5 -11    2.81    1.24
   2  -5  11    1.23    0.84
   2  -5  11    2.33    0.86
   2  -5  11    1.31    0.78
   2  -5  11   -0.08    0.86
   2   5  11    1.43    1.07
   2   5  11    1.88    0.78
   2   5  11    0.90    0.78
   2   5  11    1.57    1.02
  -2   5 -11    3.07    1.00
   2   5  11    2.34    1.02
   2   5  11    1.66    0.78
   2   5  11    1.75    0.82
   2   5  11    2.05    0.92
  -2   5 -11    1.78    0.71
   2   5  11    1.35    0.70
   2   5  11    2.37    0.86
  -2   5 -11    1.70    0.98
   3  -5  11   -0.36    0.62
   3  -5  11    0.68    0.65
   3  -5  11   -0.41    0.89
   3  -5  11   -0.29    0.70
   3  -5  11   -0.60    0.94
   3  -5  11   -1.11    0.65
   3  -5  11    0.01    0.67
  -3  -5 -11   -1.36    1.39
   3   5  11   -0.93    1.05
   3   5  11   -0.40    0.70
   3   5  11   -0.40    1.02
   3   5  11   -0.53    0.98
  -3   5 -11    0.45    0.92
   3   5  11    0.58    0.88
  -3   5 -11    0.02    0.68
  -4  -5 -11   -0.53    1.62
   4   5  11   -0.03    0.97
   4   5  11   -1.05    0.71
  -5  -5 -11    2.16    1.55
   5   5  11    1.08    0.96
   5   5  11    2.70    1.25
  -6  -6  11    0.87    1.57
  -6  -6  11    2.82    1.67
  -6  -6  11    0.15    1.54
  -5  -6  11    0.51    1.36
  -5  -6  11    0.51    1.34
  -5  -6  11    0.48    1.07
  -4  -6  11    2.92    1.02
  -4  -6  11    0.69    1.35
   4  -6 -11    0.81    1.19
  -4  -6  11    1.73    1.34
  -4   6  11    1.26    0.71
   3  -6 -11    2.29    1.53
  -3  -6  11    2.08    1.19
  -3  -6  11    1.34    1.29
  -3  -6  11    2.41    0.98
  -3   6  11    0.79    0.97
   3   6 -11    1.75    0.78
  -3   6  11    2.40    0.77
   3   6 -11    3.04    0.93
   3   6 -11    2.03    0.78
  -3   6  11    2.15    1.06
  -2  -6  11    8.12    1.27
  -2  -6  11    6.84    1.21
   2  -6 -11    6.76    1.52
  -2  -6  11    8.53    1.39
  -2   6  11    6.02    1.06
  -2   6  11    7.86    1.15
   2   6 -11    7.24    1.07
   2   6 -11    6.42    1.23
  -2   6  11    6.46    1.23
   2   6 -11    6.58    0.99
  -2   6  11    7.41    1.30
  -2   6  11    8.06    1.32
   2   6 -11    7.58    1.23
  -1  -6  11   11.46    1.75
  -1  -6  11    9.25    1.47
   1  -6 -11    9.13    1.63
  -1  -6  11    6.96    1.50
   1   6 -11   10.73    1.35
  -1   6  11   10.99    1.43
   1   6 -11   10.67    1.23
   1   6 -11   11.82    1.31
  -1   6  11    9.19    1.27
  -1   6  11    8.01    1.33
  -1   6  11    7.55    1.34
  -1   6  11   11.08    1.30
  -1   6  11   10.67    1.43
   1   6 -11    8.09    1.22
  -1   6  11    6.89    1.17
  -1   6  11    8.48    1.35
   0  -6  11   20.42    2.38
   0  -6  11   22.97    2.19
   0  -6  11   22.59    2.21
   0  -6 -11   19.10    2.72
   0   6  11   25.72    2.33
   0   6  11   25.71    2.10
   0   6  11   23.12    2.09
   0   6  11   25.36    2.12
   0   6 -11   26.96    2.11
   0   6 -11   25.25    2.01
   0   6  11   24.40    2.30
   0   6  11   28.47    2.37
   0   6 -11   27.25    2.32
   0   6  11   26.07    2.19
   0   6  11   25.90    2.16
   0   6 -11   25.33    2.03
   0   6  11   26.88    2.26
   1  -6  11   16.96    2.11
   1  -6  11   15.75    1.54
  -1  -6 -11   15.97    2.06
   1  -6  11   15.78    1.38
  -1   6 -11   14.72    1.62
   1   6  11   13.69    1.77
   1   6  11   12.27    1.55
   1   6  11   14.95    1.75
  -1   6 -11   14.25    1.65
   1   6  11   15.75    1.71
   1   6  11   14.37    1.63
   1   6  11   12.31    1.53
   1   6  11   13.27    1.62
  -1   6 -11   15.86    1.52
   1   6  11   13.31    1.61
  -1   6 -11   14.62    1.61
   1   6  11   11.89    1.55
   2  -6  11   12.44    1.86
   2  -6  11   17.48    1.64
   2  -6  11   15.56    1.70
  -2  -6 -11   13.73    2.33
   2  -6  11   14.81    1.63
   2   6  11   13.45    1.66
   2   6  11   14.03    1.68
   2   6  11   13.94    1.74
   2   6  11   15.63    1.87
   2   6  11   14.56    1.80
  -2   6 -11   17.07    1.74
   2   6  11   12.02    1.62
   2   6  11   14.58    1.78
   2   6  11   16.48    1.72
   2   6  11   16.32    1.77
  -3  -6 -11   16.09    2.88
   3  -6  11   16.98    2.20
   3  -6  11   20.69    1.99
   3  -6  11   16.61    1.95
   3   6  11   16.30    1.75
   3   6  11   17.02    2.03
   3   6  11   18.47    2.01
  -4  -6 -11   10.79    2.47
   4   6  11    6.40    1.39
   4   6  11    5.67    1.44
  -5  -7  11    5.60    1.90
   5  -7 -11    2.17    2.13
  -5  -7  11    4.82    1.73
  -5  -7  11    6.39    1.69
  -4  -7  11    4.02    1.67
   4  -7 -11    5.06    1.60
  -4  -7  11    5.92    1.53
  -4  -7  11    4.64    1.59
  -4   7  11    4.42    1.16
  -3  -7  11    6.34    1.53
   3  -7 -11    4.82    1.87
  -3  -7  11    7.30    1.76
  -3  -7  11    5.52    1.22
   2  -7 -11    4.85    1.50
  -2  -7  11    6.14    1.36
  -2  -7  11    6.97    1.42
  -2  -7  11    6.34    1.25
   2   7 -11    7.42    1.28
  -2   7  11    6.45    1.31
  -2   7  11    6.91    1.30
  -1  -7  11    7.13    1.27
   1  -7 -11    5.07    1.71
  -1  -7  11    5.83    1.39
  -1  -7  11    5.72    1.58
  -1   7  11    6.64    1.14
  -1   7  11    7.90    1.28
   1   7 -11    7.39    1.28
   1   7 -11    6.59    1.21
   1   7 -11    7.47    1.12
  -1   7  11    8.11    1.38
  -1   7  11    6.55    1.13
  -1   7  11    6.76    1.19
  -1   7  11    6.92    1.32
  -1   7  11    5.58    1.25
   1   7 -11    7.62    1.30
  -1   7  11    7.26    1.14
   0  -7  11    5.50    1.30
   0  -7  11    3.51    1.08
   0  -7  11    6.19    1.42
   0  -7 -11    5.71    1.38
   0   7 -11    5.17    1.20
   0   7  11    4.95    1.23
   0   7  11    5.60    1.26
   0   7  11    5.69    1.24
   0   7  11    4.99    1.05
   0   7  11    6.20    1.15
   0   7 -11    7.34    1.11
   0   7  11    6.21    1.13
   0   7 -11    6.63    1.26
   0   7  11    4.90    1.22
   0   7  11    5.46    1.08
   1  -7  11    4.58    1.38
  -1  -7 -11    3.72    1.38
   1  -7  11    4.20    1.21
   1   7  11    1.84    1.07
  -1   7 -11    1.97    1.11
   1   7  11    2.90    1.08
   1   7  11    3.75    0.93
  -2  -7 -11    3.43    2.05
   2  -7  11    4.84    1.32
   2   7  11    7.71    1.45
   2   7  11    5.58    1.28
   2   7  11    6.64    1.14
   2   7  11    5.46    1.29
  -3  -7 -11    1.16    1.43
   3  -7  11    1.09    1.06
   3   7  11    0.43    0.80
   3   7  11   -0.22    1.07
   3   7  11   -0.05    1.14
   4  -7  11    3.96    1.68
  -4  -8  11    5.14    1.84
  -4  -8  11    0.90    1.52
  -4  -8  11    2.34    1.41
   4  -8 -11    2.03    1.56
  -4   8  11    1.33    1.18
  -3  -8  11    3.12    1.34
   3  -8 -11    2.14    1.45
  -3  -8  11    3.77    1.54
  -3  -8  11    3.23    1.14
  -2  -8  11    2.18    1.49
  -2  -8  11   -0.68    1.23
   2  -8 -11    0.62    1.20
  -2  -8  11    0.86    1.24
  -1  -8  11   10.73    1.75
   1  -8 -11    6.65    1.99
  -1  -8  11    8.61    1.65
  -1  -8  11    8.20    1.85
  -1   8  11   10.62    1.49
   0  -8  11   10.45    1.63
   0  -8  11   14.75    1.80
   0  -8  11   13.52    2.14
   0  -8 -11   14.28    2.37
   0   8  11   11.69    1.69
   1  -8  11   12.63    1.88
   1  -8  11   10.36    1.89
  -1  -8 -11   10.15    1.95
   1  -8  11    5.92    1.58
   1   8  11    7.29    1.27
   1   8  11    5.77    1.38
   2  -8  11   10.89    2.02
   2   8  11    9.93    1.41
   2   8  11    9.52    1.61
   3  -8  11   10.67    2.08
  -3  -8 -11   11.55    2.50
   3   8  11    9.57    1.48
   3   8  11   10.00    1.53
   3   8  11   14.58    1.96
  -3  -9  11    3.10    1.26
  -3  -9  11    3.04    1.85
   3  -9 -11    4.04    2.13
  -3  -9  11    4.37    1.55
  -3   9  11    0.01    1.20
  -2  -9  11    3.05    1.42
  -2  -9  11    4.57    1.54
   2  -9 -11    2.76    1.99
  -2  -9  11    4.63    1.80
  -1  -9  11    6.55    1.91
  -1  -9  11    8.10    1.68
   1  -9 -11    6.93    2.09
  -1  -9  11    3.62    1.53
   0  -9  11    2.05    1.11
   0  -9  11    1.32    1.52
   0  -9  11    4.66    1.51
   0  -9 -11    1.10    1.67
   0   9  11    0.25    1.19
   1  -9  11    1.74    1.56
  -1  -9 -11    0.77    1.54
   1  -9  11    1.90    1.41
   1  -9  11    2.63    1.44
   1   9  11    2.59    1.29
   1   9  11   -0.09    1.18
   2  -9  11    2.23    1.47
   2  -9  11    0.36    1.54
  -7   0  12   -0.06    1.35
  -7   0  12   -0.48    1.24
  -6   0  12    1.10    0.98
  -6   0  12    0.22    1.09
  -6   0  12   -0.12    1.18
  -5   0  12    0.98    1.03
  -5   0  12    0.82    0.95
  -5   0  12    0.72    0.91
   5   0 -12    0.58    0.67
   5   0 -12    1.04    0.90
  -4   0  12    0.43    0.64
   4   0 -12    0.60    0.74
   4   0 -12   -0.26    0.55
  -4   0  12    0.29    0.61
  -4   0  12    0.26    0.81
  -3   0  12    1.02    0.52
  -3   0  12    0.83    0.57
  -3   0  12    1.08    0.66
  -3   0  12    0.73    0.60
  -3   0  12    1.62    0.78
   3   0 -12    0.87    0.67
  -3   0  12    1.75    0.75
   3   0 -12    1.75    0.77
  -3   0  12    1.62    0.84
  -2   0  12    8.67    1.03
   2   0 -12    7.86    0.99
  -2   0  12    8.26    0.93
  -2   0  12    8.15    0.93
  -2   0  12    8.08    1.16
  -2   0  12    7.18    1.08
  -2   0  12    6.66    1.06
  -2   0  12    7.49    1.15
   2   0 -12    9.24    1.00
  -2   0  12    8.83    0.99
  -2   0  12    7.90    1.01
  -2   0  12    7.67    1.12
  -2   0  12    7.57    0.94
  -1   0  12    8.60    1.14
   1   0 -12    9.27    0.93
  -1   0  12    8.94    1.06
  -1   0  12    6.46    1.05
  -1   0  12    9.87    1.08
  -1   0  12    9.94    1.21
  -1   0  12   10.12    1.20
  -1   0  12    8.19    1.02
  -1   0  12    9.07    1.13
   1   0 -12    9.43    0.95
  -1   0  12    7.66    0.99
  -1   0  12    8.40    1.11
  -1   0  12    8.19    1.16
   1   0 -12    9.25    1.13
   0   0  12   13.38    1.26
   0   0  12   13.17    1.46
   0   0 -12   13.60    1.26
   0   0  12   15.38    1.63
   0   0  12   14.93    1.24
   0   0  12   13.32    1.28
   0   0  12   12.93    1.57
   0   0  12   12.54    1.30
   0   0  12   14.28    1.44
   0   0 -12   14.34    1.19
   0   0  12   13.60    1.41
   0   0 -12   12.47    1.31
   0   0 -12   14.88    1.13
   0   0  12   13.51    1.45
   1   0  12   37.29    2.67
  -1   0 -12   34.58    2.51
   1   0  12   37.84    2.74
   1   0  12   37.66    2.76
  -1   0 -12   37.21    2.39
   1   0  12   40.86    2.69
   1   0  12   38.35    2.90
   1   0  12   36.92    2.77
  -1   0 -12   33.14    3.38
   1   0  12   34.23    2.80
  -1   0 -12   36.27    2.82
   1   0  12   37.50    2.48
   2   0  12    1.38    0.90
   2   0  12    2.25    0.97
   2   0  12    1.68    0.94
   2   0  12    1.72    0.71
   2   0  12    1.98    1.03
   2   0  12    1.10    0.92
   2   0  12    1.35    0.58
   2   0  12    1.68    0.72
  -2   0 -12    1.08    0.94
  -2   0 -12    0.99    0.65
  -3   0 -12   27.84    2.16
  -3   0 -12   20.93    2.84
   3   0  12   26.38    2.46
   3   0  12   33.46    2.69
   3   0  12   25.48    2.61
   3   0  12   27.23    2.50
   3   0  12   29.20    2.40
   3   0  12   26.84    2.29
   3   0  12   26.49    2.27
   3   0  12   29.98    2.32
   4   0  12   24.84    2.15
   4   0  12   23.89    2.55
  -4   0 -12   21.16    2.83
  -5   0 -12   13.08    2.31
  -7  -1  12   -0.02    1.33
  -7  -1  12    2.38    1.59
  -7   1  12    2.48    1.41
  -6  -1  12    7.22    1.54
  -6  -1  12    8.68    1.68
  -6   1  12    6.64    1.47
  -6   1  12    5.59    1.38
  -5  -1  12   12.23    1.61
   5  -1 -12   10.65    1.36
  -5  -1  12   11.22    1.51
  -5  -1  12   12.62    1.59
   5  -1 -12   11.95    1.37
   5   1 -12   11.60    1.54
   5   1 -12   14.05    1.50
   5   1 -12   10.67    1.44
  -5   1  12   11.84    1.63
  -5   1  12   13.33    1.63
  -5   1  12   14.63    1.68
  -4  -1  12   12.09    1.44
  -4  -1  12    8.88    1.38
  -4  -1  12    8.58    1.38
   4  -1 -12   10.04    1.20
   4  -1 -12    9.40    1.16
  -4  -1  12    8.43    1.31
  -4   1  12   10.66    1.35
  -4   1  12   11.71    1.51
   4   1 -12   10.83    1.26
   4   1 -12   11.93    1.32
  -4   1  12   10.78    1.24
  -4   1  12   11.76    1.40
  -3  -1  12   13.92    1.42
  -3  -1  12   12.81    1.55
   3  -1 -12   13.90    1.36
  -3  -1  12   15.49    1.34
  -3  -1  12   11.74    1.47
   3  -1 -12   14.02    1.26
  -3  -1  12   14.11    1.51
  -3   1  12   13.05    1.47
  -3   1  12   10.05    1.33
  -3   1  12   11.52    1.18
  -3   1  12   12.54    1.29
  -3   1  12   10.39    1.26
  -3   1  12   12.72    1.27
   3   1 -12   10.55    1.37
  -3   1  12   11.80    1.33
   3   1 -12   10.29    1.27
  -3   1  12   12.61    1.23
  -3   1  12   14.72    1.29
  -2  -1  12   11.08    1.30
   2  -1 -12   11.68    1.27
  -2  -1  12   13.08    1.21
  -2  -1  12   13.08    1.13
   2  -1 -12   11.38    1.12
  -2  -1  12   11.63    1.43
  -2  -1  12   11.84    1.13
  -2  -1  12   11.95    1.11
  -2  -1  12   11.92    1.35
  -2  -1  12   11.71    1.21
  -2  -1  12   11.40    1.37
  -2  -1  12   11.04    1.27
  -2   1  12   12.13    1.25
   2   1 -12   11.15    1.22
  -2   1  12   12.80    1.33
  -2   1  12   11.51    1.28
  -2   1  12   12.31    1.29
  -2   1  12   12.65    1.41
  -2   1  12   10.07    1.38
  -2   1  12   11.51    1.19
  -2   1  12   13.43    1.35
   2   1 -12   11.03    1.24
  -2   1  12   11.04    1.30
  -2   1  12   12.52    1.25
  -2   1  12   11.06    1.23
  -1  -1  12   39.82    2.94
   1  -1 -12   42.43    2.76
  -1  -1  12   38.54    2.82
  -1  -1  12   41.77    2.98
  -1  -1  12   39.57    3.10
  -1  -1  12   41.57    3.18
   1  -1 -12   45.83    2.65
  -1  -1  12   43.32    3.23
  -1  -1  12   45.48    2.86
  -1  -1  12   44.03    2.87
  -1  -1  12   40.53    3.19
  -1  -1  12   40.79    3.38
  -1  -1  12   42.87    2.87
   1  -1 -12   42.67    3.03
   1   1 -12   43.10    2.79
   1   1 -12   41.90    2.71
  -1   1  12   42.77    2.96
  -1   1  12   40.85    3.20
  -1   1  12   40.61    2.85
  -1   1  12   40.28    2.93
   1   1 -12   40.67    3.02
  -1   1  12   41.55    3.10
  -1   1  12   39.50    3.01
  -1   1  12   44.76    3.09
  -1   1  12   41.87    2.90
   1   1 -12   40.71    2.78
  -1   1  12   41.77    2.96
  -1   1  12   42.40    3.16
   0  -1  12   18.02    1.57
   0  -1  12   17.73    1.76
   0  -1  12   18.18    1.72
   0  -1  12   17.03    1.52
   0  -1  12   17.50    1.53
   0  -1 -12   16.13    1.38
   0  -1  12   17.55    1.58
   0  -1  12   19.44    1.59
   0  -1  12   16.86    1.66
   0  -1  12   17.81    1.52
   0  -1 -12   17.70    1.30
   0  -1 -12   18.71    1.52
   0   1  12   16.42    1.62
   0   1  12   19.23    1.76
   0   1  12   17.13    1.54
   0   1 -12   17.72    1.40
   0   1  12   16.24    1.48
   0   1  12   16.65    1.68
   0   1  12   17.62    1.85
   0   1  12   17.32    1.52
   0   1 -12   17.48    1.70
   0   1 -12   17.58    1.43
   0   1  12   17.65    1.65
   0   1 -12   15.06    1.37
   0   1  12   15.96    1.42
   0   1  12   19.45    1.66
   1  -1  12    5.44    0.87
  -1  -1 -12    5.97    0.98
   1  -1  12    8.06    1.14
   1  -1  12    5.95    1.05
  -1  -1 -12    5.29    0.76
   1  -1  12    5.32    0.97
   1  -1  12    6.90    1.00
  -1  -1 -12    5.76    1.25
   1  -1  12    6.97    1.04
   1  -1  12    6.73    1.03
   1   1  12    4.68    1.04
  -1   1 -12    4.03    0.69
   1   1  12    4.71    1.00
  -1   1 -12    3.58    0.94
   1   1  12    5.73    1.10
   1   1  12    5.61    0.82
  -1   1 -12    4.39    1.02
  -1   1 -12    4.62    0.78
   1   1  12    4.19    0.98
   1   1  12    4.46    0.97
   1   1  12    5.06    0.90
   1   1  12    4.42    1.00
  -1   1 -12    5.44    0.79
   1   1  12    4.41    0.88
  -2  -1 -12    5.42    0.82
   2  -1  12    6.55    1.12
   2  -1  12    6.74    1.19
   2  -1  12    6.12    1.13
   2  -1  12    5.96    0.97
   2  -1  12    6.68    1.18
  -2  -1 -12    6.18    1.38
   2  -1  12    5.44    1.09
   2  -1  12    5.89    1.25
   2   1  12    4.90    1.23
   2   1  12    5.82    0.88
   2   1  12    3.53    0.88
  -2   1 -12    5.02    1.13
   2   1  12    4.10    1.11
   2   1  12    4.74    0.93
  -2   1 -12    5.80    0.87
   2   1  12    5.22    1.14
  -2   1 -12    3.98    0.91
   2   1  12    4.95    0.96
   2   1  12    5.72    1.15
   3  -1  12    9.09    1.51
   3  -1  12    9.31    1.54
   3  -1  12    7.78    1.54
  -3  -1 -12   10.19    1.73
   3  -1  12   11.25    1.53
   3  -1  12   10.22    1.56
   3  -1  12   10.13    1.57
   3  -1  12   12.43    1.61
   3  -1  12   11.75    1.44
  -3   1 -12   13.13    1.30
   3   1  12   12.05    1.64
   3   1  12   10.31    1.47
   3   1  12   12.06    1.27
  -3   1 -12   11.32    1.72
   3   1  12   14.07    1.56
   3   1  12   13.71    1.70
   3   1  12   11.72    1.44
   3   1  12   12.11    1.65
   3   1  12   14.43    1.80
   3   1  12   14.88    1.59
   3   1  12   13.29    1.67
  -4  -1 -12    2.24    1.40
  -4   1 -12    2.58    1.28
   4   1  12    2.26    1.05
  -4   1 -12    1.81    1.00
   4   1  12    2.74    0.98
  -5  -1 -12   -0.16    1.47
   5   1  12    2.01    1.02
  -5   1 -12    0.61    1.29
  -7  -2  12    0.09    1.03
  -7  -2  12    0.98    1.57
  -6  -2  12    0.71    1.19
  -6  -2  12   -0.69    1.31
  -6   2  12    0.51    1.05
   5  -2 -12    5.31    1.04
  -5  -2  12    3.50    1.07
  -5  -2  12    5.07    1.21
  -5  -2  12    3.53    1.02
   5  -2 -12    5.26    1.00
  -5  -2  12    5.03    1.16
   5   2 -12    3.91    1.11
  -5   2  12    4.33    1.09
   5   2 -12    5.01    1.10
   5   2 -12    6.52    1.25
  -5   2  12    4.52    1.22
  -5   2  12    5.74    1.12
   4  -2 -12    4.57    0.92
   4  -2 -12    5.34    0.89
  -4  -2  12    4.96    1.10
  -4  -2  12    5.63    1.28
  -4  -2  12    4.17    1.12
  -4  -2  12    4.29    1.06
  -4   2  12    4.79    0.94
   4   2 -12    4.38    0.87
  -4   2  12    3.68    0.95
  -4   2  12    3.85    0.86
   4   2 -12    4.12    1.07
  -4   2  12    3.37    1.09
  -4   2  12    6.02    0.95
  -4   2  12    2.58    0.84
  -3  -2  12    3.75    0.86
   3  -2 -12    4.87    0.89
  -3  -2  12    3.84    1.07
  -3  -2  12    5.37    1.09
   3  -2 -12    4.28    0.77
  -3  -2  12    4.55    0.92
  -3  -2  12    4.79    1.15
  -3   2  12    7.92    1.02
   3   2 -12    5.86    0.93
  -3   2  12    5.56    0.92
  -3   2  12    6.56    1.03
  -3   2  12    4.87    1.10
  -3   2  12    6.19    0.88
  -3   2  12    5.47    0.93
  -3   2  12    7.28    1.06
  -3   2  12    6.15    1.01
   3   2 -12    6.46    1.02
  -2  -2  12    5.97    1.02
   2  -2 -12    7.60    0.82
   2  -2 -12    5.96    0.92
  -2  -2  12    7.81    0.98
  -2  -2  12    6.87    0.87
  -2  -2  12    6.68    1.16
  -2  -2  12    6.81    1.06
  -2  -2  12    6.66    1.16
   2   2 -12    7.09    1.04
  -2   2  12    6.22    1.04
  -2   2  12    7.45    1.04
  -2   2  12    7.48    0.99
  -2   2  12    7.19    0.94
  -2   2  12    5.20    1.09
  -2   2  12    5.65    1.02
  -2   2  12    7.16    1.01
   2   2 -12    6.57    0.97
  -2   2  12    5.24    0.89
  -2   2  12    6.91    1.07
  -2   2  12    7.00    1.02
  -1  -2  12    5.89    1.00
  -1  -2  12    6.73    0.83
  -1  -2  12    7.78    1.18
  -1  -2  12    7.31    1.00
   1  -2 -12    6.77    0.75
  -1  -2  12    9.31    1.10
   1  -2 -12    5.87    0.89
  -1  -2  12    6.50    0.82
  -1  -2  12    6.62    0.83
  -1  -2  12    8.14    0.87
  -1  -2  12    6.81    1.07
  -1  -2  12    7.21    0.96
   1   2 -12    5.25    0.76
  -1   2  12    5.28    1.01
  -1   2  12    5.04    0.95
  -1   2  12    4.25    0.79
  -1   2  12    5.75    1.10
   1   2 -12    5.29    0.84
  -1   2  12    5.26    0.91
   1   2 -12    6.13    0.97
  -1   2  12    4.96    0.85
  -1   2  12    5.48    0.96
  -1   2  12    4.70    0.86
  -1   2  12    4.65    1.04
   1   2 -12    5.19    0.89
  -1   2  12    6.07    0.94
   0  -2  12   14.89    1.29
   0  -2  12   12.40    1.24
   0  -2  12   13.96    1.25
   0  -2  12   12.43    1.19
   0  -2 -12   13.27    1.28
   0  -2  12   12.47    1.43
   0  -2  12   10.92    1.22
   0  -2  12   12.86    1.46
   0  -2  12   12.82    1.26
   0   2  12   11.47    1.44
   0   2 -12   10.45    1.14
   0   2 -12   12.26    1.32
   0   2  12   11.09    1.16
   0   2 -12   12.57    1.24
   0   2  12   12.35    1.41
   0   2 -12   10.29    1.15
   0   2  12   10.75    1.36
   0   2  12   11.66    1.10
   0   2  12   10.34    1.29
   0   2  12    9.73    1.35
   0   2  12   10.49    1.31
   0   2  12   10.15    1.24
   0   2  12   10.63    1.25
  -1  -2 -12   25.93    2.80
   1  -2  12   23.95    2.26
   1  -2  12   23.38    2.06
   1  -2  12   28.07    2.06
   1  -2  12   25.49    2.04
   1  -2  12   23.91    2.04
   1  -2  12   27.13    2.05
   1  -2  12   26.23    1.98
   1   2  12   24.09    2.02
   1   2  12   25.04    2.09
   1   2  12   26.52    2.16
   1   2  12   23.57    1.97
   1   2  12   25.52    2.07
  -1   2 -12   25.32    2.03
  -1   2 -12   25.99    1.92
   1   2  12   25.33    2.05
   1   2  12   27.38    2.10
  -1   2 -12   24.90    1.90
   1   2  12   24.56    1.86
  -1   2 -12   23.43    2.09
   1   2  12   26.61    2.16
   1   2  12   24.50    2.34
   2  -2  12   21.68    2.07
   2  -2  12   24.28    1.96
   2  -2  12   21.86    2.14
   2  -2  12   24.41    2.29
   2  -2  12   22.32    2.14
  -2  -2 -12   19.90    2.67
   2  -2  12   22.26    1.91
   2  -2  12   24.11    1.93
  -2   2 -12   22.96    1.84
  -2   2 -12   24.56    2.00
   2   2  12   25.09    2.08
   2   2  12   22.04    2.00
  -2   2 -12   24.14    1.82
   2   2  12   24.25    2.05
   2   2  12   23.94    2.11
   2   2  12   22.96    2.31
   2   2  12   22.66    1.88
   2   2  12   25.60    2.25
   2   2  12   23.50    2.01
  -3  -2 -12   17.65    2.53
   3  -2  12   16.70    1.81
   3  -2  12   17.18    1.94
   3  -2  12   16.38    2.05
   3  -2  12   16.97    1.91
   3  -2  12   14.22    1.93
   3  -2  12   16.95    1.87
  -3   2 -12   19.77    1.70
   3   2  12   18.10    1.97
   3   2  12   22.69    2.38
   3   2  12   22.97    1.94
   3   2  12   20.51    2.10
  -3   2 -12   20.67    1.57
   3   2  12   22.88    2.17
   3   2  12   18.54    2.04
   3   2  12   19.50    1.70
   3   2  12   20.17    2.09
   3   2  12   17.03    1.87
   3   2  12   21.09    1.96
  -4  -2 -12   11.44    1.95
   4   2  12   10.06    1.44
   4   2  12   10.60    1.32
  -5  -2 -12    7.32    2.13
   5   2  12    8.08    1.38
  -7  -3  12    2.14    1.35
  -6  -3  12    4.43    1.35
  -6  -3  12    4.65    1.55
  -5  -3  12    8.73    1.51
  -5  -3  12    7.06    1.60
  -5  -3  12    5.95    1.40
  -5   3  12    5.95    1.16
   5   3 -12    6.87    1.17
  -4  -3  12    9.36    1.39
  -4  -3  12    8.02    1.46
  -4  -3  12    9.97    1.52
  -4  -3  12   10.11    1.39
  -4   3  12    8.05    1.42
   4   3 -12    9.65    1.34
   4   3 -12    6.96    1.31
  -4   3  12    8.42    1.22
  -4   3  12    7.57    1.13
  -4   3  12    8.88    1.21
   3  -3 -12   10.25    1.16
  -3  -3  12   10.56    1.37
  -3  -3  12   10.07    1.52
  -3  -3  12   11.58    1.50
  -3  -3  12    9.71    1.55
   3   3 -12   11.29    1.33
  -3   3  12    9.03    1.25
  -3   3  12   12.29    1.34
  -3   3  12   12.55    1.29
  -3   3  12   10.03    1.36
  -3   3  12   11.01    1.24
  -3   3  12   10.50    1.50
   3   3 -12   10.44    1.28
  -3   3  12   11.44    1.40
  -2  -3  12   44.91    3.02
  -2  -3  12   37.71    3.21
   2  -3 -12   40.90    2.87
  -2  -3  12   38.40    3.04
  -2  -3  12   40.39    3.41
  -2   3  12   37.23    2.89
  -2   3  12   40.64    2.92
  -2   3  12   39.21    2.94
  -2   3  12   42.51    2.91
  -2   3  12   41.25    2.95
  -2   3  12   40.68    3.08
  -2   3  12   37.42    2.86
   2   3 -12   39.55    2.65
   2   3 -12   38.65    3.07
  -2   3  12   40.99    2.91
   2   3 -12   41.94    2.88
  -2   3  12   40.59    3.26
  -1  -3  12    2.68    0.71
  -1  -3  12    2.85    0.80
  -1  -3  12    3.48    0.72
  -1  -3  12    2.49    1.01
  -1  -3  12    3.25    1.07
  -1  -3  12    2.92    0.81
   1  -3 -12    2.43    0.67
  -1   3  12    4.87    0.80
  -1   3  12    3.74    0.98
  -1   3  12    3.45    0.79
  -1   3  12    2.90    0.88
   1   3 -12    3.45    0.67
  -1   3  12    5.15    0.75
   1   3 -12    4.34    0.82
   1   3 -12    3.43    0.73
  -1   3  12    3.96    0.93
  -1   3  12    3.67    0.79
  -1   3  12    3.74    1.00
  -1   3  12    4.09    0.78
   1   3 -12    3.60    0.83
  -1   3  12    6.06    1.08
   0  -3  12   15.78    1.53
   0  -3  12   14.01    1.44
   0  -3  12   16.10    1.76
   0  -3  12   17.77    1.53
   0  -3  12   14.15    1.40
   0  -3 -12   14.88    1.85
   0  -3  12   15.65    1.71
   0  -3 -12   14.92    1.43
   0  -3  12   14.27    1.41
   0  -3  12   16.00    1.40
   0   3 -12   16.57    1.55
   0   3  12   15.07    1.66
   0   3  12   15.82    1.70
   0   3  12   14.94    1.55
   0   3 -12   15.09    1.40
   0   3 -12   15.90    1.47
   0   3  12   15.70    1.64
   0   3  12   16.47    1.51
   0   3  12   16.42    1.70
   0   3  12   14.10    1.47
   0   3  12   16.40    1.53
   0   3  12   17.27    1.64
   0   3 -12   17.42    1.51
   1  -3  12    8.86    1.20
   1  -3  12    7.60    0.98
   1  -3  12    8.05    1.14
   1  -3  12    6.86    1.22
   1  -3  12    8.64    1.15
   1  -3  12    9.44    1.14
   1  -3  12    9.69    1.08
  -1  -3 -12    8.39    1.67
   1   3  12    7.01    1.10
   1   3  12    7.21    1.09
   1   3  12    7.29    1.24
   1   3  12    7.80    1.14
   1   3  12    7.67    1.31
   1   3  12    8.15    1.11
  -1   3 -12    8.18    1.17
   1   3  12    7.48    1.14
  -1   3 -12    6.24    1.01
   1   3  12    8.17    1.15
   1   3  12    8.55    1.38
  -1   3 -12    7.81    1.07
  -1   3 -12    6.43    1.07
   1   3  12    7.76    1.17
   2  -3  12    6.48    1.20
   2  -3  12    7.46    1.10
   2  -3  12    6.97    1.24
   2  -3  12    7.41    1.20
   2  -3  12    6.72    1.29
   2  -3  12    6.90    1.13
   2  -3  12    6.50    1.16
  -2  -3 -12    8.02    1.72
   2   3  12    7.38    1.30
   2   3  12    8.00    1.18
  -2   3 -12    9.68    1.11
  -2   3 -12    7.57    1.22
   2   3  12    7.78    1.32
   2   3  12    6.99    1.10
   2   3  12    7.82    1.24
   2   3  12    9.37    1.29
   2   3  12    8.92    1.24
   2   3  12    7.69    1.20
  -2   3 -12    8.37    1.02
   2   3  12    8.40    1.41
   2   3  12    7.06    1.10
   3  -3  12    8.86    1.56
   3  -3  12    9.03    1.36
   3  -3  12    9.41    1.43
  -3  -3 -12    6.61    1.79
   3  -3  12    7.86    1.21
   3  -3  12    7.08    1.38
   3  -3  12    9.43    1.46
   3  -3  12    8.24    1.26
   3   3  12    8.21    1.46
   3   3  12    8.95    1.52
   3   3  12    8.24    1.53
   3   3  12    8.52    1.48
   3   3  12    6.92    1.27
  -3   3 -12    9.79    1.27
   3   3  12    9.80    1.50
   3   3  12    7.22    1.29
   3   3  12    7.84    1.28
   3   3  12    9.03    1.38
   3   3  12    8.20    1.20
  -3   3 -12    8.23    1.32
  -4  -3 -12   -1.27    1.40
   4   3  12    1.46    1.03
  -4   3 -12   -0.07    0.91
   4   3  12    0.34    0.89
  -5  -3 -12    1.56    1.81
   5   3  12    2.35    1.04
   5   3  12    1.35    1.15
  -6  -4  12   -0.23    0.96
  -6  -4  12   -0.25    1.44
  -6  -4  12    0.22    1.31
  -5  -4  12    0.38    1.33
  -5  -4  12   -0.21    1.15
  -5  -4  12    1.03    1.24
  -5   4  12   -0.08    0.83
  -4  -4  12    1.93    0.97
  -4  -4  12    1.99    1.17
  -4  -4  12    1.66    0.97
  -4  -4  12    1.70    1.19
  -4   4  12    2.03    0.85
  -4   4  12    1.70    0.81
   4   4 -12   -0.17    0.94
   4   4 -12    1.77    0.76
  -4   4  12    0.86    0.84
  -3  -4  12    1.89    0.84
  -3  -4  12    1.11    1.07
  -3  -4  12    2.53    1.17
  -3   4  12    1.93    0.73
   3   4 -12    3.41    1.03
  -3   4  12    2.61    0.85
  -3   4  12    2.47    0.74
   3   4 -12    1.84    0.73
  -3   4  12    2.23    0.90
  -3   4  12    2.36    0.85
  -2  -4  12   14.02    1.87
  -2  -4  12    9.52    1.52
  -2  -4  12   12.45    1.58
  -2   4  12   15.23    1.58
  -2   4  12   15.99    1.67
  -2   4  12   15.48    1.67
  -2   4  12   13.83    1.49
   2   4 -12   17.52    1.62
  -2   4  12   15.37    1.60
   2   4 -12   15.17    1.47
  -2   4  12   13.48    1.61
   2   4 -12   15.68    1.38
   2   4 -12   16.85    1.70
  -2   4  12   14.17    1.66
  -1  -4  12   -0.08    0.68
  -1  -4  12   -0.79    0.64
  -1  -4  12    0.77    0.97
  -1   4  12    0.48    0.82
   1   4 -12    0.00    0.70
  -1   4  12    0.15    0.79
  -1   4  12    1.39    0.68
   1   4 -12    1.21    0.64
  -1   4  12    0.16    0.81
   1   4 -12    0.29    0.55
  -1   4  12    0.41    0.57
   1   4 -12    0.41    0.62
  -1   4  12    0.73    0.67
  -1   4  12    0.84    0.62
  -1   4  12    0.27    0.85
   0  -4 -12   24.92    2.48
   0  -4  12   27.62    2.08
   0  -4  12   25.45    2.28
   0  -4  12   24.84    2.07
   0  -4  12   24.03    1.92
   0   4  12   24.79    2.10
   0   4  12   22.48    2.12
   0   4  12   21.19    2.06
   0   4  12   20.08    2.12
   0   4 -12   22.65    1.93
   0   4 -12   22.98    1.91
   0   4 -12   21.23    2.14
   0   4 -12   20.77    1.96
   0   4  12   24.00    2.15
   0   4  12   21.37    2.01
   0   4  12   20.36    1.91
   0   4  12   24.47    2.17
   0   4  12   19.30    1.79
   1  -4  12   11.38    1.30
   1  -4  12   11.85    1.32
   1  -4  12   13.22    1.40
  -1  -4 -12   11.44    2.03
   1  -4  12   11.69    1.39
   1  -4  12   11.38    1.28
   1  -4  12   12.71    1.37
   1  -4  12   11.35    1.61
   1   4  12   10.46    1.32
  -1   4 -12   12.16    1.35
   1   4  12   12.36    1.42
   1   4  12   12.89    1.62
   1   4  12   14.53    1.62
   1   4  12   10.67    1.52
  -1   4 -12    9.72    1.49
   1   4  12    9.27    1.32
   1   4  12   10.03    1.46
  -1   4 -12   11.11    1.31
   1   4  12   11.87    1.38
   1   4  12    9.42    1.50
   1   4  12   10.82    1.41
  -1   4 -12    8.98    1.35
   2  -4  12   18.92    1.85
  -2  -4 -12   17.06    2.42
   2  -4  12   18.09    1.73
   2  -4  12   18.03    1.72
   2  -4  12   18.11    1.67
   2  -4  12   18.82    1.79
   2  -4  12   18.13    1.63
   2  -4  12   16.13    1.77
  -2   4 -12   18.78    1.84
  -2   4 -12   17.28    1.72
  -2   4 -12   18.56    1.73
   2   4  12   17.40    1.61
   2   4  12   22.02    1.88
   2   4  12   18.23    1.87
   2   4  12   14.56    1.87
   2   4  12   16.73    1.87
   2   4  12   20.68    2.09
   2   4  12   17.67    1.95
   2   4  12   15.05    1.70
   2   4  12   21.83    2.05
   2   4  12   19.28    2.03
  -3  -4 -12    4.60    1.50
   3  -4  12    7.99    1.29
   3  -4  12    5.44    1.25
   3  -4  12    5.44    1.32
   3  -4  12    6.34    1.23
   3  -4  12    6.87    1.17
   3  -4  12    6.84    1.14
  -3   4 -12    8.37    1.25
  -3   4 -12    8.50    1.12
   3   4  12    5.32    1.17
   3   4  12    8.44    1.30
   3   4  12    8.99    1.41
  -4  -4 -12   27.27    3.39
   4   4  12   30.75    2.48
  -5  -4 -12    9.70    2.41
   5   4  12    4.94    1.41
   5   4  12    5.77    1.38
  -6  -5  12    4.50    1.71
  -6  -5  12    1.79    1.59
  -6  -5  12    3.64    1.39
  -5  -5  12    4.51    1.50
  -5  -5  12    5.70    1.38
  -5  -5  12    5.32    1.62
  -4  -5  12    8.09    1.70
  -4  -5  12    8.35    1.61
  -4  -5  12    8.37    1.71
  -4   5  12    9.32    1.37
  -4   5  12    9.45    1.19
  -3  -5  12   12.28    1.59
  -3  -5  12    9.34    1.70
  -3  -5  12   10.11    1.46
  -3   5  12   10.95    1.42
   3   5 -12   10.94    1.43
   3   5 -12   10.03    1.35
  -3   5  12    9.68    1.32
  -3   5  12    9.99    1.31
  -3   5  12   11.06    1.34
   3   5 -12    9.71    1.31
  -3   5  12   11.77    1.62
  -2  -5  12    3.84    1.18
   2  -5 -12    2.95    1.39
  -2  -5  12    2.82    1.23
  -2  -5  12    4.27    1.26
  -2   5  12    2.77    1.06
  -2   5  12    1.69    0.98
  -2   5  12    3.64    0.84
   2   5 -12    1.55    0.86
   2   5 -12    2.55    0.79
  -2   5  12    1.73    0.81
   2   5 -12    3.17    0.79
  -2   5  12    3.84    0.85
   2   5 -12    2.57    1.04
  -2   5  12    1.81    0.94
  -1  -5  12   22.80    2.21
  -1  -5  12   23.97    2.39
   1  -5 -12   21.41    2.55
  -1  -5  12   25.29    2.17
   1   5 -12   23.59    1.94
  -1   5  12   24.63    2.06
  -1   5  12   25.42    2.26
   1   5 -12   27.52    2.07
  -1   5  12   22.47    2.05
  -1   5  12   25.84    2.35
  -1   5  12   26.27    2.33
  -1   5  12   22.12    2.11
   1   5 -12   26.23    2.00
  -1   5  12   21.74    2.07
  -1   5  12   25.51    2.23
   1   5 -12   25.56    2.27
   0  -5  12    5.75    0.95
   0  -5 -12    5.27    1.40
   0  -5  12    6.44    1.38
   0  -5  12    5.60    1.43
   0   5 -12    7.63    1.21
   0   5  12    7.16    1.28
   0   5  12    6.24    1.29
   0   5 -12    8.58    1.19
   0   5  12    6.81    1.30
   0   5 -12    7.70    1.14
   0   5  12    8.45    1.23
   0   5  12    7.35    1.28
   0   5  12    6.64    1.16
   0   5  12    4.99    1.20
   0   5 -12    7.52    1.18
   0   5  12    7.29    1.28
   0   5  12    7.09    1.15
   1  -5  12   11.40    1.79
   1  -5  12   10.32    1.37
   1  -5  12   10.19    1.34
  -1   5 -12   11.62    1.28
   1   5  12   10.84    1.40
  -1   5 -12   10.99    1.39
   1   5  12   10.48    1.37
   1   5  12    9.06    1.36
   1   5  12   10.08    1.36
   1   5  12    8.22    1.31
   1   5  12    8.96    1.33
   1   5  12   11.32    1.36
   1   5  12   12.88    1.64
  -1   5 -12   11.65    1.57
   1   5  12   10.73    1.41
  -1   5 -12   10.32    1.29
   1   5  12    9.81    1.51
  -2  -5 -12    9.01    2.10
   2  -5  12    7.55    1.46
   2  -5  12    7.24    1.24
   2  -5  12    8.13    1.36
   2  -5  12    8.24    1.35
   2  -5  12    7.20    1.25
   2  -5  12    9.53    1.33
   2  -5  12    7.40    1.20
   2   5  12    7.55    1.28
   2   5  12    9.28    1.35
   2   5  12    8.33    1.32
   2   5  12    8.54    1.27
  -2   5 -12    8.40    1.50
  -2   5 -12    7.28    1.23
  -2   5 -12    6.64    1.25
   2   5  12    9.04    1.51
   2   5  12    8.59    1.30
   2   5  12    8.92    1.31
   2   5  12    7.05    1.35
   3  -5  12    0.65    1.07
  -3  -5 -12    0.96    1.65
   3   5  12    1.67    1.14
   3   5  12    0.73    0.76
  -4  -5 -12    1.53    1.87
   4   5  12    0.69    0.87
   4   5  12    0.14    1.02
  -5  -6  12   -0.58    1.34
  -5  -6  12    1.31    1.13
  -5  -6  12    2.04    1.61
  -4  -6  12   -0.24    1.24
  -4  -6  12    0.93    1.10
  -4  -6  12    0.30    0.97
   4  -6 -12   -0.82    1.14
  -3  -6  12    1.65    1.06
  -3  -6  12    1.03    1.21
   3  -6 -12    1.37    1.53
  -3  -6  12    2.50    1.06
  -3   6  12    2.13    0.79
   2  -6 -12   -0.01    1.32
  -2  -6  12    1.53    0.93
  -2  -6  12    2.67    1.06
  -2  -6  12    0.27    1.18
  -2   6  12    2.91    0.84
   2   6 -12    2.15    1.02
  -2   6  12    2.75    1.07
  -2   6  12    3.16    1.09
   2   6 -12    2.57    0.79
   2   6 -12    2.48    0.85
  -2   6  12    2.16    0.84
   2   6 -12    0.31    0.89
  -2   6  12    2.52    1.08
  -2   6  12    1.67    1.01
  -1  -6  12    5.74    1.40
  -1  -6  12    6.25    1.36
  -1  -6  12    9.06    1.47
   1  -6 -12    6.03    1.39
  -1   6  12    6.14    1.06
   1   6 -12    6.44    1.01
  -1   6  12    4.46    1.14
   1   6 -12    4.64    1.14
  -1   6  12    6.75    1.27
  -1   6  12    6.56    1.31
   1   6 -12    6.29    1.23
  -1   6  12    5.54    1.23
  -1   6  12    6.54    1.31
  -1   6  12    5.92    1.28
   1   6 -12    3.53    1.14
  -1   6  12    4.23    1.19
   0  -6  12    5.96    1.44
   0  -6  12    8.35    1.55
   0  -6  12    4.64    1.52
   0  -6 -12    4.64    1.52
   0   6  12    9.88    1.33
   0   6 -12   10.31    1.30
   0   6 -12    6.85    1.33
   0   6  12    9.52    1.48
   0   6  12    8.61    1.42
   0   6 -12    9.69    1.33
   0   6  12    7.31    1.24
   0   6  12    8.99    1.46
   0   6  12    9.54    1.22
   0   6  12    7.22    1.36
   0   6  12    8.49    1.41
   0   6  12    7.10    1.34
   0   6 -12    8.87    1.14
   1  -6  12   19.53    1.88
   1  -6  12   18.51    2.30
   1  -6  12   19.52    1.99
   1   6  12   19.69    1.98
  -1   6 -12   18.73    2.11
  -1   6 -12   20.53    1.80
   1   6  12   20.26    1.96
   1   6  12   18.11    1.95
   2  -6  12    1.75    1.07
  -2  -6 -12   -0.06    1.22
   2  -6  12    1.58    1.00
   2  -6  12    1.13    1.36
   2   6  12   -0.19    0.97
   2   6  12   -0.09    0.77
   2   6  12    0.91    1.02
   3  -6  12   18.55    2.52
  -3  -6 -12   19.44    3.21
   3   6  12   18.30    1.98
   3   6  12   16.83    1.83
   3   6  12   18.88    2.03
  -4  -6 -12   14.26    2.93
   4  -6  12   17.05    2.46
   4   6  12   11.97    1.59
   4   6  12   14.31    2.03
  -5  -7  12    5.30    1.81
  -5  -7  12    5.80    1.76
  -5  -7  12    8.93    1.85
  -4  -7  12    7.86    1.61
   4  -7 -12    8.86    2.00
  -4  -7  12    9.10    1.78
  -4  -7  12   11.83    1.68
  -4   7  12    7.41    1.43
  -3  -7  12    7.66    1.42
  -3  -7  12    8.32    1.94
   3  -7 -12    8.53    2.14
  -3  -7  12    8.74    1.54
   2  -7 -12    5.13    1.55
  -2  -7  12    5.46    1.26
  -2  -7  12    4.88    1.68
  -2  -7  12    6.34    1.52
  -1  -7  12   -0.01    1.00
  -1  -7  12    0.80    1.20
  -1  -7  12    0.19    0.89
   1  -7 -12    0.27    1.42
  -1   7  12   -0.11    0.94
   0  -7 -12    4.32    1.26
   0  -7  12    2.55    1.09
   0  -7  12    4.37    1.30
   0  -7  12    4.03    1.40
   0   7  12    3.41    0.95
   1  -7  12   11.20    2.06
   1  -7  12   13.21    1.96
   1   7  12   12.97    1.56
   1   7  12   13.77    1.71
   2  -7  12   10.77    1.78
   2   7  12   11.10    1.61
   2   7  12    9.50    1.57
   3  -7  12    5.30    1.72
  -3  -7 -12    3.03    1.76
   3   7  12    4.87    1.39
   3   7  12    6.13    1.46
   3   7  12    4.95    1.45
  -4  -8  12    3.09    1.32
  -4  -8  12    3.37    1.53
  -4   8  12    3.96    1.34
   3  -8 -12    0.23    1.35
  -3  -8  12    2.41    1.73
  -3  -8  12    0.90    1.11
  -3  -8  12    3.08    1.48
  -2  -8  12    1.92    1.37
  -2  -8  12    0.68    1.57
  -2  -8  12    1.64    1.44
   2  -8 -12    1.43    1.32
  -1  -8  12    4.64    1.22
  -1  -8  12    0.59    1.12
  -1  -8  12    3.43    1.46
   1  -8 -12    1.55    1.66
   0  -8  12    0.99    1.40
   0  -8  12    3.22    1.61
   0  -8 -12    4.65    1.73
   0  -8  12    2.11    1.10
   0   8  12    3.62    1.04
   1  -8  12    6.08    1.37
   1  -8  12    4.48    1.54
   1  -8  12    4.68    1.74
   1   8  12    5.67    1.36
   1   8  12    3.41    1.05
   2  -8  12    9.89    1.83
   2  -8  12    6.93    1.91
   2   8  12    6.40    1.52
   2   8  12    6.77    1.29
  -2  -9  12    6.05    1.66
   2  -9 -12    5.44    2.24
  -2  -9  12    5.42    1.43
  -1  -9  12    3.02    1.54
  -1  -9  12    1.10    1.50
   1  -9 -12    3.47    2.00
  -1  -9  12    3.18    1.43
   0  -9  12    2.69    1.77
   0  -9 -12    3.98    1.86
   0  -9  12    1.86    1.42
   0  -9  12    0.60    1.10
   0   9  12    4.18    1.13
   1  -9  12    0.17    1.07
  -7   0  13    0.15    1.49
  -7   0  13   -1.62    0.85
  -6   0  13    2.35    1.05
  -6   0  13    3.74    1.31
  -5   0  13   -0.31    1.07
  -5   0  13    0.07    0.73
   5   0 -13    0.50    0.92
   5   0 -13   -0.12    0.93
  -5   0  13    0.43    0.72
   4   0 -13    0.41    0.63
  -4   0  13    0.07    0.94
  -4   0  13    0.78    0.94
   4   0 -13    0.87    0.79
  -4   0  13   -0.02    0.86
  -3   0  13    0.64    0.81
   3   0 -13    1.13    0.74
  -3   0  13    0.00    0.57
  -3   0  13    0.56    0.69
   3   0 -13    1.08    0.83
  -3   0  13    0.92    0.84
  -3   0  13    0.26    0.62
  -3   0  13    0.04    0.86
  -2   0  13   -0.12    0.57
  -2   0  13    0.31    0.84
   2   0 -13   -0.22    0.44
  -2   0  13   -0.09    0.55
   2   0 -13    0.95    0.76
  -2   0  13    0.36    0.82
  -2   0  13    0.65    0.75
  -2   0  13    0.80    0.70
  -2   0  13    0.07    0.51
  -2   0  13    0.74    0.66
  -2   0  13    0.49    0.66
  -2   0  13   -0.68    0.54
  -1   0  13   10.65    1.23
  -1   0  13   12.37    1.25
  -1   0  13   10.80    1.39
   1   0 -13   10.44    1.07
   1   0 -13   11.03    0.99
   1   0 -13   10.17    1.29
  -1   0  13    9.19    1.30
   1   0 -13   10.56    1.12
  -1   0  13   10.98    1.34
  -1   0  13   10.69    1.23
  -1   0  13   11.27    1.28
  -1   0  13   10.23    1.29
  -1   0  13   11.90    1.25
  -1   0  13   10.45    1.27
  -1   0  13   10.70    1.22
   0   0  13    0.54    0.78
   0   0 -13    1.05    0.59
   0   0  13    2.38    0.82
   0   0  13    1.29    0.55
   0   0  13    0.20    0.90
   0   0  13    0.27    0.88
   0   0  13    0.01    0.76
   0   0  13    1.02    0.56
   0   0 -13    1.47    0.65
   0   0 -13    1.01    0.63
   0   0  13    1.38    0.59
   0   0  13    0.75    0.71
   0   0  13    0.54    0.65
   1   0  13    4.35    0.90
  -1   0 -13    2.94    1.08
   1   0  13    3.99    0.84
   1   0  13    3.87    0.99
  -1   0 -13    4.36    0.87
   1   0  13    3.62    0.99
   1   0  13    3.52    0.95
   1   0  13    3.08    1.09
  -1   0 -13    3.29    0.78
   1   0  13    3.07    0.99
   2   0  13   17.87    2.10
   2   0  13   19.77    1.79
   2   0  13   19.92    1.81
   2   0  13   21.32    1.88
   2   0  13   18.54    1.93
  -2   0 -13   16.59    2.26
   2   0  13   21.27    2.09
   2   0  13   19.31    1.98
  -2   0 -13   16.80    1.66
  -3   0 -13    9.41    1.74
   3   0  13   10.63    1.68
   3   0  13    9.47    1.57
   3   0  13   11.86    1.48
   3   0  13   10.97    1.67
  -3   0 -13    9.74    1.27
   3   0  13    9.96    1.59
   3   0  13   13.71    1.83
   3   0  13    9.96    1.60
   3   0  13    9.57    1.42
  -4   0 -13   17.04    2.48
  -5   0 -13    6.99    1.93
  -7  -1  13    2.14    1.26
  -7  -1  13    1.76    1.55
  -7   1  13    0.62    1.34
  -6  -1  13    2.80    1.15
  -6  -1  13    0.20    1.20
  -6   1  13    1.96    1.18
  -6   1  13    0.61    1.20
  -5  -1  13    4.80    1.31
   5  -1 -13    8.50    1.27
  -5  -1  13    5.36    1.44
  -5  -1  13    5.47    1.25
   5  -1 -13    7.46    1.20
  -5   1  13    9.20    1.43
  -5   1  13    6.41    1.38
   5   1 -13    7.23    1.27
  -5   1  13    5.79    1.26
   4  -1 -13   15.78    1.52
  -4  -1  13   14.34    1.66
  -4  -1  13   17.64    1.71
   4  -1 -13   14.75    1.61
  -4  -1  13   13.99    1.72
  -4  -1  13   18.48    1.92
  -4  -1  13   17.79    1.96
   4   1 -13   15.60    1.72
   4   1 -13   15.37    1.62
  -4   1  13   14.43    1.81
  -4   1  13   14.53    1.70
  -4   1  13   13.08    1.68
  -3  -1  13   11.29    1.49
  -3  -1  13   11.57    1.43
   3  -1 -13   11.22    1.19
  -3  -1  13   12.33    1.44
  -3  -1  13   12.19    1.47
  -3  -1  13   10.23    1.51
   3  -1 -13   10.71    1.31
   3   1 -13   10.48    1.39
  -3   1  13   10.75    1.27
  -3   1  13   10.87    1.31
  -3   1  13   13.71    1.63
  -3   1  13   12.00    1.27
  -3   1  13   11.39    1.37
  -3   1  13   12.40    1.45
   3   1 -13   12.56    1.25
  -3   1  13   10.14    1.21
  -3   1  13    9.61    1.32
   2  -1 -13   15.67    1.51
  -2  -1  13   13.31    1.64
  -2  -1  13   13.56    1.41
  -2  -1  13   14.43    1.60
   2  -1 -13   12.07    1.26
  -2  -1  13   14.79    1.70
  -2  -1  13   13.89    1.39
  -2  -1  13   12.75    1.58
  -2  -1  13   13.32    1.58
  -2   1  13   13.87    1.65
  -2   1  13   13.77    1.43
  -2   1  13   14.41    1.45
   2   1 -13   16.37    1.47
  -2   1  13   15.43    1.57
  -2   1  13   14.62    1.61
  -2   1  13   14.53    1.44
  -2   1  13   14.22    1.36
  -2   1  13   15.02    1.54
   2   1 -13   14.74    1.56
  -2   1  13   14.46    1.50
  -2   1  13   16.21    1.52
  -2   1  13   14.11    1.39
  -1  -1  13   14.98    1.37
  -1  -1  13   14.63    1.48
  -1  -1  13   15.56    1.45
   1  -1 -13   12.86    1.21
  -1  -1  13   15.95    1.34
  -1  -1  13   16.61    1.45
   1  -1 -13   15.54    1.18
  -1  -1  13   14.43    1.55
   1  -1 -13   14.41    1.42
  -1  -1  13   15.24    1.68
  -1  -1  13   13.63    1.42
  -1  -1  13   15.56    1.36
  -1  -1  13   16.50    1.67
  -1   1  13   11.95    1.35
   1   1 -13   11.30    1.21
  -1   1  13   10.52    1.32
   1   1 -13   10.49    1.40
  -1   1  13   11.14    1.35
   1   1 -13   10.92    1.13
  -1   1  13   11.62    1.56
  -1   1  13   11.03    1.54
   1   1 -13   13.27    1.34
  -1   1  13   11.47    1.41
  -1   1  13   10.41    1.32
  -1   1  13   10.03    1.40
  -1   1  13   11.46    1.36
  -1   1  13   12.63    1.39
   0  -1 -13   22.83    1.74
   0  -1  13   26.11    1.96
   0  -1  13   21.32    1.90
   0  -1 -13   22.65    1.89
   0  -1  13   21.59    2.00
   0  -1  13   24.61    1.94
   0  -1  13   21.08    2.03
   0  -1  13   23.47    1.96
   0  -1  13   23.29    2.19
   0  -1  13   23.22    2.02
   0   1  13   23.54    1.89
   0   1  13   22.81    2.07
   0   1  13   24.81    2.13
   0   1 -13   23.90    1.74
   0   1  13   22.09    2.01
   0   1  13   21.33    2.21
   0   1  13   21.33    1.90
   0   1 -13   21.07    1.74
   0   1  13   23.08    1.87
   0   1  13   23.48    1.87
   0   1  13   24.11    1.84
   0   1 -13   20.84    2.06
   0   1 -13   24.19    1.76
   0   1  13   23.87    2.07
   1  -1  13   25.91    2.24
   1  -1  13   24.43    2.09
  -1  -1 -13   22.04    2.69
   1  -1  13   26.23    2.15
   1  -1  13   23.17    2.13
   1  -1  13   22.70    1.98
   1  -1  13   23.26    1.97
   1  -1  13   26.55    2.39
   1   1  13   24.71    2.18
  -1   1 -13   23.19    1.99
   1   1  13   27.20    2.22
   1   1  13   28.02    2.25
   1   1  13   22.70    2.20
   1   1  13   26.69    2.22
   1   1  13   22.65    1.89
   1   1  13   29.10    2.26
   1   1  13   26.09    2.29
  -1   1 -13   25.79    1.86
   1   1  13   27.32    2.34
  -1   1 -13   25.10    2.27
   2  -1  13   18.30    1.91
   2  -1  13   19.13    1.83
   2  -1  13   16.74    2.06
   2  -1  13   17.79    1.90
   2  -1  13   19.32    1.79
  -2  -1 -13   16.08    2.32
   2  -1  13   18.61    1.96
   2  -1  13   19.55    2.01
   2  -1  13   18.08    1.75
   2   1  13   19.23    1.96
   2   1  13   20.97    1.86
   2   1  13   18.36    1.98
   2   1  13   23.32    2.08
   2   1  13   18.74    2.01
   2   1  13   19.50    1.65
   2   1  13   18.26    1.92
  -2   1 -13   18.31    1.73
   2   1  13   19.04    1.64
   2   1  13   19.93    1.83
   3  -1  13    4.75    1.09
   3  -1  13    5.36    1.09
  -3  -1 -13    4.56    1.45
   3  -1  13    3.07    1.21
   3  -1  13    2.55    1.18
   3  -1  13    5.21    1.07
   3   1  13    2.03    1.26
  -3   1 -13    1.60    0.94
   3   1  13    2.50    1.19
  -4  -1 -13    4.88    1.66
   4   1  13    5.66    1.21
  -5  -1 -13    0.76    1.64
  -7  -2  13   -0.03    1.24
  -6  -2  13    1.01    1.12
  -6  -2  13    1.94    1.35
  -6   2  13    2.30    1.15
  -5  -2  13    0.67    1.24
   5  -2 -13    0.64    0.81
  -5  -2  13   -0.95    1.08
   5  -2 -13    1.24    0.90
  -5  -2  13    0.48    0.96
  -5   2  13   -0.43    0.85
   4  -2 -13    0.31    0.70
  -4  -2  13    0.02    0.71
   4  -2 -13   -0.19    0.74
  -4  -2  13    0.00    0.77
  -4  -2  13   -0.48    0.86
  -4  -2  13   -0.16    0.92
  -4   2  13    0.88    0.83
  -4   2  13   -0.06    0.71
  -4   2  13   -0.66    0.73
   4   2 -13   -0.56    0.90
  -4   2  13    0.25    0.77
  -4   2  13    1.26    0.79
   4   2 -13   -0.08    0.63
  -3  -2  13    2.48    0.97
  -3  -2  13    1.76    0.76
   3  -2 -13    2.11    0.78
  -3  -2  13    1.44    0.98
  -3  -2  13    2.86    0.84
  -3  -2  13    1.54    0.80
  -3   2  13    1.89    0.78
  -3   2  13    0.79    0.63
  -3   2  13    1.05    0.74
  -3   2  13    1.90    0.75
   3   2 -13    1.31    0.70
  -3   2  13    2.87    0.89
   3   2 -13    1.33    0.66
  -3   2  13    1.87    0.79
  -3   2  13    1.47    0.77
  -3   2  13    2.64    1.02
  -2  -2  13    2.42    0.82
   2  -2 -13    0.45    0.69
  -2  -2  13    0.75    0.74
  -2  -2  13    2.00    0.77
  -2  -2  13    2.33    0.94
  -2  -2  13    1.87    0.93
  -2   2  13    1.11    0.75
  -2   2  13    1.06    0.66
  -2   2  13    0.72    0.68
   2   2 -13    1.14    0.60
  -2   2  13    1.53    0.76
  -2   2  13    0.60    0.78
   2   2 -13    1.04    0.84
  -2   2  13    0.87    0.67
  -2   2  13    0.45    0.72
  -2   2  13    0.29    0.65
  -2   2  13    1.32    0.94
   2   2 -13    0.51    0.70
  -2   2  13    0.87    0.76
  -1  -2  13    2.42    0.90
  -1  -2  13    0.88    0.70
  -1  -2  13    1.32    0.63
  -1  -2  13    3.02    1.01
  -1  -2  13    2.33    0.88
  -1  -2  13    3.46    1.00
   1  -2 -13    2.14    0.73
  -1  -2  13    1.69    0.68
  -1  -2  13    3.15    1.06
  -1   2  13    3.09    0.83
  -1   2  13    2.18    0.71
  -1   2  13    2.83    0.71
  -1   2  13    2.23    0.69
  -1   2  13    2.21    0.76
  -1   2  13    3.31    0.87
   1   2 -13    2.22    0.70
   1   2 -13    3.63    0.87
  -1   2  13    2.38    0.91
  -1   2  13    2.56    0.96
   1   2 -13    2.25    0.63
  -1   2  13    1.65    0.83
  -1   2  13    2.07    0.82
   1   2 -13    2.74    0.77
   0  -2  13    6.32    1.26
   0  -2 -13    4.92    0.97
   0  -2  13    6.33    1.18
   0  -2  13    4.79    1.00
   0  -2  13    6.27    1.07
   0  -2  13    5.32    0.97
   0  -2  13    5.68    1.13
   0  -2  13    5.49    0.99
   0  -2  13    4.73    0.92
   0   2  13    6.09    0.97
   0   2  13    6.43    1.09
   0   2 -13    6.31    0.91
   0   2  13    7.17    1.06
   0   2 -13    4.95    0.97
   0   2  13    6.16    1.01
   0   2 -13    7.74    0.95
   0   2  13    8.16    1.26
   0   2  13    8.16    1.23
   0   2  13    6.51    1.13
   0   2  13    6.49    0.97
   0   2  13    8.29    1.23
   0   2 -13    7.12    0.99
   0   2  13    6.86    0.94
  -1  -2 -13    3.60    1.10
   1  -2  13    3.60    0.99
   1  -2  13    2.66    0.82
   1  -2  13    3.61    0.93
   1  -2  13    3.89    1.02
   1  -2  13    3.79    0.96
   1  -2  13    3.05    0.93
   1  -2  13    3.02    0.89
   1   2  13    2.63    0.83
   1   2  13    4.73    0.92
  -1   2 -13    2.18    0.73
   1   2  13    5.50    0.98
   1   2  13    3.40    1.18
   1   2  13    4.43    0.88
  -1   2 -13    1.79    0.70
  -1   2 -13    4.13    0.73
   1   2  13    2.96    0.86
  -1   2 -13    3.07    1.06
   1   2  13    4.40    0.82
   1   2  13    3.66    0.88
   1   2  13    2.80    0.87
   1   2  13    4.68    1.10
   2  -2  13    8.38    1.18
  -2  -2 -13    8.85    1.59
   2  -2  13    8.46    1.24
   2  -2  13    7.65    1.35
   2  -2  13    8.04    1.49
   2  -2  13    8.16    1.34
   2  -2  13   10.29    1.47
   2  -2  13    8.52    1.28
   2   2  13    8.40    1.16
   2   2  13    9.68    1.39
   2   2  13    9.13    1.38
  -2   2 -13    6.89    1.09
   2   2  13    7.61    1.42
   2   2  13   10.15    1.34
   2   2  13    8.96    1.27
   2   2  13    9.43    1.47
   2   2  13    7.82    1.41
  -2   2 -13    9.63    1.27
   2   2  13    7.84    1.15
  -3  -2 -13    5.91    1.42
   3  -2  13    7.52    1.40
   3  -2  13    7.69    1.39
   3  -2  13    5.42    1.35
   3  -2  13    4.91    1.40
  -3   2 -13    5.15    1.16
   3   2  13    7.58    1.59
   3   2  13    4.89    1.00
   3   2  13    5.88    1.23
  -4  -2 -13   10.04    2.14
   4   2  13    9.85    1.38
   4   2  13    9.25    1.50
  -5  -2 -13   16.54    2.85
   5   2  13   17.09    1.99
  -6  -3  13    1.39    1.63
  -6  -3  13    3.66    1.25
  -5  -3  13    5.82    1.43
  -5  -3  13    4.41    1.18
  -5  -3  13    5.65    1.60
  -4  -3  13   10.76    1.59
  -4  -3  13    9.81    1.39
  -4  -3  13    9.73    1.64
  -4  -3  13    9.67    1.66
   4   3 -13   10.70    1.57
  -4   3  13   11.97    1.39
  -4   3  13   10.03    1.38
  -4   3  13   11.02    1.53
  -4   3  13   15.01    1.50
   4   3 -13   11.63    1.37
  -4   3  13   13.50    1.47
  -3  -3  13    7.92    1.37
  -3  -3  13   10.45    1.54
  -3  -3  13    9.17    1.56
  -3  -3  13    8.44    1.36
  -3   3  13   12.56    1.49
   3   3 -13    9.45    1.19
  -3   3  13   11.43    1.59
  -3   3  13    9.39    1.32
  -3   3  13    9.74    1.38
  -3   3  13   10.24    1.33
   3   3 -13   11.96    1.52
  -3   3  13   11.68    1.31
  -2  -3  13   11.26    1.56
  -2  -3  13   12.00    1.60
  -2  -3  13    9.01    1.61
  -2  -3  13   10.67    1.48
   2   3 -13   14.41    1.39
  -2   3  13   13.51    1.51
  -2   3  13   13.54    1.51
   2   3 -13   12.25    1.42
  -2   3  13   10.65    1.48
  -2   3  13   13.90    1.70
  -2   3  13   13.82    1.46
   2   3 -13   14.73    1.26
  -2   3  13   11.02    1.45
  -2   3  13   14.63    1.46
  -2   3  13   11.90    1.41
  -1  -3  13   12.65    1.72
  -1  -3  13   15.95    1.55
  -1  -3  13   15.26    1.97
  -1  -3  13   18.55    1.74
  -1  -3  13   15.11    1.79
  -1   3  13   18.63    1.85
   1   3 -13   18.63    1.63
  -1   3  13   16.83    1.56
  -1   3  13   16.56    1.81
  -1   3  13   15.04    1.71
   1   3 -13   16.04    1.64
   1   3 -13   17.92    1.82
  -1   3  13   18.10    1.92
  -1   3  13   18.63    1.71
   1   3 -13   18.24    1.48
  -1   3  13   18.55    1.63
  -1   3  13   18.72    1.85
   0  -3  13   13.07    1.27
   0  -3  13   14.98    1.42
   0  -3  13   14.90    1.40
   0  -3  13   13.36    1.44
   0  -3  13   14.59    1.74
   0  -3 -13   12.87    1.78
   0  -3  13   14.87    1.52
   0  -3  13   14.93    1.67
   0  -3  13   16.10    1.90
   0   3  13   14.22    1.53
   0   3 -13   13.75    1.52
   0   3  13   13.47    1.62
   0   3  13   13.49    1.51
   0   3 -13   13.23    1.37
   0   3  13   10.71    1.50
   0   3 -13   13.29    1.32
   0   3  13   13.40    1.59
   0   3 -13   14.99    1.44
   0   3  13   14.09    1.47
   0   3  13   12.62    1.58
   0   3  13   12.71    1.64
   0   3  13   16.86    1.71
   1  -3  13   11.78    1.41
   1  -3  13   12.87    1.42
  -1  -3 -13   14.08    2.16
   1  -3  13   14.54    1.70
   1  -3  13   13.84    1.44
   1  -3  13   11.91    1.43
   1  -3  13   13.55    1.45
   1   3  13   11.23    1.39
   1   3  13   11.98    1.46
  -1   3 -13   11.56    1.34
   1   3  13   12.75    1.61
   1   3  13   13.60    1.58
  -1   3 -13   12.69    1.63
   1   3  13   11.40    1.68
   1   3  13   12.75    1.62
  -1   3 -13   12.75    1.38
   1   3  13   11.91    1.32
   1   3  13   13.75    1.65
  -1   3 -13   14.04    1.38
   1   3  13   10.86    1.44
   1   3  13   12.15    1.67
   2  -3  13    9.26    1.43
  -2  -3 -13    8.92    1.65
   2  -3  13    9.34    1.26
   2  -3  13    8.15    1.49
   2  -3  13    9.48    1.28
   2  -3  13    9.41    1.23
   2  -3  13   11.41    1.42
   2  -3  13    7.95    1.34
  -2   3 -13    8.27    1.22
   2   3  13    8.44    1.12
   2   3  13    6.16    1.40
   2   3  13    9.44    1.33
   2   3  13    7.84    1.45
   2   3  13    8.57    1.33
  -2   3 -13    8.36    1.29
   2   3  13    6.22    1.21
   2   3  13    9.40    1.32
   2   3  13    6.28    1.26
   2   3  13    7.98    1.09
  -3  -3 -13   18.66    2.82
   3   3  13   19.03    1.94
  -3   3 -13   24.69    2.00
   3   3  13   20.92    1.93
  -4  -3 -13    0.90    1.61
   4   3  13    1.61    1.00
   4   3  13    3.22    1.24
  -6  -4  13    0.19    1.47
  -6  -4  13    2.60    1.73
  -5  -4  13    1.29    1.34
  -5  -4  13   -0.37    1.20
  -5  -4  13    0.37    1.05
  -4  -4  13   -0.55    1.11
  -4  -4  13   -0.05    0.81
  -4  -4  13    0.00    0.94
  -4   4  13    1.03    0.89
  -4   4  13    1.28    0.94
  -4   4  13    0.25    0.65
  -3  -4  13    1.00    1.18
  -3  -4  13    1.09    1.17
  -3  -4  13    2.61    1.15
   3   4 -13    0.56    0.95
  -3   4  13    0.93    0.79
   3   4 -13    1.22    1.02
   3   4 -13    1.21    0.88
  -3   4  13    0.94    0.93
  -3   4  13    1.64    0.73
  -3   4  13    1.69    0.93
  -3   4  13    1.23    0.86
  -3   4  13    1.34    0.74
  -2  -4  13    0.59    1.03
  -2  -4  13    3.59    1.23
  -2  -4  13    1.47    0.89
  -2   4  13    3.10    0.99
  -2   4  13    1.95    0.82
  -2   4  13    2.54    0.97
  -2   4  13    1.94    0.77
  -2   4  13    2.16    1.05
   2   4 -13    1.15    0.64
  -2   4  13    3.20    0.96
   2   4 -13    2.67    0.72
  -2   4  13    2.02    0.99
   2   4 -13    3.53    0.82
   2   4 -13    2.09    0.81
  -2   4  13    0.82    0.93
  -1  -4  13    1.61    0.82
  -1  -4  13    1.67    1.09
  -1  -4  13    1.13    1.11
   1  -4 -13    0.64    1.08
  -1   4  13    1.98    0.99
  -1   4  13    0.93    0.69
   1   4 -13   -0.10    0.62
  -1   4  13    0.93    0.65
   1   4 -13    2.96    0.88
  -1   4  13    2.01    0.81
  -1   4  13    0.46    0.89
  -1   4  13    0.12    0.65
   1   4 -13    0.23    0.79
  -1   4  13    0.74    0.89
  -1   4  13    0.15    0.90
   1   4 -13    1.11    0.72
   0  -4  13    1.04    0.80
   0  -4  13    0.70    0.83
   0  -4  13   -0.83    0.71
   0  -4 -13    1.36    0.98
   0  -4  13    0.29    1.10
   0   4 -13    0.98    1.00
   0   4  13    0.79    0.82
   0   4 -13    0.08    0.60
   0   4  13    1.49    0.76
   0   4  13    0.96    0.73
   0   4  13    0.50    0.67
   0   4  13    1.50    1.01
   0   4  13    1.14    0.73
   0   4  13    0.26    0.69
   0   4  13    0.87    0.64
   0   4 -13   -0.39    0.86
   0   4 -13   -0.18    0.77
   0   4  13    0.74    0.98
   1  -4  13    7.54    1.19
   1  -4  13    8.07    1.23
   1  -4  13    7.55    1.16
   1  -4  13    8.02    1.19
   1  -4  13   11.26    1.33
   1  -4  13   11.33    1.72
   1  -4  13    8.85    1.32
  -1   4 -13    8.12    1.20
   1   4  13    7.44    1.25
   1   4  13    7.65    1.25
   1   4  13    7.98    1.22
   1   4  13    5.42    1.17
  -1   4 -13    8.25    1.27
   1   4  13    7.95    1.41
   1   4  13    8.99    1.49
  -1   4 -13    8.27    1.10
   1   4  13    6.53    1.36
   1   4  13    7.85    1.40
   1   4  13    7.80    1.41
  -1   4 -13    7.47    1.14
   1   4  13   10.59    1.18
  -2  -4 -13   14.60    2.49
   2  -4  13   17.27    1.65
   2  -4  13   15.71    1.70
   2  -4  13   18.21    1.79
   2  -4  13   15.21    1.77
   2  -4  13   16.50    1.78
   2  -4  13   15.51    1.63
  -2   4 -13   15.11    1.87
  -2   4 -13   14.20    1.62
   2   4  13   13.64    1.65
  -2   4 -13   17.41    1.65
   2   4  13   11.78    1.58
   2   4  13   16.20    1.84
  -3  -4 -13    6.66    1.97
   3   4  13    3.62    1.05
   3   4  13    6.45    1.23
   3   4  13    4.77    1.00
  -4  -4 -13    5.36    2.11
   4   4  13    5.81    1.27
   4   4  13    7.79    1.57
  -6  -5  13    1.29    1.18
  -5  -5  13    3.14    1.63
  -5  -5  13    3.72    1.55
  -5  -5  13    2.70    1.57
  -4  -5  13    1.37    1.36
  -4  -5  13    1.63    1.13
  -4  -5  13    1.60    1.00
  -3  -5  13   16.19    1.88
  -3  -5  13   12.20    1.72
  -3  -5  13   14.33    2.07
  -3   5  13   13.79    1.53
  -3   5  13   13.40    1.64
  -3   5  13   15.98    1.74
  -3   5  13   13.55    1.60
  -3   5  13   13.18    1.55
   2  -5 -13    5.97    1.72
  -2  -5  13    9.72    1.58
  -2  -5  13    7.70    1.43
  -2  -5  13    9.92    1.66
   2   5 -13   11.20    1.43
  -2   5  13   11.45    1.61
  -2   5  13    9.00    1.43
  -2   5  13    7.79    1.20
  -2   5  13    9.95    1.33
   2   5 -13    8.92    1.28
  -2   5  13    6.75    1.37
  -2   5  13    7.85    1.22
  -2   5  13    8.22    1.40
   2   5 -13    9.94    1.19
  -2   5  13    8.34    1.44
   2   5 -13   10.76    1.31
   1  -5 -13   21.78    2.73
  -1  -5  13   24.52    2.35
  -1  -5  13   23.95    2.42
  -1   5  13   22.03    2.29
  -1   5  13   21.32    2.14
  -1   5  13   23.11    2.24
  -1   5  13   26.12    2.27
  -1   5  13   24.01    2.15
   1   5 -13   22.95    1.92
  -1   5  13   23.22    2.11
   1   5 -13   19.29    1.90
   1   5 -13   22.46    2.28
   1   5 -13   25.80    2.07
  -1   5  13   22.61    2.27
  -1   5  13   24.38    2.26
   0  -5 -13    4.30    1.38
   0  -5  13    4.98    1.41
   0  -5  13    5.13    1.52
   0   5 -13    8.77    1.22
   0   5  13    7.21    1.24
   0   5  13    8.94    1.32
   0   5 -13    7.93    1.28
   0   5  13    6.24    1.16
   0   5  13    5.08    1.09
   0   5  13    6.39    1.18
   0   5 -13    8.06    1.20
   0   5  13    6.84    1.31
   0   5 -13    6.99    1.23
   0   5  13    6.45    1.12
   0   5  13    5.78    1.36
   0   5  13    7.04    1.17
   1  -5  13   10.64    1.48
   1  -5  13   10.09    1.37
   1  -5  13    9.30    1.30
   1  -5  13   10.64    1.84
   1   5  13    8.29    1.37
   1   5  13    8.79    1.37
   1   5  13    9.49    1.36
  -1   5 -13    8.70    1.19
  -1   5 -13    8.99    1.34
  -2  -5 -13    6.36    1.96
   2  -5  13    5.14    1.29
   2  -5  13    6.28    1.04
   2  -5  13    4.96    1.22
   2  -5  13    5.73    1.65
   2   5  13    4.52    1.01
  -2   5 -13    4.67    1.15
   2   5  13    3.17    1.14
  -3  -5 -13    2.81    1.51
   3   5  13    2.91    1.13
   3   5  13    2.16    0.91
   3   5  13    2.75    1.01
  -4  -5 -13    9.68    2.07
   4   5  13    5.63    1.15
   4   5  13    5.04    1.49
  -5  -6  13    0.25    1.15
  -5  -6  13    1.17    1.53
  -5  -6  13   -2.08    1.43
  -4  -6  13    0.50    1.48
  -4  -6  13   -0.24    1.40
   4  -6 -13    2.24    1.78
  -4  -6  13    0.52    1.36
  -3  -6  13    3.64    1.58
  -3  -6  13    4.25    1.52
   3  -6 -13    4.81    1.83
  -3  -6  13    2.36    1.36
  -2  -6  13    0.81    1.35
  -2  -6  13    0.09    0.88
  -2  -6  13    2.30    1.36
   2  -6 -13    1.01    1.44
  -1  -6  13    5.58    1.20
  -1  -6  13    5.63    1.37
   1  -6 -13    6.08    1.68
  -1  -6  13    3.74    1.43
  -1   6  13    7.32    1.31
   0  -6  13    1.19    1.05
   0  -6  13    3.04    1.36
   0  -6 -13    2.37    1.32
   0  -6  13    0.57    0.92
   0   6  13    1.48    0.95
   0   6  13    0.59    0.75
   1  -6  13    5.74    1.25
   1  -6  13    5.37    1.41
   1   6  13    3.68    0.98
   1   6  13    6.36    1.29
  -2  -6 -13   10.68    2.17
   2  -6  13    8.27    1.67
   2   6  13    8.82    1.49
   2   6  13    9.46    1.53
  -3  -6 -13    6.99    2.29
   3  -6  13    4.70    1.44
   3   6  13    2.86    1.25
   3   6  13    1.89    1.31
   3   6  13    1.98    0.93
  -4  -7  13    5.54    1.85
  -4  -7  13    5.73    2.00
   4  -7 -13    5.63    1.82
  -4  -7  13    4.97    1.41
  -3  -7  13    0.25    1.15
   3  -7 -13   -0.63    1.63
  -3  -7  13   -1.35    1.36
  -3  -7  13    0.50    1.02
  -2  -7  13    8.05    1.96
  -2  -7  13   10.78    1.60
  -2  -7  13    8.53    1.55
   2  -7 -13    9.30    2.17
  -1  -7  13    8.30    1.65
   1  -7 -13    7.10    1.94
  -1  -7  13    8.15    1.45
  -1  -7  13    9.44    1.55
   0  -7 -13   21.35    2.72
   0  -7  13   18.10    2.37
   0  -7  13   21.46    2.43
   0   7  13   15.14    1.95
   1  -7  13    3.55    1.56
   1  -7  13    5.86    1.83
   1   7  13    6.33    1.39
   2  -7  13    7.31    1.92
   2   7  13    4.32    1.35
   2   7  13    3.33    1.30
  -3  -8  13    0.97    1.17
  -3  -8  13    2.17    1.54
   3  -8 -13   -0.56    1.37
  -2  -8  13    0.18    1.22
   2  -8 -13    1.12    1.36
  -2  -8  13    0.72    1.48
  -2  -8  13    0.69    1.08
  -1  -8  13    2.22    1.53
   1  -8 -13    4.78    1.85
  -1  -8  13    0.75    1.21
  -1  -8  13    3.30    1.54
   0  -8  13    4.46    1.66
   0  -8  13    6.27    1.90
   0  -8  13    5.19    1.60
   0  -8 -13    5.45    1.83
   0   8  13    4.24    1.34
   1  -8  13    1.97    1.56
   1  -8  13    0.08    1.18
   1  -8  13   -0.22    1.49
   1   8  13    0.23    1.22
  -6   0  14   -0.39    1.21
  -6   0  14    0.85    1.36
  -5   0  14    1.04    1.18
  -5   0  14    2.31    1.16
  -4   0  14    2.43    0.86
   4   0 -14    2.05    0.77
  -4   0  14    2.09    0.98
  -4   0  14    1.55    1.00
  -4   0  14    0.92    1.12
   4   0 -14    1.15    0.68
  -3   0  14    2.54    1.07
   3   0 -14    3.40    0.88
   3   0 -14    2.66    0.98
  -3   0  14    5.22    1.22
  -3   0  14    1.62    0.93
  -3   0  14    3.83    1.09
  -2   0  14    1.41    0.83
  -2   0  14    1.15    0.99
  -2   0  14    1.25    0.72
   2   0 -14   -0.42    0.79
  -2   0  14    0.17    0.64
  -2   0  14    1.18    0.91
  -2   0  14    0.24    0.77
  -2   0  14    0.15    0.68
  -2   0  14   -0.49    0.66
   2   0 -14   -0.15    0.64
  -1   0  14   -0.45    0.63
   1   0 -14    0.55    0.62
  -1   0  14    1.03    0.81
  -1   0  14    0.11    0.51
  -1   0  14    0.20    0.54
   1   0 -14    0.67    0.64
  -1   0  14    0.38    0.76
  -1   0  14    0.46    0.57
  -1   0  14    0.68    0.85
  -1   0  14    0.36    0.92
  -1   0  14   -0.25    0.65
  -1   0  14    0.35    0.74
   1   0 -14   -0.25    0.58
  -1   0  14    0.96    0.62
   0   0  14   -0.69    0.94
   0   0  14    3.17    0.77
   0   0 -14    1.90    0.73
   0   0  14    1.44    0.64
   0   0  14    1.22    1.03
   0   0 -14    1.48    0.72
   0   0  14    2.12    0.89
   0   0  14    1.24    0.82
   0   0  14    2.37    0.94
   0   0  14    1.01    0.80
   0   0  14    1.38    0.91
   1   0  14    0.37    0.92
   1   0  14    1.19    1.11
   1   0  14    0.91    0.75
   1   0  14    0.39    0.87
  -1   0 -14    0.13    0.91
   1   0  14    0.76    0.92
   1   0  14    2.01    0.77
  -1   0 -14    1.67    0.76
   1   0  14    1.25    0.93
   2   0  14    0.26    0.77
   2   0  14    0.22    1.06
   2   0  14    1.07    0.79
   2   0  14    1.63    0.84
   2   0  14    0.66    0.77
   2   0  14    0.16    0.96
   2   0  14    0.80    0.91
  -6  -1  14    5.21    1.59
  -6  -1  14    4.26    1.69
  -6   1  14    4.23    1.48
  -6   1  14    5.00    1.46
   5  -1 -14    1.58    0.95
  -5  -1  14    1.39    0.99
  -5  -1  14    0.77    1.16
  -5   1  14    2.37    1.13
  -5   1  14    1.88    1.18
  -4  -1  14   10.91    1.60
  -4  -1  14   11.67    1.54
   4  -1 -14    9.93    1.21
  -4  -1  14    6.80    1.19
   4  -1 -14   10.71    1.32
  -4   1  14    6.88    1.41
  -4   1  14    6.28    1.28
   4   1 -14    6.30    1.11
   4   1 -14    4.35    1.14
  -4   1  14    4.24    1.17
   3  -1 -14   10.02    1.31
  -3  -1  14    9.81    1.38
   3  -1 -14    9.35    1.15
  -3  -1  14    9.68    1.55
  -3  -1  14    6.41    1.35
  -3  -1  14    8.73    1.33
  -3  -1  14    9.64    1.41
  -3   1  14    9.70    1.47
  -3   1  14   10.98    1.29
   3   1 -14   11.47    1.46
  -3   1  14   10.32    1.41
   3   1 -14   11.82    1.21
  -3   1  14    8.63    1.30
  -3   1  14   10.33    1.41
  -3   1  14    9.92    1.31
  -2  -1  14   15.42    1.76
  -2  -1  14   17.78    1.65
   2  -1 -14   15.08    1.45
  -2  -1  14   14.26    1.73
   2  -1 -14   16.42    1.64
  -2  -1  14   14.74    1.80
  -2  -1  14   17.40    1.86
  -2  -1  14   17.01    1.59
  -2   1  14   16.03    1.64
  -2   1  14   18.66    1.77
   2   1 -14   15.00    1.46
  -2   1  14   15.97    1.56
   2   1 -14   15.34    1.73
  -2   1  14   16.89    1.59
   2   1 -14   14.91    1.53
  -2   1  14   15.32    1.71
  -2   1  14   15.19    1.76
  -2   1  14   14.54    1.51
  -2   1  14   16.17    1.45
  -2   1  14   14.19    1.70
  -2   1  14   21.25    1.76
   1  -1 -14   19.28    1.72
  -1  -1  14   20.95    1.75
  -1  -1  14   17.82    1.75
  -1  -1  14   19.98    2.13
  -1  -1  14   21.20    1.86
  -1  -1  14   16.63    1.97
  -1  -1  14   22.18    1.74
  -1  -1  14   20.68    2.11
  -1  -1  14   25.39    2.12
  -1  -1  14   19.71    1.83
  -1  -1  14   21.37    1.74
   1  -1 -14   20.59    1.71
  -1   1  14   19.13    1.84
  -1   1  14   21.58    1.81
  -1   1  14   19.73    1.93
   1   1 -14   17.36    1.58
  -1   1  14   18.09    1.74
   1   1 -14   21.14    1.67
  -1   1  14   18.05    1.79
  -1   1  14   16.93    1.65
  -1   1  14   18.04    1.87
   1   1 -14   22.94    1.66
  -1   1  14   19.16    1.94
   1   1 -14   15.15    1.83
  -1   1  14   20.98    1.98
  -1   1  14   21.20    2.12
  -1   1  14   17.80    1.78
   0  -1  14   15.67    1.61
   0  -1 -14   14.27    1.52
   0  -1  14   14.00    1.61
   0  -1  14   14.96    1.52
   0  -1  14   15.13    1.83
   0  -1  14   10.67    1.56
   0  -1  14   14.71    1.69
   0  -1  14   14.85    1.56
   0   1  14   15.28    1.60
   0   1 -14   14.86    1.49
   0   1 -14   15.40    1.71
   0   1  14   16.24    1.44
   0   1 -14   18.09    1.48
   0   1  14   15.70    1.68
   0   1  14   16.54    1.69
   0   1  14   16.16    1.67
   0   1  14   16.76    1.74
   0   1  14   14.90    1.70
   0   1  14   17.07    1.89
   0   1  14   16.53    1.53
   0   1  14   17.88    1.73
   1  -1  14   11.71    1.36
   1  -1  14   12.19    1.64
   1  -1  14   13.60    1.60
   1  -1  14   11.02    1.44
   1  -1  14   13.16    1.38
   1  -1  14   13.79    1.50
   1  -1  14   12.26    1.40
  -1   1 -14    9.87    1.26
   1   1  14    9.84    1.44
   1   1  14    8.76    1.15
   1   1  14    8.46    1.36
   1   1  14    8.90    1.48
  -1   1 -14    9.29    1.29
   1   1  14   11.36    1.65
   1   1  14    6.83    1.36
  -1   1 -14    8.45    1.10
   1   1  14    8.39    1.37
   1   1  14    8.93    1.34
   1   1  14    9.97    1.51
   1   1  14    8.10    1.22
   2  -1  14   10.43    1.54
   2  -1  14   10.42    1.51
  -2  -1 -14    8.38    1.74
   2  -1  14   10.27    1.39
   2  -1  14   10.42    1.57
   2  -1  14    9.19    1.56
   2  -1  14   11.39    1.66
   2  -1  14    8.66    1.47
   2   1  14   11.28    1.48
   2   1  14   13.37    1.74
   2   1  14   12.17    1.65
   2   1  14   13.29    1.70
   2   1  14   12.01    1.47
   2   1  14   11.85    1.70
  -3  -1 -14   15.80    2.44
  -3   1 -14   17.55    1.81
  -4  -1 -14    8.73    2.01
  -6  -2  14    2.56    1.60
  -6  -2  14   -0.25    1.34
  -6   2  14    0.57    1.16
  -5  -2  14    8.59    1.75
  -5  -2  14    4.77    1.44
  -5   2  14    5.89    1.27
  -4  -2  14    1.18    0.84
  -4  -2  14    1.37    1.04
  -4  -2  14    1.09    1.04
   4  -2 -14    2.54    0.91
  -4  -2  14    2.40    1.00
  -4   2  14   -0.47    0.82
   4   2 -14   -0.58    0.92
  -3  -2  14    0.73    0.97
  -3  -2  14    0.17    0.98
  -3  -2  14    0.06    0.80
  -3  -2  14    0.30    0.74
   3  -2 -14    0.62    0.78
  -3   2  14    0.19    0.72
  -3   2  14    0.36    0.74
  -3   2  14    0.39    0.98
  -3   2  14   -0.01    0.73
   3   2 -14    0.31    0.85
  -3   2  14    0.19    0.78
  -3   2  14   -0.88    0.73
  -3   2  14    0.31    0.78
   3   2 -14   -0.69    0.94
  -3   2  14    0.38    0.79
  -2  -2  14    1.32    0.78
  -2  -2  14    1.92    1.15
  -2  -2  14    1.65    0.88
  -2  -2  14    1.35    0.84
   2  -2 -14    2.89    0.83
  -2  -2  14    2.18    0.82
   2   2 -14    1.60    0.88
  -2   2  14    1.04    0.73
  -2   2  14    1.94    0.81
  -2   2  14    1.76    0.78
  -2   2  14    0.54    0.82
  -2   2  14    1.36    1.03
  -2   2  14    1.59    0.69
   2   2 -14    1.57    0.63
  -2   2  14    1.59    0.72
  -2   2  14    1.51    0.81
  -2   2  14    1.43    0.83
   2   2 -14    1.49    0.96
  -2   2  14    0.54    0.74
  -1  -2  14    1.63    0.82
  -1  -2  14    1.15    0.78
   1  -2 -14    0.52    0.74
  -1  -2  14    1.21    0.81
  -1  -2  14    1.50    0.91
  -1  -2  14    0.83    0.92
  -1  -2  14    0.36    0.70
   1   2 -14    0.84    0.62
  -1   2  14   -0.23    0.81
  -1   2  14    1.43    0.99
  -1   2  14    0.90    0.82
  -1   2  14   -0.04    0.71
  -1   2  14    0.78    0.89
   1   2 -14    0.41    0.67
  -1   2  14    0.24    0.75
   1   2 -14    2.17    0.81
  -1   2  14    0.92    0.66
   1   2 -14    1.13    0.93
  -1   2  14    0.01    0.86
  -1   2  14    0.28    0.66
  -1   2  14    0.69    1.01
   0  -2  14    2.78    0.87
   0  -2  14    2.99    0.94
   0  -2 -14    2.58    0.89
   0  -2  14    3.31    0.86
   0  -2  14    3.74    0.84
   0  -2  14    2.57    0.87
   0  -2  14    4.29    1.01
   0  -2  14    3.83    1.08
   0  -2  14    2.10    0.80
   0   2  14    1.76    1.04
   0   2  14    4.18    0.94
   0   2  14    3.09    0.98
   0   2  14    2.82    0.82
   0   2 -14    2.97    0.87
   0   2  14    2.58    0.85
   0   2  14    2.70    1.04
   0   2 -14    3.93    0.79
   0   2  14    3.86    1.07
   0   2 -14    3.60    0.91
   0   2  14    2.53    0.99
   0   2  14    3.85    0.89
   0   2 -14    3.44    0.79
   0   2  14    5.37    1.10
   1  -2  14    0.48    0.87
   1  -2  14    0.23    0.85
   1  -2  14    0.28    0.92
   1  -2  14   -0.65    1.01
   1  -2  14    0.63    0.85
   1  -2  14    0.32    0.70
   1   2  14    1.29    0.73
   1   2  14    0.14    0.71
   1   2  14   -1.10    0.87
  -1   2 -14    0.52    1.07
   1   2  14    0.38    0.75
   1   2  14    0.26    0.71
   1   2  14    0.93    0.70
   1   2  14   -0.12    0.70
  -1   2 -14   -0.15    0.61
   1   2  14    1.17    1.12
   1   2  14    1.16    0.99
   1   2  14   -0.13    0.94
  -1   2 -14   -0.31    0.76
   2  -2  14    4.00    1.09
   2  -2  14    3.62    1.19
   2  -2  14    3.71    0.96
   2  -2  14    4.83    1.24
  -2  -2 -14    4.07    1.52
   2  -2  14    3.92    1.04
   2  -2  14    3.97    1.11
   2  -2  14    4.25    1.25
   2   2  14    5.43    1.01
   2   2  14    5.38    1.05
   2   2  14    5.56    1.32
  -2   2 -14    4.58    0.99
  -2   2 -14    4.82    1.11
  -3  -2 -14    4.18    1.61
   3   2  14    1.28    0.93
   3   2  14    2.06    0.93
  -4  -2 -14    0.96    1.64
   4   2  14    2.28    1.15
  -6  -3  14    1.14    1.27
  -6  -3  14    0.45    1.43
  -5  -3  14    3.05    1.40
  -5  -3  14    4.52    1.54
  -5  -3  14    1.46    1.16
  -4  -3  14    2.86    1.48
  -4  -3  14    6.06    1.47
  -4  -3  14    3.12    1.31
  -4  -3  14    4.06    1.29
  -4   3  14    6.25    1.20
  -4   3  14    6.70    1.16
  -3  -3  14   11.34    1.52
  -3  -3  14   11.72    1.52
  -3  -3  14    9.89    1.54
  -3  -3  14   10.54    1.67
  -3   3  14   13.29    1.51
  -3   3  14   10.84    1.52
   3   3 -14   11.35    1.44
   3   3 -14   11.29    1.25
  -3   3  14   12.07    1.72
   3   3 -14    8.91    1.39
  -3   3  14   12.28    1.48
  -3   3  14   11.77    1.49
  -3   3  14   10.92    1.33
  -2  -3  14    8.63    1.54
  -2  -3  14    6.88    1.36
  -2  -3  14    9.56    1.53
  -2   3  14    6.93    1.16
   2   3 -14    6.63    1.11
   2   3 -14    6.84    1.31
  -2   3  14    6.53    1.37
  -2   3  14    5.20    1.18
  -2   3  14    8.40    1.36
  -2   3  14    7.51    1.24
  -2   3  14    7.01    1.21
   2   3 -14    8.05    1.13
  -2   3  14    7.96    1.13
   2   3 -14    7.93    1.25
  -2   3  14    6.83    1.18
  -1  -3  14   11.73    1.59
  -1  -3  14    8.50    1.48
  -1  -3  14   10.62    1.66
  -1  -3  14   14.18    1.55
   1   3 -14   11.25    1.31
   1   3 -14   12.60    1.39
  -1   3  14   10.15    1.35
  -1   3  14   10.04    1.51
  -1   3  14   12.17    1.53
   1   3 -14   11.93    1.56
  -1   3  14   13.24    1.53
  -1   3  14   11.78    1.51
  -1   3  14   10.30    1.55
   1   3 -14   11.18    1.40
  -1   3  14   10.90    1.63
  -1   3  14   10.51    1.44
   0  -3  14   19.05    2.08
   0  -3  14   20.96    1.77
   0  -3  14   20.35    2.04
   0  -3  14   23.12    2.13
   0  -3  14   22.29    1.92
   0   3  14   19.73    2.05
   0   3  14   18.24    1.98
   0   3  14   16.26    1.90
   0   3 -14   19.28    1.69
   0   3 -14   18.51    1.73
   0   3  14   17.39    1.60
   0   3 -14   17.09    1.63
   0   3 -14   16.71    1.85
   0   3  14   15.74    1.81
   0   3  14   19.31    1.94
   0   3  14   18.28    1.94
   0   3  14   17.24    1.81
   0   3  14   18.88    1.81
   1  -3  14    9.51    1.28
   1  -3  14    7.21    1.38
   1  -3  14    9.54    1.60
   1  -3  14   10.74    1.53
   1  -3  14    9.72    1.35
   1  -3  14   12.70    1.49
   1  -3  14    8.74    1.41
   1   3  14   12.15    1.67
   1   3  14   14.03    1.66
  -1   3 -14   11.67    1.66
   1   3  14   12.46    1.68
   1   3  14   11.78    1.64
   1   3  14   13.49    1.78
   1   3  14   12.12    1.47
   1   3  14   11.36    1.45
  -1   3 -14   12.74    1.28
  -1   3 -14   13.12    1.49
   1   3  14   11.83    1.73
   1   3  14   11.54    1.29
   2  -3  14   15.83    1.85
   2  -3  14   19.92    1.88
  -2  -3 -14   14.66    2.54
   2  -3  14   17.41    1.99
   2  -3  14   15.19    1.74
  -2   3 -14   18.69    1.61
   2   3  14   16.34    1.75
   2   3  14   20.75    1.81
  -3  -3 -14    4.97    1.83
   3   3  14    6.76    1.25
   3   3  14    6.73    1.20
  -4  -3 -14    4.70    1.96
   4   3  14    5.24    1.20
   4   3  14    4.06    1.31
  -5  -4  14    0.89    1.15
  -5  -4  14    1.46    1.43
  -5  -4  14    0.93    1.35
  -4  -4  14    1.10    1.01
  -4  -4  14    0.35    1.22
  -4  -4  14    0.78    1.40
  -4   4  14    1.60    0.96
  -3  -4  14   -0.41    1.25
  -3  -4  14    0.86    0.92
  -3  -4  14    0.40    0.85
  -3   4  14   -0.74    0.81
  -3   4  14    1.73    0.99
  -3   4  14   -0.10    0.90
  -3   4  14   -0.48    0.89
  -3   4  14   -1.66    0.83
  -3   4  14    0.01    0.99
  -2  -4  14    8.12    1.38
  -2  -4  14    7.99    1.49
  -2  -4  14    7.01    1.56
  -2   4  14    8.40    1.40
  -2   4  14    8.23    1.47
   2   4 -14    8.80    1.32
  -2   4  14    8.46    1.32
   2   4 -14    7.96    1.08
  -2   4  14    6.93    1.25
  -2   4  14    7.54    1.32
  -2   4  14    7.27    1.31
   2   4 -14    8.38    1.25
  -2   4  14    6.27    1.17
  -2   4  14    7.91    1.37
  -1  -4  14    5.76    1.24
  -1  -4  14    3.56    1.26
  -1  -4  14    6.58    1.49
   1  -4 -14    6.81    1.54
  -1   4  14    5.93    1.10
  -1   4  14    6.22    1.28
  -1   4  14    5.98    1.29
   1   4 -14    6.39    1.13
  -1   4  14    6.13    1.37
  -1   4  14    6.87    1.36
   1   4 -14    8.53    1.19
  -1   4  14    6.64    1.34
  -1   4  14    8.47    1.21
   1   4 -14    5.94    1.03
  -1   4  14    7.33    1.11
   1   4 -14    5.17    1.08
   0  -4  14    0.48    1.17
   0  -4  14    0.69    0.90
   0  -4  14   -0.73    0.79
   0   4  14    0.51    0.99
   0   4 -14    0.96    1.01
   0   4  14    0.93    1.04
   0   4  14    1.27    1.10
   0   4  14   -1.49    0.90
   0   4  14    0.87    1.04
   0   4  14    0.15    0.93
   0   4  14    1.65    1.15
   0   4  14    1.04    1.04
   0   4  14    1.24    0.72
   0   4 -14    0.42    0.67
   0   4 -14    0.55    0.83
   1  -4  14    2.94    1.24
   1  -4  14    4.67    1.25
   1  -4  14    2.96    1.08
   1  -4  14    1.51    0.94
   1  -4  14    4.43    1.00
   1   4  14    2.30    1.00
  -1   4 -14    2.72    1.05
  -1   4 -14    1.83    0.92
   2  -4  14   -0.10    1.04
   2  -4  14   -0.64    0.98
   2  -4  14   -0.02    0.74
  -2  -4 -14   -0.46    1.54
   2   4  14    0.69    0.93
   2   4  14    0.11    0.97
  -3  -4 -14    8.35    1.90
   3   4  14    8.18    1.41
   3   4  14    8.28    1.35
  -4  -4 -14    6.75    1.86
   4   4  14    6.83    1.39
  -5  -5  14    2.10    1.27
  -5  -5  14    0.75    1.17
  -5  -5  14    4.12    1.36
  -4  -5  14    4.96    1.66
  -4  -5  14    3.83    1.21
  -4  -5  14    4.39    1.37
  -3  -5  14   10.57    1.69
  -3  -5  14   11.18    1.98
  -3  -5  14   12.31    1.68
  -2  -5  14    3.78    1.24
  -2  -5  14    5.11    1.18
  -2  -5  14    3.80    1.18
   2  -5 -14    6.15    1.47
  -2   5  14    4.84    1.05
  -1  -5  14    4.01    1.19
  -1  -5  14    3.64    1.50
   1  -5 -14    5.09    1.56
  -1  -5  14    4.83    1.15
  -1   5  14    7.33    1.19
   1   5 -14   10.24    1.35
   0  -5  14   11.82    1.84
   0  -5  14    6.28    1.59
   0  -5  14   10.78    1.70
   0   5  14   11.77    1.52
   0   5  14    9.66    1.50
   0   5 -14    8.90    1.23
   1  -5  14   15.65    2.22
   1  -5  14   12.71    1.64
   1  -5  14   14.29    1.82
   1   5  14   12.93    1.51
  -2  -5 -14    7.55    2.18
   2  -5  14    7.78    1.64
   2   5  14   10.46    1.36
   2   5  14    8.57    1.48
   3  -5  14   11.15    2.15
  -3  -5 -14    8.24    2.38
   3   5  14    8.08    1.48
   3   5  14    7.85    1.51
   4  -6 -14    1.98    1.86
  -4  -6  14    2.26    1.54
  -4  -6  14    2.19    1.72
  -4  -6  14    4.85    1.80
  -3  -6  14    4.19    1.70
   3  -6 -14    1.52    1.34
  -3  -6  14    1.20    1.39
  -3  -6  14    1.66    1.47
   2  -6 -14    1.14    1.52
  -2  -6  14    0.87    1.49
  -2  -6  14    0.47    1.30
  -2  -6  14    2.57    1.12
  -1  -6  14    0.65    1.25
  -1  -6  14    0.03    0.96
   1  -6 -14    0.30    1.40
  -1  -6  14    1.51    1.14
   0  -6  14    2.83    1.24
   0  -6  14    3.00    1.16
   0  -6  14    3.54    1.48
   0   6  14    4.53    1.26
   1  -6  14    2.70    1.59
   1  -6  14    3.28    1.19
   1   6  14    1.54    1.16
   2  -6  14    2.86    1.68
   2   6  14    2.80    0.99
   2   6  14    2.20    1.22
  -3  -7  14    2.33    1.79
  -3  -7  14    4.56    1.31
  -3  -7  14    3.88    1.70
   3  -7 -14    1.45    1.80
   2  -7 -14    2.81    1.80
  -2  -7  14    2.67    1.24
  -2  -7  14    3.59    1.77
  -2  -7  14    3.36    1.50
   1  -7 -14    4.73    1.80
  -1  -7  14    3.10    1.50
  -1  -7  14    2.26    1.56
  -1  -7  14    3.67    1.36
   0  -7  14   15.46    2.28
   0  -7  14   20.89    2.42
   0   7  14   14.10    1.94
   1  -7  14   10.23    2.22
   1  -7  14   14.97    2.15
   1   7  14   10.31    1.73
   1  -8 -14    1.52    1.76
  -1  -8  14    0.61    1.18
  -6   0  15    2.13    1.50
  -6   0  15    2.32    1.42
  -5   0  15    2.78    1.27
  -5   0  15    4.50    1.42
  -4   0  15    7.37    1.38
   4   0 -15    5.46    0.97
  -4   0  15    6.08    1.33
  -4   0  15    6.30    1.45
  -3   0  15    1.85    1.09
  -3   0  15    2.63    0.86
  -3   0  15    1.65    0.97
   3   0 -15    1.03    0.84
   3   0 -15   -0.44    0.90
  -2   0  15    0.43    0.84
  -2   0  15    1.46    1.01
   2   0 -15    0.25    0.68
  -2   0  15    0.19    0.77
  -2   0  15    0.71    0.99
  -2   0  15    0.17    0.76
  -2   0  15    1.20    0.87
   2   0 -15   -0.58    0.71
   2   0 -15    0.95    0.71
  -1   0  15    5.38    1.11
  -1   0  15    4.70    1.07
  -1   0  15    6.90    1.24
   1   0 -15    4.93    0.94
  -1   0  15    5.06    1.06
  -1   0  15    4.61    0.98
  -1   0  15    6.41    1.10
  -1   0  15    5.69    1.12
  -1   0  15    5.69    1.29
   1   0 -15    4.52    1.12
  -1   0  15    5.67    1.21
  -1   0  15    4.31    1.26
   0   0  15    1.98    0.74
   0   0  15    0.87    1.10
   0   0  15    1.84    0.93
   0   0  15    0.79    0.86
   0   0 -15    1.26    0.76
   0   0  15    2.26    0.92
   0   0  15    1.12    0.98
   0   0  15    0.21    0.86
   0   0  15    0.67    1.08
   0   0  15    1.03    0.98
   0   0 -15    1.03    0.76
   1   0  15    0.28    1.05
   1   0  15    1.18    1.01
   1   0  15    1.06    0.89
   1   0  15    0.88    0.80
   1   0  15    0.54    1.00
   1   0  15    1.97    1.01
   1   0  15    1.66    1.00
   1   0  15    0.72    0.98
  -6  -1  15    1.93    1.45
  -6  -1  15    2.60    1.26
  -6   1  15    0.56    1.27
  -5  -1  15    2.25    1.28
  -5  -1  15    2.91    1.44
  -5   1  15    2.93    1.32
  -5   1  15    3.78    1.31
  -4  -1  15    1.32    0.84
  -4  -1  15    1.11    1.27
   4  -1 -15    2.34    1.02
  -4   1  15    1.41    0.98
  -4   1  15    2.72    1.13
  -3  -1  15    5.65    1.25
  -3  -1  15    4.87    1.17
  -3  -1  15    4.82    1.35
  -3  -1  15    5.17    1.19
   3   1 -15    4.23    1.03
   3   1 -15    4.74    1.00
  -3   1  15    4.96    1.26
  -3   1  15    5.55    1.12
  -3   1  15    7.02    1.27
  -2  -1  15    3.65    1.01
  -2  -1  15    4.16    0.95
  -2  -1  15    5.41    1.07
  -2  -1  15    5.65    1.20
  -2  -1  15    5.61    1.20
   2  -1 -15    4.41    1.04
   2   1 -15    3.36    1.10
  -2   1  15    2.50    1.16
  -2   1  15    3.63    1.06
  -2   1  15    3.87    0.88
   2   1 -15    5.01    0.95
  -2   1  15    4.05    1.00
  -2   1  15    5.25    1.05
  -2   1  15    2.30    1.16
  -2   1  15    4.89    1.07
  -2   1  15    2.79    0.94
   2   1 -15    3.08    0.94
  -1  -1  15   10.19    1.45
  -1  -1  15   10.99    1.55
  -1  -1  15   11.55    1.41
   1  -1 -15   10.71    1.37
  -1  -1  15    7.28    1.54
  -1  -1  15   11.48    1.58
  -1  -1  15   11.23    1.58
  -1   1  15    7.19    1.32
  -1   1  15    8.56    1.27
  -1   1  15   11.61    1.43
  -1   1  15   10.66    1.47
  -1   1  15    8.70    1.28
  -1   1  15   12.86    1.50
   1   1 -15   10.82    1.28
  -1   1  15   11.10    1.46
  -1   1  15    8.90    1.31
   1   1 -15    9.26    1.28
  -1   1  15   10.65    1.45
   1   1 -15   10.20    1.22
  -1   1  15   10.74    1.36
  -1   1  15    9.65    1.36
   0  -1  15   13.16    1.81
   0  -1  15   13.58    1.73
   0  -1  15   15.23    1.73
   0  -1  15   12.85    1.67
   0  -1 -15   11.39    1.46
   0  -1  15   12.25    1.54
   0  -1  15   15.28    1.55
   0  -1  15   15.03    1.63
   0   1  15   14.96    1.66
   0   1  15   16.94    1.75
   0   1  15   16.08    1.93
   0   1  15   15.55    1.77
   0   1  15   17.30    1.70
   0   1 -15   16.49    1.57
   0   1 -15   17.31    1.48
   0   1  15   15.57    1.73
   0   1  15   14.30    1.89
   0   1  15   14.23    1.59
   0   1  15   14.55    1.65
   0   1 -15   13.83    1.72
   1  -1  15   19.80    2.14
   1  -1  15   24.57    2.19
   1  -1  15   23.41    2.13
   1  -1  15   21.99    2.06
   1  -1  15   24.17    2.20
   1  -1  15   19.14    2.03
   1  -1  15   25.20    2.29
   1  -1  15   19.85    2.16
   1   1  15   19.27    2.04
  -1   1 -15   20.60    2.16
   1   1  15   25.47    2.23
  -1   1 -15   20.02    1.93
   1   1  15   15.83    2.11
   1   1  15   21.57    2.14
   1   1  15   20.53    2.12
   1   1  15   20.30    2.15
  -2  -1 -15    8.29    1.76
   2  -1  15    7.70    1.22
  -2   1 -15    5.09    1.19
  -6  -2  15    2.67    1.76
  -5  -2  15   -0.19    1.22
  -5  -2  15    1.18    1.10
  -4  -2  15    2.74    1.38
  -4  -2  15    1.16    0.90
  -3  -2  15    3.43    1.23
  -3  -2  15    4.41    1.29
  -3  -2  15    4.95    1.40
  -3   2  15    2.59    1.01
  -3   2  15    3.34    1.05
   3   2 -15    4.00    1.11
  -2  -2  15    1.59    0.94
  -2  -2  15    1.47    1.08
  -2  -2  15    2.30    1.15
  -2  -2  15    1.57    1.19
  -2  -2  15    2.15    0.96
   2   2 -15    2.38    0.95
  -2   2  15    1.11    1.13
  -2   2  15    2.27    1.17
  -2   2  15    2.74    0.99
   2   2 -15    2.71    1.09
  -2   2  15    3.16    1.05
   2   2 -15    2.26    0.68
  -2   2  15    2.33    0.93
   2   2 -15    4.02    0.97
  -2   2  15    3.04    1.05
  -2   2  15    3.20    0.75
  -2   2  15    3.55    0.85
  -1  -2  15    2.03    1.18
  -1  -2  15    2.29    1.15
  -1  -2  15    1.59    1.03
  -1  -2  15    1.18    0.81
  -1  -2  15    0.93    1.01
  -1   2  15    1.11    0.85
  -1   2  15    2.33    0.96
  -1   2  15    2.42    1.18
  -1   2  15    1.83    0.90
   1   2 -15    3.42    0.93
  -1   2  15    2.21    0.89
  -1   2  15    1.13    0.74
   1   2 -15    1.19    0.91
  -1   2  15    1.82    0.81
   1   2 -15    0.64    1.01
  -1   2  15   -0.42    0.91
  -1   2  15    2.19    1.01
   0  -2  15    2.69    0.99
   0  -2  15    0.72    0.86
   0  -2  15    1.95    0.99
   0  -2  15    2.67    1.07
   0  -2  15    3.47    1.19
   0   2  15    1.06    1.03
   0   2  15    1.61    0.77
   0   2  15    1.21    0.81
   0   2 -15    1.55    0.85
   0   2 -15    1.47    0.88
   0   2  15    1.02    0.80
   0   2 -15    1.13    0.69
   0   2  15    1.82    0.81
   0   2  15    2.38    1.02
   0   2  15    1.35    1.10
   0   2  15    1.43    1.07
   1  -2  15    0.30    0.92
   1  -2  15    0.29    0.99
   1  -2  15    0.75    0.89
   1  -2  15    0.30    0.93
   1  -2  15    0.36    0.95
   1  -2  15   -0.42    1.00
   1  -2  15    0.74    1.03
   1   2  15    1.09    0.85
  -1   2 -15    0.18    0.92
  -1   2 -15    1.25    0.86
   1   2  15    1.94    1.12
   1   2  15   -0.29    1.02
  -2  -2 -15    2.64    1.50
   2   2  15    1.72    0.89
  -3  -2 -15    1.42    1.57
  -5  -3  15    6.15    1.75
  -5  -3  15    1.09    1.40
  -4  -3  15    0.53    1.21
  -4  -3  15    0.33    1.22
  -4  -3  15    0.65    1.46
  -3  -3  15    3.62    1.34
  -3  -3  15    4.14    1.47
  -3  -3  15    4.31    1.33
  -3   3  15    4.11    1.14
  -3   3  15    5.11    0.99
  -3   3  15    4.45    1.19
  -3   3  15    2.94    1.16
  -2  -3  15   17.52    2.11
  -2  -3  15   12.00    1.75
  -2  -3  15   12.83    1.73
  -2   3  15   14.38    1.70
   2   3 -15   13.18    1.54
  -2   3  15   16.95    1.78
   2   3 -15   14.35    1.58
   2   3 -15   16.06    1.86
  -2   3  15   15.82    1.81
  -2   3  15   17.09    1.92
  -2   3  15   16.85    1.71
  -2   3  15   16.75    1.82
  -1  -3  15    1.09    0.82
  -1  -3  15    2.19    0.99
  -1  -3  15    2.33    1.24
  -1   3  15    2.33    1.17
  -1   3  15    1.74    0.79
  -1   3  15    1.99    1.01
  -1   3  15    3.11    0.90
  -1   3  15    1.15    1.00
   1   3 -15    0.55    0.89
   1   3 -15    1.81    0.86
  -1   3  15    1.64    0.86
  -1   3  15    3.10    1.09
   1   3 -15    2.57    1.01
   0  -3  15    8.80    1.49
   0  -3  15   10.88    1.78
   0  -3  15    9.45    1.36
   0  -3  15    7.69    1.52
   0   3  15    8.17    1.46
   0   3  15    8.25    1.41
   0   3 -15    8.25    1.17
   0   3  15    7.07    1.24
   0   3 -15    7.82    1.10
   0   3  15   10.84    1.49
   1  -3  15   16.17    2.02
   1  -3  15   13.90    1.79
   1  -3  15   16.00    1.78
   1  -3  15   11.67    2.06
   1   3  15   15.84    1.70
  -1   3 -15   16.16    1.63
  -2  -3 -15   14.95    2.26
   2   3  15   11.13    1.53
  -3  -3 -15    8.33    2.14
   3   3  15    5.10    1.22
   3   3  15    6.29    1.26
  -5  -4  15    2.24    1.54
  -5  -4  15    0.64    1.62
  -5  -4  15    1.94    1.17
  -4  -4  15    5.80    1.67
  -4  -4  15    4.47    1.26
  -4  -4  15    3.53    1.63
  -3  -4  15    6.68    1.43
  -3  -4  15    8.25    1.41
  -3  -4  15    7.53    1.74
  -2  -4  15    2.65    1.01
  -2  -4  15    2.03    1.38
  -2  -4  15    3.07    1.39
  -2   4  15    1.00    1.00
  -1  -4  15    1.40    1.19
  -1  -4  15    3.66    1.45
  -1  -4  15    2.29    1.05
   1  -4 -15    3.98    1.39
   1   4 -15    1.07    0.94
   0  -4  15   -0.48    1.28
   0  -4  15    0.26    1.28
   0  -4  15    0.49    0.96
   0   4 -15    0.04    0.86
   0   4  15    0.44    1.01
   0   4  15    0.89    0.94
   1  -4  15    0.07    1.23
   1  -4  15    2.24    1.51
   1   4  15    1.93    1.05
  -2  -4 -15    4.90    1.86
   2  -4  15    3.65    1.70
   2   4  15    3.09    1.16
   2   4  15    3.48    0.93
  -3  -4 -15    2.35    1.85
   3   4  15    0.05    1.01
   3   4  15   -0.20    1.04
  -4  -5  15    4.09    1.40
  -4  -5  15    2.25    1.63
  -4  -5  15    3.60    1.27
  -3  -5  15    2.35    1.21
  -3  -5  15    0.55    1.42
  -3  -5  15    0.87    1.32
   2  -5 -15    4.39    1.67
  -2  -5  15    3.37    1.21
  -2  -5  15    4.47    1.45
  -2  -5  15    4.39    1.61
  -1  -5  15    4.41    1.64
  -1  -5  15    3.39    1.54
  -1  -5  15    2.51    1.35
   1  -5 -15    4.30    1.54
   0  -5  15    9.32    1.54
   0  -5  15    6.39    1.78
   0  -5  15    6.34    1.39
   0   5  15    9.61    1.47
   1  -5  15    4.66    1.37
   1  -5  15    8.09    1.63
   1   5  15    7.05    1.18
   2  -5  15   12.13    2.24
   2   5  15   11.66    1.67
  -3  -6  15   -0.56    1.50
  -3  -6  15   -0.64    1.58
   3  -6 -15   -0.09    1.67
  -3  -6  15    1.75    1.51
  -2  -6  15    0.23    1.58
  -2  -6  15    1.31    1.13
  -2  -6  15    0.57    1.36
   2  -6 -15    2.29    1.60
   1  -6 -15    4.11    1.40
  -1  -6  15    2.77    1.71
  -1  -6  15    2.55    1.41
  -1  -6  15    3.65    1.64
   0  -6  15    0.97    1.06
   0  -6  15    1.61    1.13
   0  -6  15    3.35    1.70
   0   6  15    1.00    1.15
   1  -6  15    1.59    1.29
   1  -6  15    0.80    1.13
   1   6  15    0.55    1.18
   2  -7 -15    7.09    1.83
   1  -7 -15   11.16    2.23
  -1  -7  15    8.57    2.03
  -5   0  16    2.14    1.42
  -5   0  16    0.12    1.22
  -4   0  16    7.06    1.53
  -4   0  16    4.98    1.35
  -3   0  16    1.86    1.03
  -3   0  16    1.28    1.16
  -2   0  16    3.01    1.17
  -2   0  16    5.75    1.17
   2   0 -16    3.63    1.13
  -2   0  16    3.06    1.23
  -1   0  16    0.91    0.90
  -1   0  16    0.70    1.07
  -1   0  16    0.25    0.90
  -1   0  16    2.12    1.05
   1   0 -16   -0.86    0.94
  -1   0  16    0.75    0.94
   0   0  16    2.49    1.03
   0   0  16    3.91    1.13
   0   0 -16    1.66    0.87
   0   0  16    2.54    1.01
   0   0  16    1.41    1.09
   0   0  16    4.02    1.10
   1   0  16    4.22    1.14
   1   0  16    5.95    1.30
  -5  -1  16    0.54    1.43
  -5  -1  16   -0.94    1.16
  -5   1  16    1.30    1.18
  -4  -1  16    0.79    1.09
  -4  -1  16    2.07    1.41
  -4   1  16   -0.14    0.97
  -3  -1  16    1.74    0.89
   3  -1 -16    1.00    1.06
  -3  -1  16    1.87    0.97
  -3   1  16    1.44    1.09
  -3   1  16    1.50    0.95
  -2  -1  16    5.27    1.42
  -2  -1  16    5.64    1.29
   2  -1 -16    8.29    1.32
  -2  -1  16    7.26    1.40
  -2  -1  16    8.20    1.43
  -2   1  16    8.02    1.32
  -2   1  16    5.29    1.25
  -2   1  16    6.77    1.22
   2   1 -16    5.08    1.13
  -2   1  16    6.82    1.25
   2   1 -16    6.35    1.09
   1  -1 -16    4.09    1.15
  -1  -1  16    5.70    1.17
  -1  -1  16    5.99    1.26
  -1  -1  16    5.61    1.17
  -1  -1  16    7.96    1.30
  -1  -1  16    7.46    1.26
  -1   1  16    5.66    1.03
  -1   1  16    7.46    1.39
  -1   1  16    6.42    1.14
   1   1 -16    6.69    1.13
  -1   1  16    6.46    1.17
  -1   1  16    7.23    1.29
  -1   1  16    7.89    1.34
  -1   1  16    7.92    1.30
   0  -1 -16    3.47    1.10
   0  -1  16    4.35    0.90
   0  -1  16    2.69    1.10
   0  -1  16    3.64    1.06
   0  -1  16    4.83    1.23
   0  -1  16    4.13    1.19
   0   1  16    1.67    1.09
   0   1  16    0.30    0.95
   0   1  16    1.78    0.92
   0   1  16    2.49    1.11
   0   1  16    2.61    0.87
   0   1 -16    2.52    0.98
   1  -1  16    3.51    1.16
   1   1  16    4.75    1.10
  -5  -2  16    3.78    1.46
  -5  -2  16    3.03    1.31
  -4  -2  16    1.40    1.40
  -4  -2  16    1.88    1.26
  -3  -2  16    6.39    1.23
  -3  -2  16    5.82    1.41
  -3  -2  16    3.95    1.46
  -2  -2  16    7.11    1.51
  -2  -2  16    5.58    1.16
  -2  -2  16    5.38    1.49
  -2   2  16    9.66    1.24
  -2   2  16    6.48    1.29
  -2   2  16    7.99    1.40
  -1  -2  16    3.16    1.30
  -1  -2  16    2.39    0.89
  -1  -2  16    1.87    1.15
  -1  -2  16    3.11    1.31
  -1   2  16    2.52    1.08
  -1   2  16    1.65    1.03
   1   2 -16    2.12    0.93
  -1   2  16    2.34    1.12
  -1   2  16    1.73    1.07
   0  -2  16    4.54    1.32
   0  -2  16    4.24    1.43
   0  -2  16    3.46    1.18
   0   2 -16    4.98    1.08
   1  -2  16    0.92    0.88
  -2  -2 -16    1.03    1.46
  -5  -3  16    1.71    1.65
  -4  -3  16    1.89    1.34
  -4  -3  16    1.19    1.54
  -3  -3  16    3.06    1.41
  -3  -3  16    2.11    1.30
  -3  -3  16    3.65    1.54
  -2  -3  16   -1.32    1.08
  -2  -3  16   -0.16    1.30
  -2  -3  16    1.67    1.28
  -1  -3  16   10.05    1.73
  -1  -3  16    6.28    1.24
  -1  -3  16    4.49    1.53
   0  -3  16    4.94    1.55
   0  -3  16    4.34    1.21
   0  -3  16    5.78    1.49
   1  -3  16    8.09    1.84
   1  -3  16    5.66    1.32
   1   3  16    6.90    1.23
   2   3  16    6.50    1.28
  -4  -4  16    1.59    1.65
  -4  -4  16    0.95    1.39
  -4  -4  16    2.84    1.55
  -3  -4  16   12.64    2.06
  -3  -4  16    9.06    1.81
  -3  -4  16    8.79    1.94
  -2  -4  16    0.42    1.03
  -2  -4  16    0.42    1.24
  -2  -4  16   -0.02    0.99
  -1  -4  16    3.89    1.56
  -1  -4  16    4.12    1.27
  -1  -4  16    2.88    1.06
   0  -4  16    1.01    1.40
   0  -4  16    1.43    1.42
   0  -4  16    2.31    1.18
   1  -4  16    5.34    1.66
   1  -4  16    5.32    1.79
   1   4  16    4.52    1.01
   2  -4  16   -0.16    0.99
   2   4  16    0.94    1.09
   3  -5 -16    0.71    1.57
  -3  -5  16    0.80    1.42
  -3  -5  16    1.28    1.58
  -3  -5  16    0.80    1.19
  -2  -5  16    4.26    1.67
  -2  -5  16    3.56    1.20
  -2  -5  16    3.61    1.61
   2  -5 -16    4.14    1.68
  -1  -5  16    3.57    1.29
  -1  -5  16    3.17    1.32
  -1  -5  16    3.46    1.45
   0  -5  16    5.82    1.43
   0  -5  16    6.61    1.72
   0  -5  16    4.60    1.45
   1  -5  16    5.87    1.46
   1  -5  16    7.46    1.98
   1   5  16    5.91    1.42
  -2  -6  16    5.68    1.59
   2  -6 -16    1.02    1.66
  -1  -6  16    1.84    1.76
  -4   0  17    1.47    1.37
  -4   0  17    0.90    1.17
  -3   0  17    2.62    1.15
  -3   0  17    2.77    1.05
  -2   0  17    3.07    1.25
  -2   0  17    1.50    1.05
  -1   0  17   14.71    1.93
  -1   0  17   12.38    1.71
  -1   0  17   16.50    1.98
   0   0  17    0.41    0.98
   0   0  17    0.44    1.15
   0   0  17    2.78    1.27
   1   0  17    7.81    1.41
   2   0  17   -0.06    0.99
  -4  -1  17    1.14    1.45
  -4  -1  17    1.13    1.20
  -3  -1  17    0.93    1.30
  -3  -1  17   -0.11    1.09
  -2  -1  17    1.94    1.00
  -2  -1  17    1.59    1.12
  -2   1  17    1.04    1.08
  -1  -1  17   -0.11    1.01
  -1  -1  17    1.45    1.19
  -1  -1  17    1.71    0.97
  -1   1  17   -0.02    1.06
   0  -1  17    7.67    1.59
   0  -1  17    8.74    1.50
   0  -1  17    7.24    1.42
   0   1  17   11.79    1.62
   1  -1  17    3.00    1.23
   2  -1  17    2.29    1.22
  -4  -2  17    4.04    1.45
  -4  -2  17    3.69    1.31
  -3  -2  17    2.51    1.15
  -3  -2  17    3.24    1.33
  -2  -2  17    6.61    1.54
  -2  -2  17    6.81    1.34
  -2  -2  17    3.88    1.34
  -1  -2  17    2.82    1.01
  -1  -2  17    4.19    1.16
  -1  -2  17    0.95    1.00
   0  -2  17    5.58    1.59
   0  -2  17    5.83    1.47
   0  -2  17    4.73    1.50
   1  -2  17    1.13    1.23
   1  -2  17    2.79    1.52
   2  -2  17    4.62    1.50
  -4  -3  17   -0.92    1.53
  -4  -3  17    0.63    1.43
  -3  -3  17    2.37    1.12
  -3  -3  17    4.81    1.38
  -3  -3  17    2.78    1.50
  -2  -3  17    1.68    1.28
  -2  -3  17    3.56    1.52
  -2  -3  17    2.56    1.16
  -1  -3  17    2.65    1.51
  -1  -3  17    3.63    1.52
  -1  -3  17    3.60    1.39
   0  -3  17    6.19    1.61
   0  -3  17    4.17    1.30
   0  -3  17    6.44    1.43
   1  -3  17    3.54    1.74
   1  -3  17    7.37    1.71
  -3  -4  17    1.99    1.28
  -3  -4  17    2.03    1.12
  -3  -4  17    1.11    1.55
  -2  -4  17    3.77    1.46
   2  -4 -17    3.29    1.68
  -2  -4  17    5.93    1.74
  -2  -4  17    2.98    1.66
  -1  -4  17    2.84    1.42
  -1  -4  17    2.26    1.21
  -1  -4  17    2.08    1.21
   0  -4  17    0.76    1.54
   0  -4  17   -0.05    1.29
   0  -4  17   -0.66    1.49
   1   4  17    8.10    1.50
  -3   0  18    5.34    1.53
  -3   0  18    3.61    1.25
  -2   0  18    1.98    1.12
  -2   0  18    2.58    1.30
  -1   0  18    8.66    1.64
  -1   0  18    8.62    1.49
   0   0  18    1.67    1.29
   0   0  18    0.06    1.03
   0   0  18    1.17    1.30
  -3  -1  18    1.28    1.20
  -3  -1  18    0.92    1.40
  -2  -1  18    0.45    1.33
  -2  -1  18    1.62    0.91
  -1  -1  18   -0.51    1.27
  -1  -1  18   -0.07    1.26
  -1  -1  18   -0.50    1.07
   0  -1  18    0.08    1.08
   0  -1  18    1.64    1.37
   0  -1  18    0.95    1.33
   1  -1  18    3.93    1.64
   1  -1  18    3.56    1.33
  -3  -2  18    2.65    1.10
  -3  -2  18    1.60    1.56
  -2  -2  18    3.78    1.38
  -2  -2  18    4.30    1.58
  -2  -2  18    4.67    1.57
  -1  -2  18    2.49    1.44
  -1  -2  18    2.44    1.29
  -1  -2  18    3.19    1.53
   0  -2  18    4.85    1.66
   0  -2  18    4.71    1.42
   0  -2  18    3.35    1.55
  -2  -3  18    2.59    1.58
  -2  -3  18    1.71    1.05
  -2  -3  18    4.67    1.70
  -1  -3  18    1.10    1.42
  -1  -3  18    0.69    1.33
  -1  -3  18    0.73    1.18
   0   0   0    0.00    0.00
;
_shelx_hkl_checksum              88322
loop_
_space_group_symop_operation_xyz
'x, y, z'
'-x, y+1/2, -z'
loop_
_atom_site_label
_atom_site_type_symbol
_atom_site_fract_x
_atom_site_fract_y
_atom_site_fract_z
_atom_site_U_iso_or_equiv
_atom_site_adp_type
_atom_site_occupancy
_atom_site_site_symmetry_order
_atom_site_calc_flag
_atom_site_refinement_flags_posn
_atom_site_refinement_flags_adp
C1 C 0.8039(4) 0.5546(3) 0.36559(17) 0.0137(4) Uani 1 1 d . .
C2 C 0.8445(4) 0.4948(3) 0.26245(17) 0.0154(4) Uani 1 1 d . .
H2 H 0.9796 0.5298 0.2317 0.018 Uiso 1 1 calc R U
C3 C 0.6838(4) 0.3832(3) 0.20544(17) 0.0144(4) Uani 1 1 d . .
H3 H 0.7103 0.3412 0.1351 0.017 Uiso 1 1 calc R U
C4 C 0.4841(4) 0.3314(3) 0.24922(16) 0.0116(4) Uani 1 1 d . .
C5 C 0.4472(4) 0.3944(3) 0.35231(16) 0.0138(4) Uani 1 1 d . .
H5 H 0.3113 0.3607 0.3829 0.017 Uiso 1 1 calc R U
C6 C 0.6072(4) 0.5061(3) 0.41100(17) 0.0148(4) Uani 1 1 d . .
H6 H 0.5813 0.5484 0.4814 0.018 Uiso 1 1 calc R U
C7 C 0.3115(3) 0.2064(5) 0.18705(13) 0.0129(3) Uani 1 1 d . .
H7 H 0.1748 0.1925 0.2287 0.016 Uiso 1 1 calc R U
C8 C 0.4239(4) 0.0335(3) 0.17539(16) 0.0136(4) Uani 1 1 d . .
H8 H 0.5541 0.0470 0.1297 0.016 Uiso 1 1 calc R U
C9 C 0.2425(4) -0.0909(3) 0.11572(17) 0.0145(4) Uani 1 1 d . .
H9A H 0.1043 -0.0950 0.1558 0.017 Uiso 1 1 calc R U
H9B H 0.1876 -0.0487 0.0396 0.017 Uiso 1 1 calc R U
C10 C 0.3389(4) -0.2686(3) 0.10816(17) 0.0164(6) Uani 1 1 d . .
H10A H 0.4880 -0.2653 0.0762 0.020 Uiso 1 1 calc R U
H10B H 0.3718 -0.3194 0.1833 0.020 Uiso 1 1 calc R U
C11 C 0.5293(6) -0.0338(3) 0.2897(2) 0.0330(7) Uani 1 1 d . .
H11A H 0.4023 -0.0570 0.3334 0.050 Uiso 1 1 calc R U
H11B H 0.6367 0.0506 0.3283 0.050 Uiso 1 1 calc R U
H11C H 0.6164 -0.1381 0.2807 0.050 Uiso 1 1 calc R U
O1 O 0.2288(3) 0.2826(2) 0.08073(13) 0.0181(3) Uani 1 1 d . .
O2 O 0.1669(3) -0.3674(2) 0.03867(13) 0.0186(3) Uani 1 1 d . .
Br1 Br 1.02276(3) 0.70573(4) 0.44722(2) 0.02066(7) Uani 1 1 d . .
H1O H 0.121(5) 0.228(5) 0.049(2) 0.033(8) Uiso 1 1 d . .
H5O H 0.190(6) -0.464(4) 0.048(3) 0.032(9) Uiso 1 1 d . .
loop_
_atom_site_aniso_label
_atom_site_aniso_U_11
_atom_site_aniso_U_22
_atom_site_aniso_U_33
_atom_site_aniso_U_23
_atom_site_aniso_U_13
_atom_site_aniso_U_12
C1 0.0119(10) 0.0094(9) 0.0173(9) -0.0015(7) -0.0062(8) -0.0001(8)
C2 0.0114(10) 0.0164(10) 0.0181(10) 0.0003(8) 0.0014(8) -0.0002(8)
C3 0.0172(11) 0.0134(10) 0.0124(9) -0.0027(8) 0.0016(8) 0.0021(9)
C4 0.0108(10) 0.0088(9) 0.0142(9) 0.0000(7) -0.0018(7) 0.0018(8)
C5 0.0138(10) 0.0119(10) 0.0158(9) 0.0005(8) 0.0022(8) 0.0007(8)
C6 0.0164(11) 0.0160(10) 0.0114(9) -0.0025(8) 0.0001(8) 0.0028(9)
C7 0.0129(8) 0.0110(7) 0.0138(7) -0.0018(13) -0.0016(6) -0.0023(14)
C8 0.0147(10) 0.0094(9) 0.0149(9) 0.0004(8) -0.0036(8) 0.0006(8)
C9 0.0149(10) 0.0100(10) 0.0172(9) -0.0016(8) -0.0026(8) 0.0002(8)
C10 0.0148(9) 0.0137(16) 0.0188(8) 0.0003(9) -0.0041(7) -0.0008(9)
C11 0.0507(18) 0.0135(11) 0.0260(13) 0.0010(10) -0.0234(12) -0.0015(12)
O1 0.0195(8) 0.0100(7) 0.0204(8) 0.0030(6) -0.0113(6) -0.0025(7)
O2 0.0209(9) 0.0066(7) 0.0247(8) -0.0022(6) -0.0087(7) 0.0002(7)
Br1 0.01553(10) 0.01815(10) 0.02560(10) -0.00769(12) -0.00585(7) -0.00187(12)
loop_
_atom_type_symbol
_atom_type_description
_atom_type_scat_dispersion_real
_atom_type_scat_dispersion_imag
_atom_type_scat_source
C C 0.0033 0.0016 'International Tables Vol C Tables 4.2.6.8 and 6.1.1.4'
H H 0.0000 0.0000 'International Tables Vol C Tables 4.2.6.8 and 6.1.1.4'
O O 0.0106 0.0060 'International Tables Vol C Tables 4.2.6.8 and 6.1.1.4'
Br Br -0.2901 2.4595 'International Tables Vol C Tables 4.2.6.8 and 6.1.1.4'
loop_
_geom_angle_atom_site_label_1
_geom_angle_atom_site_label_2
_geom_angle_atom_site_label_3
_geom_angle
C6 C1 C2 121.36(19)
C6 C1 Br1 118.75(16)
C2 C1 Br1 119.89(17)
C3 C2 C1 118.7(2)
C3 C2 H2 120.7
C1 C2 H2 120.7
C2 C3 C4 121.31(19)
C2 C3 H3 119.3
C4 C3 H3 119.3
C5 C4 C3 118.72(19)
C5 C4 C7 120.38(19)
C3 C4 C7 120.89(17)
C6 C5 C4 120.8(2)
C6 C5 H5 119.6
C4 C5 H5 119.6
C1 C6 C5 119.1(2)
C1 C6 H6 120.4
C5 C6 H6 120.4
O1 C7 C4 106.0(2)
O1 C7 C8 112.30(18)
C4 C7 C8 112.18(17)
O1 C7 H7 108.7
C4 C7 H7 108.7
C8 C7 H7 108.7
C11 C8 C7 110.12(17)
C11 C8 C9 110.78(18)
C7 C8 C9 110.71(17)
C11 C8 H8 108.4
C7 C8 H8 108.4
C9 C8 H8 108.4
C10 C9 C8 113.33(17)
C10 C9 H9A 108.9
C8 C9 H9A 108.9
C10 C9 H9B 108.9
C8 C9 H9B 108.9
H9A C9 H9B 107.7
O2 C10 C9 108.45(17)
O2 C10 H10A 110.0
C9 C10 H10A 110.0
O2 C10 H10B 110.0
C9 C10 H10B 110.0
H10A C10 H10B 108.4
C8 C11 H11A 109.5
C8 C11 H11B 109.5
H11A C11 H11B 109.5
C8 C11 H11C 109.5
H11A C11 H11C 109.5
H11B C11 H11C 109.5
C7 O1 H1O 110(2)
C10 O2 H5O 111(2)
loop_
_geom_bond_atom_site_label_1
_geom_bond_atom_site_label_2
_geom_bond_distance
C1 C6 1.382(3)
C1 C2 1.391(3)
C1 Br1 1.903(2)
C2 C3 1.386(3)
C2 H2 0.9500
C3 C4 1.394(3)
C3 H3 0.9500
C4 C5 1.393(3)
C4 C7 1.519(3)
C5 C6 1.392(3)
C5 H5 0.9500
C6 H6 0.9500
C7 O1 1.441(3)
C7 C8 1.529(4)
C7 H7 1.0000
C8 C11 1.526(3)
C8 C9 1.534(3)
C8 H8 1.0000
C9 C10 1.520(3)
C9 H9A 0.9900
C9 H9B 0.9900
C10 O2 1.432(3)
C10 H10A 0.9900
C10 H10B 0.9900
C11 H11A 0.9800
C11 H11B 0.9800
C11 H11C 0.9800
O1 H1O 0.81(3)
O2 H5O 0.78(3)
loop_
_geom_hbond_atom_site_label_D
_geom_hbond_atom_site_label_H
_geom_hbond_atom_site_label_A
_geom_hbond_distance_DH
_geom_hbond_distance_HA
_geom_hbond_distance_DA
_geom_hbond_angle_DHA
_geom_hbond_site_symmetry_A
O1 H1O O2 0.81(3) 1.98(3) 2.772(2) 170(4) 2
O2 H5O O1 0.78(3) 2.05(3) 2.832(2) 175(3) 1_545
loop_
_geom_torsion_atom_site_label_1
_geom_torsion_atom_site_label_2
_geom_torsion_atom_site_label_3
_geom_torsion_atom_site_label_4
_geom_torsion
C6 C1 C2 C3 -0.6(3)
Br1 C1 C2 C3 179.19(16)
C1 C2 C3 C4 0.3(3)
C2 C3 C4 C5 0.1(3)
C2 C3 C4 C7 -178.8(2)
C3 C4 C5 C6 -0.4(3)
C7 C4 C5 C6 178.6(2)
C2 C1 C6 C5 0.3(3)
Br1 C1 C6 C5 -179.43(16)
C4 C5 C6 C1 0.2(3)
C5 C4 C7 O1 122.3(2)
C3 C4 C7 O1 -58.8(3)
C5 C4 C7 C8 -114.8(2)
C3 C4 C7 C8 64.1(3)
O1 C7 C8 C11 174.6(2)
C4 C7 C8 C11 55.3(3)
O1 C7 C8 C9 -62.6(2)
C4 C7 C8 C9 178.12(17)
C11 C8 C9 C10 -53.8(3)
C7 C8 C9 C10 -176.23(19)
C8 C9 C10 O2 -172.37(17)
