#------------------------------------------------------------------------------
#$Date: 2019-11-22 02:21:30 +0200 (Fri, 22 Nov 2019) $
#$Revision: 231177 $
#$URL: file:///home/coder/svn-repositories/cod/cif/4/12/92/4129214.cif $
#------------------------------------------------------------------------------
#
# This file is available in the Crystallography Open Database (COD),
# http://www.crystallography.net/
#
# All data on this site have been placed in the public domain by the
# contributors.
#
data_4129214
loop_
_publ_author_name
'Khoury, Jason F.'
'Rettie, Alexander J. E.'
'Khan, Mojammel A.'
'Ghimire, Nirmal J.'
'Robredo, I\~nigo'
'Pfluger, Jonathan E.'
'Pal, Koushik'
'Wolverton, Christopher'
'Bergara, Aitor'
'Jiang, Jidong Samuel'
'Schoop, Leslie M.'
'Vergniory, Maia G.'
'Mitchell, J. F.'
'Chung, Duck Young'
'Kanatzidis, Mercouri G.'
_publ_section_title
;
 A new three-dimensional subsulfide Ir<sub>2</sub>In<sub>8</sub>S with
 Dirac semimetal behavior.
;
_journal_name_full               'Journal of the American Chemical Society'
_journal_paper_doi               10.1021/jacs.9b10147
_journal_year                    2019
_chemical_formula_moiety         '0.25(In32 Ir8 S4)'
_chemical_formula_sum            'In8 Ir2 S'
_chemical_formula_weight         1335.02
_space_group_crystal_system      tetragonal
_space_group_IT_number           136
_space_group_name_Hall           '-P 4n 2n'
_space_group_name_H-M_alt        'P 42/m n m'
_atom_sites_solution_primary     dual
_audit_creation_date             2019-11-01
_audit_creation_method
;
Olex2 1.2
(compiled 2018.05.29 svn.r3508 for OlexSys, GUI svn.r5506)
;
_cell_angle_alpha                90
_cell_angle_beta                 90
_cell_angle_gamma                90
_cell_formula_units_Z            4
_cell_length_a                   9.8937(16)
_cell_length_b                   9.8937(16)
_cell_length_c                   10.0991(17)
_cell_measurement_reflns_used    4508
_cell_measurement_temperature    200(2)
_cell_measurement_theta_max      30.04
_cell_measurement_theta_min      2.91
_cell_volume                     988.6(3)
_computing_molecular_graphics    'Olex2 (Dolomanov et al., 2009)'
_computing_publication_material  'Olex2 (Dolomanov et al., 2009)'
_computing_structure_refinement  'ShelXL (Sheldrick, 2015)'
_computing_structure_solution    'ShelXT (Sheldrick, 2015)'
_diffrn_ambient_temperature      200.01
_diffrn_measured_fraction_theta_full 1.000
_diffrn_measured_fraction_theta_max 1.000
_diffrn_measurement_device_type  'Bruker APEX-II CCD'
_diffrn_measurement_method       '\f and \w scans'
_diffrn_radiation_monochromator  graphite
_diffrn_radiation_type           MoK\a
_diffrn_radiation_wavelength     0.71073
_diffrn_reflns_av_R_equivalents  0.0583
_diffrn_reflns_av_unetI/netI     0.0263
_diffrn_reflns_Laue_measured_fraction_full 1.000
_diffrn_reflns_Laue_measured_fraction_max 1.000
_diffrn_reflns_limit_h_max       12
_diffrn_reflns_limit_h_min       -13
_diffrn_reflns_limit_k_max       13
_diffrn_reflns_limit_k_min       -12
_diffrn_reflns_limit_l_max       14
_diffrn_reflns_limit_l_min       -10
_diffrn_reflns_number            11065
_diffrn_reflns_point_group_measured_fraction_full 1.000
_diffrn_reflns_point_group_measured_fraction_max 1.000
_diffrn_reflns_theta_full        25.242
_diffrn_reflns_theta_max         30.066
_diffrn_reflns_theta_min         2.882
_diffrn_standards_number         0
_exptl_absorpt_coefficient_mu    45.226
_exptl_absorpt_correction_T_max  0.247
_exptl_absorpt_correction_T_min  0.105
_exptl_absorpt_correction_type   multi-scan
_exptl_crystal_colour            'metallic black'
_exptl_crystal_colour_lustre     metallic
_exptl_crystal_colour_primary    black
_exptl_crystal_density_diffrn    8.970
_exptl_crystal_description       plate
_exptl_crystal_F_000             2248
_exptl_crystal_size_max          0.091
_exptl_crystal_size_mid          0.051
_exptl_crystal_size_min          0.043
_refine_diff_density_max         4.518
_refine_diff_density_min         -4.619
_refine_diff_density_rms         0.819
_refine_ls_extinction_coef       0.00094(9)
_refine_ls_extinction_expression Fc^*^=kFc[1+0.001xFc^2^\l^3^/sin(2\q)]^-1/4^
_refine_ls_extinction_method     'SHELXL-2014/7 (Sheldrick 2014'
_refine_ls_goodness_of_fit_ref   1.456
_refine_ls_hydrogen_treatment    undef
_refine_ls_matrix_type           full
_refine_ls_number_parameters     39
_refine_ls_number_reflns         821
_refine_ls_number_restraints     0
_refine_ls_restrained_S_all      1.456
_refine_ls_R_factor_all          0.0561
_refine_ls_R_factor_gt           0.0551
_refine_ls_shift/su_max          0.000
_refine_ls_shift/su_mean         0.000
_refine_ls_structure_factor_coef Fsqd
_refine_ls_weighting_details
'w=1/[\s^2^(Fo^2^)+240.6857P] where P=(Fo^2^+2Fc^2^)/3'
_refine_ls_weighting_scheme      calc
_refine_ls_wR_factor_gt          0.1325
_refine_ls_wR_factor_ref         0.1329
_reflns_Friedel_coverage         0.000
_reflns_number_gt                804
_reflns_number_total             821
_reflns_threshold_expression     'I > 2\s(I)'
_cod_data_source_file            ja9b10147_si_002.cif
_cod_data_source_block           jfk_2_42b_200k_0m
_cod_original_cell_volume        988.6(4)
_cod_database_code               4129214
_shelx_shelxl_version_number     2014/7
_shelx_space_group_comment
;
The symmetry employed for this shelxl refinement is uniquely defined
by the following loop, which should always be used as a source of
symmetry information in preference to the above space-group names.
They are only intended as comments.
;
_shelx_estimated_absorpt_t_max   0.247
_shelx_estimated_absorpt_t_min   0.105
_olex2_refinement_description
;
1. Others
 Fixed Sof: In5(0.25)
;
_shelx_res_file
;
    jfk_2_42b_200k_0m.res created by SHELXL-2014/7

TITL jfk_2_42b_200k_0m_a.res in P4(2)/mnm
REM Old TITL JFK_2_42b_200K_0m in P4(2)/mnm
REM SHELXT solution in P4(2)/mnm
REM R1 0.394, Rweak 0.019, Alpha 0.036, Orientation as input
REM Formula found by SHELXT: S In8 Ir2
CELL 0.71073 9.8937 9.8937 10.0991 90 90 90
ZERR 4 0.0016 0.0016 0.0017 0 0 0
LATT 1
SYMM -X,-Y,+Z
SYMM 0.5-Y,0.5+X,0.5+Z
SYMM 0.5+Y,0.5-X,0.5+Z
SYMM 0.5-X,0.5+Y,0.5-Z
SYMM 0.5+X,0.5-Y,0.5-Z
SYMM +Y,+X,-Z
SYMM -Y,-X,-Z
SFAC In Ir S
UNIT 32 8 4

L.S. 10
PLAN  5
SIZE 0.043 0.051 0.091
TEMP -73.14
list 4
fmap 2
acta
REM <olex2.extras>
REM <HklSrc "%.\\JFK_2_42b_200K_0m.hkl">
REM </olex2.extras>

WGHT    0.000000  240.685715
EXTI    0.000937
FVAR       0.10860
IR1   2    0.312339    0.687661    0.260201    10.50000    0.00411    0.00411 =
         0.00363    0.00055   -0.00055   -0.00014
IN2   1    0.500000    0.500000    0.165390    10.25000    0.00966    0.00966 =
         0.00791    0.00000    0.00000    0.00345
IN1   1    0.403897    0.596103    0.500000    10.25000    0.01042    0.01042 =
         0.00403    0.00000    0.00000    0.00496
IN3   1    0.052208    0.701104    0.195284    11.00000    0.00377    0.01076 =
         0.01825    0.00248   -0.00048    0.00247
IN4   1    0.316140    0.683860    0.000000    10.25000    0.02067    0.02067 =
         0.00386    0.00000    0.00000    0.00779
S1    3    0.000000    0.500000    0.000000    10.25000    0.12985    0.01652 =
         0.00765    0.00000    0.00000   -0.00685
IN5   1    0.177866    0.779561    0.500000    10.25000    0.01381    0.01212 =
         0.00435    0.00000    0.00000    0.00812
HKLF 4

REM  jfk_2_42b_200k_0m_a.res in P4(2)/mnm
REM R1 =  0.0551 for     804 Fo > 4sig(Fo)  and  0.0561 for all     821 data
REM     39 parameters refined using      0 restraints

END

WGHT      0.0000    240.5784

REM Highest difference peak  4.518,  deepest hole -4.619,  1-sigma level  0.819
Q1    1   0.4377  0.4377  0.5000  10.25000  0.05    4.52
Q2    1   0.2345  0.7655  0.0000  10.25000  0.05    3.96
Q3    1   0.2698  0.6614  0.5000  10.50000  0.05    3.68
Q4    1   0.0596  0.3512  0.0000  10.50000  0.05    2.94
Q5    1   0.5334  0.5334  0.2786  10.50000  0.05    2.93
;
_shelx_res_checksum              70526
_shelx_hkl_file
;
  -1   0   0    2.10    1.30
  -1   0   0    1.00    1.10
   0   1   0    4.00    1.20
   1   0   0    2.30    1.10
   1   0   0    3.80    1.30
   1   0   0    1.20    1.20
  -1   0   0    2.20    1.00
  -1   0   0    3.60    1.20
   1   1   0  318.37   20.20
  -1   1   0  300.27   20.20
  -1   1   0  320.57   20.80
  -1  -1   0  318.67   20.10
  -1   1   0  324.57   20.40
  -1   1   0  369.76   20.30
   1   1   0  317.37   20.20
   1  -1   0  325.87   20.90
  -1   1   0  322.17   20.80
  -1   2   0 1129.59   74.49
  -1   2   0 1146.59   74.39
  -1   2   0 1212.48   75.29
  -1   2   0 1226.58   74.79
  -2  -1   0 1336.07   74.79
   2   1   0 1281.37   75.39
  -2  -1   0 1263.07   74.89
   2   1   0 1197.08   75.39
   2   1   0 1241.38   74.59
  -1   2   0 1219.08   75.29
  -2   0   0 1518.45   89.79
   0   2   0 1469.45   89.29
  -2   0   0 1527.45   89.79
   2   0   0 1551.34   90.69
  -2   0   0 1521.35   90.59
   0   2   0 1386.26   89.29
   2   0   0 1335.47   90.39
  -2   1   0 1277.67   79.59
  -2   1   0 1387.36   79.59
   2  -1   0 1290.17   80.59
   2  -1   0 1362.96   80.49
  -1  -2   0 1299.47   79.19
  -2   1   0 1329.17   80.39
  -2   1   0 1320.57   80.49
   1   2   0 1249.88   78.69
   1   2   0 1192.78   78.59
  -2   2   0  621.04   41.10
  -2  -2   0  647.14   40.90
   2   2   0  677.13   41.20
   2   2   0  660.53   41.10
  -2   2   0  686.43   42.40
  -2   2   0  651.33   42.30
  -2   2   0  671.93   41.40
  -2   3   0  930.81   57.39
  -2   3   0  971.70   59.09
   3   2   0  908.31   56.89
  -2   3   0  924.11   58.99
   3   2   0  965.70   58.69
  -2   3   0  918.01   57.89
  -3  -2   0  943.51   57.39
   3   2   0  946.51   58.39
  -3  -2   0  922.41   57.69
  -2   3   0  883.61   57.39
  -1   3   0   10.90    3.20
   3   1   0    9.30    3.40
   3   1   0    7.70    2.50
  -1   3   0    9.10    2.80
  -3  -1   0    5.30    2.70
  -3  -1   0    3.60    2.50
   3   1   0    7.60    4.20
   0   3   0   15.20    2.40
  -3   0   0   11.00    3.40
  -3   0   0    7.20    3.00
   3   0   0    7.30    4.50
  -3   0   0   12.70    3.20
   3   0   0   11.40    3.80
  -3   1   0    2.60    3.10
   3  -1   0    8.50    3.80
  -3   1   0    7.90    3.30
  -3   1   0    4.10    2.70
   3  -1   0    3.30    4.30
  -3   1   0    6.90    4.50
  -3   2   0  932.11   59.19
   2   3   0  916.21   56.89
   3  -2   0  873.11   59.39
   2   3   0  861.01   56.79
  -3   2   0 1038.80   59.69
  -3   2   0  936.71   57.99
  -3   2   0  939.81   57.79
  -2  -3   0  904.31   57.09
  -3   2   0  955.10   57.79
  -3   3   0 8773.32  550.44
   3   3   0 9069.29  550.64
  -3   3   0 9188.58  552.34
  -3   3   0 9999.00  550.74
  -3  -3   0 9294.27  550.34
  -3   3   0 8713.83  552.14
   3   3   0 8573.54  550.54
  -3   3   0 9244.98  550.94
  -3   4   0  409.26   27.90
  -3   4   0  316.77   25.40
  -3   4   0  384.16   25.50
  -3   4   0  376.76   28.10
  -3   4   0  384.76   26.30
   4   3   0  419.46   26.80
  -4  -3   0  440.96   26.00
   4   3   0  401.66   27.20
   4   2   0  243.88   17.90
  -4  -2   0  263.57   16.50
  -2   4   0  222.18   15.80
   4   2   0  247.18   15.90
  -2   4   0  215.68   17.50
   4   2   0  230.88   19.70
  -2   4   0  220.18   18.50
  -4  -2   0  258.77   16.80
  -4  -1   0 5912.51  366.26
  -1   4   0 5861.31  366.46
  -4  -1   0 6064.39  366.46
   4   1   0 6330.57  368.06
   4   1   0 6095.49  367.86
   4   1   0 6133.29  366.16
  -1   4   0 5935.51  366.46
   0   4   0  881.41   51.79
   4   0   0  851.51   54.79
  -4   0   0  793.12   52.59
  -4   0   0  841.92   54.09
  -4   0   0  799.32   52.49
   4   0   0  837.62   54.19
  -4   1   0 5893.61  353.46
   4  -1   0 5825.82  355.26
   4  -1   0 5794.42  355.06
  -4   1   0 5597.24  353.26
  -4   1   0 6022.30  355.16
   4  -2   0  291.47   22.40
  -4   2   0  270.07   21.20
  -4   2   0  248.38   18.20
  -4   2   0  272.47   18.50
  -4   2   0  263.37   20.10
  -2  -4   0  249.58   17.40
   2   4   0  243.48   16.50
  -4   2   0  257.47   18.20
   3   4   0  379.66   25.90
  -4   3   0  417.46   29.70
  -4   3   0  436.76   27.10
  -4   3   0  410.26   28.90
  -3  -4   0  384.96   26.00
   3   4   0  378.26   26.00
  -4   3   0  409.06   26.80
  -4   3   0  417.66   27.30
  -4   4   0  605.34   39.90
  -4   4   0  571.44   37.90
  -4  -4   0  570.14   36.90
  -4   4   0  570.24   37.20
   4   4   0  554.24   37.30
  -4   4   0  590.94   40.10
   4   4   0  544.45   37.40
  -4   4   0  601.94   37.40
  -4   5   0   27.00    7.80
  -4   5   0   21.50    4.30
  -5  -4   0   11.80    3.90
  -4   5   0   15.40    4.00
  -4   5   0   22.30    6.20
  -4   5   0   17.30    5.10
   5   4   0    7.10    4.90
   5   4   0   20.30    4.60
  -3   5   0 3312.97  209.98
   5   3   0 3506.15  209.78
   5   3   0 3078.59  206.48
  -5  -3   0 3600.54  207.98
  -3   5   0 3463.85  207.68
  -5  -3   0 3471.35  208.28
  -3   5   0 3467.65  210.08
  -3   5   0 3539.55  207.48
   5   3   0 3290.77  209.48
   5   2   0   34.40    7.50
  -2   5   0   51.19    7.20
  -2   5   0   50.89    6.90
  -5  -2   0   48.70    6.00
  -5  -2   0   35.40    5.70
   5   2   0   43.80    5.30
   5   2   0   50.89    7.70
  -1   5   0   33.90    5.60
   5   1   0   37.30    5.30
   5   1   0   39.70    6.60
   5   1   0   61.09    9.40
  -5  -1   0   49.60    5.90
  -1   5   0   38.20    5.40
  -5  -1   0   61.99    7.00
   5   0   0   46.90    8.40
  -5   0   0   51.09    7.20
  -5   0   0   52.59    7.40
   0   5   0   77.69    7.20
   0   5   0   80.59    6.30
   5   0   0   58.79    9.90
  -5   1   0   52.19    7.80
  -5   1   0   46.50    6.00
   5  -1   0   32.10    6.60
  -5   1   0   55.79    6.90
   1   5   0   32.40    3.60
   2   5   0   48.40    4.70
  -5   2   0   40.80    6.40
   5  -2   0   46.40    8.60
  -2  -5   0   53.39    5.80
  -5   2   0   42.70    7.40
  -5   2   0   35.70    5.80
  -5   2   0   32.20    8.20
  -5   2   0   48.70    6.90
  -5   3   0 3142.69  211.28
  -5   3   0 3412.26  213.98
  -5   3   0 3646.54  211.58
   3   5   0 3472.55  209.88
  -3  -5   0 3407.26  210.28
   3   5   0 3602.64  210.08
  -5   3   0 3320.67  213.68
   5  -3   0 3667.83  214.88
  -5   3   0 3449.35  211.78
  -4  -5   0   17.90    4.10
  -5   4   0    7.90    4.60
  -5   4   0   21.40    5.10
   4   5   0   22.70    4.00
  -5   4   0   20.20    6.20
   4   5   0   18.40    4.90
  -5   4   0   17.80    4.70
  -5   5   0 5133.59  328.47
  -5   5   0 5307.27  326.07
   5   5   0 5233.78  325.67
  -5  -5   0 5322.17  324.67
  -5   5   0 5344.07  328.57
   5   5   0 5411.06  325.67
  -5   5   0 5311.17  325.17
  -5   5   0 5702.63  325.57
  -6  -5   0   76.09    8.50
  -5   6   0   71.19    8.20
   6   5   0   76.59    9.50
  -5   6   0   61.29   12.60
  -5   6   0   70.89    8.30
   6   5   0   54.69    9.40
  -5   6   0   58.79    9.90
  -4   6   0  545.75   42.60
   6   4   0  618.24   41.20
  -4   6   0  636.54   39.00
  -4   6   0  613.34   38.60
   6   4   0  562.34   41.40
  -4   6   0  561.34   41.70
  -6  -4   0  612.84   39.50
  -6  -4   0  623.34   39.00
  -6  -3   0  337.37   23.90
  -3   6   0  320.87   25.20
   6   3   0  357.26   22.60
   6   3   0  318.07   25.40
  -3   6   0  367.06   27.10
  -6  -3   0  337.77   23.60
   6   2   0   73.09    7.10
  -2   6   0   52.49    7.50
  -6  -2   0   57.99    7.80
  -2   6   0   59.79    8.70
   6   2   0   85.29   11.10
   6   2   0   51.79    8.20
  -6  -2   0   70.99    7.70
   6   1   0  129.29   13.70
  -1   6   0  149.69   13.20
   6   1   0  143.79   16.40
  -1   6   0  145.29   11.80
  -6  -1   0  137.19   12.10
  -6  -1   0  139.89   12.20
   6   1   0  142.79   11.90
  -6   0   0 2080.89  125.79
   6   0   0 2062.29  128.49
   6   0   0 2019.80  127.99
   0   6   0 1991.70  124.19
  -6   0   0 1893.11  125.29
   0   6   0 2115.29  124.29
   6  -1   0  136.59   16.70
  -6   1   0  144.09   12.80
   1   6   0  149.39   10.00
   6  -1   0  169.88   15.50
   1   6   0  147.59   10.20
  -6   1   0  123.29   12.50
  -6   1   0  138.09   14.40
  -6   2   0   49.40    7.70
  -6   2   0   78.99   11.20
  -6   2   0   60.69    8.50
  -2  -6   0   83.09    8.00
   6  -2   0   75.79   12.60
  -6   2   0   68.39    9.00
  -6   3   0  314.07   26.60
  -6   3   0  308.37   28.00
   6  -3   0  347.37   28.90
  -6   3   0  347.97   24.60
   3   6   0  340.97   21.50
  -6   3   0  376.06   24.60
   3   6   0  329.17   22.10
  -6   3   0  338.97   24.40
  -3  -6   0  318.17   22.50
  -6   4   0  569.84   40.10
   4   6   0  601.24   38.70
  -4  -6   0  580.74   38.80
  -6   4   0  609.44   43.60
  -6   4   0  585.54   40.80
  -6   4   0  587.34   44.90
  -6   4   0  652.63   40.80
   4   6   0  637.54   39.30
   5   6   0   48.20    7.90
  -5  -6   0   68.49    7.80
  -6   5   0   66.89    8.50
  -6   5   0   75.09   14.30
  -6   5   0   96.09   13.10
  -6   5   0   63.79    9.30
   5   6   0   62.29    7.70
  -6   5   0   70.89    8.80
  -6  -6   0 1235.48   77.79
  -6   6   0 1269.67   83.89
   6   6   0 1323.87   79.89
  -6   6   0 1232.58   78.49
  -6   6   0 1164.18   78.49
   6   6   0 1230.18   79.09
  -6   6   0 1213.78   82.69
   7   6   0 1007.20   65.39
  -6   7   0  962.60   63.69
  -6   7   0  997.10   63.39
  -7  -6   0 1050.39   63.69
  -6   7   0 1040.70   69.79
   7   6   0  967.00   65.89
  -6   7   0  909.31   67.79
  -7  -5   0   65.19    8.30
  -5   7   0   44.20    8.90
   7   5   0   64.99    9.70
   7   5   0   50.79   10.70
  -5   7   0   42.50   11.10
  -4   7   0 5758.12  342.47
  -7  -4   0 5651.63  339.67
   7   4   0 5284.17  341.87
   7   4   0 5673.83  342.17
  -4   7   0 5512.95  342.47
  -7  -3   0 1018.70   62.09
   7   3   0  944.61   64.59
  -3   7   0 1014.80   64.09
   7   3   0  923.51   65.19
  -7  -3   0  990.10   62.39
   7   3   0  922.11   60.69
  -3   7   0  975.50   64.29
   7   2   0  792.02   54.49
  -2   7   0  781.52   52.29
  -7  -2   0  827.62   52.19
  -2   7   0  847.72   53.19
  -7  -2   0  786.72   51.69
   7   2   0  717.73   54.89
   7   2   0  817.62   51.19
  -1   7   0  331.47   24.10
   7   1   0  368.36   24.80
  -7  -1   0  341.87   24.20
  -7  -1   0  351.46   24.50
   7   1   0  290.47   28.20
  -1   7   0  317.37   23.40
   7   1   0  338.17   26.80
   7   0   0    3.50    8.40
  -7   0   0    6.00    4.60
   0   7   0   13.30    3.20
   7   0   0   14.20    5.80
   0   7   0   10.50    4.00
  -7   0   0    0.60    3.90
  -7   1   0  351.46   27.20
  -7   1   0  341.87   24.50
   7  -1   0  354.56   27.50
   1   7   0  328.97   21.50
   7  -1   0  316.67   29.00
  -7   1   0  329.67   24.30
   1   7   0  311.27   21.20
  -7   2   0  803.72   54.09
  -7   2   0  879.01   54.29
   7  -2   0  826.62   58.29
  -7   2   0  803.22   56.69
  -2  -7   0  828.92   52.49
  -7   2   0  787.92   53.69
  -3  -7   0  993.20   63.89
  -7   3   0 1057.39   66.19
  -7   3   0  964.20   66.19
  -7   3   0  968.80   68.99
  -7   3   0 1131.79   66.49
  -7   4   0 5734.73  347.47
   4   7   0 5535.65  340.67
  -7   4   0 5759.02  343.47
  -7   4   0 5556.34  343.87
   4   7   0 5432.56  340.87
  -4  -7   0 5525.85  341.27
  -7   4   0 5858.41  343.67
  -7   5   0   59.39    8.90
  -7   5   0   67.99   11.90
   5   7   0   51.79    7.90
  -7   5   0   52.69    9.60
   5   7   0   59.09    6.90
  -5  -7   0   46.30    6.80
  -7   5   0   65.09    9.30
   6   7   0  984.10   64.79
  -7   6   0  915.11   64.49
  -7   6   0  996.40   64.59
  -6  -7   0 1035.50   63.29
   6   7   0 1035.10   64.29
  -7   6   0  985.90   69.39
  -7   6   0 1011.00   65.99
   7   7   0   48.80   10.10
  -7   7   0   62.89   11.70
   7   7   0   59.39    8.70
  -7  -7   0   53.89    7.90
  -7   7   0   45.80    8.10
  -7   7   0   60.79    8.90
  -7   8   0   31.50    9.80
   8   7   0   16.90    9.20
  -7   8   0   38.70    7.20
  -8  -7   0   32.80    6.90
  -6   8   0  394.36   32.70
  -8  -6   0  381.66   27.90
   8   6   0  385.46   31.80
   8   6   0  388.96   30.30
   8   5   0  344.37   25.90
  -5   8   0  274.77   25.70
  -5   8   0  269.87   28.00
  -8  -5   0  290.77   22.60
   8   5   0  318.57   27.20
   8   4   0   26.30    7.30
   8   4   0    8.00    8.90
  -4   8   0   12.30    8.30
  -8  -4   0   32.60    6.50
  -4   8   0   26.40    7.30
   8   3   0  244.98   18.30
  -8  -3   0  245.68   19.80
  -3   8   0  252.57   23.10
  -3   8   0  236.98   20.80
   8   3   0  252.77   22.60
   8   3   0  266.37   24.60
  -8  -3   0  235.48   19.60
  -2   8   0 2860.81  174.48
   8   2   0 3045.90  178.28
  -8  -2   0 2780.22  174.18
   8   2   0 2716.03  177.08
  -8  -2   0 2837.52  173.98
  -2   8   0 2663.93  174.18
  -8  -1   0  303.47   25.10
  -8  -1   0  320.87   25.60
   8   1   0  319.27   28.20
  -1   8   0  372.56   24.80
   8   1   0  319.37   30.50
  -1   8   0  383.26   25.40
   8   0   0 5309.07  334.87
   0   8   0 5624.74  329.67
  -8   0   0 5438.86  331.67
   0   8   0 5302.97  329.47
   8   0   0 5553.04  335.77
  -8   0   0 5315.87  331.57
   8  -1   0  308.57   32.10
   1   8   0  389.46   24.00
  -8   1   0  327.77   26.90
   1   8   0  372.76   23.40
  -8   1   0  345.37   26.70
  -2  -8   0 2752.12  174.18
  -8   2   0 2664.83  175.88
  -8   2   0 2775.32  176.28
  -8   2   0 3175.88  176.58
  -8   3   0  230.68   20.10
  -8   3   0  258.67   20.70
  -8   3   0  241.38   20.60
  -3  -8   0  252.07   17.90
  -8   4   0   21.10    6.50
  -8   4   0   19.30    6.20
  -4  -8   0   31.00    5.20
  -8   4   0   23.50    7.00
  -8   5   0  307.67   23.80
   5   8   0  268.97   21.40
  -8   5   0  281.87   22.80
  -5  -8   0  313.07   20.70
  -8   5   0  275.67   22.70
   6   8   0  377.26   27.90
  -8   6   0  364.66   27.90
  -8   6   0  361.46   27.80
  -8   6   0  379.26   29.20
  -8   7   0   16.50    6.10
  -8   7   0   15.40    6.10
   7   8   0   25.40    8.80
   8   8   0 3998.90  241.68
  -8   8   0 3886.51  240.38
  -8   8   0 3811.12  239.78
   9   8   0   45.60   12.30
   9   7   0   19.80   10.40
  -7   9   0   21.40    9.30
   9   6   0   30.20    7.90
   9   6   0   12.10    9.80
  -9  -6   0   27.70    7.20
  -6   9   0   25.20    8.40
   9   5   0   52.79   10.70
   9   5   0   53.99   12.50
  -5   9   0   59.39   10.90
  -5   9   0   52.59   12.60
  -9  -5   0   65.49    9.40
  -4   9   0 1880.31  121.59
   9   4   0 1899.81  123.39
  -4   9   0 1949.60  121.89
   9   4   0 1851.91  122.49
  -9  -4   0 1876.91  119.09
  -3   9   0    9.50    5.10
  -3   9   0   12.50    7.40
  -9  -3   0   15.20    6.10
   9   3   0   11.20    8.60
   9   3   0   21.70    7.70
  -9  -2   0  442.26   34.00
   9   2   0  550.64   40.50
  -9  -2   0  433.56   33.80
   9   2   0  441.16   40.80
  -2   9   0  513.05   35.10
  -2   9   0  483.55   34.20
  -1   9   0   68.29    8.60
  -9  -1   0   60.89    9.80
   9   1   0   60.89   13.80
  -1   9   0   87.69   10.70
  -9  -1   0   52.49    9.30
  -9   0   0    6.50    5.70
   0   9   0    5.50    2.80
  -9   0   0   -5.30    4.40
   9   0   0   11.90   10.40
   0   9   0    2.60    3.40
   1   9   0   66.69    6.10
  -9   1   0   68.39   10.40
   1   9   0   74.49    8.00
  -9   1   0   58.79   10.20
  -9   1   0   61.69   10.30
  -9   2   0  500.15   36.10
  -9   2   0  495.15   36.10
  -2  -9   0  536.95   34.10
  -9   2   0  453.85   36.00
  -9   3   0   16.50    6.30
  -9   3   0   20.90    7.10
  -9   3   0   22.50    7.10
  -9   4   0 2006.30  120.09
  -9   4   0 1811.82  119.29
  -9   4   0 1842.42  119.99
  -9   5   0   58.99   10.20
  -9   5   0   63.89   10.20
  -9   5   0   53.29   11.10
  -9   6   0   24.70    7.50
  -9   6   0   14.30    6.30
   6   9   0   10.80    7.10
  -9   6   0   16.40    7.40
   6   9   0   17.90    6.00
  -9   7   0   24.50    7.20
   7   9   0   17.90    8.10
  -9   7   0   26.70    7.40
   7   9   0    9.50    8.10
   8   9   0   50.69   11.30
  -9   8   0   70.39   11.00
  -9   8   0   95.49   11.90
   8   9   0   70.99   11.90
   9   9   0  341.77   29.40
   9   9   0  320.27   29.80
  10   9   0  358.66   35.00
  10   9   0  443.96   35.40
  10   8   0  311.47   31.20
  -7  10   0  612.34   49.50
  10   7   0  653.13   49.90
  -6  10   0  165.38   19.80
  10   6   0  108.79   18.70
 -10  -6   0  181.58   16.00
  -5  10   0  257.77   25.90
  10   5   0  295.57   30.00
  -5  10   0  245.88   27.30
 -10  -5   0  308.27   23.50
  10   5   0  322.27   28.10
  -4  10   0    3.70    7.20
  -4  10   0    9.80    6.10
  10   4   0    8.30    9.50
 -10  -4   0    7.90    5.80
  10   3   0   54.79   14.60
  -3  10   0   50.49   10.20
  -3  10   0   50.69    9.30
 -10  -3   0   42.60    8.80
  -2  10   0  369.56   29.30
  -2  10   0  367.66   28.80
 -10  -2   0  402.66   29.80
  10   2   0  421.46   36.40
  10   1   0  714.53   55.19
  -1  10   0  728.93   47.70
 -10  -1   0  711.13   49.10
 -10  -1   0  708.73   49.10
  -1  10   0  688.33   47.30
 -10   0   0 2134.99  129.99
 -10   0   0 1897.41  129.49
   0  10   0 2056.19  126.59
   0  10   0 2134.59  126.99
 -10   0   0 1992.40  129.59
 -10   1   0  784.52   51.69
 -10   1   0  730.83   51.49
 -10   1   0  720.53   51.59
 -10   2   0  414.86   31.20
 -10   2   0  390.56   31.10
 -10   2   0  411.66   31.70
 -10   3   0   45.80    9.60
 -10   3   0   48.00    9.80
 -10   3   0   61.39   10.70
 -10   4   0    4.90    5.90
 -10   4   0    1.90    5.70
 -10   4   0    7.70    6.40
 -10   5   0  221.48   21.90
 -10   5   0  284.57   23.80
 -10   5   0  272.87   22.80
 -10   6   0  146.49   16.50
 -10   6   0  135.19   15.80
 -10   6   0  120.19   16.40
   7  10   0  629.04   44.70
 -10   7   0  711.23   46.90
 -10   7   0  623.04   46.10
   7  10   0  666.63   43.00
   8  10   0  353.06   28.40
 -10   8   0  345.27   28.00
 -10   8   0  323.67   27.30
   8  10   0  344.57   26.50
   9  10   0  386.76   30.20
   9  10   0  349.67   31.30
  11   8   0   12.10   12.10
  11   7   0  373.16   36.90
  -7  11   0  370.96   34.60
  11   6   0  156.28   23.00
  -6  11   0  167.78   21.00
 -11  -6   0  211.58   18.40
  -5  11   0 2107.99  135.69
 -11  -5   0 2040.20  128.49
  11   5   0 1963.40  134.09
  -5  11   0 1996.40  131.89
 -11  -4   0  277.77   24.90
  -4  11   0  319.27   27.40
  -4  11   0  351.56   28.80
  11   4   0  269.67   32.40
 -11  -3   0 1604.54  106.09
  -3  11   0 1616.74  106.89
  -3  11   0 1687.73  107.19
  11   3   0 1708.13  113.09
  -2  11   0   25.10    8.20
 -11  -2   0   12.90    7.30
  -2  11   0   26.90    6.60
  -1  11   0  729.83   48.30
 -11  -1   0  662.23   49.80
  -1  11   0  729.03   47.90
 -11  -1   0  719.03   50.19
 -11   0   0   34.40    9.10
 -11   0   0   35.20    9.90
 -11   0   0   28.30    8.90
   0  11   0   42.60    6.00
   0  11   0   52.39    7.40
 -11   1   0  736.23   52.09
 -11   1   0  711.83   52.19
 -11   1   0  781.82   52.59
 -11   2   0   26.00    9.20
 -11   2   0   38.50    9.20
 -11   2   0   30.20    9.20
 -11   3   0 1526.35  105.09
 -11   3   0 1703.53  105.29
 -11   3   0 1621.84  105.19
 -11   4   0  247.38   22.00
 -11   4   0  202.78   21.30
 -11   4   0  244.38   22.90
 -11   5   0 1899.61  121.79
 -11   5   0 1892.01  120.99
 -11   5   0 1840.92  120.59
 -11   6   0  211.08   20.20
 -11   6   0  175.68   20.30
 -11   6   0  184.58   21.60
 -11   7   0  390.96   30.60
 -11   7   0  354.56   30.30
 -11   8   0   18.00    8.30
 -11   8   0   16.70    7.50
  -7  12   0 1283.27   88.89
  12   7   0 1218.88   89.29
  -6  12   0   10.50    7.70
  12   6   0    0.50   13.40
  -5  12   0   86.49   14.30
  12   5   0   51.29   17.60
 -12  -5   0   85.69   13.10
  -4  12   0    2.40    5.70
  12   4   0   -3.00   11.90
 -12  -4   0   -5.20    5.90
  -4  12   0    1.50    7.00
  -3  12   0   70.09   12.60
  -3  12   0   78.19   11.80
 -12  -3   0   84.09   13.30
 -12  -2   0   53.69   11.30
  -2  12   0   67.99   10.20
  -2  12   0   59.39   10.40
  -1  12   0 2355.16  142.99
  -1  12   0 2225.68  142.09
 -12  -1   0 2257.27  145.29
 -12   0   0  147.29   18.80
   0  12   0  160.88   14.80
   0  12   0  132.29   11.40
 -12   0   0  128.49   17.70
 -12   0   0  128.79   17.00
 -12   1   0 2731.63  156.68
 -12   1   0 2272.77  155.58
 -12   1   0 2356.86  155.68
 -12   2   0   71.49   12.10
 -12   2   0   32.40    9.40
 -12   2   0   71.09   12.60
 -12   3   0   77.69   13.20
 -12   3   0   77.89   13.70
 -12   3   0   86.39   14.10
 -12   4   0   -4.30    6.00
 -12   4   0    1.20    7.70
 -12   4   0    3.70    7.10
 -12   5   0   57.69   12.60
 -12   5   0   72.99   12.80
 -12   5   0   80.69   13.60
 -12   6   0    8.10    7.60
 -12   6   0   21.30    9.00
 -12   7   0 1338.97   86.69
 -12   7   0 1245.18   85.89
  -5  13   0  174.98   21.00
  -4  13   0  128.39   17.10
 -13  -4   0  105.29   16.00
  -4  13   0  124.29   17.70
 -13  -3   0 1012.70   69.19
  -3  13   0  996.70   68.99
  -3  13   0 1016.90   68.89
 -13  -2   0  225.68   22.10
  -2  13   0  219.08   20.30
  -2  13   0  202.78   19.10
 -13  -1   0   60.19   12.10
  -1  13   0   46.90    7.40
  -1  13   0   54.29    9.20
 -13   0   0   11.70    8.60
 -13   1   0   29.60    9.90
 -13   1   0   53.49   12.10
 -13   1   0   29.40   10.10
 -13   2   0  227.08   21.90
 -13   2   0  189.18   22.00
 -13   2   0  174.28   21.20
 -13   3   0  928.51   68.89
 -13   3   0 1104.19   69.59
 -13   3   0  934.11   68.59
 -13   4   0  101.39   17.00
 -13   4   0  120.29   17.20
 -13   4   0  111.79   16.70
 -13   5   0  230.28   23.40
 -13   5   0  228.18   25.50
   0   0  -1    2.60    2.50
   0   0  -1    1.10    4.00
   0   0  -1    2.10    2.50
   0   0   1   10.10    4.30
   0   0   1    1.20    1.90
   0   0   1    1.00    2.60
   1   0  -1    4.70    2.20
   1   0  -1    9.60    2.20
   1   0  -1    5.00    2.40
   0  -1  -1    7.00    1.20
  -1   0  -1   11.90    3.50
   0   1  -1    7.00    5.00
  -1   0  -1    8.10    2.10
   0   1  -1    5.50    2.50
  -1   0  -1   11.60    1.80
  -1   0  -1    6.10    1.60
  -1   0   1    3.40    2.20
   0   1   1    5.60    1.20
   0  -1   1    2.00    2.20
  -1   0   1   12.00    2.40
   1   0   1    8.40    3.40
   0   1   1   12.00    3.70
   1   0   1    4.60    2.00
   1   0   1    8.90    1.80
  -1   0   1    4.50    1.80
  -1   0   1    7.50    2.00
   0   1   1    6.30    2.00
   1   0   1    6.30    1.60
   0   1   1    5.70    1.20
  -1  -1  -1   15.70    1.80
  -1   1  -1   10.80    2.70
   1   1  -1    9.90    2.60
  -1   1  -1   13.20    2.30
   1   1  -1   12.10    2.60
  -1   1  -1    9.00    2.20
  -1   1  -1   11.40    4.00
   1  -1  -1    5.70    2.90
  -1  -1  -1   13.50    1.70
  -1  -1  -1   16.70    1.60
   1   1   1   14.50    2.20
  -1  -1   1    9.30    3.00
   1  -1   1   13.70    3.00
   1   1   1   10.20    2.70
  -1   1   1   14.80    2.40
  -1   1   1   14.70    2.90
   1   1   1    8.70    1.40
  -1   1   1   12.10    2.40
   1   1   1   13.80    3.60
  -1  -1   1   11.30    3.20
  -1   1   1   10.60    3.00
   1   1   1   10.30    1.50
   2   1  -1   50.99    6.30
   2   1  -1   70.19    6.60
   2   1  -1   63.49    5.60
  -2  -1  -1   57.59    4.80
  -1   2  -1   54.09    6.10
  -2  -1  -1   55.49    4.90
  -1   2   1   52.39    4.90
  -2  -1   1   57.79    5.70
  -1   2   1   61.79    4.70
   2   1   1   49.90    4.70
  -1   2   1   59.29    6.00
  -1   2   1   44.30    5.70
  -2  -1   1   64.99    6.10
   2   1   1   45.90    6.20
  -2   0  -1   10.00    2.70
   2   0  -1   19.00    4.00
   2   0  -1    8.10    3.20
   0  -2  -1   15.60    1.70
   0   2  -1   18.40    6.50
  -2   0  -1   10.30    2.60
   0   2  -1   13.80    2.90
  -2   0  -1   10.10    3.10
  -2   0  -1    8.60    2.70
   0   2   1   14.50    2.40
   0   2   1   13.80    3.10
   0   2   1   15.70    1.70
  -2   0   1   12.00    3.40
  -2   0   1    8.40    3.30
   2   0   1    6.60    3.40
  -2   0   1    4.50    2.90
   2  -1  -1   45.50    6.40
  -2   1  -1   67.59    7.50
  -2   1  -1   54.29    5.70
  -2   1  -1   55.39    5.80
  -2   1  -1   53.29    5.70
   1   2  -1   68.19    7.70
   1   2   1   55.69    6.40
  -2   1   1   78.09    7.90
   2  -1   1   73.99    8.60
  -2   1   1   58.69    6.90
  -2   1   1   57.09    5.90
  -2   1   1   47.30    5.60
   2   2  -1  443.46   28.30
  -2   2  -1  399.16   27.80
  -2  -2  -1  427.46   27.10
  -2   2  -1  442.46   27.90
   2   2  -1  497.95   28.90
  -2   2  -1  431.06   29.20
  -2   2   1  447.06   29.40
  -2   2   1  434.06   28.00
  -2   2   1  463.85   27.90
  -2  -2   1  416.46   28.20
  -2   2   1  420.66   29.00
  -2  -2   1  459.05   28.80
   2   2   1  405.76   27.90
  -3  -2  -1  645.34   40.50
   3   2  -1  652.03   42.20
   3   2  -1  659.13   42.10
  -2   3  -1  674.03   42.60
   3   2  -1  623.04   40.90
  -3  -2  -1  653.33   40.50
  -2   3  -1  659.53   40.90
  -2   3  -1  625.54   40.80
  -2   3   1  611.44   42.00
  -2   3   1  657.93   41.10
  -3  -2   1  683.63   41.50
  -3  -2   1  674.13   41.00
   3   2   1  640.74   41.90
   3   2   1  698.33   41.80
  -2   3   1  636.24   40.60
  -2   3   1  630.94   40.70
  -2   3   1  657.33   42.70
   3   2   1  649.04   39.90
   3   1  -1   15.60    4.70
   3   1  -1   24.20    3.60
  -3  -1  -1   24.70    3.50
  -3  -1  -1   21.40    3.30
  -1   3  -1   12.00    3.40
   3   1  -1   20.80    4.40
  -1   3   1   18.20    1.90
   3   1   1   17.90    4.50
  -3  -1   1   23.40    4.00
  -1   3   1   12.40    3.00
  -1   3   1   12.50    2.80
  -1   3   1   16.80    2.30
   3   1   1   20.70    3.10
   3   1   1   22.70    4.20
  -1   3   1   10.00    3.40
  -3  -1   1   28.20    4.10
   0   3  -1  812.42   49.99
  -3   0  -1  798.42   49.10
   3   0  -1  779.22   50.59
  -3   0  -1  739.43   49.00
  -3   0  -1  813.52   49.10
   0   3  -1  760.92   48.90
   3   0  -1  811.62   50.69
  -3   0  -1  817.92   50.39
  -3   0   1  772.72   49.40
   0   3   1  721.53   48.60
   3   0   1  786.62   50.59
  -3   0   1  780.82   49.20
  -3   0   1  840.02   50.69
   0   3   1  780.22   48.60
  -3   1  -1   25.00    3.90
  -3   1  -1   16.80    4.30
  -3   1  -1   25.20    4.00
  -1  -3  -1   14.80    2.00
  -3   1  -1   18.70    4.00
   3  -1  -1   13.90    5.20
  -3   1  -1   22.80    4.90
   3  -1  -1   22.70    5.20
   1   3  -1   11.30    4.90
  -3   1   1   20.70    3.90
  -3   1   1   21.80    4.80
   3  -1   1   17.00    5.10
   1   3   1   18.60    2.90
  -3   1   1   23.50    4.00
   1   3   1   22.70    5.20
  -3   1   1   23.00    5.70
   3  -2  -1  665.83   44.70
   2   3  -1  689.93   42.80
  -3   2  -1  751.62   42.90
  -3   2  -1  673.43   44.40
  -3   2  -1  706.43   42.80
   2   3  -1  672.43   42.60
  -2  -3  -1  651.93   41.40
  -3   2  -1  652.43   44.60
  -3   2   1  728.93   42.80
   2   3   1  625.84   41.90
   3  -2   1  715.83   44.90
  -3   2   1  662.93   44.80
  -3   2   1  636.44   44.10
  -2  -3   1  661.23   42.90
  -3   2   1  653.43   42.80
  -3   3  -1  779.12   51.49
  -3   3  -1  719.13   49.50
   3   3  -1  805.62   50.09
  -3   3  -1  814.62   49.70
  -3   3  -1  829.22   52.09
  -3  -3  -1  786.02   48.70
  -3   3   1  726.73   51.89
  -3   3   1  818.42   49.70
  -3  -3   1  774.92   49.70
  -3   3   1  791.72   51.29
  -3   3   1  788.12   49.80
  -3   3   1  835.32   49.70
   3   3   1  777.72   49.80
  -3   4  -1   22.90    4.00
  -3   4  -1   23.10    4.10
  -3   4  -1   13.80    5.00
  -3   4  -1   18.50    5.00
  -4  -3  -1   11.90    3.10
   4   3  -1   11.70    3.80
  -3   4   1   16.80    3.30
   4   3   1   11.50    5.10
   4   3   1   11.70    3.50
  -4  -3   1    9.80    3.80
  -3   4   1   25.30    4.50
  -3   4   1   19.50    4.80
  -3   4   1   10.40    6.60
  -4  -3   1   15.20    3.50
  -3   4   1   20.50    3.70
   4   2  -1  162.98   13.70
  -4  -2  -1  154.98   11.70
  -2   4  -1  190.08   13.90
   4   2  -1  158.78   11.90
   4   2  -1  115.49   14.30
  -2   4  -1  174.28   14.50
  -4  -2  -1  147.09   11.60
   4   2   1  165.28   13.40
  -2   4   1  179.58   13.30
  -4  -2   1  162.88   12.20
   4   2   1  157.88   11.30
  -2   4   1  120.29   15.20
  -4  -2   1  164.28   12.60
  -2   4   1  175.28   11.10
  -2   4   1  175.28   12.10
   4   2   1  156.58   15.30
  -2   4   1  161.08   11.20
  -4  -1  -1  249.08   18.30
   4   1  -1  258.37   20.90
  -4  -1  -1  271.57   18.50
   4   1  -1  287.17   20.60
  -1   4  -1  276.07   19.40
   4   1  -1  281.97   18.70
   4   1   1  289.07   18.40
  -4  -1   1  277.17   19.30
  -1   4   1  276.87   19.90
   4   1   1  270.47   21.50
  -1   4   1  286.57   18.90
  -4  -1   1  272.27   18.90
   4   1   1  237.08   19.80
   4   0  -1   -3.40    4.40
   4   0  -1    4.80    3.70
  -4   0  -1    4.40    6.40
  -4   0  -1    2.40    3.00
  -4   0  -1    2.70    2.70
  -4   0  -1    1.10    2.70
   0   4  -1    6.90    2.70
   0   4   1    3.90    1.80
   4   0   1    0.20    3.10
   0   4   1    5.10    2.70
  -4   0   1    0.00    3.00
   4   0   1   -0.50    5.90
  -4   0   1   -1.40    2.90
  -4   0   1    0.10    3.20
   4  -1  -1  286.77   21.20
  -4   1  -1  281.07   19.40
  -4   1  -1  266.97   19.20
   1   4  -1  285.37   19.90
   4  -1  -1  266.67   21.90
  -4   1  -1  264.97   19.10
  -4   1  -1  307.07   21.40
  -4   1   1  267.77   20.80
  -4   1   1  275.27   19.20
   1   4   1  272.07   17.50
   4  -1   1  343.17   23.60
   1   4   1  242.68   18.80
  -2  -4  -1  161.08   10.60
  -4   2  -1  133.79   12.20
   2   4  -1  181.78   12.10
   2   4  -1  118.19   13.10
  -4   2  -1  163.18   12.60
  -4   2  -1  193.78   16.80
  -4   2  -1  151.88   14.40
  -4   2   1  157.18   12.50
  -4   2   1  168.08   13.10
   2   4   1  169.98   10.90
  -2  -4   1  161.58   13.20
  -4   2   1  151.18   14.10
  -3  -4  -1   21.90    3.00
  -4   3  -1   12.50    5.10
  -4   3  -1   13.10    6.30
  -4   3  -1   11.20    3.80
   3   4  -1   16.00    3.40
  -4   3  -1   16.50    4.40
  -4   3  -1   13.80    4.00
  -4   3   1   16.00    4.10
   3   4   1   18.30    3.80
  -3  -4   1   28.00    4.60
  -4   3   1   13.90    4.90
  -4   3   1   23.60    7.90
  -4   3   1   12.70    4.20
  -4   4  -1  134.19   13.90
  -4   4  -1  162.18   12.00
   4   4  -1  162.38   12.30
  -4  -4  -1  146.69   10.60
  -4   4  -1  125.09   15.20
   4   4  -1  122.99   13.50
  -4   4  -1  157.18   11.90
  -4   4   1  152.78   12.50
  -4   4   1  142.59   11.50
  -4   4   1  133.49   11.70
  -4   4   1  151.08   13.80
   4   4   1  106.29   12.80
  -4   4   1  138.29   15.40
  -4  -4   1  150.18   12.00
   4   4   1  142.69   11.60
   5   4  -1   10.40    5.60
   5   4  -1    6.60    3.80
  -4   5  -1    6.00    3.60
  -4   5  -1    7.50    4.60
  -5  -4  -1    9.00    3.30
  -4   5  -1   10.60    3.80
  -4   5   1   12.20    4.80
   5   4   1    3.30    5.60
  -4   5   1    1.10    2.90
   5   4   1   11.20    3.80
  -5  -4   1    9.50    4.10
  -4   5   1    2.20    3.10
  -4   5   1   10.20    4.50
   5   3  -1   79.19    9.60
  -3   5  -1   74.29   10.10
  -5  -3  -1   74.49    7.40
  -3   5  -1   95.59   10.30
   5   3  -1   73.59   10.10
   5   3  -1   71.79    7.70
  -5  -3  -1   80.99    7.70
  -3   5   1   90.79    7.70
  -5  -3   1   82.69    9.10
  -3   5   1   93.59    7.40
  -5  -3   1   73.09    8.10
  -3   5   1   91.19    8.50
   5   3   1   74.79   10.90
   5   3   1   86.09    9.40
  -3   5   1   93.59    9.90
  -2   5  -1   41.60    6.70
  -5  -2  -1   43.50    5.70
   5   2  -1   35.00    6.70
   5   2  -1   42.10    7.60
  -5  -2  -1   35.80    5.10
   5   2  -1   31.30    4.90
  -2   5  -1   34.40    6.00
  -5  -2   1   44.10    6.40
  -5  -2   1   36.60    5.60
  -2   5   1   36.90    5.80
   5   2   1   42.10    6.60
  -2   5   1   45.80    8.00
   5   2   1   42.00    4.90
   5   2   1   46.20    8.50
   5   1  -1   35.60    5.20
   5   1  -1   27.00    7.10
  -5  -1  -1   24.30    4.60
  -5  -1  -1   25.20    4.80
  -1   5  -1   50.99    6.30
   5   1  -1   31.20    6.30
  -5  -1   1   28.90    5.10
   5   1   1   32.60    4.90
  -1   5   1   52.99    6.60
  -1   5   1   46.40    5.50
   5   1   1   31.40    6.00
  -5  -1   1   40.20    6.20
   5   1   1   28.70    7.60
  -5   0  -1 2816.82  159.88
   0   5  -1 2555.54  159.28
   0   5  -1 2648.94  159.18
  -5   0  -1 2403.86  159.38
   5   0  -1 2591.84  161.98
   5   0  -1 2733.53  162.08
  -5   0  -1 2486.05  159.48
   0   5   1 2575.04  158.68
   0   5   1 2576.14  158.58
  -5   0   1 2589.64  159.98
   5   0   1 2737.83  161.88
   5   0   1 2604.94  162.18
  -5   0   1 2548.84  159.68
  -5   1  -1   38.60    5.90
   5  -1  -1   30.50    6.60
  -5   1  -1   36.20    5.80
  -5   1  -1   32.90    5.70
  -5   1  -1   33.70    6.60
   1   5  -1   48.80    6.10
   5  -1  -1   33.70    8.40
  -5   1   1   21.70    5.70
  -5   1   1   32.40    6.00
   1   5   1   37.50    4.50
   5  -1   1   32.70   10.80
   1   5   1   48.30    3.70
  -5   1   1   27.30    5.50
  -5   2  -1   46.80    6.80
   2   5  -1   37.40    7.40
  -5   2  -1   29.30    6.90
   2   5  -1   41.60    5.40
  -5   2  -1   45.10    6.50
   5  -2  -1   46.40    9.20
  -5   2  -1   36.30    5.90
  -2  -5  -1   52.09    4.40
  -5   2   1   47.70    6.60
  -5   2   1   49.80    8.40
   5  -2   1   50.69   11.00
  -2  -5   1   48.50    7.20
  -5   2   1   42.70    9.10
  -5   2   1   47.90    7.10
  -5   3  -1   88.49    8.80
  -5   3  -1   84.69   12.20
  -5   3  -1   78.29    9.10
  -3  -5  -1   95.89    6.70
  -5   3  -1   76.89   11.00
   3   5  -1   87.19    7.60
  -5   3  -1   66.69    8.50
   3   5  -1   92.49    9.50
   5  -3  -1   94.19   12.90
  -5   3   1   69.99    9.00
  -3  -5   1   85.79    8.70
  -5   3   1   67.09    8.40
  -5   3   1   81.29   12.20
   5  -3   1   93.79   13.70
  -5   3   1   54.09    9.00
  -5   4  -1   13.60    4.30
  -4  -5  -1    7.00    2.70
  -5   4  -1    5.80    4.70
  -5   4  -1    7.00    3.90
  -5   4  -1    6.50    4.30
   4   5  -1    6.50    2.90
   4   5   1    7.90    4.60
  -5   4   1   14.80    5.40
  -5   4   1    8.50    4.80
  -5   4   1    6.60    4.10
  -5   4   1    5.80    7.90
  -4  -5   1   20.30    4.50
  -5   4   1    7.10    3.70
   5   5  -1   66.49   10.30
  -5   5  -1   70.39    9.00
   5   5  -1  103.29    9.90
  -5   5  -1   72.69   10.90
  -5   5  -1   77.09    9.00
  -5  -5  -1   97.89    8.10
  -5   5   1  104.19    9.70
  -5   5   1   89.19    9.30
  -5   5   1   74.69   13.20
  -5   5   1   80.69   11.30
  -5   5   1   96.79   10.60
  -5  -5   1   93.69    9.30
   5   5   1   68.79    9.60
  -5   6  -1   23.50    5.70
  -5   6  -1   30.10    9.20
   6   5  -1   11.20    7.10
  -5   6  -1   25.00    7.20
  -5   6  -1   28.80    5.50
  -6  -5  -1   21.20    4.70
   6   5  -1   26.20    6.10
  -5   6   1   29.50    5.40
   6   5   1   12.90    6.40
  -5   6   1   34.70    5.90
  -6  -5   1   10.50    4.80
  -5   6   1   32.90    7.70
  -5   6   1   20.90    9.10
  -5   6   1   31.90    6.80
  -6  -4  -1   65.09    7.30
   6   4  -1   57.29   10.00
  -4   6  -1   48.10    9.80
   6   4  -1   71.29    9.50
  -6  -4  -1   69.99    7.60
  -4   6  -1   46.00    8.50
  -4   6   1   47.00    8.60
  -6  -4   1   64.79    7.70
   6   4   1   55.69    8.30
  -6  -4   1   73.49    8.70
  -4   6   1   54.09    6.70
   6   4   1   72.79   10.70
  -4   6   1   64.49    6.80
  -4   6   1   56.99   11.60
  -4   6   1   45.50    7.40
   6   3  -1    6.70    3.50
  -6  -3  -1   10.80    3.70
  -3   6  -1    8.70    4.50
  -6  -3  -1    5.60    3.80
  -3   6  -1   29.10    7.00
   6   3  -1    7.30    4.50
   6   3  -1    7.60    6.30
   6   3   1   12.50    2.80
  -6  -3   1   10.40    4.80
  -3   6   1   10.10    6.90
  -6  -3   1    7.00    3.90
   6   3   1    8.20    4.60
  -3   6   1    3.10    3.70
   6   3   1    2.00    7.40
  -6  -2  -1   52.49    6.80
   6   2  -1   54.69    8.40
   6   2  -1   36.60    8.30
  -2   6  -1   48.20    7.30
  -6  -2  -1   47.60    6.60
  -2   6  -1   53.29    8.00
   6   2  -1   56.19    6.60
   6   2   1   49.30    6.10
   6   2   1   51.49    7.90
   6   2   1   51.39   11.50
  -6  -2   1   47.40    6.90
  -6  -2   1   54.19    7.80
  -2   6   1   48.70    7.30
   6   1  -1  205.98   20.10
  -1   6  -1  207.28   16.30
  -6  -1  -1  205.28   16.30
   6   1  -1  207.18   18.60
  -6  -1  -1  211.68   16.20
   6   1   1  207.48   22.00
  -1   6   1  235.58   17.70
  -1   6   1  214.68   16.00
   6   1   1  227.38   16.10
   6   1   1  207.58   18.40
  -6  -1   1  220.88   16.70
  -6  -1   1  198.68   16.60
  -6   0  -1   18.80    4.90
   0   6  -1   25.50    4.50
   6   0  -1   16.00    5.60
   6   0  -1    8.60    6.30
  -6   0  -1   14.90    4.40
  -6   0  -1   12.40    4.20
   0   6   1   22.80    3.60
  -6   0   1   13.90    4.70
  -6   0   1    8.90    4.50
   6   0   1   12.70    5.20
   6   0   1   13.10    9.20
   1   6  -1  210.28   16.80
   6  -1  -1  216.18   19.20
  -6   1  -1  216.08   16.60
  -6   1  -1  182.48   16.20
  -6   1  -1  222.68   16.70
   6  -1  -1  202.38   20.20
   1   6  -1  226.88   16.30
  -6   1  -1  192.28   18.20
   1   6   1  214.28   14.20
   6  -1   1  193.18   22.20
  -6   1   1  216.88   16.90
   1   6   1  209.28   13.80
  -6   1   1  209.18   18.60
  -6   1   1  216.88   16.70
   6  -2  -1   47.10   10.30
  -2  -6  -1   47.80    5.00
  -6   2  -1   60.29    8.40
   2   6  -1   48.70    6.10
  -6   2  -1   47.60    7.00
  -6   2  -1   54.59    9.50
  -6   2  -1   69.99    8.60
   6  -2   1   52.69   12.30
  -6   2   1   66.99    8.80
  -2  -6   1   49.99    8.10
  -6   2   1   51.89    7.50
  -6   2   1   43.00    8.00
  -6   3  -1    6.70    4.30
   3   6  -1   11.40    2.80
  -6   3  -1   -1.20    3.80
  -6   3  -1    0.90    4.20
  -6   3  -1    6.90    9.40
   3   6  -1    0.80    5.60
  -3  -6  -1    9.90    2.60
   6  -3  -1   11.90    8.40
  -6   3  -1    8.00    4.10
  -6   3   1    8.00    4.60
  -6   3   1    6.60    9.10
   3   6   1    8.30    3.90
  -6   3   1   14.20    5.00
  -3  -6   1    9.70    4.50
   6  -3   1   10.70   10.10
  -6   3   1    4.50    4.40
  -6   4  -1   61.79   10.60
   4   6  -1   60.19    8.70
  -6   4  -1   60.79    8.30
   4   6  -1   51.39    6.80
  -4  -6  -1   57.59    6.00
  -6   4  -1   60.19    9.10
  -6   4  -1   61.79    8.50
  -6   4  -1   82.99   15.20
  -6   4   1   57.29   10.30
  -6   4   1   59.99   12.70
  -4  -6   1   40.80    7.20
  -6   4   1   62.09    8.60
  -6   4   1   54.49    8.50
   4   6   1   84.09    8.20
  -6   4   1   54.39    8.10
   4   6   1   88.99   10.40
   5   6  -1   19.30    7.00
  -5  -6  -1   31.40    4.50
  -6   5  -1   17.60    9.30
  -6   5  -1   24.90    5.80
   5   6  -1   33.50    5.60
  -6   5  -1   12.40    6.30
  -6   5  -1   16.60    5.50
   5   6   1   10.20    5.30
  -6   5   1   12.30    4.80
  -6   5   1   26.20    7.30
  -5  -6   1   27.60    5.70
  -6   5   1   10.30    5.20
  -6   5   1   15.00    5.60
  -6   5   1   13.60   10.20
   6   6  -1  280.17   22.30
  -6   6  -1  321.17   22.10
   6   6  -1  294.67   24.80
  -6  -6  -1  292.47   20.40
  -6   6  -1  305.37   22.30
  -6   6  -1  261.57   25.10
  -6   6  -1  285.07   27.60
  -6   6   1  292.27   21.70
  -6   6   1  291.37   29.20
   6   6   1  288.67   23.00
  -6   6   1  291.47   25.70
  -6   6   1  302.17   23.10
  -6  -6   1  291.07   21.70
  -6   6   1  281.67   21.80
  -6   7  -1    5.20    8.70
   7   6  -1   11.00    8.10
  -7  -6  -1    7.20    3.90
   7   6  -1   12.70    5.20
  -6   7  -1    2.70    5.30
  -6   7   1  -19.80    7.90
  -6   7   1   10.20    4.60
  -6   7   1   10.50    6.00
  -7  -6   1    4.20    4.50
  -6   7   1   12.40    4.60
   7   6   1    6.00    6.10
   7   5  -1   10.20    8.20
  -5   7  -1   14.60    6.40
   7   5  -1   13.90    5.70
  -5   7  -1   17.70    8.30
  -7  -5  -1   20.00    5.10
  -5   7   1   19.40    4.70
  -7  -5   1   15.50    5.40
  -5   7   1   22.70    7.50
  -5   7   1   20.80    4.60
  -5   7   1    9.90    8.90
   7   5   1   17.80    7.70
  -4   7  -1   16.40    7.70
  -4   7  -1   25.90    7.10
   7   4  -1   20.40    8.50
  -7  -4  -1   26.10    5.60
   7   4  -1   21.70    6.50
  -7  -4   1   22.00    6.10
  -4   7   1   25.00    6.70
   7   4   1   29.50    7.00
   7   4   1   18.10    8.30
  -4   7   1   28.40    9.80
   7   3  -1  142.09   15.40
  -7  -3  -1  132.19   12.50
   7   3  -1  145.69   12.40
   7   3  -1  133.19   17.30
  -7  -3  -1  143.39   12.70
  -3   7  -1  171.18   15.30
  -3   7  -1  157.08   16.10
  -7  -3   1  151.08   13.10
   7   3   1  143.29   15.10
  -3   7   1  158.38   17.60
  -3   7   1  142.09   14.30
   7   3   1  137.89   17.30
   7   3   1  142.29   11.40
  -7  -3   1  145.99   14.00
   7   2  -1   19.40    8.30
  -2   7  -1   22.70    6.50
  -7  -2  -1   23.40    5.20
   7   2  -1   22.80    5.00
   7   2  -1   26.30    7.00
  -2   7  -1   20.60    5.50
  -7  -2  -1   18.10    5.30
  -2   7   1   24.00    5.50
  -7  -2   1   30.70    6.10
   7   2   1    6.70    9.90
  -7  -2   1   19.00    5.60
   7   2   1   34.80    7.50
   7   2   1   25.20    5.00
  -1   7  -1  252.57   19.70
   7   1  -1  253.27   24.40
   7   1  -1  286.47   23.40
  -7  -1  -1  272.47   20.10
  -1   7  -1  258.97   20.20
  -7  -1  -1  284.27   20.30
  -1   7   1  231.88   20.50
  -1   7   1  236.58   19.10
   7   1   1  291.67   23.00
  -7  -1   1  272.27   20.60
  -7  -1   1  272.17   20.20
   7   1   1  241.48   26.30
   7   1   1  309.07   20.30
  -7   0  -1   44.80    7.00
   0   7  -1   41.10    6.10
  -7   0  -1   46.20    7.50
   7   0  -1   67.29   10.90
  -7   0  -1   49.10    7.40
   7   0   1   39.30    8.30
  -7   0   1   55.29    8.30
   7   0   1   43.20   12.40
   0   7   1   36.40    6.20
   0   7   1   39.60    5.30
  -7   0   1   43.10    7.10
  -7   1  -1  257.37   20.70
   7  -1  -1  246.28   23.20
   7  -1  -1  273.77   25.90
  -7   1  -1  313.17   21.30
  -7   1  -1  278.27   23.40
   1   7  -1  241.08   19.50
  -7   1  -1  283.77   20.90
   1   7  -1  278.77   20.30
  -7   1   1  284.37   23.50
  -7   1   1  271.97   21.00
   1   7   1  241.28   17.50
   1   7   1  301.47   18.10
  -7   1   1  267.07   21.20
   7  -1   1  274.87   27.40
   2   7  -1   22.90    6.20
  -7   2  -1   19.30    6.70
  -2  -7  -1   20.20    3.70
  -7   2  -1   26.00    6.30
   2   7  -1   21.40    4.40
  -7   2  -1   33.70    6.70
  -7   2  -1   31.70    6.40
   7  -2  -1   20.20    9.10
   7  -2   1   29.10   10.70
  -7   2   1   25.40    6.50
  -2  -7   1   21.40    6.60
  -7   2   1   30.10    6.50
  -7   2   1   29.80    7.80
  -7   3  -1  152.28   14.60
   3   7  -1  150.48   17.20
  -7   3  -1  136.59   14.20
  -7   3  -1  146.09   17.00
   3   7  -1  173.48   12.00
  -7   3  -1  141.99   14.50
  -3  -7  -1  177.58   11.60
  -7   3   1  141.09   15.20
  -7   3   1  158.68   15.00
  -7   3   1  182.58   18.00
  -3  -7   1  163.38   14.10
  -7   3   1  168.08   15.10
  -7   4  -1   21.50    6.40
  -4  -7  -1   25.90    3.90
   4   7  -1   17.20    7.00
   4   7  -1   23.90    4.30
  -7   4  -1   13.40    6.50
  -7   4  -1   28.70    6.70
  -7   4  -1   15.40    6.50
  -7   4   1   22.10    6.60
  -7   4   1   26.60    7.60
   4   7   1   24.50    4.20
  -7   4   1   17.60    5.80
   4   7   1   31.00    5.40
  -7   4   1   27.40    7.00
  -4  -7   1   24.10    5.60
  -7   5  -1   22.40    8.00
   5   7  -1   19.10    4.40
  -5  -7  -1   20.90    4.00
   5   7  -1   18.50    7.20
  -7   5  -1   11.80    5.60
  -7   5  -1   15.20    5.60
  -7   5   1   21.00    8.00
  -5  -7   1   22.00    5.80
  -7   5   1   10.60    6.30
   5   7   1   10.10    4.90
  -7   5   1   21.60    5.70
  -7   5   1   14.20    5.90
   5   7   1   18.90    6.10
  -7   6  -1   14.20    5.40
  -7   6  -1    6.70    6.10
   6   7  -1    8.60    4.10
   6   7  -1   10.20    7.80
  -7   6  -1    8.40    5.10
  -6  -7  -1   12.70    3.80
  -7   6   1    5.00    5.60
  -7   6   1    5.30    4.60
   6   7   1    9.50    7.10
  -6  -7   1    8.30    4.80
  -7   6   1    0.70    5.40
   6   7   1    1.40    5.10
  -7   6   1   14.20    5.20
  -7   7  -1   53.19   11.80
   7   7  -1   49.30    8.40
  -7  -7  -1   48.00    7.80
  -7   7  -1   51.99    8.60
   7   7  -1   34.90   10.00
  -7   7  -1   52.99    8.50
  -7   7   1   52.79   11.10
  -7   7   1   44.30    8.70
  -7   7   1   48.20    7.70
  -7  -7   1   41.90    7.60
  -7   7   1   46.50    8.20
   7   7   1   41.70    8.90
   8   7  -1  134.99   14.20
   8   7  -1  110.69   16.10
  -7   8  -1   64.79   13.50
  -7   8   1  106.59   12.10
  -8  -7   1  145.39   13.20
  -7   8   1   99.59   16.10
   8   7   1  118.89   15.00
  -7   8   1   97.19   11.30
   8   6  -1   29.00    7.60
   8   6  -1   16.80    9.90
  -8  -6  -1   37.10    6.50
  -6   8  -1   31.60    9.40
   8   6   1   27.80    8.90
  -6   8   1   37.80    6.50
  -8  -6   1   25.80    6.80
  -6   8   1   18.80    7.90
  -5   8  -1   68.99   12.80
  -8  -5  -1   87.29   10.00
  -5   8  -1   79.39   12.20
   8   5  -1   93.49   13.00
  -5   8   1   79.79   14.60
  -5   8   1   75.79   12.10
  -8  -5   1  100.69   11.80
   8   5   1   85.29   13.60
  -8  -3  -1  386.06   27.60
   8   3  -1  392.56   27.90
  -3   8  -1  422.16   30.00
  -3   8  -1  407.16   30.30
   8   3  -1  372.76   30.90
   8   3  -1  340.67   32.10
  -8  -3   1  403.76   28.30
  -3   8   1  371.76   29.10
   8   3   1  383.56   26.20
  -8  -3   1  378.26   28.40
  -3   8   1  390.76   30.90
  -8  -2  -1  257.47   18.80
  -2   8  -1  234.28   19.50
   8   2  -1  172.78   22.50
   8   2  -1  224.88   21.40
  -8  -2  -1  230.18   18.30
  -2   8  -1  227.58   18.90
   8   2   1  224.68   24.00
  -8  -2   1  222.88   19.20
   8   2   1  201.08   20.60
  -2   8   1  219.08   20.20
  -8  -2   1  242.58   18.70
  -2   8   1  230.58   18.60
  -1   8  -1   18.90    5.60
  -1   8  -1   18.40    4.80
  -8  -1  -1   17.40    5.70
   8   1  -1   19.70    6.80
  -8  -1  -1   13.10    5.40
   8   1  -1   11.90    8.60
  -8  -1  -1   15.70    5.90
  -1   8   1   17.60    5.90
  -8  -1   1   20.70    6.00
  -8  -1   1   21.60    6.90
  -1   8   1   16.50    4.30
   8   1   1   17.80   10.60
  -8   0  -1   48.20    8.30
  -8   0  -1   46.70    8.10
  -8   0  -1   41.50    8.30
   8   0  -1   45.60    9.60
  -8   0   1   40.60    8.10
   8   0   1   51.39   13.60
   0   8   1   80.79    9.20
  -8   0   1   39.80    7.70
  -8   1  -1   17.90    6.60
  -8   1  -1   13.20    5.80
  -8   1  -1   14.00    5.50
   1   8  -1   20.40    5.70
   8  -1  -1    7.10    8.80
   1   8   1   19.90    2.90
  -8   1   1    7.90    5.80
  -8   1   1   20.20    6.20
   1   8   1   23.30    3.60
   8  -1   1   12.80   10.40
   2   8  -1  218.08   16.40
   2   8  -1  233.28   16.60
  -8   2  -1  213.18   18.80
  -8   2  -1  226.38   19.30
  -8   2  -1  246.88   19.30
  -2  -8  -1  213.38   15.70
  -8   2   1  261.87   20.10
  -2  -8   1  225.88   19.60
  -8   2   1  229.88   19.30
  -3  -8  -1  386.76   25.20
  -8   3  -1  403.96   29.00
   3   8  -1  365.86   27.10
  -8   3  -1  395.26   29.00
  -8   3  -1  384.16   29.00
   3   8  -1  386.06   25.10
  -8   3   1  376.86   29.10
  -8   3   1  437.36   29.60
  -3  -8   1  402.26   27.90
  -8   3   1  378.66   29.00
   4   8  -1   90.59    7.60
   4   8  -1   71.19   13.10
  -8   4  -1   59.69    9.80
  -8   4  -1   70.49   10.20
  -8   4  -1   69.39   10.70
  -8   4   1   78.79   10.90
  -4  -8   1   95.59   10.20
  -8   4   1   86.19   11.20
  -8   4   1   79.19   11.90
  -8   5  -1   92.19   11.30
  -8   5  -1   60.59    9.90
  -8   5  -1   62.89   10.80
   5   8  -1   72.69    8.10
   5   8  -1   91.29   11.20
   5   8   1   88.39    9.30
  -8   5   1   76.29   10.80
  -5  -8   1   86.49    9.90
   5   8   1   81.19    9.00
  -8   5   1   58.79   10.50
  -8   5   1   88.09   11.20
  -8   6  -1   50.49    8.80
  -8   6  -1   23.30    6.90
   6   8  -1   34.00    6.10
   6   8  -1   30.50    8.70
  -8   6   1   41.10    8.70
   6   8   1   17.30    6.30
   6   8   1   24.30    7.20
  -6  -8   1   27.10    6.20
  -8   6   1   33.70    7.60
  -8   6   1   39.10    7.80
  -8   7  -1  134.19   14.10
   7   8  -1  110.79   12.10
  -8   7  -1  122.29   14.20
   7   8  -1   91.99   14.10
   7   8   1  107.89   13.30
   7   8   1  102.79   12.90
  -8   7   1  111.49   12.70
  -8   7   1  123.39   13.90
  -7  -8   1  116.49   12.50
  -8   7   1  107.99   14.10
   8   8  -1    9.50    5.20
   8   8  -1    9.70   10.00
   8   8   1    5.30    8.60
  -8   8   1   13.70    6.00
   8   8   1   14.20    8.40
  -8   8   1   12.60    5.60
   9   8  -1   11.60    6.10
   9   8  -1    4.70   10.30
   9   8   1    5.00    9.50
   9   8   1    4.90    8.70
  -7   9  -1  162.58   20.00
   9   7  -1  120.49   18.20
   9   7  -1  147.99   16.80
  -7   9   1  131.59   19.30
   9   7   1  209.68   24.00
   9   7   1  132.19   17.80
  -9  -7   1  147.09   15.10
  -6   9  -1  162.78   19.50
   9   6  -1  136.39   20.20
  -9  -6  -1  150.98   15.00
   9   6  -1  184.48   18.90
   9   6   1  175.78   21.30
  -9  -6   1  176.08   16.60
  -6   9   1  189.28   20.40
  -5   9  -1    4.20    7.70
   9   5  -1   10.90    6.40
  -9  -5  -1   10.20    5.20
   9   5  -1    2.70    9.90
  -5   9  -1   10.10    6.50
  -9  -5   1    8.40    5.70
  -5   9   1    1.80    9.50
  -5   9   1    5.70    5.90
   9   5   1    7.50    8.50
  -9  -4  -1   68.69    9.80
   9   4  -1   75.79   14.80
   9   4  -1   60.39   11.50
  -4   9  -1   62.19   11.40
  -4   9  -1   63.69   11.00
  -4   9   1   60.69   10.60
  -9  -4   1   61.49    9.90
  -4   9   1   59.59   12.60
   9   4   1   76.59   14.60
  -3   9  -1   24.30    6.80
  -3   9  -1   25.80    7.80
   9   3  -1   30.30   11.50
   9   3  -1   34.20    9.40
  -9  -3  -1   37.80    7.70
  -9  -3   1   26.90    7.70
  -3   9   1   24.70    9.20
  -3   9   1   26.40    6.90
   9   3   1   29.40   11.50
  -2   9  -1    9.20    4.80
  -2   9  -1   10.10    6.00
  -9  -2  -1   17.60    5.90
   9   2  -1   12.10    9.00
  -9  -2  -1   15.60    5.50
  -9  -2   1    9.80    5.70
  -2   9   1    9.80    7.30
  -9  -2   1   12.00    5.60
  -2   9   1    8.50    4.30
   9   2   1    6.00    8.80
  -1   9  -1   22.40    6.00
   9   1  -1   12.30    9.60
  -9  -1  -1   26.80    6.90
  -9  -1  -1   42.50    7.70
  -9  -1  -1   41.30    7.80
  -1   9  -1   23.70    5.50
  -1   9   1   21.40    5.10
   9   1   1   42.10   11.70
  -9  -1   1   23.20    6.40
  -1   9   1   22.10    6.70
  -9  -1   1   37.00    7.80
  -9   0  -1   88.89   11.70
  -9   0  -1  104.39   12.40
   9   0  -1   76.09   15.30
   0   9  -1   74.29    9.60
   0   9  -1   73.09    8.60
  -9   0  -1  105.09   12.30
   9   0   1  110.19   17.20
  -9   0   1   76.79   11.30
   0   9   1   86.09    9.80
   0   9   1   72.89    8.10
  -9   0   1   86.29   11.50
  -9   1  -1   39.30    7.90
   1   9  -1   23.40    4.10
  -9   1  -1   33.30    7.70
   1   9  -1   16.30    6.50
  -9   1  -1   24.70    7.20
  -9   1   1   32.30    7.90
   1   9   1   28.40    3.60
  -9   1   1   45.70    8.80
   2   9  -1   12.90    2.50
  -9   2  -1   23.20    6.70
  -9   2  -1    6.50    6.00
   2   9  -1    9.90    2.90
  -9   2  -1   10.30    6.20
  -9   2   1    5.10    5.70
  -9   2   1   12.30    6.20
  -2  -9   1   10.20    6.30
  -9   3  -1   30.90    7.90
  -9   3  -1   28.80    7.60
  -9   3  -1   33.70    7.60
  -3  -9   1   39.00    7.50
  -9   3   1   28.90    8.40
  -9   3   1   32.60    7.70
  -9   3   1   48.40    9.10
  -9   4  -1   63.29   10.70
  -9   4  -1   79.59   11.40
  -9   4  -1   65.19   10.10
  -9   4   1   68.79   11.10
  -9   4   1   55.69   11.30
  -9   4   1   53.99    9.80
  -4  -9   1   64.29    8.80
   5   9  -1   10.60    3.20
  -9   5  -1    1.80    5.30
   5   9  -1   12.10   10.30
  -9   5  -1    8.80    5.70
  -9   5  -1   11.50    6.70
  -9   5   1    9.50    5.80
  -5  -9   1    5.50    7.30
  -9   5   1   10.70    7.40
  -9   5   1    7.20    5.60
   6   9  -1  167.98   19.70
  -9   6  -1  179.88   17.30
  -9   6  -1  187.18   17.50
   6   9  -1  177.18   14.20
  -9   6   1  195.48   18.90
   6   9   1  183.28   16.50
  -9   6   1  209.48   17.90
  -9   6   1  149.79   16.30
   6   9   1  155.28   15.10
  -9   7  -1  157.78   15.80
  -9   7  -1  115.69   14.60
   7   9  -1  142.69   13.40
   7   9  -1  125.49   16.30
  -9   7   1  167.58   15.70
  -9   7   1  134.59   17.00
  -9   7   1  144.79   15.00
   7   9   1  137.79   15.60
   7   9   1  148.19   15.30
  -9   8  -1   17.10    7.00
   8   9  -1   17.70   10.20
  -9   8  -1    6.90    6.00
  -9   8   1   11.50    6.30
   8   9   1   18.90    8.20
  -9   8   1    7.60    6.30
   8   9   1   14.00    8.00
   9   9  -1   51.59   13.40
  -9   9   1   47.90    8.70
  -9   9   1   48.10    9.10
   9   9   1   49.10   11.30
   9   9   1   25.10   10.20
  10   9  -1   -4.20   11.00
  10   9   1    5.10    9.80
  10   9   1   -4.80    9.60
  10   8  -1   27.20   12.80
  10   8   1   53.09   13.60
  10   8   1   29.10   12.00
  10   7  -1  161.48   22.20
  10   7  -1  171.58   19.50
  -7  10  -1  154.88   21.40
  10   7   1  146.69   20.50
 -10  -7   1  177.08   17.30
  -7  10   1  209.98   22.90
  10   7   1  171.78   22.70
  -6  10  -1    7.50    6.70
  10   6  -1   -9.50   10.30
 -10  -6  -1    8.70    6.20
  10   6  -1   -2.50    5.70
 -10  -6   1   10.10    6.50
  10   6   1    4.10    9.00
  -6  10   1   10.90    7.50
  10   5  -1   48.30   14.50
  -5  10  -1   73.79   13.00
  -5  10  -1   51.59   11.70
 -10  -5  -1   62.59    9.80
  -5  10   1   69.69   12.60
 -10  -5   1   65.19   10.80
  10   5   1   59.69   13.90
  -5  10   1   47.20   13.40
  -4  10  -1   22.20    7.70
  10   4  -1   21.00   11.80
 -10  -4  -1   35.50    7.90
  -4  10  -1   36.10    9.70
  -4  10   1   16.00    9.50
  10   4   1   33.30   12.10
 -10  -4   1   39.70    8.80
  -4  10   1   21.00    7.40
  -3  10  -1   16.30    6.30
  -3  10  -1   27.30    8.40
  10   3  -1   24.70   12.80
 -10  -3  -1   38.70    8.00
  10   3   1   22.80   12.10
 -10  -3   1   38.80    8.90
  -3  10   1   16.40    8.90
  -3  10   1   17.50    6.40
  -2  10  -1   55.29    9.70
  10   2  -1   33.30   12.70
  -2  10  -1   60.59    9.20
 -10  -2  -1   40.10    8.90
  10   2   1   44.10   13.60
  -2  10   1   67.79    9.70
  -2  10   1   53.39   10.30
 -10  -2   1   43.90    9.80
 -10  -1  -1  113.59   13.70
 -10  -1  -1   98.19   12.30
  -1  10  -1   97.49   10.80
  -1  10  -1   76.99   10.70
  10   1  -1   71.79   21.10
 -10  -1  -1  127.39   14.30
  10   1   1   92.99   17.30
 -10  -1   1   99.39   13.50
  -1  10   1   86.19   10.80
 -10  -1   1   95.59   12.50
  -1  10   1   91.99   10.40
   0  10  -1   32.90    5.70
 -10   0  -1   23.70    7.30
   0  10  -1   32.80    6.90
 -10   0  -1   28.00    7.80
 -10   0  -1   27.60    7.80
 -10   0   1   32.50    8.90
   0  10   1   36.80    5.90
   0  10   1   37.60    5.30
 -10   0   1   30.90    8.10
 -10   1  -1   92.29   12.60
 -10   1  -1  101.39   13.10
   1  10  -1   74.59   11.10
   1  10  -1   83.09    8.00
 -10   1  -1  126.19   14.60
 -10   1   1   89.69   12.80
 -10   1   1   84.19   12.30
 -10   2  -1   29.40    7.80
 -10   2  -1   41.40    9.00
 -10   2  -1   32.20    8.60
 -10   2   1   34.10    8.50
 -10   2   1   33.70    9.00
  -2 -10   1   76.59   10.80
 -10   2   1   46.50    9.30
 -10   3  -1   37.10    9.10
 -10   3  -1   37.50    9.40
 -10   3  -1   35.70    8.70
 -10   3   1   30.50    8.20
 -10   3   1   35.30    9.80
 -10   3   1   36.90    9.10
 -10   4  -1   48.10    9.50
 -10   4  -1   22.10    7.60
 -10   4  -1   33.90    9.50
 -10   4   1   30.80    9.50
 -10   4   1   38.00    8.60
 -10   4   1   29.00    8.50
 -10   5  -1   55.89   11.60
 -10   5  -1   53.69   10.30
 -10   5  -1   65.49   10.80
 -10   5   1   38.00    9.10
 -10   5   1   49.00   11.20
 -10   5   1   38.50    9.10
 -10   6  -1    5.60    6.20
 -10   6  -1    2.90    6.20
 -10   6   1    5.00    6.20
 -10   6   1   -4.20    5.80
 -10   6   1    4.90    5.90
 -10   7  -1  168.98   17.90
   7  10  -1  160.58   20.20
 -10   7  -1  170.58   18.10
 -10   7   1  167.28   17.80
 -10   7   1  189.68   21.70
 -10   7   1  220.68   19.30
 -10   8  -1   39.70    9.40
 -10   8  -1   24.30    8.00
   8  10  -1   33.50   11.30
 -10   8   1   46.20    9.80
   8  10   1   55.09    9.70
   8  10   1   33.30    9.00
 -10   8   1   44.60    9.40
   9  10  -1    8.10   10.60
 -10   9   1    5.90    6.70
   9  10   1   -1.90    7.80
   9  10   1   -2.10    8.50
 -10   9   1   10.20    6.40
  11   8  -1   -4.10   12.30
  11   8   1    8.00   12.10
  11   8   1    5.10   11.10
  -7  11  -1   -0.10    7.00
  11   7  -1   -3.20   11.50
  -7  11   1    5.60    7.70
  11   7   1   -1.90   10.20
  -6  11  -1   85.69   15.00
  11   6  -1   72.79   17.80
 -11  -6   1  101.99   13.40
  11   6   1   66.09   15.80
  -6  11   1   72.39   13.80
 -11  -5  -1   14.70    7.20
  11   5  -1    6.70   13.00
  -5  11  -1   34.30    9.70
 -11  -5   1   30.60    8.60
  -5  11   1   11.40   10.30
  -5  11   1   18.50    8.10
  11   5   1   21.20   12.10
  -4  11  -1  215.28   23.10
  11   4  -1  205.68   27.30
 -11  -4  -1  214.38   19.70
  -4  11  -1  235.08   22.40
  -4  11   1  203.48   23.70
 -11  -4   1  248.88   21.30
  -4  11   1  225.48   22.10
  11   4   1  217.78   27.70
  11   3  -1   23.00   12.80
  -3  11  -1   18.90    8.10
  -3  11  -1   26.00    7.40
 -11  -3  -1   25.10    7.90
  11   3   1   28.20   13.10
 -11  -3   1   30.90    8.80
  -3  11   1   25.80    9.20
  -3  11   1   24.50    7.30
 -11  -2  -1   19.70    7.80
  -2  11  -1   29.50    7.20
  -2  11  -1   16.60    6.80
 -11  -2   1   30.60    8.30
  -2  11   1   21.00    7.50
  -2  11   1   23.90    6.30
  -1  11  -1   28.70    7.10
 -11  -1  -1   27.70    9.20
 -11  -1  -1   39.20    9.10
  -1  11  -1   21.50    5.70
  -1  11   1   18.30    5.20
 -11  -1   1   33.60    9.30
  -1  11   1   30.60    6.90
 -11   0  -1  116.19   14.10
 -11   0  -1   82.19   12.50
   0  11  -1   75.49    8.90
   0  11  -1   92.69   11.80
 -11   0  -1   89.29   12.60
 -11   0   1   87.69   13.00
   0  11   1   71.59    8.10
   0  11   1   82.59    9.20
 -11   0   1   84.79   12.90
 -11   1  -1   40.60    9.00
 -11   1  -1   29.80    8.50
   1  11  -1   30.40    4.40
   1  11  -1   27.50    6.50
 -11   1  -1   40.50    8.90
 -11   1   1   37.40    9.30
 -11   1   1   37.50    9.40
 -11   1   1   40.80    9.30
 -11   2  -1   38.00    9.40
 -11   2  -1   34.50    9.20
 -11   2  -1   18.10    8.10
 -11   2   1   20.10    8.40
 -11   2   1   15.10    7.40
 -11   2   1   26.50    9.30
 -11   3  -1   29.00    8.50
 -11   3  -1   32.10    9.50
 -11   3  -1   21.00    7.90
 -11   3   1   28.50    8.50
 -11   3   1   12.60    7.10
 -11   3   1   17.10    7.80
 -11   4  -1  205.88   20.90
 -11   4  -1  215.68   21.30
 -11   4  -1  201.68   21.00
 -11   4   1  246.48   22.70
 -11   4   1  215.88   21.20
 -11   4   1  237.88   21.80
 -11   5  -1   26.50    8.70
 -11   5  -1   40.40   10.30
 -11   5   1   26.40    8.50
 -11   5   1   20.80    8.50
 -11   5   1   20.20    7.80
 -11   6  -1   84.19   13.50
 -11   6  -1   71.29   12.50
 -11   6   1   56.29   12.50
 -11   6   1   95.69   14.20
 -11   6   1   95.89   13.70
 -11   7  -1    1.20    6.90
 -11   7  -1    3.00    6.50
 -11   7   1    9.50    7.70
 -11   7   1   12.50    7.70
 -11   7   1   12.00    7.20
 -11   8  -1   16.80    8.30
 -11   8  -1    0.10    6.20
 -11   8   1    6.40    6.90
 -11   8   1   11.20    7.20
  -7  12  -1   -0.80    6.80
  -7  12   1   -3.30    6.40
  -6  12  -1   10.30    7.80
  12   6  -1    5.20   14.10
 -12  -6   1   23.00    8.90
  12   6   1   10.50   12.70
  -6  12   1    3.00    7.00
  -5  12  -1   22.90    8.90
 -12  -5  -1   35.60    9.20
  12   5  -1    7.40   14.60
 -12  -5   1   45.10   10.30
  12   5   1   26.30   13.70
  -5  12   1   19.60    8.40
 -12  -4  -1  182.48   19.10
  12   4  -1  164.28   29.50
  -4  12  -1  163.08   20.70
  -4  12  -1  185.78   19.80
  -4  12   1  162.78   18.90
  -4  12   1  143.99   19.40
  12   4   1  131.89   22.10
 -12  -4   1  175.28   19.50
  -3  12  -1   72.29   12.80
  -3  12  -1   73.99   12.10
 -12  -3  -1   77.79   12.80
 -12  -3   1   83.49   13.30
  -3  12   1   94.49   12.80
  -3  12   1   81.89   12.90
 -12  -2  -1    6.80    6.90
  -2  12  -1    9.70    6.10
  -2  12  -1    8.00    5.10
 -12  -2   1    6.60    7.20
  -2  12   1    8.40    4.90
  -2  12   1    8.60    6.10
 -12  -1  -1    7.80    6.90
  -1  12  -1   12.70    6.00
  -1  12  -1   10.30    4.70
  -1  12   1    7.60    5.20
  -1  12   1    8.00    4.20
 -12  -1   1   15.70    8.10
 -12   0  -1   12.50    7.40
   0  12  -1   17.50    7.60
 -12   0  -1    3.20    6.30
 -12   0  -1   17.90    8.90
   0  12  -1   13.30    4.00
 -12   0   1   15.90    8.40
   0  12   1   12.80    3.70
 -12   0   1   11.30    7.30
   0  12   1   16.00    4.50
 -12   0   1    3.60    7.50
 -12   1  -1    2.40    6.10
 -12   1  -1    0.00    7.00
 -12   1  -1    0.20    6.40
 -12   1   1    6.90    7.10
 -12   1   1   11.80    7.70
 -12   1   1    1.10    6.80
 -12   2  -1   11.00    7.30
 -12   2  -1   13.90    7.40
 -12   2  -1    1.10    6.30
 -12   2   1    0.50    6.70
 -12   2   1   12.30    7.70
 -12   2   1   -0.20    6.20
 -12   3  -1   98.19   14.90
 -12   3  -1   76.09   13.70
 -12   3  -1   84.89   14.30
 -12   3   1   81.09   14.10
 -12   3   1   66.79   13.40
 -12   3   1  116.09   15.70
 -12   4  -1  174.58   21.00
 -12   4  -1  169.38   19.10
 -12   4  -1  123.99   17.50
 -12   4   1  191.08   20.50
 -12   4   1  145.39   18.90
 -12   4   1  176.58   20.80
 -12   5  -1   22.90    9.10
 -12   5  -1   34.40    9.80
 -12   5   1   37.00   10.00
 -12   5   1   24.00    9.10
 -12   5   1   23.70    9.50
 -12   6  -1   12.20    8.10
 -12   6  -1   15.00    8.10
 -12   6   1    8.40    7.60
 -12   6   1   15.10    8.10
 -12   6   1   19.30    9.60
 -12   7  -1   -4.20    6.80
 -12   7  -1   -3.00    6.70
 -12   7   1   -2.20    6.80
 -12   7   1   -0.60    6.60
  -4  13  -1   25.00    8.80
  -4  13  -1   19.40    9.30
 -13  -4  -1   22.70    8.20
  -4  13   1   20.80    7.80
 -13  -4   1   21.70    8.90
  -4  13   1   19.40    9.40
  -3  13  -1   53.59   10.40
 -13  -3  -1   47.20   11.00
  -3  13  -1   37.80   10.10
  -3  13   1   43.40   10.70
  -3  13   1   55.49   10.00
 -13  -3   1   62.19   12.50
 -13  -2  -1    5.20    7.20
  -2  13  -1    5.10    4.80
  -2  13  -1    6.40    6.00
  -2  13   1    6.90    6.50
  -2  13   1    5.70    5.00
 -13  -2   1   13.60    8.50
 -13  -1  -1   64.39   12.50
  -1  13  -1   64.69   11.70
  -1  13  -1   61.79    8.90
  -1  13   1   60.39    8.30
  -1  13   1   71.99    9.50
 -13  -1   1   69.39   13.50
   0  13  -1   12.70    3.50
   0  13  -1   15.60    6.60
 -13   0  -1   22.20    9.20
 -13   0   1    9.40    7.80
 -13   1  -1   45.30   11.50
 -13   1  -1   68.69   13.10
 -13   1  -1   52.49   11.90
 -13   1   1   53.49   12.30
 -13   1   1   56.39   12.20
 -13   1   1   59.79   12.10
 -13   2  -1   -1.50    7.10
 -13   2  -1   12.40    8.60
 -13   2  -1   10.70    8.30
 -13   2   1    6.50    7.20
 -13   2   1   16.60    9.30
 -13   2   1   12.10    8.50
 -13   3  -1   53.39   12.60
 -13   3  -1   42.10   11.50
 -13   3  -1   34.30   10.60
 -13   3   1   39.10   10.60
 -13   3   1   53.39   12.80
 -13   3   1   49.00   11.80
 -13   4  -1   14.00    8.50
 -13   4  -1   20.50    8.60
 -13   4  -1   19.80    9.20
 -13   4   1   10.10    8.20
 -13   4   1   21.70   10.40
 -13   4   1   14.40    8.90
   0   0  -2 2602.64  165.58
   0   0  -2 2736.13  164.78
   0   0   2 2269.37  165.08
   0   0   2 2948.80  163.18
   0   0   2 2767.82  165.18
  -1   0  -2   11.80    6.00
   1   0  -2    2.70    3.10
   0   1  -2    7.40    5.50
  -1   0   2    5.20    3.20
   0  -1   2    4.70    4.90
   0   1   2   15.50    7.50
   0   1   2    3.60    2.50
   0   1   2    5.00    3.90
   1   0   2    9.20    6.30
  -1   0   2   -1.30    3.80
  -1   0   2    6.20    3.40
   0   1   2    1.90    2.70
   1   0   2    8.90    4.40
  -1   0   2    8.60    3.30
  -1   1  -2  105.19    9.80
  -1  -1  -2   92.79    7.30
   1   1  -2   96.09   10.50
   1  -1  -2   77.59    9.50
  -1   1   2   93.19    7.60
   1   1   2  114.69    7.50
  -1   1   2   96.39    9.10
  -1  -1   2  111.89   10.30
   1   1   2  105.79    7.30
   1   1   2   88.89    9.00
   1   1   2  119.79   12.70
   1   1   2   99.79   11.80
  -1  -1   2  100.99   11.80
   1  -1   2  102.69    9.70
  -1  -1   2   80.19    9.60
  -1   1   2   97.69    8.10
  -1   1   2   63.99    9.60
  -1   2  -2  218.98   17.20
  -2  -1  -2  237.48   15.70
   2   1  -2  232.38   17.30
   2   1  -2  236.28   18.30
   2   1  -2  239.18   16.60
  -1   2  -2  274.77   21.20
  -2  -1  -2  225.98   15.60
   2   1   2  226.98   17.30
  -2  -1   2  257.57   17.20
  -1   2   2  225.98   15.50
  -1   2   2  248.78   15.60
  -1   2   2  214.78   17.50
  -1   2   2  235.28   17.10
   2   1   2  231.78   15.50
   2   1   2  229.28   15.50
  -2  -1   2  253.37   16.80
   2   0  -2  333.77   26.30
  -2   0  -2  327.17   23.90
   0   2  -2  392.96   26.70
  -2   0  -2  441.96   27.10
  -2   0  -2  357.46   24.00
   2   0  -2  355.76   25.30
  -2   0   2  361.16   24.50
   2   0   2  394.66   25.80
  -2   0   2  373.96   24.50
   0   2   2  369.76   23.20
  -2   0   2  381.16   25.60
   0   2   2  383.86   23.40
   0   2   2  384.26   25.10
   0   2   2  350.06   23.20
   0   2   2  397.76   28.00
  -2   1  -2  277.07   19.60
  -2   1  -2  238.88   16.10
   1   2  -2  293.67   20.50
  -1  -2  -2  224.78   15.00
  -2   1  -2  239.48   17.70
  -2   1  -2  219.38   15.90
   1   2  -2  226.68   19.40
  -2   1   2  254.87   16.40
   1   2   2  234.88   14.50
  -2   1   2  219.68   17.90
   1   2   2  237.68   14.80
  -2   1   2  228.38   16.20
   2  -1   2  217.78   17.40
  -2   1   2  222.58   17.50
   1   2   2  186.28   19.10
   2  -1   2  217.58   19.90
   1   2   2  244.18   14.60
  -2   2  -2  476.45   31.30
  -2   2  -2  488.25   29.70
   2   2  -2  434.66   30.70
  -2  -2  -2  451.75   28.70
  -2  -2  -2  466.85   28.70
   2   2  -2  431.56   31.10
  -2   2  -2  497.85   32.30
   2   2   2  452.95   28.10
  -2   2   2  454.35   31.40
   2   2   2  513.55   31.20
   2  -2   2  439.86   30.90
  -2  -2   2  458.85   30.50
   2   2   2  451.25   30.50
  -2  -2   2  413.06   30.40
   2   2   2  484.35   28.50
  -2   2   2  443.26   29.30
  -2   2   2  449.36   29.40
  -2   2   2  421.66   30.80
  -3  -2  -2  103.69    8.10
   3   2  -2  108.49   10.30
  -3  -2  -2  118.99    8.50
  -2   3  -2  129.99   14.50
   3   2  -2  113.09   13.50
  -2   3  -2  112.49   11.20
  -3  -2  -2  106.29    8.50
   3   2  -2  109.09   10.10
  -2   3   2  104.19    8.90
   3   2   2  103.19   13.40
  -2   3   2  102.29   11.80
  -3  -2   2  106.79    9.50
   3   2   2   96.89   10.00
   3   2   2  109.89   10.70
  -2   3   2  127.09    8.90
   3   2   2  114.59    7.90
  -3  -2   2  121.69   10.40
  -2   3   2  108.29   10.50
  -3  -1  -2  411.96   26.50
   3   1  -2  442.76   28.60
   3   1  -2  436.06   27.10
  -3  -1  -2  416.86   26.30
  -3  -1  -2  388.46   26.50
  -1   3  -2  413.56   28.00
  -1   3  -2  363.96   30.50
   3   1  -2  394.16   29.40
   3   1   2  410.96   29.60
   3   1   2  415.96   26.40
  -1   3   2  406.66   25.70
  -1   3   2  396.86   26.00
   3   1   2  403.46   28.30
  -1   3   2  462.35   28.80
  -3  -1   2  418.96   27.30
  -3  -1   2  414.46   27.40
  -1   3   2  383.06   27.40
   3   0  -2   35.90    9.40
  -3   0  -2   44.40    5.60
   3   0  -2   31.30    5.90
   0   3  -2   96.69   13.80
   0   3  -2   61.59    7.50
  -3   0  -2   43.20    5.50
   0   3   2   54.99    3.90
   0   3   2   35.30    6.90
  -3   0   2   40.30    6.40
   3   0   2   34.20    6.50
   3   0   2   40.70    9.10
  -3   0   2   37.70    5.60
   0   3   2   59.19    6.10
  -3   0   2   42.20    6.80
  -3   1  -2  477.05   28.90
   3  -1  -2  480.25   32.30
   1   3  -2  382.56   31.90
  -3   1  -2  429.36   28.60
   1   3   2  515.95   34.70
  -3   1   2  420.26   31.00
   3  -1   2  521.15   33.00
  -3   1   2  415.96   30.30
  -3   1   2  453.35   29.00
   3  -1   2  415.16   30.50
  -3   1   2  415.16   28.90
   1   3   2  408.86   30.40
  -3   2  -2  100.19   12.00
   2   3  -2  101.49   11.60
   2   3  -2  128.39   11.40
  -3   2  -2  122.99    9.70
  -3   2  -2  102.39    9.50
   3  -2  -2  177.28   16.40
  -3   2   2  156.48   13.50
   2   3   2   98.99   12.00
  -3   2   2  103.29   11.00
   3  -2   2  114.59   12.70
   2   3   2  110.59   10.40
  -3   2   2  122.49    9.70
   2   3   2  112.09    7.40
  -2  -3   2  107.39   11.70
  -3   2   2  106.09    9.60
  -3   3  -2 2633.64  160.38
  -3  -3  -2 2674.33  158.98
   3   3  -2 2482.05  161.18
  -3   3  -2 2530.55  160.38
   3   3  -2 2842.82  161.88
  -3   3  -2 2651.43  162.38
  -3  -3   2 2621.84  161.08
  -3  -3   2 2655.83  160.88
   3   3   2 2500.15  160.58
  -3   3   2 2295.77  159.88
  -3   3   2 2638.94  162.58
  -3   3   2 2476.25  162.08
  -3   3   2 2708.53  160.48
   3   3   2 3018.30  161.38
   4   3  -2   80.69   10.60
  -4  -3  -2   79.69    6.40
  -4  -3  -2   77.79    6.70
   4   3  -2   64.69    8.50
  -4  -3  -2   74.99    7.00
  -3   4  -2   75.59   10.10
  -3   4   2   64.59    7.50
  -3   4   2   72.09   10.60
  -3   4   2   75.19    9.20
   4   3   2   53.39    7.80
  -4  -3   2   75.29    8.90
   4   3   2   67.89    9.80
  -4  -3   2   81.59    8.00
  -3   4   2   64.59    7.00
  -4  -2  -2   94.79    8.10
   4   2  -2  115.09   13.60
   4   2  -2  107.59    9.20
   4   2  -2   86.79   10.10
  -2   4  -2  110.29   13.50
  -2   4  -2   96.79   10.60
  -4  -2  -2   97.79    8.30
  -4  -2  -2   97.09    8.30
  -2   4   2   97.59   10.00
  -4  -2   2  109.69   10.20
  -2   4   2   74.29   10.00
  -4  -2   2  100.49    9.30
  -2   4   2  108.39    8.60
   4   2   2  101.29    7.80
  -2   4   2   94.19    7.50
  -2   4   2  103.39    7.90
  -1   4  -2 5877.91  347.47
   4   1  -2 6095.69  348.87
  -1   4  -2 5337.47  347.57
  -4  -1  -2 5526.85  346.17
   4   1  -2 5886.21  348.47
  -4  -1  -2 5570.54  346.17
  -4  -1  -2 5479.15  345.97
  -1   4   2 5741.23  344.77
  -1   4   2 6035.50  347.27
  -1   4   2 5824.72  345.47
   4   1   2 6229.38  348.47
   4   1   2 5342.67  348.17
  -1   4   2 5610.04  346.97
   4   1   2 5585.64  345.97
  -4  -1   2 5518.95  346.87
  -4  -1   2 5715.73  346.67
   4   0  -2  777.32   46.50
   0   4  -2  666.53   44.70
  -4   0  -2  665.73   43.80
  -4   0  -2  673.23   43.80
   4   0  -2  803.82   48.10
  -4   0  -2  654.43   43.60
  -4   0   2  691.93   44.40
  -4   0   2  689.33   44.30
  -4   0   2  645.14   45.60
   4   0   2  681.43   47.50
   0   4   2  691.03   43.70
   0   4   2  680.43   44.40
   4   0   2  650.43   46.00
   1   4  -2 5481.65  342.07
   4  -1  -2 5790.52  340.77
  -4   1  -2 5531.45  338.37
  -4   1  -2 5597.54  338.37
  -4   1  -2 5517.75  340.17
  -4   1  -2 5432.36  338.27
   1   4  -2 5345.37  341.17
   1   4   2 5462.95  338.57
   4  -1   2 5649.23  340.57
   1   4   2 5485.95  339.57
   4  -1   2 6228.48  341.27
  -4   1   2 5523.25  338.57
  -4   1   2 5376.26  340.27
  -4   1   2 5626.74  338.67
  -4   2  -2   90.19   11.90
  -4   2  -2  103.79    9.60
   2   4  -2  109.59   11.10
  -4   2  -2   88.09   10.90
   4  -2  -2  171.98   17.90
  -4   2  -2   99.69    9.60
   2   4  -2  123.09   15.30
   4  -2   2  125.79   14.20
  -4   2   2  102.29    9.70
  -2  -4   2   80.59   11.00
  -4   2   2  105.99   11.40
  -4   2   2  103.69   10.10
  -4   2   2  118.39   14.50
   2   4   2  106.29    9.90
   3   4  -2   65.99    8.10
  -4   3  -2   78.09    8.00
   3   4  -2   74.59    9.40
  -3  -4  -2   74.59    5.50
  -4   3  -2   66.29    7.90
  -4   3  -2   70.39    9.50
  -4   3  -2   77.79   10.30
  -3  -4   2   75.19    9.20
   3   4   2   90.19    9.70
  -4   3   2   84.19    8.90
  -4   3   2   95.79   12.20
  -4   3   2   58.09    8.80
   3   4   2   69.99    7.60
  -4   3   2   82.69    8.10
  -4  -4  -2    7.70    2.40
  -4   4  -2    4.10    4.20
   4   4  -2   11.30    6.20
  -4   4  -2    7.00    3.80
   4   4  -2    7.30    3.50
  -4   4  -2   15.10    6.10
  -4   4  -2   17.30    4.50
  -4  -4   2   11.80    4.60
   4   4   2   17.40    5.40
  -4   4   2   11.50    4.40
  -4   4   2    5.10    3.90
  -4   4   2   18.90    8.20
  -4   4   2    9.20    3.50
   4   4   2    9.10    5.50
  -4   5  -2  114.19   12.90
   5   4  -2  102.89   11.30
  -4   5  -2  107.99   13.80
   5   4  -2   80.49   12.60
  -5  -4  -2  103.99    8.70
   5   4   2  109.49   13.70
  -4   5   2  117.99   12.60
  -5  -4   2   94.49   11.00
   5   4   2   90.39   12.20
  -4   5   2  117.39    9.70
  -4   5   2  107.79    9.90
  -4   5   2  126.29   16.40
  -5  -4   2  113.09   10.30
  -4   5   2  123.99   10.90
  -5  -3  -2  734.13   47.20
   5   3  -2  777.92   49.90
  -3   5  -2  728.93   49.90
  -5  -3  -2  713.53   46.80
  -5  -3  -2  731.73   47.10
  -3   5  -2  793.02   50.39
   5   3  -2  750.32   50.89
  -5  -3   2  727.13   48.50
   5   3   2  786.62   49.99
  -5  -3   2  723.43   47.90
  -3   5   2  765.62   47.00
   5   3   2  770.82   45.70
   5   3   2  827.52   50.79
  -3   5   2  689.43   49.40
  -3   5   2  772.42   50.89
  -3   5   2  729.23   47.60
   5   3   2  670.43   46.10
  -3   5   2  718.83   46.60
   5   2  -2   25.70    6.30
  -2   5  -2   29.70    6.40
  -5  -2  -2   30.80    4.80
  -5  -2  -2   28.10    4.70
   5   2  -2   25.40    8.80
  -5  -2  -2   22.10    4.30
   5   2  -2   31.80    5.30
   5   2   2   22.40    6.60
   5   2   2   28.60    4.30
  -2   5   2   37.60    6.10
  -2   5   2   36.20    3.70
  -2   5   2   24.20    4.30
  -2   5   2   23.70    6.20
  -5  -2   2   36.40    5.70
  -5  -2   2   26.80    5.60
   5   1  -2  126.89   15.00
  -5  -1  -2  126.99   10.50
  -5  -1  -2  129.39   10.50
   5   1  -2  136.09   13.20
  -1   5  -2  117.79   11.50
  -1   5  -2  117.49   14.70
  -5  -1  -2  110.79   10.20
  -1   5   2  124.99   11.90
  -5  -1   2  120.49   11.00
   5   1   2  129.49   14.70
   5   1   2  134.09   10.30
  -5  -1   2  110.99   11.10
  -1   5   2  116.59   10.80
  -5   0  -2   45.10    6.00
   0   5  -2   61.59    7.30
  -5   0  -2   33.80    5.50
   5   0  -2   26.80    7.80
  -5   0  -2   51.89    6.50
   5   0  -2   46.80    8.10
  -5   0   2   60.39    7.40
  -5   0   2   36.70    6.70
   5   0   2   31.70    8.20
  -5   0   2   42.10    7.40
   1   5  -2  132.69   14.20
   5  -1  -2  125.19   15.10
  -5   1  -2  118.79   10.90
  -5   1  -2  133.99   11.10
   5  -1  -2  147.09   13.90
   1   5  -2  156.58   19.00
  -5   1  -2  113.59   10.60
  -5   1  -2  108.99   12.40
   1   5   2  118.49   10.40
   1   5   2  117.49   11.70
  -5   1   2   98.29   10.70
   5  -1   2  124.99   15.40
  -5   1   2  123.69   12.90
   5  -1   2  172.58   18.00
  -5   1   2  114.69   11.60
   2   5  -2   24.80    9.40
   2   5  -2   30.60    6.40
   5  -2  -2   21.60    8.10
  -5   2  -2   23.80    6.20
  -5   2  -2   37.30    6.10
  -5   2  -2   36.90    6.10
  -5   2  -2   39.80    6.10
   2   5   2   23.80    4.70
   2   5   2   14.90    9.30
  -2  -5   2   37.20    8.00
   5  -2   2   23.00    8.30
  -5   2   2   30.90    6.90
  -5   2   2   25.30    5.30
  -5   2   2   32.20    6.30
  -5   2   2   38.70    9.90
  -5   3  -2  588.54   46.20
  -5   3  -2  698.33   46.60
   3   5  -2  750.92   48.00
  -5   3  -2  714.83   49.30
  -5   3  -2  742.73   49.70
   3   5  -2  734.33   46.70
  -3  -5  -2  750.32   43.70
   5  -3   2  801.82   50.99
  -5   3   2  739.83   47.30
  -3  -5   2  714.83   47.40
  -5   3   2  656.23   46.40
  -5   3   2  720.93   50.99
  -5   3   2  719.73   49.30
   3   5   2  716.63   46.40
  -5   4  -2   79.79    9.90
   4   5  -2   99.89   10.30
  -5   4  -2  103.59   13.50
  -4  -5  -2  106.59    7.70
   4   5  -2   93.99   12.10
  -5   4  -2   99.89   10.30
  -5   4  -2  107.19   13.00
   4   5   2  141.99   13.70
  -5   4   2  101.19   12.50
  -5   4   2   93.49   10.10
   4   5   2  113.09   11.50
  -4  -5   2  116.09   11.30
  -5   4   2   94.99   10.80
  -5   4   2  123.29   17.20
   5   5  -2  383.76   31.80
  -5  -5  -2  387.96   26.40
  -5   5  -2  424.06   28.70
  -5   5  -2  417.76   28.80
  -5   5  -2  426.66   32.00
  -5   5  -2  379.06   31.70
   5   5  -2  411.76   29.40
  -5   5   2  361.36   30.90
   5   5   2  495.65   30.40
  -5   5   2  443.46   34.90
  -5   5   2  432.06   28.30
  -5   5   2  409.46   29.20
  -5   5   2  338.77   28.00
   5   5   2  463.95   31.10
  -5  -5   2  403.96   29.00
  -5   6  -2   63.19   11.90
   6   5  -2   54.79    9.10
   6   5  -2   60.89   11.60
  -6  -5  -2   64.59    6.80
  -5   6  -2   47.60    9.60
  -5   6   2   69.39   13.60
  -5   6   2   44.00    7.10
  -5   6   2   62.99    7.60
   6   5   2   59.89   10.80
   6   5   2   63.49   10.50
  -5   6   2   64.29   10.70
  -6  -5   2   47.40    8.20
  -5   6   2   71.89    9.40
  -6  -4  -2  137.79   10.90
  -4   6  -2  109.79   13.90
   6   4  -2  101.59   15.30
  -6  -4  -2  139.39   10.80
   6   4  -2  119.99   13.40
  -4   6  -2  134.89   15.30
   6   4   2  105.49   14.20
  -6  -4   2  128.99   12.80
  -4   6   2  133.89   10.80
  -6  -4   2  128.89   11.90
  -4   6   2  162.58   18.40
  -4   6   2  133.89   10.50
  -4   6   2  118.49   11.70
   6   4   2  152.18   16.70
  -4   6   2  113.49   13.60
  -3   6  -2  309.97   25.10
   6   3  -2  320.87   25.60
  -6  -3  -2  325.37   22.70
   6   3  -2  315.87   23.20
  -3   6  -2  340.77   25.90
  -6  -3  -2  335.47   22.80
  -6  -3  -2  324.57   22.50
   6   3  -2  276.97   28.10
  -6  -3   2  295.67   24.00
  -3   6   2  308.37   27.20
  -3   6   2  341.67   25.30
  -3   6   2  343.87   20.90
   6   3   2  325.47   21.40
  -6  -3   2  315.57   23.60
  -3   6   2  338.57   22.90
  -3   6   2  328.17   21.50
   6   3   2  385.96   28.40
   6   2  -2   44.30    8.00
  -6  -2  -2   52.99    6.80
  -6  -2  -2   43.80    6.30
   6   2  -2   40.30    9.40
  -6  -2  -2   50.29    6.70
  -2   6  -2   46.20    7.90
   6   2  -2   50.09    6.80
  -2   6   2   42.80    7.00
  -6  -2   2   68.39    8.40
  -6  -2   2   41.30    6.70
   6   2   2   55.99    6.30
  -2   6   2   49.00    8.90
  -1   6  -2  488.25   36.90
  -1   6  -2  502.95   35.30
   6   1  -2  575.14   37.90
  -6  -1  -2  492.95   34.30
  -6  -1  -2  481.95   34.20
  -6  -1  -2  555.64   34.50
   6   1  -2  481.65   38.20
  -1   6   2  512.95   34.60
  -1   6   2  488.25   35.00
   6   1   2  540.85   34.10
  -6  -1   2  538.95   35.50
  -6  -1   2  597.84   35.40
   6   1   2  460.75   38.30
  -6   0  -2  979.20   61.59
   6   0  -2 1004.80   64.99
   6   0  -2 1003.70   65.49
   0   6  -2  929.51   61.89
  -6   0  -2  888.91   61.39
  -6   0  -2  902.31   61.49
   0   6  -2 1112.09   63.29
   0   6   2  941.51   60.79
   6   0   2  832.52   64.89
   0   6   2 1047.00   61.39
  -6   0   2 1009.80   62.19
  -6   0   2  928.01   62.19
  -6   1  -2  544.45   35.30
   1   6  -2  504.35   37.60
  -6   1  -2  520.95   35.20
  -6   1  -2  571.24   35.60
   6  -1  -2  568.34   39.70
   6  -1  -2  538.05   38.40
   1   6  -2  486.95   38.60
  -6   1  -2  551.04   38.10
   1   6   2  519.05   34.20
  -6   1   2  530.75   35.60
  -6   1   2  512.45   37.90
   6  -1   2  482.65   39.30
   1   6   2  508.95   34.10
  -6   2  -2   49.60    8.80
  -6   2  -2   50.09    7.70
  -6   2  -2   46.00    7.40
   2   6  -2   35.80    7.50
   6  -2  -2   43.60   10.60
  -6   2  -2   42.60    6.90
   2   6  -2   15.50   14.40
  -2  -6   2   41.60    9.10
  -6   2   2   37.00    7.20
   2   6   2   32.70    7.80
  -6   2   2   58.19    9.70
   6  -2   2   33.80   10.90
  -6   2   2   58.99    8.00
   2   6   2   41.20    5.50
   3   6  -2  321.77   23.50
  -6   3  -2  320.77   27.60
   3   6  -2  301.57   27.50
  -6   3  -2  330.17   24.20
   6  -3  -2  291.07   29.50
  -6   3  -2  354.86   27.40
  -6   3  -2  319.37   24.00
  -3  -6   2  358.46   25.30
  -6   3   2  448.46   32.10
  -6   3   2  350.06   27.30
  -6   3   2  343.37   24.70
   6  -3   2  276.97   30.80
   3   6   2  322.87   22.20
  -6   3   2  343.97   24.40
  -6   4  -2  122.09   12.00
   4   6  -2  107.29   13.70
   4   6  -2  120.19   11.40
  -4  -6  -2  129.09    8.40
  -6   4  -2   97.09   11.70
  -6   4  -2  127.79   15.10
  -6   4  -2  123.79   15.80
   4   6   2  133.69   12.00
  -6   4   2  131.29   13.10
   4   6   2  113.19   13.80
  -6   4   2  125.09   12.40
  -4  -6   2  111.59   12.50
  -6   4   2  114.59   14.40
   5   6  -2   64.79    8.50
  -6   5  -2   49.50    9.80
   5   6  -2   58.39   10.70
  -5  -6  -2   71.09    5.80
  -6   5  -2   47.20    8.20
  -6   5  -2   33.70   10.00
  -6   5  -2   61.49    8.50
  -6   5   2   47.40    8.00
  -5  -6   2   56.59    8.60
  -6   5   2   53.39    8.00
  -6   5   2   57.59   10.20
  -6   5   2   56.59    9.20
   5   6   2   63.39    9.20
  -6   5   2   65.89   13.30
  -6   6  -2  140.29   16.80
  -6   6  -2  116.49   18.10
   6   6  -2  141.89   13.90
   6   6  -2  138.19   16.70
  -6   6  -2  140.89   13.20
  -6  -6  -2  136.29   10.60
  -6  -6   2  133.09   13.40
  -6   6   2  143.09   12.90
   6   6   2  134.59   16.70
  -6   6   2  192.18   22.90
   6   6   2  133.39   15.70
  -6   6   2  114.19   16.00
  -6   6   2  125.29   13.20
  -6   6   2  121.99   12.30
  -6   7  -2  490.15   38.40
   7   6  -2  500.85   38.90
   7   6  -2  501.45   35.80
  -7  -6  -2  500.75   32.00
  -7  -6   2  440.06   33.90
  -6   7   2  491.05   33.30
  -6   7   2  480.05   32.90
   7   6   2  460.85   35.80
   7   6   2  441.86   36.40
  -6   7   2  496.05   38.30
  -6   7   2  522.05   35.00
  -6   7   2  501.15   44.40
   7   5  -2   35.20    7.50
  -7  -5  -2   14.70    4.40
  -5   7  -2   14.80    6.60
   7   5  -2   11.80    9.20
  -5   7  -2    9.80    7.20
  -5   7   2   12.70    4.40
  -5   7   2   21.60   10.00
  -5   7   2   11.60    6.10
  -7  -5   2   15.70    6.20
  -5   7   2   16.30    4.40
  -5   7   2   10.20    5.30
  -7  -4  -2 1919.31  119.99
   7   4  -2 1907.71  123.59
  -4   7  -2 1919.71  123.99
   7   4  -2 1994.00  124.79
  -4   7  -2 1944.31  123.89
   7   4   2 2014.70  124.09
  -7  -4   2 1944.51  121.69
  -4   7   2 2049.29  124.59
  -4   7   2 1932.91  119.09
  -4   7   2 1812.42  123.29
  -4   7   2 1919.91  120.89
  -7  -3  -2  135.89   12.10
   7   3  -2  154.38   15.70
  -7  -3  -2  119.69   11.50
  -3   7  -2  126.09   14.10
  -3   7  -2  150.58   15.80
  -7  -3  -2  120.39   11.80
   7   3  -2  126.59   12.30
   7   3   2  139.29   10.80
   7   3   2  184.78   19.90
  -3   7   2  113.49   15.50
  -7  -3   2  147.19   14.10
  -3   7   2  135.99   14.10
  -7  -3   2  123.29   12.40
  -2   7  -2 1080.99   66.89
   7   2  -2  967.60   68.79
   7   2  -2 1001.30   68.19
  -2   7  -2  998.80   66.29
  -7  -2  -2 1014.10   64.89
  -7  -2  -2  993.80   64.79
   7   2  -2  975.80   64.89
  -7  -2  -2  977.00   64.59
   7   2   2 1054.39   69.49
  -7  -2   2  962.70   65.59
  -7  -2   2  984.50   65.29
  -2   7   2 1026.10   65.99
   7   2   2 1025.50   64.29
  -2   7   2 1135.59   67.19
  -7  -1  -2  765.52   47.10
   7   1  -2  716.23   51.39
  -1   7  -2  725.73   47.70
  -7  -1  -2  644.24   46.50
  -7  -1  -2  687.43   46.60
   7   1  -2  765.82   50.69
   7   1   2  820.22   50.79
  -1   7   2  751.02   47.50
  -7  -1   2  681.03   47.60
  -7  -1   2  637.04   47.00
  -1   7   2  682.83   46.60
   7   1   2  707.03   51.59
   0   7  -2   54.99    7.80
   7   0  -2   30.30   11.30
   7   0  -2   38.50    8.90
  -7   0  -2   32.90    6.80
  -7   0  -2   48.40    7.80
   0   7  -2   49.20    9.10
  -7   0  -2   20.20    5.60
  -7   0   2   41.50    7.50
   7   0   2   37.40   11.50
  -7   0   2   34.40    7.30
   0   7   2   53.59    6.40
   0   7   2   42.80    6.60
   1   7  -2  711.13   48.30
  -7   1  -2  686.43   46.80
  -7   1  -2  703.33   46.90
   1   7  -2  766.62   49.70
  -7   1  -2  670.13   46.70
   7  -1  -2  710.83   50.39
   7  -1  -2  687.63   51.39
   1   7   2  743.63   45.00
   7  -1   2  702.23   53.19
  -7   1   2  687.03   47.40
   1   7   2  726.83   45.30
  -7   1   2  710.53   47.20
  -7   1   2  651.23   49.70
   2   7  -2  942.91   64.69
   2   7  -2 1007.20   66.79
   7  -2  -2 1059.99   69.29
  -7   2  -2  984.00   63.89
  -7   2  -2  936.31   63.79
  -7   2  -2 1018.60   67.49
  -7   2  -2 1021.80   64.09
  -7   2   2 1001.00   64.49
   2   7   2 1002.00   61.09
  -7   2   2 1014.20   64.29
   2   7   2 1010.90   61.39
  -7   2   2  933.91   66.99
   7  -2   2  902.51   68.79
  -2  -7   2  965.70   65.89
  -7   3  -2  114.39   15.70
  -7   3  -2  142.79   13.30
   3   7  -2  144.19   11.90
  -7   3  -2  152.78   13.60
   3   7  -2  126.09   18.40
  -7   3  -2  121.59   13.00
  -7   3   2  136.39   16.00
  -3  -7   2  141.19   14.10
   3   7   2  135.19   10.20
   3   7   2   98.49   13.20
  -7   3   2  124.79   14.20
  -7   3   2  128.89   13.90
   4   7  -2 1918.41  120.89
  -7   4  -2 1754.52  122.99
  -7   4  -2 1967.10  119.89
   4   7  -2 1891.31  118.49
  -7   4  -2 1600.44  119.09
   4   7   2 1904.51  117.29
  -4  -7   2 2002.10  119.79
  -7   4   2 2207.58  120.49
  -7   4   2 1819.22  123.29
  -7   4   2 1929.41  120.29
   4   7   2 2015.40  119.19
   5   7  -2   11.30    8.70
  -7   5  -2   25.20    6.30
  -7   5  -2   14.40    7.40
   5   7  -2   10.80    4.20
  -7   5  -2   14.60    5.50
   5   7   2   11.30    6.80
  -5  -7   2   22.50    6.20
   5   7   2   14.30    5.60
  -7   5   2   13.60    5.40
  -7   5   2    7.90    5.60
  -7   5   2   13.80    7.40
  -7   5   2   15.90    5.80
  -7   6  -2  479.65   34.70
   6   7  -2  478.75   34.50
   6   7  -2  528.95   37.70
  -7   6  -2  509.65   39.10
  -7   6  -2  449.06   34.20
  -6  -7   2  514.45   34.50
   6   7   2  472.05   35.10
  -7   6   2  516.15   35.60
  -7   6   2  435.26   34.00
   6   7   2  504.65   34.50
  -7   6   2  507.75   39.20
  -7   6   2  468.85   33.90
  -7   7  -2   40.50   10.30
   7   7  -2   41.10    7.80
   7   7  -2   36.70   11.20
  -7   7   2   27.00    6.80
   7   7   2   40.10   10.10
   7   7   2   39.30    8.40
  -7  -7   2   27.60    7.40
  -7   7   2   28.10    7.90
  -7   7   2   44.30   10.40
  -7   7   2   38.30    7.10
   8   7  -2  523.65   37.50
   8   7  -2  450.15   40.20
  -7   8  -2  516.15   40.80
  -8  -7   2  491.55   35.60
  -7   8   2  477.65   33.80
   8   7   2  484.95   37.50
  -7   8   2  526.15   41.20
  -7   8   2  490.45   34.30
  -7   8   2  517.55   36.70
   8   7   2  479.85   38.60
   8   6  -2  269.77   22.60
  -6   8  -2  281.77   25.00
  -8  -6  -2  246.48   18.40
   8   6  -2  211.78   26.00
   8   6   2  226.08   23.20
  -6   8   2  243.28   18.70
   8   6   2  248.78   25.10
  -6   8   2  235.08   24.10
  -8  -6   2  228.78   20.40
  -6   8   2  240.98   17.90
  -5   8  -2   65.39   12.00
   8   5  -2   20.60   11.60
  -8  -5  -2   46.10    7.20
   8   5  -2   39.50    9.00
  -5   8  -2   49.70   10.00
   8   5   2   43.70   12.40
  -5   8   2   67.49    7.10
  -8  -5   2   46.20    9.00
  -5   8   2   48.00   13.30
   8   5   2   44.10   11.20
  -5   8   2   52.79   10.30
   8   4  -2   -0.70    4.80
  -8  -4  -2    5.90    4.10
  -4   8  -2    2.00    4.90
  -4   8  -2    9.10    6.80
   8   4  -2   -1.20    9.80
  -8  -4   2    2.90    4.70
  -4   8   2    2.80    4.80
  -4   8   2   -6.90    8.30
   8   4   2    7.10    9.20
  -8  -3  -2   73.09    9.40
   8   3  -2   62.79   11.70
   8   3  -2   66.99   15.40
  -3   8  -2   83.69   12.00
  -3   8  -2   65.09   10.10
  -8  -3  -2   58.09    8.40
  -3   8   2   60.49   10.00
   8   3   2   56.79   13.00
   8   3   2   60.49    7.30
  -8  -3   2   49.80    9.60
  -3   8   2   86.09   12.50
  -8  -3   2   59.99    9.30
  -2   8  -2  553.64   37.60
  -8  -2  -2  468.55   35.20
  -8  -2  -2  472.55   35.40
  -2   8  -2  501.25   36.70
   8   2  -2  540.25   41.30
   8   2  -2  564.74   40.00
  -8  -2  -2  508.55   35.40
  -8  -2   2  535.55   37.00
   8   2   2  498.15   41.70
  -2   8   2  555.34   38.00
  -2   8   2  515.15   36.40
  -8  -2   2  497.95   36.10
   8   1  -2  113.69   17.80
  -8  -1  -2  119.29   12.40
  -8  -1  -2  131.39   12.60
  -1   8  -2  115.59   13.00
   8   1  -2  123.79   15.70
  -8  -1  -2  117.19   12.30
  -8  -1   2  114.89   13.80
  -8  -1   2  132.29   13.20
   8   1   2  180.48   22.30
  -1   8   2  132.19   15.10
  -1   8   2  121.19   11.90
   8   0  -2 2608.94  157.88
  -8   0  -2 2412.36  152.58
  -8   0  -2 2389.56  152.78
   0   8  -2 2507.25  153.18
  -8   0  -2 2508.35  152.88
  -8   0   2 2522.95  153.28
  -8   0   2 2511.55  153.68
   8   0   2 2327.27  157.28
   0   8   2 2368.86  151.18
   0   8   2 2452.25  151.28
   1   8  -2  117.89   15.30
   1   8  -2  104.39   12.50
  -1  -8  -2  107.09    9.20
   8  -1  -2  118.89   18.50
  -8   1  -2  144.89   13.30
  -8   1  -2  128.89   13.90
  -8   1  -2  125.99   12.90
  -8   1   2  127.09   14.00
  -8   1   2  120.29   13.80
   8  -1   2  161.58   22.00
   1   8   2  111.59   10.70
   1   8   2  123.09   10.70
  -8   2  -2  504.55   37.10
  -8   2  -2  516.75   37.10
   2   8  -2  550.64   37.80
   2   8  -2  516.95   37.40
  -8   2  -2  534.75   37.40
  -2  -8   2  513.85   39.30
  -8   2   2  595.14   38.10
  -8   3  -2   46.30    8.70
  -8   3  -2   46.50    8.60
  -8   3  -2   68.09   10.00
   3   8  -2   62.39   15.00
   3   8  -2   62.89    7.60
  -8   3   2   54.29    9.80
  -8   3   2   51.99    9.30
  -3  -8   2   61.39   10.20
   4   8  -2    7.00   11.70
  -8   4  -2    5.00    5.40
   4   8  -2    2.60    3.00
  -8   4  -2    3.00    4.70
  -8   4   2    0.30    4.70
  -4  -8   2    2.60    5.20
   4   8   2    0.90    2.60
   4   8   2   -7.10    7.10
  -8   4   2    4.30    5.20
  -8   4   2   13.40    7.00
   5   8  -2   59.29    7.70
   5   8  -2   56.29   11.90
  -8   5  -2   49.90    9.10
  -8   5  -2   43.90    8.70
   5   8   2   50.49    6.60
  -8   5   2   40.60    9.50
  -8   5   2   32.30    7.90
   5   8   2   64.39   11.30
  -8   5   2   49.99    8.70
  -5  -8   2   67.09    9.20
   6   8  -2  288.37   20.80
  -8   6  -2  247.78   21.40
   6   8  -2  233.38   24.40
  -8   6  -2  266.27   21.20
  -8   6   2  223.98   20.90
  -6  -8   2  247.88   20.70
  -8   6   2  239.88   20.70
   6   8   2  238.08   22.00
   6   8   2  278.37   20.30
  -8   6   2  231.58   21.90
   7   8  -2  528.65   36.30
   7   8  -2  507.45   39.60
  -8   7  -2  497.45   36.00
  -8   7   2  479.15   36.90
  -7  -8   2  512.45   35.70
   7   8   2  492.45   35.90
  -8   7   2  475.05   35.60
   7   8   2  495.35   37.30
  -8   7   2  513.95   35.50
   8   8  -2 2042.10  125.69
   8   8  -2 1997.10  127.29
  -8   8   2 2011.10  125.79
  -8   8   2 1794.32  123.29
  -8  -8   2 2009.60  124.09
   8   8   2 1981.50  124.99
  -8   8   2 1889.01  122.99
   8   8   2 2003.90  125.49
   9   8  -2   10.90    6.30
   9   8  -2    6.70   11.60
  -9  -8   2   18.90    7.50
   9   8   2   21.80   10.50
   9   8   2   17.50    9.20
  -8   9   2   16.90    5.40
  -8   9   2   16.70    6.30
   9   7  -2   -9.50   10.70
  -7   9  -2    3.60    6.30
   9   7  -2    1.10    4.80
  -7   9   2   -3.00    6.30
   9   7   2   -6.00    9.70
  -9  -7   2   -0.80    5.80
   9   7   2   -1.60    7.60
   9   6  -2  141.09   21.00
  -6   9  -2  172.78   20.10
   9   6  -2  184.58   19.20
   9   6   2  172.28   21.90
  -9  -6   2  186.88   17.20
  -6   9   2  162.08   20.00
   9   6   2  177.58   21.50
  -5   9  -2  230.68   23.50
  -5   9  -2  268.37   25.50
   9   5  -2  247.98   23.90
   9   5  -2  217.58   27.70
  -9  -5  -2  278.97   20.00
  -5   9   2  247.98   24.10
   9   5   2  251.37   26.00
  -9  -5   2  215.38   20.90
  -5   9   2  252.67   28.00
   9   5   2  284.07   29.30
   9   4  -2 1767.92  113.89
  -9  -4  -2 1751.72  108.79
  -4   9  -2 1661.93  112.59
  -4   9  -2 1700.93  112.49
   9   4  -2 1767.62  115.09
   9   4   2 1718.33  113.79
  -4   9   2 1775.42  112.59
  -4   9   2 1788.02  112.89
   9   4   2 1722.33  114.49
  -9  -4   2 1674.23  110.09
  -3   9  -2   50.99   10.20
  -9  -3  -2   40.00    7.50
  -3   9  -2   27.70    7.50
   9   3  -2   17.20   12.00
   9   3   2   17.40   10.60
  -3   9   2   40.50    8.20
  -9  -3   2   52.19    9.50
  -3   9   2   38.00   10.60
  -2   9  -2   56.19    9.60
  -2   9  -2   57.39    9.40
  -9  -2  -2   67.09    9.70
   9   2  -2   45.30   13.60
  -9  -2  -2   64.09   10.60
  -9  -2  -2   84.89   10.30
  -9  -2   2   86.39   11.00
  -2   9   2   53.59   10.90
   9   2   2   38.50   12.90
  -2   9   2   46.50    8.30
  -9  -2   2   72.19   11.00
  -9  -1  -2   38.60    7.30
  -1   9  -2   46.50    8.30
   9   1  -2   27.50   12.20
  -1   9  -2   39.00    7.00
  -9  -1  -2   32.20    7.30
  -9  -1  -2   28.60    6.90
  -1   9   2   35.90    8.70
  -9  -1   2   34.90    8.00
  -9  -1   2   36.50    9.00
  -1   9   2   36.90    6.40
   9   1   2   56.79   14.30
  -9   0  -2    0.30    4.80
   0   9  -2    3.00    4.50
  -9   0  -2   -2.30    4.10
   9   0  -2   -1.50   13.10
  -9   0  -2    1.50    4.60
  -9   0   2   -8.40    5.30
   9   0   2    8.50   11.10
   0   9   2    4.20    3.10
   0   9   2    7.60    5.50
  -9   0   2    0.70    5.20
  -9   1  -2   27.50    7.60
   1   9  -2   44.70   10.00
  -9   1  -2   38.10    8.20
  -9   1  -2   33.10    8.00
  -9   1   2   27.00    7.50
  -9   1   2   25.60    8.00
   1   9   2   41.70    6.00
   1   9   2   50.59    5.90
  -9   2  -2   88.09   11.40
  -9   2  -2   76.89   10.90
   2   9  -2   41.50    8.10
   2   9  -2   48.30    8.10
  -9   2  -2   77.59   10.50
  -9   2   2   57.09    9.60
  -2  -9   2   44.60   10.80
  -9   2   2   76.09   11.10
   3   9  -2   54.39    9.30
   3   9  -2   48.60    6.20
  -9   3  -2   37.90    8.50
  -9   3  -2   34.70    7.90
  -9   3  -2   36.50    8.40
  -9   3   2   35.30    8.90
  -3  -9   2   39.50    9.10
  -9   3   2   41.20    8.90
   4   9  -2 1694.83  103.59
   4   9  -2 1551.84  106.79
  -9   4  -2 1686.33  106.89
  -9   4  -2 1712.63  106.79
  -9   4   2 1745.13  107.09
  -4  -9   2 1697.43  105.89
  -9   4   2 1680.73  107.59
  -9   4   2 1595.64  106.59
   5   9  -2  235.38   18.50
   5   9  -2  239.58   29.40
  -9   5  -2  247.38   21.30
  -9   5  -2  241.28   21.50
  -9   5   2  254.87   21.80
  -9   5   2  251.37   22.40
  -5  -9   2  255.17   20.60
  -9   5   2  280.17   21.90
  -9   6  -2  176.78   17.00
   6   9  -2  166.88   14.90
   6   9  -2  169.28   20.80
  -9   6  -2  171.28   17.30
  -6  -9   2  150.38   16.20
   6   9   2  188.38   14.80
  -9   6   2  170.68   19.50
   6   9   2  175.98   19.20
  -9   6   2  182.88   17.40
  -9   6   2  184.98   17.30
  -9   7  -2    3.50    5.90
   7   9  -2   -4.20    9.50
   7   9  -2   10.30    4.60
  -9   7  -2   -5.80    5.10
   7   9   2   -1.00    5.60
   7   9   2    3.70    8.80
  -9   7   2    3.80    5.30
  -9   7   2    3.70    5.40
  -9   7   2    0.50    6.50
   8   9  -2   19.60   11.60
   8   9  -2   10.10    5.50
  -9   8   2   13.00    6.40
   8   9   2   12.00    8.70
   8   9   2   10.10    7.40
  -9   8   2   29.10    9.40
  -9   8   2   26.40    7.70
   9   9  -2  276.47   24.20
   9   9  -2  251.97   29.80
  -9   9   2  281.87   22.40
  -9   9   2  287.47   23.20
   9   9   2  270.17   25.90
   9   9   2  286.77   27.00
  10   9  -2  112.89   19.40
  10   9  -2  112.09   15.10
  10   9   2  102.39   16.70
  10   9   2   87.09   15.60
  10   8  -2  195.88   25.20
  10   8  -2  231.98   22.40
  10   8   2  202.78   24.20
  10   8   2  193.08   25.00
  10   7  -2  175.78   19.70
  -7  10  -2  126.29   19.30
  10   7  -2  189.68   24.10
  10   7   2  165.78   21.10
  10   7   2  165.88   22.20
 -10  -7   2  186.28   17.90
  -7  10   2  148.99   20.80
  10   6  -2  140.79   21.80
  -6  10  -2  179.18   21.00
 -10  -6   2  190.68   18.20
  10   6   2  192.88   24.00
  -6  10   2  184.78   21.60
  10   6   2  198.78   23.40
  10   5  -2   10.10   12.20
  -5  10  -2   23.50    8.70
 -10  -5  -2   15.50    6.10
  10   5   2   25.90   11.50
  10   5   2   17.30   15.50
 -10  -5   2   10.90    7.00
  -5  10   2   30.90    9.10
  -5  10   2   11.70   11.40
  -4  10  -2   64.09   11.30
  10   4  -2   50.19   16.20
  -4  10  -2   72.49   13.10
 -10  -4  -2   68.59    9.90
  10   4   2   46.70   13.20
 -10  -4   2   71.69   11.30
  -4  10   2   66.39   11.20
  -4  10   2   69.89   13.60
 -10  -3  -2  129.29   14.90
  -3  10  -2  160.18   17.80
  10   3  -2  146.49   23.40
  -3  10  -2  155.28   16.70
  10   3   2  117.69   19.40
 -10  -3   2  153.98   17.40
  -3  10   2  149.59   17.90
  -3  10   2  163.18   16.60
  -2  10  -2   77.29   11.50
  10   2  -2   85.89   17.90
  -2  10  -2   91.79   12.80
 -10  -2  -2   82.79   11.60
  -2  10   2   87.89   13.30
 -10  -2   2   97.89   13.60
  -2  10   2   98.59   11.80
  10   2   2  117.69   18.80
 -10  -1  -2  195.78   17.80
 -10  -1  -2  190.98   18.00
 -10  -1  -2  191.38   18.00
  -1  10  -2  183.48   17.00
  -1  10  -2  198.78   18.40
  -1  10   2  209.28   18.70
  10   1   2  212.78   28.60
  -1  10   2  187.78   16.50
 -10  -1   2  187.48   18.40
 -10  -1   2  176.38   18.20
   0  10  -2  170.48   17.20
 -10   0  -2  141.19   16.00
 -10   0  -2  160.28   16.00
   0  10  -2  147.69   13.90
 -10   0  -2  159.08   15.90
   0  10   2  140.19   12.80
   0  10   2  161.58   14.40
 -10   0   2  151.98   17.60
 -10   0   2  160.48   16.50
 -10   1  -2  198.28   18.10
   1  10  -2  201.98   15.60
 -10   1  -2  193.98   18.40
   1  10  -2  178.18   20.00
 -10   1  -2  197.98   18.50
 -10   1   2  193.28   18.70
 -10   1   2  180.88   18.70
 -10   2  -2   69.19   11.40
 -10   2  -2   73.99   12.30
 -10   2  -2   83.19   12.00
   2  10  -2   92.99   10.40
  -2 -10   2   91.79   14.30
 -10   2   2   94.59   13.30
 -10   2   2  110.89   14.10
 -10   3  -2  164.18   16.70
 -10   3  -2  164.38   18.10
 -10   3  -2  144.49   17.40
   3  10  -2  172.88   12.00
 -10   3   2  123.89   16.70
  -3 -10   2  156.68   17.20
 -10   3   2  119.69   16.50
 -10   3   2  118.79   16.00
   4  10  -2   70.09    8.60
 -10   4  -2   68.29   12.00
   4  10  -2   74.69    7.00
 -10   4  -2   70.29   11.70
 -10   4   2   62.99   11.10
 -10   4   2   53.79   10.60
  -4 -10   2   78.69   16.40
 -10   4   2   64.59   11.60
 -10   5  -2   12.20    7.10
   5  10  -2   10.40    9.40
 -10   5  -2   23.60    7.90
   5  10  -2   22.90    4.00
 -10   5   2    8.70    6.50
 -10   5   2   20.90    7.90
 -10   5   2   22.50    9.00
   6  10  -2  150.78   21.90
 -10   6  -2  203.48   19.00
   6  10  -2  186.98   14.70
 -10   6  -2  139.19   17.90
 -10   6   2  204.28   18.80
 -10   6   2  179.98   17.90
 -10   6   2  162.78   20.10
   7  10  -2  160.68   14.40
 -10   7  -2  173.88   17.80
   7  10  -2  112.89   20.90
 -10   7  -2  142.49   17.50
 -10   7   2  193.18   17.50
 -10   7   2  177.88   17.80
 -10   7   2  149.79   19.60
   8  10  -2  225.68   27.50
   8  10  -2  242.48   19.30
 -10   8   2  239.68   20.70
 -10   8   2  221.08   20.70
 -10   8   2  188.38   22.70
   8  10   2  178.68   19.00
   8  10   2  232.98   25.10
   9  10  -2  101.79   17.40
 -10   9   2  112.39   14.10
   9  10   2  102.59   13.60
   9  10   2  105.69   16.30
 -10   9   2   95.39   12.90
  11   8  -2   17.50   14.60
  11   8   2   21.90   12.90
  11   8   2   14.30   11.30
  11   7  -2   52.39   17.00
  -7  11  -2   51.59   12.70
  -7  11   2   55.89   13.10
 -11  -7   2   49.70   11.00
  11   7   2   48.40   13.90
  -6  11  -2   31.20   10.00
  11   6  -2   11.80   13.10
  11   6   2   17.30   11.30
 -11  -6   2   30.40    9.10
  -6  11   2   23.40    9.00
  11   5  -2 1464.15  107.09
 -11  -5  -2 1561.04  101.49
  -5  11  -2 1578.54  104.79
 -11  -5   2 1565.44  101.69
  -5  11   2 1602.84  104.79
  11   5   2 1617.04  106.79
  -4  11  -2  390.26   34.00
  11   4  -2  384.46   40.30
  -4  11  -2  415.06   33.40
 -11  -4  -2  387.86   30.20
  -4  11   2  399.96   33.10
  -4  11   2  411.46   35.00
  11   4   2  421.76   38.90
 -11  -4   2  414.86   32.20
  -3  11  -2  786.92   54.79
  -3  11  -2  701.83   53.29
  11   3  -2  771.92   62.29
 -11  -3  -2  790.82   52.39
  -3  11   2  733.83   53.29
  -3  11   2  782.42   54.39
 -11  -3   2  764.22   53.59
  11   3   2  798.62   60.49
  -2  11  -2   27.70    8.10
  -2  11  -2   29.90    7.40
 -11  -2  -2   44.10    9.10
  -2  11   2   26.10    6.80
  -2  11   2   23.40    8.70
 -11  -2   2   30.80    9.10
  -1  11  -2  103.89   11.80
 -11  -1  -2   84.19   12.40
  -1  11  -2  102.19   13.30
 -11  -1   2   76.89   12.90
  -1  11   2   81.59   11.40
  -1  11   2   92.79   10.80
   0  11  -2   27.60    6.00
 -11   0  -2   14.80    7.00
   0  11  -2   32.10    9.30
 -11   0  -2   20.10    7.20
 -11   0  -2   20.10    7.40
 -11   0   2   12.60    8.10
 -11   0   2    3.80    6.70
   0  11   2   28.30    5.50
   0  11   2   31.00    5.90
   1  11  -2   92.39   13.20
 -11   1  -2   86.79   13.20
   1  11  -2  102.19    9.90
 -11   1  -2   92.49   13.90
 -11   1  -2   93.69   13.90
 -11   1   2  106.09   15.70
 -11   1   2  106.49   14.80
   2  11  -2   32.80    4.60
   2  11  -2   35.90    5.20
 -11   2  -2   20.60    7.80
 -11   2  -2   31.40    9.30
 -11   2  -2   30.30    8.60
 -11   2   2   32.10    9.00
 -11   2   2   41.10   10.40
 -11   3  -2  731.33   51.79
 -11   3  -2  802.52   52.29
 -11   3  -2  766.82   51.89
 -11   3   2  654.33   51.19
 -11   3   2  660.73   51.49
 -11   3   2  788.22   53.29
 -11   4  -2  513.65   34.70
 -11   4  -2  467.45   33.90
 -11   4   2  360.86   32.70
 -11   4   2  429.86   34.10
 -11   4   2  363.96   32.50
 -11   5  -2 1614.44  102.79
 -11   5  -2 1528.35  102.59
 -11   5   2 1590.24  103.79
 -11   5   2 1501.35  102.19
 -11   5   2 1641.24  103.19
 -11   6  -2   33.90    9.40
 -11   6  -2   27.30    9.10
 -11   6   2   34.20    9.60
 -11   6   2   25.80    8.90
 -11   6   2   36.20   10.20
 -11   7  -2   49.99   11.20
 -11   7  -2   76.99   13.00
   7  11  -2   56.49   12.50
 -11   7   2   67.79   12.10
 -11   7   2   65.89   11.80
 -11   7   2   57.19   13.30
   8  11  -2   21.00   15.20
 -11   8  -2   24.10    8.90
 -11   8   2   13.50    8.30
 -11   8   2   25.80    8.60
  12   6  -2   81.19   20.50
  -6  12  -2   97.29   17.10
 -12  -6   2   99.99   14.90
  12   6   2   74.09   17.40
  -6  12   2   90.29   15.50
  12   5  -2    7.50   14.50
  -5  12  -2   33.90   10.00
  -5  12   2   28.40    9.10
  12   5   2   16.20   12.20
 -12  -5   2   21.70    8.60
  -4  12  -2    3.20    6.00
  -4  12  -2   -0.20    6.90
 -12  -4  -2   -1.10    5.80
  12   4   2   11.90   11.30
  -4  12   2    1.60    5.20
 -12  -4   2   11.90    7.70
  -4  12   2  -17.20    8.50
 -12  -3  -2  338.57   26.80
  -3  12  -2  324.47   28.10
  -3  12  -2  315.27   28.90
  -3  12   2  315.17   27.30
  -3  12   2  334.67   29.30
 -12  -3   2  339.37   28.00
  -2  12  -2   20.00    6.90
  -2  12  -2   14.70    7.10
 -12  -2  -2   21.80    8.20
 -12  -2   2   11.40    7.50
  -2  12   2   21.60    6.50
  -2  12   2   17.00    7.40
  -1  12  -2  862.11   60.19
 -12  -1  -2  896.21   61.79
  -1  12  -2  925.01   63.49
 -12  -1   2  965.30   63.59
  -1  12   2  928.11   59.49
  -1  12   2  880.81   59.39
   0  12  -2  428.46   31.50
   0  12  -2  478.35   37.50
 -12   0  -2  396.66   34.40
 -12   0  -2  450.25   34.70
 -12   0   2  442.06   35.90
   0  12   2  447.06   31.00
   0  12   2  467.85   30.10
 -12   0   2  455.25   35.70
   1  12  -2  857.21   60.69
 -12   1  -2  918.31   63.69
   1  12  -2  900.51   58.69
 -12   1  -2  938.71   63.99
 -12   1  -2  961.70   64.19
 -12   1   2  936.41   64.59
 -12   1   2 1040.80   65.19
 -12   2  -2   17.00    7.80
 -12   2  -2    2.00    7.20
 -12   2  -2   21.70    8.30
 -12   2   2   18.20    8.10
 -12   2   2   17.30    8.60
 -12   2   2   16.10    9.30
 -12   3  -2  337.97   28.70
 -12   3  -2  309.37   28.40
 -12   3   2  333.27   29.50
 -12   3   2  345.57   29.50
 -12   3   2  362.76   29.70
 -12   4  -2    9.30    7.50
 -12   4  -2    0.80    6.70
 -12   4   2   11.90    8.10
 -12   4   2   -1.50    7.00
 -12   4   2    5.10    7.00
 -12   5  -2   16.60    8.10
 -12   5  -2   12.20    8.20
 -12   5   2   13.60    8.00
 -12   5   2   21.60    9.00
 -12   5   2   10.70    8.10
 -12   6  -2  105.89   15.80
 -12   6  -2   84.79   15.10
 -12   6   2   88.29   14.60
 -12   6   2   94.39   16.20
 -12   6   2  106.09   15.40
  -4  13  -2   29.00    9.00
  -4  13  -2   12.80    8.70
 -13  -4  -2   36.50   14.00
  -4  13   2   33.60    9.20
  -4  13   2    8.10    9.40
 -13  -4   2   25.50   10.00
 -13  -3  -2  592.64   43.10
  -3  13  -2  582.54   45.30
  -3  13  -2  574.14   43.90
  -3  13   2  603.54   43.90
 -13  -3   2  595.74   44.60
  -3  13   2  577.24   43.40
  -2  13  -2    7.60    5.80
  -2  13  -2   18.00    7.70
 -13  -2  -2   24.50    8.60
  -2  13   2   18.20    6.30
 -13  -2   2    8.00    8.20
  -2  13   2   21.50    7.20
  -1  13  -2    4.30    4.50
  -1  13  -2    1.20    7.60
 -13  -1  -2    9.10    7.40
  -1  13   2    9.20    5.30
 -13  -1   2    7.90    7.70
  -1  13   2    9.80    4.60
   0  13  -2   42.80   10.10
   0  13  -2   43.50    6.60
 -13   0  -2   22.40    9.10
 -13   0   2   25.90   10.40
 -13   1  -2   13.40    8.20
 -13   1  -2   14.20    8.70
 -13   1  -2   12.30    8.10
 -13   1   2    4.80    8.10
 -13   1   2    4.90    7.40
 -13   1   2   22.00   10.10
 -13   2  -2   15.80    8.80
 -13   2  -2    1.10    6.80
 -13   2  -2   16.70    9.20
 -13   2   2   30.20   10.90
 -13   2   2    6.60    8.30
 -13   2   2   36.70   10.50
 -13   3  -2  634.84   47.30
 -13   3  -2  648.74   47.80
 -13   3   2  594.34   47.00
 -13   3   2  663.73   48.10
 -13   3   2  596.04   47.90
 -13   4  -2   16.50    8.60
 -13   4  -2   24.70    9.60
 -13   4   2    8.60    7.80
 -13   4   2   21.60    9.20
 -13   4   2   14.20    8.90
   0   0  -3  -11.80   11.00
   0   0   3    7.00    5.40
   0   0   3    2.30    6.50
   1   0  -3   31.60    6.40
   0   1  -3   14.90    7.50
  -1   0  -3   64.89   13.70
   1   0  -3   27.80    8.20
   0  -1  -3   20.30   17.30
   0   1  -3   21.60   12.90
   0   1   3   10.90    9.50
  -1   0   3   27.90    5.70
   0   1   3   18.40    6.10
   0   1   3   16.40    4.50
   0  -1   3   18.40    7.50
  -1   0   3   32.90    5.80
  -1   0   3   20.50    5.50
   0   1   3   24.80    5.20
   1   0   3   26.50    8.00
   1   1  -3  233.48   20.10
  -1   1  -3  242.88   19.50
  -1   1  -3  234.88   25.40
   1  -1  -3  215.38   20.40
   1   1  -3  233.38   22.00
  -1   1   3  253.37   18.40
   1  -1   3  254.87   19.90
  -1  -1   3  194.28   19.60
  -1  -1   3  235.78   18.80
  -1   1   3  198.18   20.00
   1   1   3  228.18   24.40
  -1  -1   3  232.48   18.90
  -1   1   3  239.88   16.50
  -1   1   3  247.28   16.70
   1   1   3  198.08   17.40
   1   1   3  239.48   16.10
   1   1   3  219.08   21.20
   2   1  -3 3279.17  209.98
  -1   2  -3 3801.72  212.58
   2   1  -3 3257.57  209.88
  -2  -1  -3 3287.77  207.48
  -1   2  -3 3393.66  210.08
  -1   2   3 3381.76  207.38
   2   1   3 3375.36  207.38
  -1   2   3 3270.57  207.58
   2   1   3 3256.97  207.88
  -1   2   3 3189.08  209.18
  -2  -1   3 3547.94  209.08
  -2  -1   3 3529.85  209.08
   2   1   3 3509.15  210.28
  -1   2   3 3766.12  210.58
   2   1   3 3429.86  210.48
   0   2  -3   33.70    8.60
   2   0  -3   20.40    5.00
  -2   0  -3   20.80    4.00
   2   0  -3   14.30    6.60
   0   2   3   31.40    3.90
   2   0   3   18.90    5.50
  -2   0   3   30.70    5.60
  -2   0   3   17.90    5.10
  -2   0   3   14.10    4.60
   0   2   3   29.70    4.10
   0   2   3   26.30    5.80
  -2   1  -3 3289.77  206.68
   1   2  -3 3331.47  208.78
   2  -1  -3 3634.94  207.08
   1   2  -3 3083.99  208.68
   1   2   3 3461.95  203.78
  -2   1   3 3475.25  206.68
   1   2   3 2965.20  208.48
   2  -1   3 3348.96  206.88
  -2   1   3 3412.46  204.98
   1   2   3 3665.33  204.28
  -2   1   3 3434.16  204.88
   1   2   3 3449.16  203.98
   1   2   3 3082.99  209.28
  -2   2  -3  160.88   20.70
  -2   2  -3  216.58   16.70
  -2  -2  -3  199.08   13.60
  -2  -2  -3  185.48   13.60
   2   2  -3  208.98   17.50
   2   2   3  206.58   17.60
  -2   2   3  193.38   17.80
  -2  -2   3  168.48   16.40
   2   2   3  196.28   20.10
  -2  -2   3  201.78   16.50
  -2   2   3  192.48   16.10
  -2   2   3  190.88   14.20
   2   2   3  194.78   13.20
   2  -2   3  205.28   16.80
   2   2   3  199.78   13.30
  -2   2   3  185.98   14.40
   2   2   3  186.48   14.30
  -2   3  -3  242.38   20.20
  -3  -2  -3  275.47   17.70
  -3  -2  -3  261.77   17.70
   3   2  -3  262.77   20.30
   3   2  -3  203.58   23.10
   3   2   3  258.67   17.10
  -3  -2   3  296.07   19.90
  -2   3   3  269.87   20.40
  -2   3   3  267.07   18.00
  -2   3   3  238.18   17.70
   3   2   3  256.47   20.40
  -3  -2   3  265.47   19.70
  -2   3   3  270.47   22.00
   3   2   3  251.87   19.50
   3   1  -3  704.63   44.40
  -3  -1  -3  629.54   40.30
   3   1  -3  598.94   42.30
  -1   3  -3  756.12   47.00
  -1   3  -3  671.03   42.90
  -3  -1  -3  580.94   40.20
   3   1   3  604.94   40.10
  -1   3   3  630.04   39.70
  -1   3   3  619.44   39.70
  -3  -1   3  629.34   41.50
   3   1   3  604.44   42.60
   3   1   3  558.34   43.60
  -1   3   3  731.93   44.10
  -3  -1   3  608.24   41.40
  -1   3   3  655.33   42.10
  -3   0  -3  167.18   12.00
   3   0  -3  163.08   14.00
  -3   0  -3  159.78   11.80
  -3   0  -3  139.49   17.50
   0   3  -3  148.49   15.50
  -3   0   3  173.58   13.20
   0   3   3  149.69   10.50
   3   0   3  139.69   14.10
   0   3   3  159.98   13.70
   0   3   3  147.39   10.40
  -3   0   3  168.38   12.80
   3   0   3  191.88   18.10
  -3   0   3  144.09   13.80
   0   3   3  132.49   10.20
   1   3  -3  534.45   50.69
   3  -1  -3  570.64   41.40
  -3   1  -3  557.74   37.90
  -3   1  -3  652.23   38.10
  -3   1  -3  523.65   41.70
   1   3  -3  628.64   43.20
  -3   1   3  610.94   40.30
  -3   1   3  614.04   38.30
   1   3   3  596.54   36.20
   1   3   3  628.34   36.00
   1   3   3  549.35   41.60
  -3   1   3  554.54   38.20
   3  -1   3  592.14   42.40
   1   3   3  515.55   46.40
  -3   1   3  569.14   40.90
   3  -1   3  604.64   40.30
   2   3  -3  309.67   24.80
  -3   2  -3  268.67   21.30
  -3   2  -3  278.17   25.50
  -3   2  -3  233.88   18.80
  -2  -3  -3  281.47   17.90
   2   3  -3  274.17   22.30
   2   3   3  313.37   27.10
  -2  -3   3  243.28   21.10
  -3   2   3  258.37   19.10
  -2  -3   3  243.48   20.90
   3  -2   3  285.47   21.80
  -3   2   3  218.88   18.60
  -3   2   3  288.57   22.90
  -3   2   3  313.47   21.80
   2   3   3  252.87   21.70
  -3   3  -3  142.29   14.20
  -3  -3  -3  143.39   10.60
  -3   3  -3  153.18   17.80
   3   3  -3  175.68   17.40
  -3  -3  -3  139.49   10.60
   3   3  -3  136.89   13.40
  -3   3   3  120.69   15.00
  -3  -3   3  156.38   14.20
   3   3   3  144.59   13.40
  -3  -3   3  144.99   13.60
  -3   3   3  139.29   11.70
  -3   3   3  139.79   13.70
   3   3   3  154.98   17.00
  -3   3   3  131.39   11.40
  -4  -3  -3   96.59    9.00
   4   3  -3   97.39   13.20
  -4  -3  -3  117.29    9.20
   4   3  -3  111.79   11.60
  -3   4  -3  118.29   13.10
  -3   4   3  135.49    9.80
   4   3   3  129.39   14.50
  -3   4   3  105.59   13.20
  -4  -3   3  127.49   11.50
   4   3   3  115.29   12.20
  -3   4   3  102.79    9.80
  -4  -3   3  113.49   11.40
  -3   4   3   99.39   11.80
   4   3   3  107.89    8.10
   4   3   3  108.09    7.60
   4   2  -3  371.66   27.30
   4   2  -3  364.76   29.30
  -4  -2  -3  390.96   24.90
  -2   4  -3  406.16   27.80
  -4  -2  -3  362.96   24.80
  -2   4  -3  369.46   30.00
   4   2  -3  358.96   26.00
  -4  -2   3  366.96   26.30
   4   2   3  388.66   29.00
   4   2   3  358.46   24.10
  -4  -2   3  368.76   26.10
  -2   4   3  376.36   24.20
  -2   4   3  342.47   27.50
   4   2   3  338.17   27.10
  -2   4   3  405.66   27.30
  -2   4   3  375.96   24.60
  -4  -1  -3    6.20    3.10
  -4  -1  -3    6.70    3.10
   4   1  -3    8.50    4.20
  -1   4  -3  -22.90    9.30
  -1   4  -3   14.90    5.00
  -1   4   3    6.50    6.30
   4   1   3    5.60    2.80
  -1   4   3    8.80    2.60
  -1   4   3    8.90    3.70
  -1   4   3   11.50    2.10
  -4  -1   3    8.20    4.80
   4   1   3    4.20    4.70
   4   1   3   17.00    8.80
  -4  -1   3    4.90    3.80
  -4   0  -3    3.80    3.10
   0   4  -3    2.50    4.20
   4   0  -3    2.50    3.40
  -4   0  -3   -1.80    2.50
   0   4  -3   -8.50   12.30
   4   0  -3  -13.60    7.00
  -4   0   3   -0.30    3.70
   4   0   3    0.80    5.70
  -4   0   3    9.20    4.10
   0   4   3   -1.20    7.20
  -4   0   3   10.10    4.90
   0   4   3    2.40    3.30
   0   4   3    3.10    1.60
  -4   1  -3    5.00    3.30
  -4   1  -3    7.50    3.60
   1   4  -3   11.00    6.90
   1   4   3  -11.30   10.20
   1   4   3   12.40    5.30
   4  -1   3    7.30    6.10
  -4   1   3   -0.80    3.50
  -4   1   3   11.10    4.70
  -4   1   3    5.50    3.90
  -4   2  -3  331.67   24.80
   2   4  -3  376.16   30.90
  -4   2  -3  329.97   24.70
   4  -2  -3  364.76   29.60
   2   4  -3  357.46   28.20
  -4   2  -3  393.46   28.00
   2   4   3  351.26   27.40
  -4   2   3  377.16   28.50
  -2  -4   3  329.67   27.30
   4  -2   3  351.66   28.40
  -4   2   3  373.96   27.50
  -4   2   3  372.56   25.30
  -4   2   3  377.66   25.20
   2   4   3  376.26   33.00
  -4   3  -3  116.79   14.00
  -4   3  -3   93.59   10.00
  -4   3  -3  111.79   10.40
   3   4  -3  107.79   13.20
   3   4  -3  123.29   12.00
  -4   3   3  101.39   10.10
  -4   3   3  112.59   14.10
   3   4   3  110.39   11.10
   3   4   3  125.29   14.90
   4  -3   3   88.09   13.10
  -4   3   3  113.19   12.50
  -4   3   3  105.39   10.50
  -3  -4   3   96.99   12.20
  -3  -4   3  107.69   12.40
  -4   4  -3  978.90   66.29
   4   4  -3  994.80   64.79
  -4  -4  -3 1057.49   62.79
   4   4  -3  891.41   65.69
  -4   4   3 1016.70   66.09
  -4  -4   3 1019.90   64.29
   4   4   3  965.20   63.99
   4   4   3  875.41   64.49
  -4   4   3  987.00   63.39
  -4  -4   3 1061.99   64.89
  -4   4   3 1098.39   63.19
  -4   4   3 1018.10   66.89
  -5  -4  -3  612.44   37.90
  -5  -4  -3  609.24   38.60
  -5  -4  -3  671.43   40.90
  -4   5  -3  620.74   43.20
   5   4  -3  618.44   44.40
   5   4  -3  594.04   41.50
  -5  -4   3  609.74   40.80
  -4   5   3  591.24   39.60
  -4   5   3  592.14   44.00
  -5  -4   3  609.84   40.30
  -4   5   3  532.25   38.70
  -4   5   3  614.64   42.50
   5   4   3  579.94   42.40
   5   4   3  536.85   40.90
  -5  -3  -3  179.38   13.80
   5   3  -3  171.88   19.80
  -5  -3  -3  187.18   13.40
  -5  -3  -3  198.48   14.10
  -3   5  -3  180.48   17.60
   5   3  -3  166.88   16.40
  -3   5   3  193.08   16.80
   5   3   3  210.28   17.90
  -3   5   3  162.88   13.20
   5   3   3  177.48   12.50
  -3   5   3  180.08   13.80
  -3   5   3  224.28   19.40
  -3   5   3  183.38   14.20
   5   3   3  227.78   20.50
   5   3   3  162.38   13.90
  -5  -3   3  165.48   15.90
  -5  -3   3  200.68   15.60
  -2   5  -3 1847.02  118.59
  -2   5  -3 1838.62  119.29
  -5  -2  -3 1946.81  116.19
   5   2  -3 1869.91  119.69
   5   2  -3 1846.62  116.89
  -5  -2  -3 1871.81  115.69
  -5  -2  -3 1854.11  116.19
   5   2  -3 1897.81  119.19
  -2   5   3 2059.99  118.49
  -2   5   3 1880.61  114.49
   5   2   3 1905.01  115.59
  -2   5   3 1926.21  118.59
  -2   5   3 1877.01  114.99
   5   2   3 1634.94  118.79
  -5  -2   3 1847.22  117.49
  -5  -2   3 1964.00  117.39
  -2   5   3 1928.31  115.69
  -1   5  -3  941.71   63.19
  -5  -1  -3  954.80   61.29
  -5  -1  -3  998.50   61.29
   5   1  -3 1061.29   64.59
   5   1  -3 1077.59   65.89
  -1   5  -3  983.10   65.29
  -1   5   3  968.70   59.89
   5   1   3  969.70   64.39
  -1   5   3  901.31   62.49
  -5  -1   3  994.70   62.19
  -5  -1   3  950.30   62.39
   5   1   3  921.61   64.89
   5   1   3  994.50   60.99
  -1   5   3  868.31   61.99
  -5   0  -3   46.50    6.70
   5   0  -3   80.79   13.70
   0   5  -3   62.99    9.20
  -5   0  -3   37.40    6.10
   5   0  -3   33.60    7.30
   0   5  -3   42.20   12.30
  -5   0   3   45.70    7.20
  -5   0   3   41.20    6.90
   5   0   3   41.70   10.50
  -5   0   3   50.69    8.70
   0   5   3   47.20    6.70
   0   5   3   43.60    8.00
   1   5  -3  963.90   66.49
  -5   1  -3 1055.59   64.59
  -5   1  -3  992.80   61.99
   1   5  -3  822.32   69.09
   5  -1  -3  974.90   66.29
  -5   1  -3  949.31   61.69
   1   5   3  943.41   63.29
   1   5   3 1020.80   64.39
  -5   1   3  880.41   61.79
  -5   1   3  945.41   62.19
   5  -1   3 1026.50   66.39
   5  -1   3  983.80   65.09
  -5   1   3 1024.00   64.79
   2   5  -3 1682.43  116.99
  -5   2  -3 1701.23  111.49
   5  -2  -3 1869.11  115.89
  -5   2  -3 1733.83  113.99
  -5   2  -3 1957.00  111.89
   2   5  -3 1560.14  114.19
  -5   2   3 1948.11  114.79
  -2  -5   3 1645.54  114.19
  -5   2   3 1837.52  111.99
   2   5   3 1696.53  115.89
   2   5   3 1604.24  112.99
  -5   2   3 1882.11  115.09
   5  -2   3 2077.79  115.69
  -5   2   3 1915.81  111.89
  -5   3  -3  164.98   17.00
  -5   3  -3  163.78   14.70
  -5   3  -3  171.18   18.20
   3   5  -3  201.38   16.70
  -5   3  -3  199.28   15.30
   5  -3   3  160.58   20.30
  -5   3   3  168.18   15.00
  -3  -5   3  174.68   17.10
  -5   3   3  198.58   20.40
  -5   3   3  167.18   17.00
   3   5   3  204.38   22.90
   3   5   3  193.58   15.30
  -5   3   3  174.28   15.30
   4   5  -3  599.14   43.80
   4   5  -3  624.34   41.60
  -5   4  -3  573.44   43.30
  -5   4  -3  576.94   43.70
  -5   4  -3  620.34   40.60
  -5   4  -3  609.34   40.50
  -5   4   3  676.23   40.50
  -4  -5   3  634.04   42.10
  -5   4   3  573.14   40.50
  -5   4   3  602.14   43.40
  -5   4   3  631.04   45.50
   4   5   3  578.54   40.50
   4   5   3  594.24   42.50
  -5   5  -3   78.39   12.30
   5   5  -3   75.09   13.60
   5   5  -3   98.79   11.40
  -5   5  -3   89.09   12.70
   5   5   3   81.29   10.80
  -5   5   3  104.69   10.10
  -5   5   3  110.99   17.40
  -5   5   3   87.19   12.40
  -5   5   3   77.29   10.20
  -5  -5   3  104.39   13.20
  -5  -5   3   93.19   11.70
  -5   6  -3   17.70    8.10
  -5   6  -3   13.00    6.60
  -6  -5  -3   14.50    3.60
   6   5  -3   11.50    5.40
   6   5  -3    3.90   10.20
  -5   6   3    3.80    5.30
   6   5   3    8.70    7.60
  -5   6   3    9.00    4.70
   6   5   3   15.30    7.80
  -5   6   3   14.10    4.30
  -5   6   3    1.80   10.20
  -6  -5   3    7.70    6.00
  -5   6   3    7.90    5.20
  -6  -4  -3   66.89    8.10
  -4   6  -3   48.50    9.60
   6   4  -3   66.49   10.10
  -4   6  -3   51.39   10.50
  -6  -4  -3   60.49    7.30
  -6  -4  -3   63.19    6.70
   6   4  -3   37.30   12.60
  -4   6   3   53.89    7.00
   6   4   3   73.89   11.70
  -4   6   3   48.60    6.20
  -4   6   3   51.69    8.00
  -6  -4   3   66.79    9.20
  -6  -4   3   58.99    9.80
  -4   6   3   38.30   11.30
   6   4   3   55.19   12.30
  -4   6   3   49.20    9.40
  -3   6  -3  887.71   61.49
   6   3  -3  931.41   61.39
   6   3  -3  865.41   62.69
  -6  -3  -3  936.31   57.49
   6   3  -3  931.21   59.19
  -6  -3  -3  918.31   57.99
  -6  -3  -3  892.61   57.99
  -3   6   3  940.81   58.09
   6   3   3  943.71   62.09
   6   3   3  849.72   58.49
   6   3   3  876.51   62.39
  -6  -3   3  876.11   59.59
  -3   6   3  888.61   60.59
   6   3   3  943.71   56.69
  -6  -3   3  917.01   59.19
  -3   6   3  940.41   56.89
  -3   6   3  917.41   56.19
  -2   6  -3 1081.29   70.29
  -6  -2  -3 1042.10   66.09
   6   2  -3 1061.49   69.59
   6   2  -3 1010.10   66.69
  -2   6  -3 1069.59   68.89
  -6  -2  -3 1039.40   65.69
   6   2  -3 1101.69   71.49
  -6  -2  -3  910.81   65.89
   6   2   3 1119.09   71.19
  -2   6   3  981.20   67.59
  -2   6   3 1076.39   65.29
  -6  -2   3 1015.40   67.19
   6   2   3 1021.50   69.79
  -2   6   3 1079.09   63.59
  -2   6   3 1087.49   68.79
   6   2   3 1030.20   65.49
  -6  -2   3 1039.60   67.59
   6   1  -3   87.39   12.40
  -1   6  -3  140.39   16.10
  -6  -1  -3   92.29    9.90
  -6  -1  -3  107.99   10.20
  -1   6  -3  108.89   12.10
  -6  -1  -3  113.19   10.10
   6   1  -3   87.99   16.10
  -6  -1   3  111.89   11.20
   6   1   3   97.09   14.90
  -1   6   3   84.59   11.10
  -1   6   3   99.19   10.70
   6   1   3  111.79    9.80
   6   1   3  112.09   16.40
  -6  -1   3  102.09   11.80
   0   6  -3    0.30    8.90
  -6   0  -3    1.00    3.50
   6   0  -3    2.50    4.30
  -6   0  -3    2.70    3.40
  -6   0  -3    1.30    3.70
   0   6  -3    6.20    5.00
   6   0  -3   -5.60   11.50
   0   6   3    3.10    5.50
   6   0   3   -8.10    9.00
   6   0   3   -7.50    8.00
   0   6   3    2.00    3.20
  -6   0   3    3.60    4.70
  -6   0   3    7.00    4.60
  -6   1  -3  107.89   10.70
  -6   1  -3  117.79   10.90
   1   6  -3   96.79   14.30
  -6   1  -3   98.29   12.40
   6  -1  -3  113.69   20.10
   1   6  -3  102.19   17.80
   1   6   3   96.69   11.90
  -6   1   3   93.09   11.10
  -6   1   3  107.89   13.80
   1   6   3   98.19   11.50
   6  -1   3  125.49   16.80
  -6   1   3   77.29   10.80
   6  -1   3   99.19   16.60
  -6   2  -3 1035.40   65.29
   2   6  -3  965.30   68.19
  -6   2  -3 1014.60   68.09
  -6   2  -3  983.50   64.99
   2   6  -3 1136.39   74.99
   6  -2   3 1048.10   69.59
  -6   2   3  986.30   65.49
   2   6   3  960.20   66.19
  -6   2   3 1047.40   65.49
   2   6   3 1005.20   67.79
  -2  -6   3  958.40   68.09
  -6   2   3 1053.79   68.39
   6  -3  -3  691.93   66.99
   3   6  -3  949.40   60.29
  -6   3  -3  899.91   61.99
  -6   3  -3  911.91   58.89
  -6   3  -3  911.41   58.89
   3   6  -3  937.71   64.89
  -6   3   3  938.01   59.09
   3   6   3  888.11   64.69
   3   6   3  937.61   58.09
  -3  -6   3  899.51   60.79
  -6   3   3  951.10   64.39
   6  -3   3  970.40   64.29
  -6   3   3  919.31   59.39
  -6   3   3  825.02   61.49
  -6   4  -3   54.39   10.30
  -6   4  -3   44.20    7.60
   4   6  -3   42.00    7.40
  -6   4  -3   75.79    9.70
   4   6  -3   34.10   11.20
  -6   4  -3   56.09   11.20
  -6   4   3   61.69   10.60
  -6   4   3   46.00    7.70
   4   6   3   59.99    8.00
  -4  -6   3   44.80    9.40
  -6   4   3   51.39    8.80
   5   6  -3   -4.20    8.50
  -6   5  -3    8.50    6.30
  -6   5  -3   17.60    5.50
   5   6  -3    5.70    4.20
  -6   5   3    9.20    6.60
   5   6   3   12.60    6.10
   5   6   3   10.50    7.70
  -6   5   3   13.60    5.30
  -6   5   3   10.80   12.30
  -6   5   3   12.50    6.00
  -5  -6   3   16.90    6.70
  -6   6  -3 1036.90   66.39
   6   6  -3  903.31   62.49
   6   6  -3  897.01   64.79
  -6  -6   3  953.50   62.19
  -6   6   3  960.20   61.89
   6   6   3  882.11   61.99
  -6   6   3  957.00   60.99
  -6   6   3  959.90   65.39
   6   6   3  949.60   63.19
  -6   6   3  910.71   60.39
  -6   7  -3  775.72   55.09
   7   6  -3  799.72   55.39
   7   6  -3  715.63   51.99
  -6   7   3  807.12   50.99
   7   6   3  686.33   52.59
  -6   7   3  772.52   48.90
  -6   7   3  785.72   49.50
   7   6   3  684.03   52.09
  -6   7   3  765.22   54.49
  -7  -6   3  719.03   50.79
  -5   7  -3  328.77   27.20
   7   5  -3  254.47   29.80
  -5   7  -3  306.97   27.30
   7   5  -3  328.07   25.80
  -7  -5  -3  301.07   21.00
   7   5   3  272.47   27.00
  -5   7   3  258.47   25.40
  -5   7   3  312.67   29.90
   7   5   3  277.87   28.00
  -5   7   3  320.17   21.20
  -5   7   3  312.27   21.70
  -7  -5   3  296.57   24.00
  -5   7   3  306.97   23.00
  -4   7  -3  131.79   17.00
  -4   7  -3  119.19   15.40
  -7  -4  -3  136.79   11.50
   7   4  -3  132.09   15.50
  -4   7   3  125.99   15.10
   7   4   3  152.48   18.30
  -4   7   3  141.19   10.20
  -4   7   3  128.49   12.70
  -7  -4   3  150.78   15.80
  -4   7   3  146.99   11.30
   7   4   3  131.99   17.20
  -7  -3  -3   66.19    8.10
   7   3  -3   65.19   14.70
  -7  -3  -3   74.99    9.00
  -3   7  -3   76.89   11.80
  -7  -3  -3   79.09    9.10
   7   3  -3   71.69   10.50
   7   3  -3   75.09   11.80
  -7  -3   3   53.79    9.10
   7   3   3   40.90   12.30
   7   3   3   68.19    7.20
  -3   7   3   82.49    8.90
   7   3   3   53.09   11.90
  -3   7   3   73.29   10.40
  -3   7   3   80.09    5.90
  -7  -3   3   66.59   10.70
  -3   7   3   56.59   11.90
  -7  -2  -3  399.06   28.20
  -2   7  -3  394.76   30.90
   7   2  -3  352.46   35.50
  -7  -2  -3  362.16   28.40
  -7  -2  -3  438.56   28.90
   7   2  -3  426.96   32.60
  -2   7   3  420.66   31.50
   7   2   3  431.76   29.90
   7   2   3  387.96   34.20
  -7  -2   3  417.66   29.90
  -2   7   3  456.65   30.70
   7   2   3  419.56   35.40
  -7  -2   3  419.06   30.40
  -7  -1  -3   18.30    5.10
  -7  -1  -3   15.60    4.90
  -7  -1  -3   11.70    4.70
   7   1  -3   20.40    7.20
   7   1  -3   12.60   12.10
  -1   7  -3   10.80    8.70
  -1   7  -3   11.80    5.50
  -7  -1   3   17.60    6.80
  -1   7   3   11.80    4.50
   7   1   3   25.50   11.30
   7   1   3    8.70   11.40
  -1   7   3    6.20    5.90
  -7  -1   3   18.50    6.20
  -7   0  -3  187.28   16.30
  -7   0  -3  199.28   16.50
   0   7  -3  199.18   18.80
   7   0  -3  204.88   19.90
  -7   0  -3  211.88   16.70
   7   0  -3  272.37   28.10
   0   7  -3  219.08   23.60
  -7   0   3  186.98   17.80
  -7   0   3  201.28   16.90
   7   0   3  177.18   22.30
   7   0   3  226.28   24.30
   0   7   3  187.38   17.30
   0   7   3  176.98   15.90
   7  -1  -3   30.90   15.20
   1   7  -3   10.10    7.40
   1   7  -3   20.00   12.30
   7  -1  -3   22.00    9.40
  -7   1  -3   10.60    5.10
  -7   1  -3   13.20    5.10
  -7   1   3   13.30    6.00
   1   7   3   10.50    4.90
  -7   1   3   18.00    5.70
   1   7   3    6.70    5.50
   7  -1   3   17.80   11.00
   7  -2  -3  245.28   49.50
  -7   2  -3  439.86   29.70
   2   7  -3  347.87   40.10
   2   7  -3  385.76   32.20
  -7   2  -3  457.15   29.90
  -7   2   3  441.36   30.10
   2   7   3  363.96   29.40
   7  -2   3  413.46   36.00
  -2  -7   3  400.46   33.30
  -7   2   3  445.36   30.60
   2   7   3  428.26   29.80
   3   7  -3   67.99   17.50
  -7   3  -3   69.59    9.60
   3   7  -3   81.39   10.50
  -7   3  -3   70.59   10.00
   3   7   3   81.39    8.30
  -7   3   3   53.29   10.80
  -3  -7   3   72.19   12.50
  -7   3   3   71.89   10.80
   3   7   3   55.09   13.20
  -7   3   3   50.39    8.90
   4   7  -3  121.39   19.20
  -7   4  -3  134.69   13.90
   4   7  -3  147.79   13.70
  -7   4  -3  136.59   13.80
   4   7   3  138.59   12.90
  -7   4   3  134.19   14.90
   4   7   3  142.19   19.40
  -7   4   3  133.89   13.80
  -7   4   3  147.79   17.50
  -4  -7   3  135.69   15.80
   5   7  -3  269.17   28.40
  -7   5  -3  323.17   24.50
  -7   5  -3  334.67   24.60
   5   7  -3  326.07   24.30
  -5  -7   3  314.37   24.80
   5   7   3  308.17   27.70
  -7   5   3  294.67   24.00
  -7   5   3  319.27   28.00
  -7   5   3  301.57   24.80
  -7   5   3  330.97   24.40
   5   7   3  290.07   23.80
  -7   6  -3  764.32   61.89
   6   7  -3  772.02   56.09
   6   7  -3  798.32   53.29
  -7   6  -3  740.73   52.39
   6   7   3  802.82   54.29
  -7   6   3  855.01   52.79
  -7   6   3  810.12   57.39
   6   7   3  761.12   52.69
  -7   6   3  802.82   52.09
  -6  -7   3  785.62   53.19
  -7   6   3  725.03   52.89
  -7   7  -3   27.40   11.00
   7   7  -3   33.40    7.70
   7   7  -3   26.60   11.80
  -7   7   3   29.40    8.20
   7   7   3   19.30    9.40
  -7   7   3   26.40    9.20
   7   7   3   39.10    9.50
  -7   7   3   25.20    6.50
  -7   7   3   37.50    7.50
  -7  -7   3   36.70    8.50
   8   7  -3   45.90   13.60
  -7   8  -3    9.30    8.90
   8   7  -3   10.30    5.90
  -8  -7   3   14.80    6.90
  -7   8   3    4.90    6.60
  -7   8   3    7.20    5.00
   8   7   3   14.70   10.20
  -7   8   3    6.30    6.00
   8   7   3    6.30    8.20
  -7   8   3   14.20    5.20
  -6   8  -3   38.00   10.40
   8   6  -3   46.10   10.10
   8   6  -3   39.80   14.00
   8   6   3   39.90   11.60
  -6   8   3   55.59    6.90
  -6   8   3   54.09   11.60
  -6   8   3   65.39    8.00
  -8  -6   3   55.09    9.90
  -6   8   3   59.49    9.80
   8   6   3   30.00   11.10
   8   5  -3   93.19   14.50
   8   5  -3  107.89   18.80
  -5   8  -3  108.79   15.20
  -8  -5  -3  125.29   10.80
  -5   8  -3  118.39   17.50
  -5   8   3  130.69   12.80
  -8  -5   3  124.09   14.50
   8   5   3   90.09   15.30
   8   5   3  107.59   16.90
  -5   8   3  112.19   16.90
  -5   8   3   93.39   14.00
  -5   8   3  103.09    9.80
   8   4  -3  224.48   21.80
  -4   8  -3  223.98   21.70
   8   4  -3  198.08   24.20
  -4   8  -3  228.58   22.70
  -8  -4  -3  230.58   17.30
  -4   8   3  217.58   20.90
   8   4   3  232.88   26.00
   8   4   3  232.58   25.30
  -4   8   3  237.18   24.90
  -8  -4   3  201.08   19.60
  -3   8  -3  193.68   18.80
   8   3  -3  164.08   22.00
  -8  -3  -3  199.38   15.70
  -3   8  -3  194.48   19.40
   8   3  -3  184.18   19.70
  -3   8   3  179.18   17.90
   8   3   3  242.28   25.60
  -3   8   3  181.18   21.40
  -8  -3   3  177.38   17.90
   8   3   3  191.78   23.90
  -8  -3   3  177.98   18.10
   8   2  -3  176.58   18.80
  -8  -2  -3  149.19   14.40
  -8  -2  -3  171.18   14.40
  -8  -2  -3  177.68   15.00
   8   2  -3  169.38   22.80
  -2   8  -3  164.98   17.10
  -2   8   3  165.78   18.70
   8   2   3  171.08   21.00
   8   2   3  148.79   19.80
  -8  -2   3  155.08   15.80
  -2   8   3  144.29   15.30
  -8  -2   3  180.98   16.00
   8   1  -3  634.14   52.89
  -1   8  -3  740.53   48.20
  -8  -1  -3  651.13   45.90
  -8  -1  -3  714.23   46.30
  -8  -1  -3  676.23   45.60
  -8  -1   3  695.93   47.40
  -8  -1   3  734.83   47.20
   8   1   3  629.64   51.69
  -1   8   3  680.93   46.20
  -1   8   3  722.93   47.20
   8   1   3  637.64   51.79
  -8   0  -3   92.79   11.30
   8   0  -3   63.59   18.90
  -8   0  -3  103.59   11.80
   0   8  -3  160.18   17.90
  -8   0  -3   78.09   10.80
   0   8   3  107.49   12.50
   8   0   3   87.49   16.70
  -8   0   3   94.79   12.00
  -8   0   3   96.89   12.90
  -8   1  -3  730.83   47.50
  -8   1  -3  707.03   47.20
   1   8  -3  712.93   49.99
   1   8  -3  694.13   51.59
  -8   1  -3  704.73   47.30
   8  -1   3  696.13   53.29
   1   8   3  700.73   45.60
   1   8   3  684.53   47.30
  -8   1   3  659.13   47.40
  -8   1   3  690.43   48.10
   2   8  -3  203.88   22.10
   2   8  -3  150.48   18.00
  -8   2  -3  136.29   15.20
  -8   2  -3  172.88   15.80
  -8   2   3  161.48   16.00
   2   8   3  160.88   14.50
  -8   2   3  171.58   18.10
   2   8   3  176.08   14.20
  -2  -8   3  158.18   20.60
   3   8  -3  183.18   16.90
  -8   3  -3  171.28   16.80
  -8   3  -3  191.68   17.10
  -8   3   3  169.48   16.80
   3   8   3  169.28   13.70
   3   8   3  210.78   16.90
  -3  -8   3  203.18   19.70
  -8   3   3  204.98   18.60
  -8   4  -3  247.38   19.40
   4   8  -3  210.58   26.60
  -8   4  -3  202.68   18.60
   4   8  -3  222.98   17.90
  -4  -8   3  239.78   20.40
  -8   4   3  224.78   20.10
   4   8   3  197.98   23.30
  -8   4   3  169.18   18.00
   4   8   3  207.28   16.50
  -8   5  -3   86.19   12.20
   5   8  -3  107.59   12.00
   5   8  -3   88.99   18.20
  -8   5  -3  137.79   13.70
  -8   5   3  106.69   13.20
   5   8   3  119.39   18.70
  -8   5   3  123.09   14.60
   5   8   3  109.09   12.90
  -8   5   3  117.79   13.30
  -5  -8   3  108.09   14.00
  -8   6  -3   46.60    9.30
  -8   6  -3   53.89    9.30
   6   8  -3   54.89   13.10
   6   8  -3   54.09    8.70
   6   8   3   25.00    8.10
  -8   6   3   63.19    9.90
   6   8   3   78.99   13.70
  -6  -8   3   45.00    9.50
  -8   6   3   40.90    8.10
  -8   6   3   49.30    9.60
   7   8  -3   19.30   11.70
   7   8  -3    8.00    5.20
   7   8   3   11.50   10.00
  -8   7   3    6.60    5.40
  -8   7   3    9.20    6.20
   7   8   3    1.40    6.20
  -8   7   3   10.20    5.80
  -7  -8   3   13.40    6.60
   8   8  -3  131.89   19.70
   8   8  -3  139.09   15.50
  -8   8   3  107.89   15.20
  -8   8   3  125.09   14.10
  -8  -8   3  124.19   15.30
   8   8   3  136.29   17.60
   8   8   3  118.09   15.20
  -8   8   3  115.79   13.20
   9   8  -3  106.29   18.40
   9   8  -3   95.09   14.10
  -9  -8   3   64.49   11.60
  -8   9   3   70.99    9.50
   9   8   3   86.99   15.10
   9   8   3   80.59   13.70
  -8   9   3   68.39   10.30
   9   7  -3   63.99   16.30
   9   7  -3   64.79   11.90
  -7   9   3   62.79   12.60
  -7   9   3   66.39    8.90
   9   7   3   54.89   12.20
  -9  -7   3   67.89   11.50
   9   7   3   57.09   14.30
   9   6  -3   23.00   14.10
   9   6  -3   30.10    9.10
  -6   9  -3   36.40   10.60
   9   6   3   30.10   12.10
  -6   9   3   31.80    9.70
  -9  -6   3   27.70    8.10
   9   6   3   22.80   10.60
  -9  -5  -3  408.96   27.80
  -5   9  -3  358.16   32.70
   9   5  -3  419.86   39.90
   9   5  -3  423.06   33.30
   9   5   3  342.87   34.70
  -5   9   3  394.66   32.90
  -9  -5   3  366.06   30.10
  -5   9   3  401.76   37.00
   9   5   3  421.06   36.60
  -4   9  -3  163.58   20.10
  -9  -4  -3  183.98   15.60
  -4   9  -3  193.98   19.90
   9   4  -3  170.78   23.00
  -4   9   3  193.38   23.80
   9   4   3  183.18   22.60
   9   4   3  155.28   22.10
  -4   9   3  182.28   18.90
  -9  -4   3  196.18   18.20
   9   3  -3  419.66   38.70
  -9  -3  -3  413.86   29.80
  -3   9  -3  452.45   33.40
  -3   9  -3  409.16   33.60
   9   3   3  463.05   44.30
  -3   9   3  419.46   34.20
  -9  -3   3  406.56   32.00
   9   3   3  420.96   38.20
  -3   9   3  388.96   32.10
   9   2  -3   18.60   12.90
  -2   9  -3   35.20    8.70
  -2   9  -3   34.40    7.80
  -9  -2  -3   39.00    7.70
  -9  -2  -3   32.70    6.90
  -2   9   3   31.20    7.20
  -9  -2   3   30.40    8.20
  -9  -2   3   19.30    7.00
  -2   9   3   23.00    9.00
  -1   9  -3   30.40    8.00
   9   1  -3   11.30   13.70
  -9  -1  -3   41.30    7.80
  -9  -1  -3   27.90    7.00
  -9  -1  -3   34.90    7.20
  -9  -1   3   42.80    8.50
  -9  -1   3   42.30    9.40
  -1   9   3   25.40    8.00
   9   1   3   41.00   14.10
  -1   9   3   28.40    6.40
  -9   0  -3 1733.63  105.39
  -9   0  -3 1640.14  104.79
   0   9  -3 1691.33  108.29
  -9   0  -3 1663.43  105.19
   0   9   3 1519.25  103.99
  -9   0   3 1635.74  106.19
   9   0   3 1880.81  120.39
   0   9   3 1585.94  103.69
  -9   0   3 1659.63  105.79
  -9   1  -3   52.39    9.30
  -9   1  -3   48.20    8.90
  -9   1  -3   44.60    8.80
   1   9  -3   40.00   10.40
   1   9  -3   46.10   10.20
  -9   1   3   44.00    9.20
  -9   1   3   38.60    9.20
   1   9   3   21.30    5.70
   1   9   3   34.70    7.70
  -9   2  -3   45.70    8.40
   2   9  -3   31.30    8.50
  -9   2  -3   32.60    7.60
   2   9  -3   33.60   10.60
  -9   2   3   44.40    9.80
   2   9   3   22.40    4.60
  -2  -9   3   23.20   10.70
   2   9   3   29.20    4.90
  -9   2   3   26.40    7.90
  -9   3  -3  411.96   32.40
  -9   3  -3  493.75   33.40
   3   9  -3  475.75   32.00
   3   9  -3  411.26   37.00
  -9   3   3  415.86   33.40
  -9   3   3  393.26   32.40
  -3  -9   3  437.76   34.70
  -9   4  -3  199.18   18.70
   4   9  -3  184.08   25.80
   4   9  -3  189.88   16.10
  -9   4  -3  182.98   18.00
  -4  -9   3  200.48   19.50
  -9   4   3  190.88   19.30
  -9   4   3  177.28   18.00
   5   9  -3  393.96   40.40
   5   9  -3  403.66   28.70
  -9   5  -3  439.36   30.90
  -9   5  -3  357.16   30.00
  -9   5   3  451.75   31.10
   5   9   3  361.96   30.80
  -9   5   3  352.76   30.60
   5   9   3  390.56   26.40
  -5  -9   3  408.46   30.60
  -9   5   3  386.96   30.20
  -9   6  -3   36.00    8.60
   6   9  -3   33.20   15.90
  -9   6  -3   32.00    8.60
   6   9  -3   32.50    6.80
  -6  -9   3   28.40    8.10
  -9   6   3   27.60    8.80
   6   9   3   22.10    5.90
  -9   6   3   27.40    8.10
  -9   6   3   20.00    6.90
   6   9   3   20.10   14.90
   7   9  -3   73.89   10.50
   7   9  -3   47.60   14.60
  -9   7   3   70.79   12.30
  -7  -9   3   76.79   12.10
   7   9   3   63.49   16.30
   7   9   3   50.39    8.80
  -9   7   3   61.89   10.80
  -9   7   3   60.09   10.30
   8   9  -3   71.69   11.40
   8   9  -3   62.29   16.20
  -9   8   3   70.39   11.00
   8   9   3   77.39   11.50
  -9   8   3   84.89   13.70
  -9   8   3   82.39   11.90
  -8  -9   3   85.39   13.80
   8   9   3   69.59   14.50
   9   9  -3   63.29   11.40
   9   9  -3   50.79   15.50
   9   9   3   46.90   11.30
   9   9   3   81.99   15.10
  -9   9   3   69.19    9.60
  -9   9   3   71.39   10.80
  10   9  -3  378.36   31.30
  10   9  -3  331.97   37.60
  10   9   3  350.76   33.90
  10   9   3  356.46   31.90
  10   8  -3   24.60   14.80
  10   8  -3   39.70   10.40
  10   8   3   27.20   11.20
  10   8   3   37.40   13.10
 -10  -8   3   34.40    9.50
  10   7  -3  538.35   47.40
  -7  10   3  557.94   44.80
  10   7   3  489.85   42.60
  10   7   3  541.25   45.40
 -10  -7   3  564.74   40.20
  -6  10  -3   25.80    9.40
  10   6  -3   27.40   15.10
 -10  -6   3   46.80   10.20
  10   6   3   44.50   14.50
  -6  10   3   41.30   10.70
  10   6   3   28.00   11.10
  10   5  -3  388.46   41.10
  -5  10  -3  412.06   34.40
 -10  -5   3  395.66   31.40
  10   5   3  402.26   36.20
  -5  10   3  402.76   33.70
  -5  10   3  377.56   39.50
  -4  10  -3  198.78   21.60
  10   4  -3  172.58   24.80
  -4  10  -3  209.48   23.10
 -10  -4  -3  225.48   18.40
  -4  10   3  208.88   21.40
 -10  -4   3  222.88   20.80
  10   4   3  205.18   25.90
  -4  10   3  289.37   27.90
  10   3  -3  411.86   41.30
  -3  10  -3  483.25   36.00
  -3  10  -3  429.56   34.50
 -10  -3  -3  428.96   31.60
 -10  -3   3  455.45   34.10
  -3  10   3  438.76   34.00
  -3  10   3  448.16   36.40
  10   3   3  393.86   38.90
 -10  -2  -3   61.39    9.80
  -2  10  -3   76.09   12.20
  -2  10  -3   70.49   11.50
  10   2  -3   38.90   19.20
  10   2   3   67.69   16.30
 -10  -2   3   98.39   13.60
  -2  10   3   69.19   10.40
  -2  10   3   63.29   12.30
 -10  -1  -3   33.30    8.30
  -1  10  -3   37.20    9.00
 -10  -1  -3   28.50    7.40
  -1  10  -3   31.00    7.50
 -10  -1  -3   33.50    8.10
  -1  10   3   38.00    9.30
 -10  -1   3   31.50    9.40
 -10  -1   3   32.20    8.30
  -1  10   3   32.40    6.80
   0  10  -3   32.20    9.90
 -10   0  -3   29.60    7.90
 -10   0  -3   23.00    7.30
 -10   0  -3   17.20    7.10
   0  10   3   26.10    6.30
 -10   0   3   23.80    8.00
   0  10   3   28.80    7.60
 -10   0   3   22.90    7.50
 -10   1  -3   33.70    8.10
 -10   1  -3   29.60    7.70
 -10   1  -3   30.60    8.10
   1  10  -3   44.00   11.00
 -10   1   3   47.70   10.30
   1  10   3   38.40    6.80
 -10   1   3   38.00    9.30
   1  10   3   35.20    8.10
   2  10  -3   60.89   10.80
 -10   2  -3   69.59   11.50
 -10   2  -3   66.89   11.40
   2  10  -3   74.89   11.30
 -10   2   3   71.59   12.50
 -10   2   3   72.39   11.70
  -2 -10   3   70.79   14.10
 -10   3  -3  470.25   35.10
   3  10  -3  477.55   32.80
   3  10  -3  428.36   34.70
 -10   3  -3  485.95   35.30
 -10   3   3  470.25   35.70
  -3 -10   3  501.05   37.00
 -10   3   3  427.46   34.80
 -10   4  -3  219.68   20.50
   4  10  -3  202.88   24.40
   4  10  -3  214.28   17.60
 -10   4  -3  239.68   21.10
 -10   4   3  227.28   21.10
  -4 -10   3  216.38   21.50
 -10   4   3  255.17   22.80
 -10   4   3  214.78   21.00
 -10   5  -3  363.66   30.60
 -10   5  -3  376.76   30.70
   5  10  -3  392.76   27.90
   5  10  -3  380.66   37.30
 -10   5   3  378.26   32.00
  -5 -10   3  429.76   31.10
 -10   5   3  396.96   31.40
 -10   5   3  398.06   31.00
   6  10  -3   32.70    6.70
 -10   6  -3   39.70    9.70
   6  10  -3   30.80   17.30
 -10   6  -3   48.90   10.50
 -10   6   3   31.70    9.00
 -10   6   3   54.39   10.00
 -10   6   3   36.00   10.50
   7  10  -3  572.04   38.40
 -10   7  -3  529.55   40.20
   7  10  -3  522.25   48.80
   7  10   3  507.45   43.10
 -10   7   3  569.24   40.20
 -10   7   3  552.24   41.20
 -10   7   3  569.34   40.00
   7  10   3  512.15   35.90
   8  10  -3   43.20   16.50
   8  10  -3   38.70    8.00
 -10   8   3   32.30    8.60
 -10   8   3   28.10    8.40
   8  10   3   23.00    7.80
   8  10   3   26.10   15.80
 -10   8   3   33.30   10.30
   9  10  -3  399.36   38.10
   9  10  -3  407.06   29.80
   9  10   3  303.67   28.60
 -10   9   3  354.16   28.60
   9  10   3  332.77   36.50
 -10   9   3  367.76   28.10
  11   8   3    9.20   12.50
  11   7  -3    2.60   15.00
  -7  11   3   15.60    8.80
 -11  -7   3   19.90    8.40
  11   7   3   17.40   10.60
  11   6  -3   -2.80   14.70
  -6  11  -3   13.40    8.10
  -6  11   3    8.40    7.20
  11   6   3    8.10   10.30
 -11  -6   3    9.50    7.80
  -5  11  -3  121.69   17.60
  11   5  -3  123.89   24.70
 -11  -5   3  163.08   18.40
  11   5   3  118.59   19.60
  -5  11   3  126.19   18.00
 -11  -4  -3   26.90    7.40
  -4  11  -3   23.00    9.60
  11   4  -3    7.80   13.60
  -4  11  -3   21.10    8.40
  11   4   3   23.90   12.10
 -11  -4   3   13.10    8.20
  -4  11   3   19.40    7.60
  -4  11   3    3.60   11.00
  -3  11  -3  326.27   28.00
  -3  11  -3  291.97   26.00
 -11  -3  -3  303.77   23.50
  -3  11   3  282.27   28.00
  11   3   3  297.97   32.20
  -3  11   3  259.27   25.00
 -11  -3   3  252.87   25.00
 -11  -2  -3  118.79   14.10
  -2  11  -3  109.19   14.10
  -2  11  -3   97.79   15.00
  -2  11   3   91.49   12.80
  -2  11   3   98.79   14.70
 -11  -2   3  106.39   15.40
  -1  11  -3   26.10    7.00
  -1  11  -3   21.90    8.50
 -11  -1  -3   23.10    7.40
 -11  -1   3   29.10    9.00
  -1  11   3   27.40    6.60
  -1  11   3   18.40    8.20
 -11   0  -3  293.27   26.00
 -11   0  -3  337.07   26.70
   0  11  -3  316.07   24.70
 -11   0  -3  295.77   25.60
   0  11  -3  323.27   30.40
 -11   0   3  317.07   27.00
   0  11   3  301.37   23.90
   0  11   3  319.27   24.80
 -11   0   3  322.67   27.70
   1  11  -3   33.70    9.60
   1  11  -3   23.30    5.60
 -11   1  -3   27.60    8.60
 -11   1  -3   16.80    7.60
 -11   1   3   31.80    9.00
 -11   1   3   21.00    8.40
   2  11  -3  103.49   13.00
 -11   2  -3  166.28   17.70
 -11   2  -3  107.19   14.90
 -11   2   3   85.99   14.50
 -11   2   3  104.69   14.80
  -2 -11   3  106.19   17.40
   3  11  -3  281.77   21.20
 -11   3  -3  293.47   25.30
 -11   3  -3  304.77   25.60
 -11   3   3  274.67   25.60
 -11   4  -3   15.40    7.70
 -11   4  -3   33.10    9.10
   4  11  -3   24.50    7.70
   4  11  -3   18.60    4.40
 -11   4   3   11.30    7.80
 -11   4   3   21.20    8.20
 -11   4   3   29.50    9.50
 -11   5  -3  135.39   17.60
   5  11  -3  148.39   17.70
 -11   5  -3  151.98   18.30
   5  11  -3  154.08   12.80
 -11   5   3  158.78   19.30
 -11   5   3  168.28   18.80
 -11   5   3  162.08   18.70
   6  11  -3    7.20    3.80
 -11   6  -3   -4.40    6.70
 -11   6  -3   10.90    7.60
   6  11  -3   11.90   10.70
 -11   6   3    7.50    6.90
 -11   6   3   16.60    8.70
 -11   6   3    3.10    6.80
   7  11  -3    8.40    4.20
 -11   7  -3   -3.80    6.70
   7  11  -3   -0.20   14.50
 -11   7   3   12.80    9.10
 -11   7   3   15.00    7.80
 -11   7   3   18.40    8.20
   8  11  -3   11.60    5.20
   8  11  -3   29.00   17.70
 -11   8   3    9.20    7.70
 -11   8   3   16.90    7.70
 -11   8   3   36.10   11.40
  -6  12  -3    7.30    8.30
  12   6  -3   -3.40   16.10
 -12  -6   3   20.60    8.90
  12   6   3   42.50   13.90
  -6  12   3   26.80   10.00
  12   5  -3   43.50   22.50
  -5  12  -3   60.99   13.20
  -5  12   3   68.69   13.40
  12   5   3   71.89   17.90
 -12  -5   3   70.69   13.00
  -4  12  -3   15.10    7.70
  -4  12   3    0.30   10.10
  12   4   3   30.70   16.30
 -12  -4   3   10.70    8.10
  -4  12   3   14.50    7.70
  -3  12  -3  341.37   29.20
  -3  12  -3  339.67   30.60
 -12  -3  -3  336.57   27.00
  -3  12   3  316.87   30.30
 -12  -3   3  369.26   29.90
  -3  12   3  329.07   28.50
  -2  12  -3    9.30    7.40
 -12  -2  -3   14.00    6.90
  -2  12  -3    4.20    5.60
 -12  -2   3   11.80    8.50
  -2  12   3    1.40    7.50
  -2  12   3   16.20    6.40
  -1  12  -3  333.57   30.20
 -12  -1  -3  313.77   25.90
  -1  12  -3  276.37   24.70
 -12  -1   3  291.97   27.00
  -1  12   3  297.37   24.80
  -1  12   3  313.97   24.70
   0  12  -3   47.80   12.20
   0  12  -3   35.90    7.40
 -12   0  -3   20.90    9.70
 -12   0   3   20.40    9.80
   0  12   3   40.30    6.70
 -12   0   3   23.40    9.10
   0  12   3   33.70    8.10
 -12   1  -3  304.47   26.50
   1  12  -3  276.87   26.30
   1  12  -3  302.67   22.70
 -12   1  -3  317.57   26.70
 -12   1   3  311.57   27.20
 -12   1   3  274.17   26.90
 -12   2  -3    3.20    6.90
 -12   2  -3    3.30    6.80
   2  12  -3    6.70    3.50
   2  12  -3    9.90    4.50
 -12   2   3   22.20   10.00
 -12   2   3   10.30    7.80
 -12   3  -3  360.46   29.60
   3  12  -3  315.37   22.60
   3  12  -3  331.37   22.80
 -12   3  -3  374.66   29.90
 -12   3   3  335.57   29.50
 -12   3   3  381.86   30.50
 -12   3   3  364.86   30.30
 -12   4  -3   20.10    8.70
 -12   4  -3   21.40    8.60
 -12   4   3   28.60    9.40
 -12   4   3   34.90   10.20
 -12   4   3   26.70   10.80
 -12   5  -3   64.69   13.00
 -12   5  -3   81.29   14.10
 -12   5   3   76.59   13.90
 -12   5   3   86.19   14.80
 -12   5   3   60.29   12.50
 -12   6  -3   30.10    9.80
 -12   6  -3   15.30    9.00
 -12   6   3   11.80    8.80
 -12   6   3   54.79   12.90
 -12   6   3   44.50   10.70
  -4  13  -3   18.50    8.50
  -4  13   3   -6.70   10.00
  -4  13   3   21.50    8.10
 -13  -4   3   20.60    8.80
  -3  13  -3   87.19   15.30
  -3  13  -3   75.69   12.90
 -13  -3   3   60.89   12.70
  -3  13   3   64.89   13.80
  -3  13   3   78.69   12.80
  -2  13  -3  126.69   19.10
  -2  13  -3   99.99   14.20
 -13  -2   3  131.89   18.40
  -2  13   3  128.09   15.40
  -2  13   3  132.59   15.30
  -1  13  -3  180.38   24.00
  -1  13  -3  180.88   17.50
 -13  -1   3  168.68   21.10
  -1  13   3  175.18   17.60
  -1  13   3  182.18   16.60
   0  13  -3  119.99   12.80
   0  13  -3  129.99   18.10
 -13   0   3  111.09   17.70
   1  13  -3  185.98   17.60
 -13   1  -3  220.28   21.80
 -13   1  -3  216.98   23.20
   1  13  -3  167.68   14.90
 -13   1   3  186.28   22.00
 -13   1   3  192.68   23.00
 -13   2  -3  151.18   19.40
 -13   2  -3  139.59   19.10
 -13   2   3  104.49   16.90
 -13   2   3  146.59   19.90
 -13   2   3  117.09   18.20
 -13   3  -3   52.99   12.60
 -13   3  -3   75.19   13.70
 -13   3   3   51.99   12.40
 -13   3   3   76.69   14.80
 -13   3   3   75.69   14.60
 -13   4  -3   10.70    8.90
 -13   4  -3   27.80   10.10
 -13   4   3   24.40   10.40
 -13   4   3   12.50    8.90
 -13   4   3   17.70    9.60
   0   0  -4 7777.22  463.35
   0   0   4 8039.90  463.35
   0   0   4 7095.59  458.65
   0   0   4 7265.17  463.25
   0   1  -4    2.60   11.60
  -1   0  -4   18.90   12.90
   0   1  -4   -0.30    6.00
   0  -1  -4   -6.50   13.20
   1   0  -4    0.50    9.50
  -1   0   4   11.80    5.60
   0  -1   4    2.50    6.00
  -1   0   4    6.30   10.20
  -1   0   4    4.40    4.90
   0   1   4   10.00    6.60
  -1   0   4    5.30    5.60
   0   1   4    4.80   14.10
   0   1   4    1.70    4.30
   1   0   4    0.00    5.80
   0  -1   4   11.30    7.60
   1   0   4    5.40   12.50
   0   1   4    5.30    4.80
   1   0   4    3.10    6.30
  -1   1  -4   40.80    9.40
   1   1  -4   52.19   10.80
   1  -1  -4  110.49   15.70
  -1  -1   4   51.39    9.40
  -1   1   4   56.59   12.90
  -1   1   4   49.60    6.70
   1   1   4   43.80   10.80
  -1   1   4   38.80    6.60
  -1  -1   4   39.30    8.00
  -1   1   4   44.30    8.50
   1   1   4   48.80    8.20
  -1  -1   4   48.80   10.40
   1  -1   4   50.69   10.00
   2   1  -4 1689.83   99.89
  -1   2  -4 1303.87  103.39
   2   1  -4 1705.23  100.59
  -1   2  -4 1382.66   99.49
  -2  -1   4 1436.76   98.99
  -1   2   4 1536.25   95.69
  -1   2   4 1564.54   98.59
   2   1   4 1763.72  101.99
   2   1   4 1522.55   98.19
   2   1   4 1599.34  100.69
  -1   2   4 1508.95   95.99
  -2  -1   4 1553.64   97.89
   1  -2   4 1505.55   99.69
  -2  -1   4 1620.64   97.99
   2   0  -4 3306.77  188.48
  -2   0  -4 3046.90  188.88
   0   2  -4 3155.18  191.08
   2   0  -4 3261.57  187.88
   0   2  -4 3136.69  193.28
  -2   0   4 3055.19  187.78
   0   2   4 3106.59  184.58
   2   0   4 2818.22  188.38
   0   2   4 2908.81  184.58
  -2   0   4 3115.89  185.98
   2   0   4 2834.72  188.68
   0   2   4 2615.74  190.48
   0   2   4 2908.61  188.38
  -2   0   4 3046.90  185.78
   1   2  -4 1481.05  103.09
   1   2  -4 1388.56   99.29
   2  -1  -4 1473.95   97.89
  -2   1  -4 1704.63  100.59
   1   2   4 1525.75   94.29
  -2   1   4 1519.35   97.19
  -2   1   4 1473.55   98.09
   1   2   4 1539.65  100.59
   2  -1   4 1594.84   98.39
   1   2   4 1643.84   94.19
   1   2   4 1495.15  103.09
   1   2   4 1433.66   94.39
  -2   1   4 1511.15   95.09
  -1  -2   4 1442.86   96.89
  -2   1   4 1606.74   95.09
   2   2  -4  879.01   58.99
  -2   2  -4  860.81   57.49
   2   2  -4  820.92   59.69
   2   2   4  895.11   53.89
  -2  -2   4  739.73   56.39
   2   2   4  858.71   53.59
   2   2   4  854.91   59.19
  -2  -2   4  878.31   57.49
  -2   2   4  857.71   57.09
  -2   2   4  935.11   59.19
  -2   2   4  824.42   54.59
  -2   2   4  871.91   54.49
   2  -2   4  872.71   57.89
   2   2   4  851.51   55.09
  -3  -2  -4   75.49    7.40
  -2   3  -4   80.19   17.00
  -2   3  -4   76.19   10.60
   3   2  -4   87.59   11.60
   3   2  -4   66.69   12.10
   3   2   4   67.49    6.70
   3   2   4   74.49   12.10
  -2   3   4   57.89   10.40
  -2   3   4   64.59    7.50
   3   2   4   82.59    7.00
   3   2   4   62.89   10.20
   3   2   4   55.79    8.80
  -3  -2   4   73.49   10.00
  -3  -2   4   88.99   11.40
  -2   3   4   71.39    7.70
  -2   3   4   61.19    9.40
  -3  -1  -4 1184.58   78.19
  -1   3  -4 1046.20   85.29
  -1   3  -4 1363.26   82.79
   3   1  -4 1313.97   81.69
   3   1   4 1242.58   81.89
  -1   3   4 1256.37   83.09
   3   1   4 1189.98   82.29
  -3  -1   4 1333.77   80.29
  -1   3   4 1318.67   81.09
  -3  -1   4 1258.97   79.99
  -1   3   4 1292.27   77.79
  -1   3   4 1264.17   77.99
   0   3  -4    2.20    5.70
   3   0  -4   -1.30    3.50
  -3   0  -4    1.70    3.10
  -3   0  -4    6.10    9.70
   0   3   4   -1.60   14.30
  -3   0   4    2.60    4.30
  -3   0   4    3.30    4.20
   0   3   4    1.20    2.60
   3   0   4   -2.50    8.60
  -3   0   4   -2.80    3.90
   0   3   4    1.60    4.60
   0   3   4    2.80    2.40
   3   0   4    3.60    5.70
   0   3   4   -1.20    2.50
   1   3  -4 1325.27   89.99
   1   3  -4 1313.27   84.79
  -3   1  -4 1405.36   83.49
   1   3   4 1291.77   77.39
  -3   1   4 1189.78   81.09
   1   3   4 1289.37   77.09
  -3   1   4 1364.36   82.29
  -3   1   4 1122.49   78.79
   1   3   4 1180.18   88.49
  -3   1   4 1222.48   78.99
   1   3   4 1378.06   77.39
   1   3   4 1200.98   77.19
   1   3   4 1160.78   83.69
   3  -1   4 1134.79   81.29
   2   3  -4   72.59   13.90
  -3   2  -4   73.69   10.70
  -3   2  -4   82.59   13.60
   2   3  -4   54.69   10.90
  -3   2   4   79.19    8.90
  -3   2   4   75.79    8.50
  -3   2   4   91.69   11.30
   2   3   4   66.09    6.20
   3  -2   4   66.99   10.00
   2   3   4   61.09   14.40
  -3   2   4   67.59   11.60
  -2  -3   4   77.39   11.90
   2   3   4   36.40    9.50
   2   3   4   51.69    5.60
  -2  -3   4   60.19   10.20
   2   3   4   65.79    5.50
  -3  -3  -4 2570.94  159.18
  -3  -3  -4 2687.03  159.18
  -3   3  -4 2334.27  163.18
   3   3  -4 2760.12  163.68
  -3   3  -4 2637.44  163.18
   3   3  -4 2610.14  163.28
  -3   3   4 2738.43  163.18
  -3   3   4 2538.85  159.78
  -3   3   4 2650.53  162.88
  -3  -3   4 2429.66  161.88
   3   3   4 2727.03  158.68
  -3  -3   4 2656.43  162.58
   3   3   4 2778.42  163.48
   3   3   4 2408.06  162.78
   3   3   4 2548.25  157.98
  -3   3   4 2566.44  159.78
   4   3  -4  560.24   39.60
  -3   4  -4  505.45   37.00
  -4  -3  -4  488.95   32.90
  -3   4  -4  467.05   39.50
  -4  -3  -4  500.05   33.00
   4   3  -4  542.05   36.90
  -3   4   4  500.15   33.20
  -3   4   4  478.55   37.50
  -3   4   4  475.85   33.30
  -4  -3   4  518.95   35.80
   4   3   4  573.24   38.60
   4   3   4  495.55   31.70
   4   3   4  490.85   36.40
  -3   4   4  467.95   36.10
  -4  -3   4  518.05   36.20
   4   3   4  499.75   32.90
   4   2  -4   86.29   11.10
   4   2  -4  102.89   15.00
  -2   4  -4  115.19   12.90
  -4  -2  -4  112.39    9.70
  -4  -2  -4   98.19    9.30
  -2   4  -4   95.19   15.60
   4   2  -4  112.59   12.50
  -2   4   4   93.29    9.10
   4   2   4  122.29   13.80
  -2   4   4  104.99   12.00
  -4  -2   4  125.59   12.30
   4   2   4  106.99    8.80
   4   2   4  115.59   15.00
  -4  -2   4  111.99   12.40
  -2   4   4   89.09    8.80
   4   2   4  106.89   12.60
  -2   4   4   88.09   12.90
  -4  -1  -4 1974.50  120.89
  -1   4  -4 1970.20  126.69
   4   1  -4 1862.91  124.39
   4   1  -4 2126.69  124.29
  -4  -1  -4 1907.61  120.89
  -1   4  -4 1991.90  124.49
   4   1   4 1962.00  123.29
  -1   4   4 1924.91  122.99
  -1   4   4 1899.41  119.39
  -1   4   4 1984.20  119.79
   4   1   4 1983.90  124.19
  -4  -1   4 1882.51  122.09
  -4  -1   4 1987.60  122.29
  -1   4   4 1901.11  123.69
   4   1   4 2005.30  124.29
   0   4  -4   75.79   13.50
  -4   0  -4   83.69    9.00
  -4   0  -4   87.09    9.00
   0   4  -4   60.39   17.80
   4   0  -4   89.89   13.90
   4   0  -4   92.39   11.00
   0   4   4   69.39    5.70
   0   4   4   64.29    9.70
   0   4   4   89.69   14.20
   4   0   4   77.89   11.30
   0   4   4   72.29    6.10
   0   4   4   75.19    6.80
  -4   0   4   84.89   10.30
   0   4   4   62.49    5.60
  -4   0   4   96.99   11.60
  -4   0   4   87.69   10.20
   4   0   4  111.49   14.90
   1   4  -4 2124.39  128.19
  -4   1  -4 2042.70  121.69
   4  -1  -4 1939.01  125.19
  -4   1  -4 1985.90  121.59
   1   4  -4 2054.19  130.09
  -4   1  -4 1816.42  124.39
   1   4   4 1962.70  118.89
   4  -1   4 2091.19  125.49
  -4   1   4 1836.82  121.99
   1   4   4 2069.59  126.69
   1   4   4 1913.61  127.69
   4  -1   4 1815.82  124.19
  -4   1   4 1951.20  122.09
  -4   1   4 1954.50  124.49
   1   4   4 1938.81  119.09
   2   4  -4   82.69   13.50
   4  -2  -4   90.19   14.50
  -4   2  -4  109.99   10.20
   2   4  -4   99.09   17.50
  -4   2   4  105.49   10.50
   4  -2   4   86.89   13.20
   2   4   4  100.39   14.20
  -4   2   4   69.29   11.80
  -4   2   4   96.09   12.00
  -2  -4   4   79.59   13.60
  -4   2   4  104.39   10.00
  -4   3  -4  535.95   37.20
   3   4  -4  533.45   37.20
   3   4  -4  480.55   39.20
  -4   3   4  483.05   36.40
  -3  -4   4  445.96   35.40
  -4   3   4  490.05   33.60
  -4   3   4  468.05   33.30
  -3  -4   4  484.75   36.50
   4  -3   4  541.55   37.90
  -4   3   4  500.95   37.60
   3   4   4  493.85   36.10
   3   4   4  451.35   40.30
   4   4  -4   10.20    8.90
  -4  -4  -4    3.50    2.70
  -4   4  -4    0.50    5.40
   4   4  -4    3.40    4.60
  -4  -4  -4    5.50    3.20
  -4   4   4    9.20    7.50
  -4   4   4    3.10    3.90
   4   4   4    0.30    8.10
  -4  -4   4    6.10    6.00
  -4   4   4   -0.30    3.60
  -4   4   4   -0.10    4.20
  -4  -4   4   -2.70    6.10
   4   4   4    0.50    5.00
   5   4  -4  313.67   31.60
   5   4  -4  353.36   27.40
  -5  -4  -4  376.36   24.00
  -5  -4  -4  346.47   23.70
  -4   5  -4  317.57   28.10
  -4   5   4  292.17   24.20
  -4   5   4  452.35   31.30
  -5  -4   4  379.16   26.80
  -4   5   4  313.87   23.80
  -4   5   4  299.77   27.10
   5   4   4  349.17   27.80
  -5  -4   4  375.16   27.10
   5   4   4  318.57   29.70
  -3   5  -4 3734.73  222.58
  -5  -3  -4 3692.03  217.38
   5   3  -4 3774.22  222.18
  -3   5  -4 3818.32  221.58
   5   3  -4 3322.57  220.38
  -5  -3  -4 3540.95  217.08
   5   3   4 3151.58  216.98
  -3   5   4 3481.05  217.18
   5   3   4 3630.94  220.88
  -3   5   4 3495.25  220.48
   5   3   4 3453.05  220.08
  -5  -3   4 3388.36  219.28
  -5  -3   4 3681.93  219.38
  -3   5   4 3617.24  216.58
   5   3   4 3445.16  215.78
  -3   5   4 3682.43  221.08
  -2   5  -4  265.07   22.10
  -5  -2  -4  238.08   18.40
  -2   5  -4  271.17   27.70
   5   2  -4  242.78   21.40
   5   2  -4  254.27   19.80
   5   2  -4  237.58   27.00
  -5  -2  -4  246.18   18.50
   5   2   4  253.17   17.70
  -2   5   4  241.78   17.60
  -2   5   4  260.07   23.40
  -5  -2   4  275.37   21.20
   5   2   4  239.68   22.60
  -2   5   4  248.48   16.90
  -5  -2   4  251.87   20.30
  -2   5   4  241.88   20.70
  -5  -1  -4   28.60    5.40
   5   1  -4   -4.80    9.00
  -1   5  -4    3.80   11.60
  -1   5  -4   14.30    5.80
   5   1  -4    9.70    4.90
  -5  -1  -4   23.20    5.10
  -5  -1   4   29.90    6.70
  -1   5   4   21.90    5.70
   5   1   4   14.10    5.60
  -5  -1   4   13.10    5.70
   5   1   4   13.40   10.00
   5   1   4   18.60    7.20
  -1   5   4   10.40    8.00
  -1   5   4   14.40    3.20
   0   5  -4   99.19   14.20
  -5   0  -4   60.19    8.10
  -5   0  -4   77.49    9.10
   5   0  -4   68.19   11.00
  -5   0   4   53.19    8.90
   0   5   4  109.79   11.40
   5   0   4   74.59   14.50
  -5   0   4   61.69   10.00
   5   0   4   61.69   11.10
   0   5   4   87.99   13.30
  -5   0   4   75.99    9.70
  -5   1  -4   30.90    6.00
   1   5  -4   18.60   15.10
   1   5  -4    7.10    7.50
   5  -1  -4   -2.40   10.00
  -5   1  -4   20.80    5.30
   1   5   4   -3.30   12.30
   5  -1   4   20.20   10.00
  -5   1   4   24.40    6.20
  -5   1   4   11.10    5.10
   5  -1   4   15.20    8.00
  -5   1   4   22.00    5.90
   1   5   4   14.40    6.90
   2   5  -4  206.38   22.70
   2   5  -4  286.17   31.30
  -5   2  -4  237.08   18.20
  -5   2  -4  243.28   18.20
   5  -2  -4  213.58   26.50
  -5   2   4  232.28   21.10
  -5   2   4  206.98   22.90
  -2  -5   4  200.98   23.40
   2   5   4  202.48   21.90
  -5   2   4  244.48   18.60
   5  -2   4  224.28   24.70
   2   5   4  252.57   28.30
  -5   2   4  248.08   18.90
   3   5  -4 3392.16  213.08
  -5   3  -4 3603.14  213.78
  -5   3  -4 3573.84  210.08
   3   5  -4 3117.29  214.08
  -3  -5   4 3397.06  212.68
  -5   3   4 3396.96  213.48
   3   5   4 3579.64  212.08
  -5   3   4 3380.46  209.78
  -5   3   4 3572.34  213.48
  -5   3   4 3498.75  210.18
  -3  -5   4 3481.85  211.88
   5  -3   4 3236.38  213.08
   3   5   4 3170.98  214.28
   4   5  -4  324.27   26.30
   4   5  -4  290.27   30.10
  -5   4  -4  328.87   28.20
   4   5   4  310.77   30.70
  -5   4   4  357.56   24.60
  -4  -5   4  275.57   25.40
  -4  -5   4  327.67   26.90
  -5   4   4  335.67   23.90
  -5   4   4  326.27   29.50
  -5   4   4  356.76   27.60
   4   5   4  322.37   25.30
  -5   5  -4 2514.35  155.98
   5   5  -4 2351.16  153.58
  -5   5  -4 2300.27  155.18
   5   5  -4 2389.86  155.18
  -5   5   4 2458.05  151.68
   5   5   4 2551.84  154.38
  -5   5   4 2371.46  155.58
   5   5   4 2402.46  152.68
  -5  -5   4 2516.05  153.58
  -5   5   4 2579.44  155.48
  -5   5   4 2461.15  151.18
  -5   6  -4  111.49   15.50
  -5   6  -4   86.79   15.30
   6   5  -4   74.39   15.70
   6   5  -4  107.39   13.50
  -6  -5   4  103.99   14.30
   6   5   4   78.19   12.60
  -5   6   4  100.49   11.10
  -5   6   4  109.49   10.50
  -5   6   4  114.59   12.30
  -5   6   4   87.59   13.50
   6   5   4  107.89   15.20
  -5   6   4  120.99   17.10
   6   4  -4   73.59   11.60
   6   4  -4   55.09   13.90
  -4   6  -4   63.79   12.00
  -6  -4   4   57.99    9.80
   6   4   4   85.29   13.80
   6   4   4   78.59   12.80
  -4   6   4   71.79   13.60
  -4   6   4   59.29    7.20
  -6  -4   4   67.59   11.30
  -4   6   4   69.99    8.90
  -4   6   4   66.39    8.00
  -4   6   4   49.80    9.90
  -6  -3  -4   90.79    9.40
   6   3  -4   80.39   11.80
   6   3  -4   88.39   16.90
  -3   6  -4   96.49   13.80
  -6  -3  -4   91.89    9.90
  -3   6   4   65.89   12.20
   6   3   4   97.39    8.20
   6   3   4  127.69   15.60
  -6  -3   4   89.39   11.60
   6   3   4   80.89   14.70
   6   3   4   93.59   11.20
  -6  -3   4   72.29   11.40
  -3   6   4   82.69    8.20
  -3   6   4   90.79    9.70
  -3   6   4   89.99   12.70
  -3   6   4   86.59    7.60
   6   2  -4 1148.49   78.39
  -6  -2  -4 1079.49   72.29
  -2   6  -4 1175.38   77.99
  -6  -2  -4 1081.19   72.19
  -2   6  -4 1192.78   75.99
   6   2  -4 1122.69   75.89
  -2   6   4 1198.38   75.49
  -6  -2   4 1223.98   74.09
  -6  -2   4 1174.18   74.29
  -2   6   4 1161.88   70.09
  -2   6   4 1173.28   71.19
   6   2   4 1113.49   77.19
   6   2   4 1153.28   71.59
   6   2   4 1071.69   76.19
  -2   6   4 1042.50   74.19
  -6  -1  -4  388.46   29.40
  -1   6  -4  477.25   39.30
  -6  -1  -4  413.36   29.70
   6   1  -4  420.86   37.70
  -1   6  -4  465.65   33.30
   6   1  -4  476.95   33.80
  -6  -1   4  396.16   30.90
   6   1   4  395.36   34.40
  -1   6   4  447.66   31.50
   6   1   4  453.05   36.10
  -6  -1   4  364.16   30.60
  -1   6   4  370.76   32.10
  -1   6   4  460.75   27.70
   6   1   4  463.25   31.70
   0   6  -4  656.23   49.40
   0   6  -4  639.04   52.69
  -6   0  -4  703.83   45.10
   6   0  -4  604.74   50.79
   6   0  -4  706.83   48.50
  -6   0  -4  727.03   45.20
  -6   0   4  665.73   46.10
  -6   0   4  663.33   45.80
  -6   0   4  759.12   52.39
   0   6   4  667.63   47.40
   0   6   4  660.33   46.30
   6   0   4  672.63   49.60
  -6   1  -4  376.66   32.50
  -6   1  -4  452.25   30.70
  -6   1  -4  407.16   30.10
   1   6  -4  522.75   38.00
   6  -1  -4  421.96   37.10
   1   6  -4  347.17   42.10
   1   6   4  430.96   34.90
   6  -1   4  505.35   38.20
   6  -1   4  413.86   36.10
  -6   1   4  482.25   31.50
  -6   1   4  421.66   31.10
  -6   1   4  381.16   33.20
   1   6   4  478.55   34.40
   2   6  -4 1079.29   77.89
  -6   2  -4 1141.09   73.39
   6  -2  -4 1166.38   78.89
   2   6  -4 1255.47   84.49
  -6   2  -4 1213.88   76.89
  -6   2  -4 1219.18   73.69
   2   6   4  938.91   75.69
  -6   2   4 1195.58   74.09
  -6   2   4 1208.28   73.89
  -6   2   4 1186.08   76.99
   2   6   4 1262.87   79.59
   6  -2   4 1059.59   77.39
  -2  -6   4  959.10   76.39
  -6   3  -4  112.09   12.00
  -6   3  -4  105.69   12.20
  -6   3  -4   76.09   12.40
   3   6  -4  121.49   21.50
   3   6  -4   88.99   13.20
  -6   3   4   77.39   11.10
  -6   3   4   95.69   13.50
  -3  -6   4   81.59   14.30
  -6   3   4   86.49   17.10
  -6   3   4   82.69   10.50
   3   6   4   72.99   21.00
   3   6   4   84.99   11.50
  -6   4  -4   71.19   12.60
   4   6  -4   86.79   15.80
   4   6  -4   61.09   10.30
  -6   4  -4   69.49    9.80
  -6   4   4   64.99   10.00
  -6   4   4   59.09   10.80
   4   6   4   47.70    8.50
   4   6   4   63.69   16.00
  -4  -6   4   65.29   12.00
  -6   4   4   70.29    9.40
   5   6  -4   76.69   15.70
  -6   5  -4   71.69   12.70
   5   6  -4   99.49   12.40
  -6   5   4   85.49   13.60
  -5  -6   4   76.59   12.20
   5   6   4  111.39   16.20
  -6   5   4   96.49   12.30
  -6   5   4   69.29    9.90
   5   6   4  116.39   12.90
   6   6  -4  497.65   35.90
  -6   6  -4  446.86   37.70
   6   6  -4  472.65   40.00
  -6   6   4  504.55   38.00
  -6   6   4  454.15   33.10
  -6   6   4  474.95   32.90
   6   6   4  511.75   36.10
   6   6   4  432.46   37.60
  -6   6   4  457.55   33.90
  -6  -6   4  446.36   35.10
   7   6  -4  757.32   52.49
  -6   7  -4  694.73   54.39
   7   6  -4  815.32   56.79
  -6   7   4  738.13   49.00
   7   6   4  741.43   53.69
  -6   7   4  739.93   48.40
   7   6   4  733.83   52.49
  -6   7   4  690.63   53.59
  -6   7   4  740.73   50.19
  -7  -6   4  734.83   51.49
   7   5  -4  320.77   32.10
  -5   7  -4  283.67   27.20
   7   5  -4  297.47   26.10
  -5   7   4  312.77   21.50
  -5   7   4  278.37   29.90
  -7  -5   4  321.67   25.30
   7   5   4  289.07   29.00
  -5   7   4  286.17   21.90
   7   5   4  281.17   27.90
  -5   7   4  308.57   23.40
  -5   7   4  350.96   27.70
  -4   7  -4 2495.25  152.38
   7   4  -4 2634.54  153.98
   7   4  -4 2432.26  151.48
  -7  -4   4 2363.66  149.59
  -4   7   4 2381.46  147.29
   7   4   4 2478.85  152.18
   7   4   4 2257.87  150.68
  -4   7   4 2335.37  144.99
  -4   7   4 2193.98  150.58
  -4   7   4 2335.27  151.58
  -4   7   4 2294.87  145.79
   7   3  -4  234.18   29.80
  -7  -3  -4  232.38   18.80
  -7  -3  -4  242.48   20.30
   7   3  -4  252.47   22.80
  -3   7  -4  251.67   23.30
  -7  -3   4  258.27   21.80
  -3   7   4  228.58   23.90
   7   3   4  204.88   20.30
  -3   7   4  261.37   16.40
   7   3   4  250.37   25.80
  -7  -3   4  237.88   20.60
  -3   7   4  253.07   22.10
  -3   7   4  254.07   18.50
   7   3   4  201.08   25.70
   7   3   4  242.98   17.50
   7   2  -4  540.65   39.80
   7   2  -4  525.15   44.20
  -7  -2  -4  482.55   35.30
  -2   7  -4  521.75   38.90
  -2   7  -4  503.95   42.00
  -7  -2  -4  520.95   35.60
  -7  -2   4  496.75   37.00
  -2   7   4  566.24   39.60
   7   2   4  526.95   41.70
  -2   7   4  538.35   34.00
   7   2   4  608.24   42.50
  -7  -2   4  496.65   37.10
  -2   7   4  456.05   37.00
  -7  -1  -4  276.07   21.80
   7   1  -4  289.37   31.40
  -1   7  -4  283.07   25.00
  -7  -1  -4  306.37   22.30
   7   1  -4  273.17   25.50
  -1   7  -4  284.57   29.60
  -1   7   4  314.77   25.40
   7   1   4  291.97   30.20
  -7  -1   4  274.47   23.10
  -7  -1   4  258.97   22.90
  -1   7   4  305.27   23.50
   7   1   4  294.27   29.10
  -7   0  -4   16.20    5.50
  -7   0  -4   23.40    6.20
   0   7  -4   27.90    8.80
   0   7  -4   23.90   13.10
   7   0  -4    9.20   11.80
   7   0   4   26.30   11.80
  -7   0   4   23.50    7.00
  -7   0   4   21.20    7.50
   0   7   4   41.80    7.80
   0   7   4   20.70    7.80
   7   0   4   15.50   12.30
   1   7  -4  352.06   29.70
   7  -1  -4  284.87   30.90
  -7   1  -4  242.98   21.70
  -7   1  -4  285.77   22.30
   1   7  -4  325.77   34.70
   7  -1   4  328.07   30.70
  -7   1   4  246.88   22.60
   1   7   4  268.07   24.40
   1   7   4  318.97   25.80
  -7   1   4  257.47   22.60
  -7   2  -4  539.25   36.80
  -7   2  -4  551.54   36.80
   2   7  -4  493.35   49.20
   2   7  -4  534.05   41.50
   2   7   4  448.06   38.50
   2   7   4  598.94   40.10
  -7   2   4  533.45   37.50
  -7   2   4  512.35   36.80
  -2  -7   4  453.35   40.80
   3   7  -4  239.98   23.00
   3   7  -4  274.67   31.50
  -7   3  -4  235.78   20.30
  -7   3  -4  273.37   20.90
   3   7   4  217.78   28.70
  -7   3   4  241.78   20.60
  -3  -7   4  230.88   24.20
   3   7   4  256.67   20.60
  -7   3   4  246.88   21.20
   4   7  -4 2025.90  150.98
   4   7  -4 2447.56  147.29
  -7   4  -4 2384.26  145.69
  -7   4  -4 2505.45  145.79
  -7   4   4 2333.07  145.89
   4   7   4 2395.86  144.59
   4   7   4 2160.58  150.68
  -4  -7   4 2350.36  147.79
  -7   4   4 2282.87  145.19
  -7   5  -4  337.27   24.70
   5   7  -4  309.57   25.10
   5   7  -4  283.67   32.00
  -7   5   4  261.97   29.80
   5   7   4  303.47   33.50
  -5  -7   4  310.57   26.30
   5   7   4  277.17   24.20
  -7   5   4  377.56   24.80
  -7   5   4  285.67   24.40
   6   7  -4  771.52   52.59
   6   7  -4  704.93   55.79
   6   7   4  749.33   51.59
   6   7   4  780.82   55.49
  -7   6   4  735.73   50.69
  -7   6   4  739.03   50.29
  -6  -7   4  753.42   52.49
  -7   6   4  767.02   55.99
  -7   6   4  760.12   51.59
   7   7  -4   12.80    6.10
   7   7  -4   13.70   12.60
  -7   7   4   21.00    5.90
  -7   7   4   12.50    7.10
  -7   7   4   19.90    8.50
  -7   7   4   22.80    6.60
  -7  -7   4    2.00    6.70
   7   7   4   20.50   11.10
   8   7  -4   92.49   19.50
   8   7  -4  110.69   15.10
  -7   8   4   81.29   11.10
  -7   8   4   84.79   15.40
  -8  -7   4  124.89   15.60
  -7   8   4   96.89   13.70
  -7   8   4  113.99   11.30
   8   7   4  101.69   17.00
  -6   8  -4  934.61   66.99
   8   6  -4  889.71   68.19
   8   6  -4  887.51   64.39
  -6   8   4  952.80   66.39
   8   6   4  937.41   65.99
  -6   8   4  974.40   61.89
  -8  -6   4  891.41   62.89
  -6   8   4  943.71   58.89
   8   6   4  878.81   64.89
  -6   8   4  960.50   59.89
   8   5  -4   83.49   13.70
  -5   8  -4  103.29   15.60
   8   5  -4   70.19   17.70
  -5   8   4  108.49   12.30
  -5   8   4  108.89    8.10
  -5   8   4  114.69   10.00
   8   5   4  107.89   17.40
  -5   8   4   86.39   17.30
  -8  -5   4   78.89   12.80
   8   5   4  110.69   17.30
  -5   8   4   91.39   13.90
  -4   8  -4   61.89   12.40
   8   4  -4   73.59   12.30
   8   4  -4   56.69   15.80
  -4   8  -4   54.39   11.10
  -4   8   4   69.89    6.20
  -4   8   4   58.39   11.20
  -4   8   4   80.19   14.30
   8   4   4   71.39   15.00
  -8  -4   4   74.99   11.90
  -4   8   4   74.99    9.50
   8   4   4   52.59   13.50
  -3   8  -4  141.69   16.80
   8   3  -4  142.09   21.90
  -3   8   4  117.99   15.90
  -8  -3   4  135.79   16.00
  -3   8   4  110.09   14.40
   8   3   4  128.79   18.90
   8   3   4   94.49   16.70
  -2   8  -4 1084.29   69.49
  -8  -2  -4 1017.40   65.79
  -8  -2  -4  980.00   65.59
   8   2  -4 1080.59   73.89
   8   2   4 1039.10   71.69
  -8  -2   4  944.71   66.99
   8   2   4 1021.80   72.09
  -2   8   4  944.31   67.19
  -2   8   4 1045.80   68.19
  -8  -2   4  974.10   66.79
  -8  -1  -4   53.69    8.90
  -8  -1  -4   50.59    8.60
  -1   8  -4   63.99   14.20
  -1   8  -4   79.89   13.00
   8   1  -4   32.20   15.10
  -1   8   4   61.99    9.50
  -1   8   4   68.79   10.80
   8   1   4   50.69   14.40
  -8  -1   4   51.79   10.00
  -8  -1   4   66.99   10.70
   0   8  -4 3088.59  204.28
   0   8  -4 3038.30  202.48
   8   0  -4 3289.77  210.68
  -8   0  -4 3237.58  199.98
  -8   0  -4 3216.58  199.78
  -8   0   4 3079.19  200.78
   0   8   4 3063.19  200.48
  -8   0   4 3334.87  200.88
   0   8   4 3293.07  199.88
   8   0   4 3721.13  206.18
  -8   1  -4   68.39   10.10
   1   8  -4   76.29   14.10
   1   8  -4   70.49   15.90
  -8   1  -4   66.69   10.30
   1   8   4   68.39   11.90
   1   8   4   46.20    9.40
  -8   1   4   59.19    9.90
  -8   1   4   52.39    9.80
  -8   2  -4  981.10   64.29
  -8   2  -4  907.51   64.09
   2   8  -4  983.60   72.19
   2   8  -4  957.80   68.59
   2   8   4  895.21   65.29
  -8   2   4 1088.29   65.29
   2   8   4 1092.79   64.29
  -8   2   4  954.90   65.09
  -2  -8   4  881.21   68.39
   3   8  -4  135.19   16.20
  -8   3  -4  143.29   14.40
  -8   3  -4  131.59   14.90
  -3  -8   4  111.49   17.40
   3   8   4  144.79   13.50
   3   8   4  118.89   15.70
  -8   3   4  126.19   14.60
  -8   3   4  104.99   14.20
  -8   4  -4   97.59   12.40
  -8   4  -4   51.39    9.50
   4   8  -4   58.69   10.60
   4   8  -4   74.89   19.20
   4   8   4   69.29   16.20
  -8   4   4   60.39    9.80
  -8   4   4   91.59   13.00
  -4  -8   4   67.79   13.50
   5   8  -4  111.29   21.40
   5   8  -4  108.89   12.90
  -8   5  -4   96.69   12.80
  -8   5   4   81.69   11.90
   5   8   4   96.19   11.60
  -8   5   4   95.79   13.60
  -5  -8   4  102.49   14.60
   5   8   4  102.29   20.90
   6   8  -4  904.71   68.19
   6   8  -4  979.60   63.19
   6   8   4  861.01   67.69
  -8   6   4  843.72   61.19
  -8   6   4 1013.80   62.29
  -8   6   4  901.31   62.79
  -6  -8   4  975.80   63.69
   6   8   4  927.11   61.59
   7   8  -4   97.19   13.80
   7   8  -4   93.39   18.10
  -8   7   4   90.09   12.50
  -8   7   4  104.09   14.30
   7   8   4   96.29   13.70
  -8   7   4  100.39   12.20
  -7  -8   4  105.49   14.90
   7   8   4   94.79   18.10
   8   8  -4 1160.98   81.59
   8   8  -4 1132.69   77.49
  -8   8   4 1131.09   73.99
  -8   8   4 1156.18   76.49
   8   8   4 1166.98   79.79
  -8   8   4 1160.08   74.69
   8   8   4 1128.49   76.69
  -8  -8   4 1132.99   76.59
   9   8  -4   12.80    7.50
   9   8  -4   38.20   15.60
  -9  -8   4    0.90    6.60
  -8   9   4   10.60    5.20
  -8   9   4   -2.50    6.60
  -8   9   4   10.60    5.80
   9   8   4   16.10   12.10
   9   8   4   17.60    8.90
   9   7  -4   11.90   14.10
   9   7  -4    7.80    6.60
  -7   9   4    9.30    6.60
   9   7   4    3.00   11.10
  -7   9   4    4.80    4.60
  -9  -7   4    2.90    7.20
  -7   9   4    4.10    6.70
  -7   9   4    4.10    3.50
   9   7   4    7.00    9.20
   9   6  -4  213.98   27.30
  -6   9  -4  146.69   21.80
   9   6   4  215.58   27.10
  -9  -6   4  208.88   20.20
   9   6   4  224.48   25.50
  -6   9   4  194.08   18.70
  -6   9   4  210.58   15.50
  -6   9   4  198.58   22.50
   9   5  -4  426.56   42.30
  -5   9  -4  406.56   35.20
  -5   9   4  359.36   33.70
   9   5   4  453.65   38.30
  -9  -5   4  402.86   32.30
   9   5   4  457.25   39.20
  -4   9  -4 1080.19   70.79
  -4   9  -4 1044.40   69.99
   9   4  -4  899.71   72.79
  -4   9   4  967.50   68.89
  -9  -4   4  897.21   66.69
   9   4   4  999.30   71.29
  -4   9   4 1036.70   70.49
   9   4   4 1015.60   77.49
  -3   9  -4   24.60    8.90
  -3   9  -4   11.20    6.60
   9   3  -4    5.10   14.80
  -3   9   4   14.70    9.20
  -3   9   4   12.90    6.40
  -9  -3   4   19.30    7.50
   9   2  -4  807.52   63.99
  -2   9  -4  901.41   60.99
  -9  -2   4  856.51   58.89
  -2   9   4  907.31   59.49
  -9  -2   4  829.52   58.19
  -2   9   4  831.42   58.69
   9   2   4  863.11   64.19
  -1   9  -4   47.40   10.90
  -9  -1  -4   48.10    8.70
  -9  -1  -4   36.30    7.80
  -1   9   4   47.90    9.50
  -1   9   4   35.00    7.90
   9   1   4   39.10   14.10
  -9  -1   4   51.39    9.70
  -9  -1   4   36.00    9.00
   0   9  -4   13.70    8.30
  -9   0  -4    6.80    5.70
  -9   0  -4    3.60    5.10
   0   9  -4   -4.00    9.60
  -9   0   4    8.90    6.30
   0   9   4    5.60    5.00
  -9   0   4   -0.70    5.60
   0   9   4    6.30    5.70
  -9   1  -4   37.90    8.40
   1   9  -4   44.80   11.90
  -9   1  -4   34.90    8.10
   1   9  -4   30.80   11.70
   1   9   4   35.90    9.70
  -9   1   4   57.29   11.20
   1   9   4   39.30    8.00
  -9   1   4   43.40    8.90
   2   9  -4  816.02   58.89
  -9   2  -4  868.01   55.89
  -9   2  -4  874.31   55.69
   2   9  -4  838.12   60.19
  -9   2   4  750.52   55.49
   2   9   4  811.22   54.99
   2   9   4  816.12   53.19
  -9   2   4  800.42   56.19
  -2  -9   4  756.32   59.49
  -9   3  -4   20.80    7.40
   3   9  -4   11.70    6.50
   3   9  -4    5.80   14.30
  -9   3  -4   11.30    6.30
   3   9   4   13.70    6.50
  -9   3   4    8.60    6.90
  -9   3   4   33.10    8.00
  -3  -9   4   -3.80    7.90
   3   9   4   14.30    4.70
  -9   4  -4 1032.50   66.39
   4   9  -4 1011.90   65.89
   4   9  -4  955.90   74.59
  -9   4  -4  983.80   65.89
  -9   4   4  956.10   65.99
   4   9   4 1003.10   64.79
  -9   4   4  934.91   66.29
   4   9   4  970.50   62.49
  -4  -9   4  985.40   67.99
   5   9  -4  388.06   44.50
   5   9  -4  406.16   31.60
  -9   5  -4  489.75   33.10
  -9   5  -4  458.55   32.80
   5   9   4  386.56   29.70
   5   9   4  361.36   35.50
  -5  -9   4  404.36   33.70
  -9   5   4  441.86   33.20
  -9   5   4  479.95   33.00
  -9   6  -4  196.88   19.50
   6   9  -4  189.68   18.50
   6   9  -4  190.18   29.10
  -9   6   4  222.08   19.60
  -6  -9   4  230.88   21.40
   6   9   4  193.08   18.40
   6   9   4  212.98   28.20
  -9   6   4  203.68   20.60
  -9   6   4  188.48   18.50
   7   9  -4    0.90   14.00
   7   9  -4    1.70    4.90
   7   9   4    5.90    6.70
  -9   7   4   13.80    6.90
   7   9   4   -4.70   15.00
  -9   7   4    5.90    5.80
  -7  -9   4   12.10    8.50
  -9   7   4    5.70    7.20
   8   9  -4    3.50    5.80
   8   9  -4   28.20   15.00
   8   9   4    8.30   14.70
  -8  -9   4    9.10    7.80
  -9   8   4    3.10    5.50
  -9   8   4    3.80    7.50
   8   9   4   16.50    7.50
  -9   8   4   16.60    7.10
   9   9  -4   16.30    7.20
   9   9  -4   20.60   14.50
   9   9   4    3.70    7.50
  -9  -9   4    8.70    7.40
  -9   9   4   13.50    8.90
  -9   9   4    8.30    5.70
   9   9   4   20.60   14.60
  -9   9   4    2.50    5.80
  10   8  -4  707.43   56.59
  10   8   4  616.44   51.59
 -10  -8   4  579.54   46.60
  10   8   4  669.43   49.50
  10   7  -4  604.14   51.29
  10   7   4  549.54   44.70
 -10  -7   4  545.25   41.70
  -7  10   4  535.05   45.90
  10   7   4  571.24   47.40
  -6  10  -4   66.49   14.10
  10   6  -4   51.49   17.90
  -6  10   4   64.29   13.20
 -10  -6   4   71.79   13.10
  10   6   4   63.39   14.00
  -5  10  -4  220.28   24.80
  10   5  -4  227.18   30.90
 -10  -5   4  265.17   23.20
  -5  10   4  264.77   25.40
  10   5   4  210.68   27.70
  -4  10  -4   93.59   14.50
  10   4  -4   92.09   22.20
  -4  10   4   85.19   16.20
  10   4   4   70.39   16.10
  -4  10   4   94.19   14.50
 -10  -4   4   79.49   13.10
  -3  10  -4   99.89   15.00
  10   3  -4   73.99   21.80
  -3  10  -4   88.79   15.00
  -3  10   4   93.89   15.60
  -3  10   4  105.89   14.40
  10   3   4   91.69   19.90
 -10  -3   4   75.79   13.70
  -2  10  -4  264.87   24.90
  -2  10  -4  245.48   23.20
 -10  -2   4  248.68   23.40
  10   2   4  247.08   30.40
  -2  10   4  240.78   24.50
  -2  10   4  247.68   22.50
 -10  -1  -4  710.43   47.40
  -1  10  -4  616.74   50.59
 -10  -1   4  735.53   48.70
  -1  10   4  639.54   47.30
  -1  10   4  693.23   47.70
   0  10  -4 1077.69   74.19
 -10   0  -4  924.91   67.59
 -10   0  -4  990.70   67.79
 -10   0   4 1041.40   68.99
   0  10   4 1082.59   67.09
 -10   0   4  929.91   68.89
   0  10   4 1070.19   68.99
 -10   1  -4  749.82   48.40
   1  10  -4  799.82   53.69
 -10   1  -4  674.23   47.60
   1  10  -4  643.84   49.60
   1  10   4  669.53   45.10
 -10   1   4  672.43   48.90
 -10   1   4  695.23   48.50
   1  10   4  574.94   48.50
   2  10  -4  234.78   24.40
 -10   2  -4  274.47   23.00
 -10   2  -4  235.58   22.10
   2  10  -4  265.07   27.40
  -2 -10   4  200.38   26.70
 -10   2   4  276.97   23.50
 -10   2   4  286.77   24.10
   2  10   4  249.88   19.70
   2  10   4  261.77   19.20
   3  10  -4   90.99   12.70
 -10   3  -4   83.19   12.40
   3  10  -4   71.39   16.00
 -10   3  -4   82.29   12.10
 -10   3   4   76.39   13.40
   3  10   4   65.79    7.80
  -3 -10   4  125.69   17.30
   3  10   4   77.39    8.30
 -10   3   4   73.09   11.90
   4  10  -4   97.69   19.70
 -10   4  -4  122.99   15.50
   4  10  -4  111.09   12.70
 -10   4  -4  127.09   15.80
  -4 -10   4  127.09   17.60
 -10   4   4   79.69   13.30
 -10   4   4   69.29   13.40
   5  10  -4  242.58   30.40
 -10   5  -4  233.18   22.00
   5  10  -4  263.57   20.80
 -10   5  -4  224.78   21.80
 -10   5   4  207.18   21.50
  -5 -10   4  251.37   23.50
   5  10   4  236.78   18.30
 -10   5   4  244.98   22.40
 -10   5   4  215.48   22.40
   5  10   4  220.98   16.80
 -10   6  -4   75.99   12.80
   6  10  -4   69.99   21.60
   6  10  -4   81.39   11.00
 -10   6   4   71.99   13.60
   6  10   4   78.59   12.60
   6  10   4   68.89    8.30
  -6 -10   4   76.89   13.70
 -10   6   4   67.39   12.30
 -10   6   4   89.49   13.00
   7  10  -4  560.74   38.60
   7  10  -4  463.45   50.29
 -10   7   4  544.95   39.50
 -10   7   4  488.45   38.40
 -10   7   4  562.04   40.70
   7  10   4  480.55   35.50
   7  10   4  558.64   44.50
   8  10  -4  664.83   46.60
   8  10  -4  621.64   57.49
   8  10   4  617.94   55.69
   8  10   4  670.53   44.90
 -10   8   4  638.74   45.80
 -10   8   4  686.13   48.80
 -10   8   4  609.74   46.10
  11   7  -4  494.15   47.40
  -7  11   4  434.16   40.10
 -11  -7   4  446.36   36.40
  11   7   4  439.36   39.90
  11   6  -4    4.50   15.90
  -6  11  -4   23.20   10.10
 -11  -6   4   14.60    8.70
  -6  11   4   28.00   11.00
  11   6   4   14.20   11.10
  11   5  -4  484.45   49.10
  -5  11  -4  425.26   39.10
  11   5   4  523.55   43.00
  -5  11   4  480.85   39.60
 -11  -5   4  452.95   37.00
  -4  11  -4  115.89   16.70
 -11  -4   4   93.89   15.20
  -4  11   4   86.19   17.30
  11   4   4   74.09   16.80
  -4  11   4  102.49   15.10
  -3  11  -4 1348.97   90.79
  -3  11  -4 1343.37   92.09
 -11  -3   4 1249.68   89.09
  -3  11   4 1383.36   90.59
  -3  11   4 1299.87   89.69
  11   3   4 1495.35  105.99
  -2  11  -4   93.99   14.10
  -2  11  -4   99.99   16.50
  -2  11   4   89.39   14.80
 -11  -2   4   85.09   14.40
  -2  11   4   96.49   13.90
  -1  11  -4  229.08   25.60
  -1  11  -4  210.68   21.00
  -1  11   4  215.68   20.60
 -11  -1   4  224.18   21.90
  -1  11   4  228.48   22.10
 -11   0  -4   20.40    7.80
 -11   0  -4    0.30    5.80
   0  11  -4   10.60    9.10
   0  11   4   16.10    7.50
 -11   0   4    7.80    7.00
   0  11   4    6.90    6.50
 -11   0   4    4.30    7.50
 -11   1  -4  181.58   19.80
   1  11  -4  258.67   25.00
 -11   1  -4  195.68   19.90
 -11   1   4  182.58   21.90
   1  11   4  177.58   18.90
 -11   1   4  173.78   20.70
   1  11   4  225.78   17.80
   2  11  -4   92.29   14.40
 -11   2  -4   83.89   13.20
 -11   2  -4   70.19   12.20
   2  11  -4   76.19   13.30
 -11   2   4   93.89   14.00
 -11   2   4   65.39   13.40
  -2 -11   4  110.59   18.40
   3  11  -4 1250.97   86.49
   3  11  -4 1352.06   85.99
 -11   3  -4 1362.16   87.49
 -11   3  -4 1449.26   87.99
 -11   3   4 1316.67   87.69
  -3 -11   4 1231.38   89.19
 -11   3   4 1247.98   87.89
 -11   4  -4   83.39   13.70
 -11   4  -4   78.59   13.50
   4  11  -4  101.09   16.10
   4  11  -4  122.19   12.30
 -11   4   4   83.79   13.90
  -4 -11   4  127.79   18.10
 -11   4   4   86.09   15.50
   5  11  -4  449.36   39.10
   5  11  -4  443.46   32.70
 -11   5  -4  481.55   36.70
 -11   5  -4  502.25   36.80
 -11   5   4  477.55   37.30
 -11   5   4  406.66   35.50
 -11   5   4  466.85   36.30
 -11   6  -4   14.00    8.30
   6  11  -4   24.10   14.70
   6  11  -4   24.00    6.20
 -11   6   4   19.70    8.60
 -11   6   4   11.20    7.90
 -11   6   4    3.30    8.60
   7  11  -4  431.16   31.80
   7  11  -4  399.56   43.30
 -11   7   4  457.65   36.50
 -11   7   4  398.36   34.20
 -11   7   4  467.35   34.70
  -5  12  -4  151.68   20.70
  -5  12   4  191.88   21.60
  12   5   4  140.79   22.00
 -12  -5   4  120.79   18.20
  -4  12  -4   24.70    9.00
  -4  12   4   -1.00   11.90
  -4  12   4   26.70    9.20
 -12  -4   4   11.50    8.30
  -3  12  -4   45.30   10.80
  -3  12  -4   35.70   11.10
 -12  -3   4   40.50   11.50
  -3  12   4   40.00   13.00
  12   3   4   44.30    9.00
  -3  12   4   37.00    9.70
  -2  12  -4   21.90    9.90
  -2  12  -4   23.70    7.90
  -2  12   4   18.70   10.60
 -12  -2   4   27.70   10.50
  -2  12   4   26.20    8.10
  -1  12  -4 1251.07   87.99
  -1  12  -4 1210.28   81.89
 -12  -1   4 1197.08   83.29
  -1  12   4 1220.38   80.29
  -1  12   4 1255.77   82.19
   0  12  -4   43.50    8.90
   0  12  -4   55.59   13.50
 -12   0   4   50.09   11.10
   0  12   4   42.90   10.60
   0  12   4   40.60    8.70
 -12   0   4   59.89   12.50
   1  12  -4 1176.68   80.29
 -12   1  -4 1207.58   78.09
   1  12  -4 1138.79   75.59
 -12   1  -4 1230.18   78.49
  -1 -12   4 1061.49   81.59
 -12   1   4 1069.19   77.79
 -12   1   4 1159.88   78.89
 -12   2  -4   25.80    8.60
 -12   2  -4   42.80   10.90
   2  12  -4   25.50    7.80
 -12   2   4   36.20   11.40
 -12   2   4   32.10   10.40
 -12   3  -4   34.20   10.00
   3  12  -4   46.90    7.90
 -12   3  -4   42.70   10.60
 -12   3   4   24.40    9.90
 -12   3   4   43.30   11.20
   4  12  -4   17.70    8.60
   4  12  -4   20.00    5.20
 -12   4  -4   24.90    9.60
 -12   4  -4   17.10    9.00
 -12   4   4   43.60   11.30
 -12   4   4   18.90   10.00
 -12   4   4   26.50    9.60
 -12   5  -4  179.58   21.10
   5  12  -4  176.08   19.10
 -12   5  -4  179.28   21.70
   5  12  -4  179.88   14.50
 -12   5   4  120.89   19.50
 -12   5   4  146.19   19.70
 -12   5   4  165.88   20.30
  -3  13  -4  432.56   35.40
  -3  13  -4  495.75   56.29
  -3  13   4  380.86   35.40
 -13  -3   4  408.46   35.20
  -3  13   4  409.86   34.70
  -2  13  -4  262.77   24.60
  -2  13  -4  197.18   28.50
 -13  -2   4  255.47   26.10
  -2  13   4  276.27   24.60
  -2  13   4  261.57   24.90
  -1  13  -4  137.99   16.40
  -1  13  -4  147.49   22.10
 -13  -1   4  134.29   19.30
  -1  13   4  144.39   17.90
  -1  13   4  135.29   15.50
   0  13  -4   60.09   13.50
   0  13  -4   52.09    9.40
 -13   0   4   36.00   11.80
   0  13   4   36.20    8.20
   0  13   4   53.79    7.30
   1  13  -4  104.69   15.90
   1  13  -4  145.59   14.10
 -13   1  -4  139.49   18.50
 -13   1   4  104.09   17.60
 -13   1   4  163.38   20.70
   2  13  -4  232.08   19.50
 -13   2  -4  266.97   25.40
 -13   2  -4  240.48   24.40
   2  13  -4  258.37   20.90
 -13   2   4  259.67   25.80
 -13   2   4  272.67   25.60
 -13   3  -4  360.46   34.00
   3  13  -4  423.96   28.60
   3  13  -4  424.46   28.40
 -13   3  -4  447.46   35.50
 -13   3   4  360.26   34.40
 -13   3   4  456.35   37.00
 -13   3   4  433.26   36.00
   0   0  -5   -9.50   16.20
   0   0   5   10.60    8.40
   0   0   5    4.30    6.40
   0   1  -5  381.36   31.50
  -1   0  -5  443.06   41.50
   0   1  -5  477.45   41.20
   0  -1  -5  486.85   46.60
   1   0  -5  311.27   37.10
   0   1   5  325.87   25.90
  -1   0   5  319.67   26.70
   0   1   5  307.57   25.70
  -1   0   5  317.47   26.10
   1   0   5  331.87   27.10
   0   1   5  321.67   30.40
   1   0   5  344.37   30.50
   0  -1   5  381.16   28.00
   0  -1   5  323.77   30.30
  -1   0   5  329.57   29.20
  -1   1  -5  -12.40   16.00
   1   1  -5    7.10    6.50
  -1   1   5    6.60    5.70
  -1  -1   5   13.50    8.10
  -1   1   5   15.40    5.70
   1   1   5    0.50    5.30
  -1  -1   5   11.00    7.80
   1  -1   5    6.10    6.90
  -1   1   5   10.40    5.60
   1   1   5    1.10    7.20
  -1  -1   5   16.60    7.30
  -1   2  -5  570.94   53.59
   2   1  -5  630.94   48.60
  -1   2  -5  642.84   48.10
   2   1  -5  661.83   46.70
   2   1   5  609.54   50.19
  -2  -1   5  598.34   44.30
  -2  -1   5  605.54   46.40
  -1   2   5  680.13   42.20
  -2  -1   5  663.83   45.00
   2   1   5  762.92   45.40
   2   1   5  549.65   46.80
  -1   2   5  613.74   42.30
  -1   2   5  775.32   46.90
   1  -2   5  631.34   46.90
  -1   2   5  562.74   49.20
   2   0  -5   18.80   10.10
  -2   0  -5   33.50   12.80
   0   2  -5   33.40    9.80
   0   2  -5   19.20   16.10
  -2   0   5   13.10    6.00
   2   0   5   21.20   12.20
   0   2   5   33.20    6.40
   2   0   5   14.10    8.10
  -2   0   5   19.60    6.90
   0   2   5   37.80   10.00
  -2   0   5    6.00    5.30
   0   2   5   29.00    6.00
   1   2  -5  606.54   55.89
   1   2  -5  771.12   51.19
  -2   1  -5  664.73   52.09
   2  -1  -5  674.33   49.30
   1   2   5  628.94   43.10
   1   2   5  676.23   50.59
  -2   1   5  696.93   47.40
   1   2   5  762.52   57.09
  -2   1   5  661.23   44.60
  -2   1   5  635.84   44.10
  -2   1   5  612.14   49.99
   1   2   5  690.43   44.30
  -1  -2   5  646.74   46.50
   2  -1   5  604.74   48.00
  -2   2  -5 1148.29   73.79
   2   2  -5  982.90   73.69
  -2   2  -5 1127.99   76.89
   2   2  -5 1128.19   76.09
  -2  -2   5  974.40   71.29
   2   2   5  917.81   69.49
   2   2   5 1188.38   68.79
  -2   2   5 1156.08   74.79
  -2   2   5 1145.79   69.19
   2   2   5  991.30   76.59
  -2   2   5 1057.89   69.29
  -2  -2   5 1021.60   71.99
   2   2   5 1181.68   68.39
   2  -2   5 1160.28   74.09
   2   2   5  940.51   73.99
  -2   2   5 1217.78   72.89
  -2   3  -5  105.09   14.50
  -2   3  -5  111.89   19.30
   3   2  -5  106.39   16.30
   3   2  -5  121.39   14.50
   3   2   5   79.59   11.70
  -2   3   5   90.59   15.60
   3   2   5  107.39   17.70
   3   2   5  105.19    9.20
   3   2   5   86.29   13.80
  -3  -2   5  107.69   14.00
  -2   3   5   96.39   10.40
  -2   3   5  116.29   10.20
  -2   3   5   83.69   12.00
   3   2   5  113.89    9.60
   3   1  -5  274.37   22.90
   3   1  -5  237.38   25.60
  -1   3  -5  253.27   24.20
  -1   3  -5  241.28   30.20
  -3  -1   5  239.08   21.00
   3   1   5  258.97   22.40
  -1   3   5  272.67   22.60
  -3  -1   5  270.07   21.50
  -1   3   5  242.18   18.10
   3   1   5  241.98   24.10
  -1   3   5  276.67   28.80
   3   1   5  256.07   27.40
  -1   3   5  214.48   18.30
   0   3  -5 1203.88   84.29
   3   0  -5 1094.99   76.09
  -3   0  -5 1064.09   77.59
   3   0  -5 1124.99   77.29
   0   3  -5 1246.38   80.59
  -3   0   5 1191.38   74.39
   0   3   5  998.50   72.19
   0   3   5 1191.28   71.89
   3   0   5 1108.69   77.39
  -3   0   5 1148.99   76.49
  -3   0   5 1215.38   74.69
   0   3   5 1263.07   78.29
   3   0   5 1100.39   77.99
   0   3   5 1208.88   72.29
   0   3   5 1156.38   81.99
  -3   1  -5  215.08   26.90
   1   3  -5  311.27   33.10
   1   3  -5  274.57   26.10
   3  -1  -5  260.07   25.50
  -3   1   5  243.08   20.10
  -3   1   5  272.87   27.00
  -3   1   5  246.08   19.70
   1   3   5  243.88   18.20
  -1  -3   5  248.78   22.00
   1   3   5  223.48   25.20
   1   3   5  253.17   18.30
   1   3   5  260.27   18.30
   1   3   5  272.07   32.90
   3  -1   5  245.08   23.60
  -3   1   5  248.48   22.30
   1   3   5  250.67   17.70
   2   3  -5  105.39   19.60
  -3   2  -5  142.59   19.50
   2   3  -5  111.59   16.80
  -3   2  -5  101.29   14.80
   3  -2  -5  114.59   17.80
   2   3   5  110.09    9.40
   2   3   5  106.59    8.90
   2   3   5  108.89   20.50
   2   3   5  117.99   10.60
  -2  -3   5  117.59   14.80
  -3   2   5  112.89   16.60
   3  -2   5  126.99   16.70
  -3   2   5  112.79   13.70
   2   3   5  101.19   16.10
  -3   2   5   95.09   11.30
  -2  -3   5   81.09   14.60
  -3   2   5  107.29   10.90
   3   3  -5 1620.54  102.39
  -3  -3  -5 1535.25   95.39
  -3   3  -5 1498.55   99.69
   3   3  -5 1648.44  101.49
  -3   3  -5 1517.05  102.19
   3   3   5 1438.36  101.79
  -3  -3   5 1577.84   99.79
   3   3   5 1582.64   94.29
   3   3   5 1489.85  100.89
  -3   3   5 1515.85   95.89
  -3   3   5 1407.46   95.79
   3   3   5 1561.44   94.59
  -3   3   5 1558.44   99.59
   3   3   5 1588.24   95.49
  -3  -3   5 1436.56   98.59
   4   3  -5   54.69   10.40
  -4  -3  -5   80.09    8.80
  -3   4  -5   86.59   13.10
  -3   4   5   63.79   10.60
  -3   4   5   75.39   14.10
   4   3   5   70.89   15.70
   4   3   5   73.29   12.50
  -3   4   5   77.09    8.50
  -3   4   5   80.29    9.00
  -4  -3   5   56.99   10.80
   4   3   5   68.69    6.80
   4   3   5   69.39    9.20
  -4  -3   5   76.79   12.40
   4   2  -5   31.60   11.80
  -2   4  -5   38.60    9.10
  -4  -2  -5   47.00    6.50
   4   2  -5   27.10    7.50
  -2   4  -5   54.19   17.50
   4   2   5   40.70    6.10
  -2   4   5   48.90    6.50
   4   2   5   24.30   12.10
  -2   4   5   35.90    8.20
  -4  -2   5   38.00    8.60
   4   2   5   38.40    5.60
  -2   4   5   40.30    5.90
   4   2   5   39.80    9.00
  -4  -2   5   47.40    9.30
  -1   4  -5   91.09   14.40
  -4  -1  -5   98.69    9.80
  -1   4  -5   74.29   20.10
   4   1  -5  102.69   13.00
  -4  -1   5   92.29   12.10
  -1   4   5   88.89    8.70
   4   1   5  156.98   16.70
  -4  -1   5  102.79   12.90
   4   1   5   91.59   15.40
  -1   4   5   81.69   11.80
  -1   4   5   92.79    8.60
   0   4  -5    9.10    7.10
  -4   0  -5    3.90    3.50
   4   0  -5    5.80    4.30
  -4   0   5   -1.80    4.70
   0   4   5   -1.30   12.20
   4   0   5    7.60    6.30
   0   4   5   10.50    3.10
   0   4   5   12.00    3.00
   4   0   5   -8.90    8.40
  -4   0   5    5.40    5.00
   0   4   5    6.80    6.00
   0   4   5    7.70    3.00
  -4   0   5    3.00    4.80
   1   4  -5  112.99   16.70
   4  -1  -5  130.99   17.90
   1   4  -5  114.19   23.30
   1   4   5  102.29    7.60
   4  -1   5   96.69   14.70
   1   4   5   98.49    7.70
   1   4   5  102.29    8.40
   1   4   5   97.99    8.00
   4  -1   5  116.29   17.60
   1   4   5   75.49   14.20
  -4   1   5   88.79   11.30
  -4   1   5   87.09   11.20
  -4   1   5  102.69   13.90
  -4   2  -5   46.50   13.70
   2   4  -5   41.40   11.00
   2   4  -5   21.60   18.80
  -2  -4   5   43.70    9.90
  -4   2   5   41.80    8.90
   2   4   5   40.20    3.70
  -4   2   5   43.20    7.70
   4  -2   5   42.70   11.00
  -4   2   5   38.10   11.00
  -2  -4   5   46.90   11.30
   2   4   5   10.00   16.90
   2   4   5   38.70    4.50
   2   4   5   43.30    4.80
  -4   2   5   31.00    6.70
   2   4   5   26.60   10.10
   2   4   5   37.40    3.40
  -4   3  -5   66.49   11.50
   3   4  -5   56.39   11.20
   3   4  -5   68.19   17.00
  -4   3  -5   57.09   14.90
  -3  -4  -5   80.19    8.10
  -3  -4   5   87.59   13.00
   4  -3   5   56.29   11.70
  -4   3   5   61.39   13.70
  -4   3   5   71.09   11.30
  -4   3   5   64.39    8.90
   3   4   5   66.79   12.10
  -3  -4   5   72.69   13.40
  -4   3   5   64.49    9.00
   4   4  -5  582.04   47.70
  -4  -4  -5  611.74   39.90
  -4   4  -5  660.23   45.70
  -4   4  -5  572.44   48.80
   4   4  -5  642.14   45.40
  -4   4   5  638.54   44.90
  -4   4   5  577.54   40.40
  -4   4   5  590.84   40.80
  -4   4   5  607.84   46.80
   4   4   5  654.53   49.40
  -4  -4   5  625.24   44.50
  -4  -4   5  561.74   43.40
   4   4   5  588.24   44.50
  -5  -4  -5   26.80    5.80
   5   4  -5   20.50   12.30
  -4   5  -5   17.00    7.80
   5   4  -5   36.60    9.20
  -4   5   5   24.10    6.20
  -5  -4   5   27.50    9.50
  -5  -4   5   38.60    9.40
  -4   5   5   22.70    9.70
  -4   5   5   29.10    6.10
   5   4   5   51.39   13.40
   5   4   5   33.20    9.20
  -4   5   5   25.20    7.50
  -3   5  -5  257.77   28.90
   5   3  -5  239.28   30.10
   5   3  -5  274.87   24.00
  -5  -3  -5  283.87   20.20
  -5  -3  -5  285.87   20.00
  -3   5  -5  343.07   25.80
  -3   5   5  257.67   19.20
  -3   5   5  270.67   19.80
   5   3   5  216.48   20.60
  -3   5   5  255.27   26.20
   5   3   5  294.47   25.20
  -5  -3   5  274.27   23.10
  -5  -3   5  286.87   24.00
  -3   5   5  250.47   23.30
   5   3   5  199.48   25.10
   5   3   5  261.37   18.30
  -5  -2  -5  415.06   30.50
  -2   5  -5  437.56   41.60
  -2   5  -5  427.66   34.70
   5   2  -5  427.16   34.40
  -5  -2  -5  458.35   30.90
   5   2   5  516.25   38.80
  -2   5   5  467.85   34.30
  -2   5   5  471.55   36.80
   5   2   5  394.46   33.20
   5   2   5  434.16   29.80
  -5  -2   5  459.45   33.30
  -2   5   5  435.66   29.10
  -5  -2   5  457.85   33.80
   5   2   5  473.55   35.70
  -2   5   5  429.06   29.60
  -5  -1  -5  446.46   32.00
   5   1  -5  412.46   35.00
  -1   5  -5  476.85   37.30
  -5  -1  -5  440.36   31.80
  -1   5  -5  443.36   45.10
   5   1  -5  397.36   39.80
  -5  -1   5  431.36   34.00
  -5  -1   5  455.45   33.80
  -1   5   5  452.65   29.40
   5   1   5  562.74   37.90
  -1   5   5  469.05   30.20
  -1   5   5  580.14   39.80
  -1   5   5  460.15   29.70
  -1   5   5  504.75   35.30
   0   5  -5 2060.79  152.68
  -5   0  -5 2233.68  143.99
   5   0  -5 2420.26  148.09
   5   0  -5 2538.05  149.99
   0   5  -5 2253.17  150.58
   0   5   5 2301.37  141.39
  -5   0   5 2378.06  145.49
   0   5   5 2306.07  141.49
   5   0   5 2244.08  148.19
  -5   0   5 2578.34  148.99
   0   5   5 2275.37  148.89
   5   0   5 2390.46  149.09
  -5   0   5 2316.87  145.49
   0   5   5 2244.58  147.39
  -5   1  -5  454.55   32.40
   1   5  -5  506.15   39.90
   5  -1  -5  455.55   40.50
  -5   1   5  444.06   33.20
  -5   1   5  466.75   36.20
   5  -1   5  460.95   37.20
   1   5   5  509.95   44.30
   1   5   5  476.65   38.50
   5  -1   5  465.55   39.80
  -5   1   5  440.36   33.20
   2   5  -5  444.06   47.30
   2   5  -5  429.76   37.10
   5  -2  -5  407.36   39.10
  -5   2  -5  456.45   31.40
   2   5   5  360.16   35.70
  -5   2   5  475.85   35.00
   2   5   5  500.55   45.60
  -5   2   5  419.66   31.40
  -5   2   5  450.85   38.70
  -2  -5   5  424.46   36.50
  -5   2   5  457.35   31.60
   3   5  -5  269.87   26.20
   3   5  -5  365.86   36.70
  -5   3  -5  303.07   28.00
  -5   3   5  259.17   21.50
  -5   3   5  272.87   24.60
  -5   3   5  258.67   27.00
  -5   3   5  263.07   21.30
   3   5   5  227.18   31.30
  -3  -5   5  302.47   24.70
  -3  -5   5  239.88   26.70
   3   5   5  250.47   25.10
   4   5  -5   47.20   14.00
   4   5  -5   26.80    8.40
  -5   4   5   19.90    6.10
  -5   4   5   28.00   10.00
   4   5   5   26.30    8.10
  -5   4   5   27.70    8.00
  -5   4   5   27.50    7.00
  -4  -5   5   29.40    9.20
  -4  -5   5   42.50   11.70
   4   5   5   24.50   14.40
   5   5  -5   72.59   12.40
   5   5  -5   82.09   16.80
   5   5   5   60.59   11.90
  -5   5   5  103.69   14.30
  -5   5   5   78.69    9.70
  -5   5   5   62.89   14.10
  -5   5   5   93.09   11.10
   5   5   5   85.49   17.10
  -5  -5   5   96.89   14.60
   6   5  -5  157.88   17.50
   6   5  -5  120.99   20.50
   6   5   5  135.19   17.30
  -5   6   5  162.38   14.80
   6   5   5  123.59   20.40
  -5   6   5  184.78   29.80
  -5   6   5  141.39   17.60
  -5   6   5  138.89   13.30
  -6  -5   5  152.78   18.60
   6   4  -5  146.69   17.50
   6   4  -5  131.99   20.20
  -4   6  -5  149.59   18.60
  -6  -4   5  190.98   21.00
  -4   6   5  161.08   17.90
   6   4   5  168.48   20.80
  -4   6   5  136.59   12.80
   6   4   5  213.38   21.50
  -4   6   5  157.78   14.20
  -4   6   5  136.89   18.20
  -6  -4   5  152.58   17.70
  -3   6  -5   34.20    9.40
   6   3  -5   59.89   14.90
   6   3  -5   32.40    8.50
  -6  -3  -5   36.90    6.90
  -6  -3  -5   36.40    6.80
   6   3   5   43.10   12.60
  -6  -3   5   43.70    9.40
   6   3   5   36.50   11.10
  -3   6   5   35.50    6.30
  -3   6   5   39.90    8.90
  -6  -3   5   30.90    9.20
   6   3   5   29.40    7.80
  -3   6   5   33.90    5.20
   6   3   5   33.10    5.20
  -3   6   5   32.30   10.50
  -6  -2  -5  613.04   40.50
  -6  -2  -5  630.84   40.60
  -2   6  -5  676.73   50.69
   6   2  -5  651.13   45.20
   6   2  -5  535.45   48.30
  -2   6  -5  570.24   44.40
  -2   6   5  606.24   38.90
   6   2   5  571.14   47.00
   6   2   5  563.34   45.00
  -2   6   5  615.04   37.10
  -2   6   5  555.44   37.20
  -2   6   5  542.55   42.90
  -6  -2   5  590.94   42.70
  -6  -2   5  661.13   42.90
  -2   6   5  638.64   45.30
  -6  -1  -5   26.10    6.00
  -1   6  -5   96.09   20.30
  -1   6  -5   15.10    7.80
  -6  -1  -5   29.60    6.60
   6   1  -5   20.00    7.20
   6   1   5   31.80   10.60
  -6  -1   5   26.00    7.80
  -1   6   5   27.90    7.30
  -1   6   5   20.90   10.20
  -6  -1   5   18.90    6.90
   6   1   5   59.29   14.10
  -1   6   5   34.00    4.60
  -1   6   5   29.90    3.10
  -1   6   5   26.70    3.10
   6   0  -5   15.10   13.10
  -6   0  -5   -0.10    4.50
   0   6  -5  -20.20   14.40
  -6   0  -5    4.70    4.60
   0   6  -5    7.70    7.80
   6   0  -5   -0.50    5.00
   6   0   5    0.60    8.90
   6   0   5   -3.50   10.60
   0   6   5    1.40    1.80
  -6   0   5   -6.30    5.00
  -6   0   5    2.90    5.20
   0   6   5   15.00    6.70
   0   6   5  -11.30    9.60
   6  -1  -5    2.20   12.60
  -6   1  -5   27.10    6.40
   1   6  -5   39.40   18.20
   1   6  -5   27.00   10.20
  -6   1  -5   18.20    6.10
   6  -1   5   12.30   10.00
   6  -1   5   17.80   22.20
  -6   1   5   23.90    7.70
  -6   1   5   21.20    7.20
   1   6   5   21.00    9.20
   1   6   5   25.60   12.80
   2   6  -5  670.73   56.69
  -6   2  -5  640.24   41.20
   2   6  -5  616.04   47.40
  -2  -6   5  576.14   46.40
  -6   2   5  596.74   45.70
   2   6   5  581.14   46.00
  -6   2   5  568.44   41.20
   2   6   5  529.35   50.59
  -6   2   5  585.64   41.60
   3   6  -5   26.70   17.90
   3   6  -5   30.80   10.10
  -6   3  -5   30.50    7.40
  -3  -6   5   15.00   10.60
   3   6   5   29.20    8.90
  -6   3   5   25.50    6.90
  -6   3   5   31.50    8.10
  -6   3   5   23.80    7.90
   3   6   5   30.50   19.10
   4   6  -5  142.49   23.00
   4   6  -5  160.88   18.50
  -4  -6   5  127.59   18.60
  -6   4   5  167.48   18.80
  -6   4   5  175.88   15.30
   4   6   5  129.39   25.80
   4   6   5  151.68   17.60
  -6   4   5  144.59   16.00
   5   6  -5  152.48   16.90
   5   6  -5  131.99   21.50
   5   6   5  158.48   23.00
  -6   5   5  128.89   17.70
  -5  -6   5  115.19   16.50
  -6   5   5  135.49   13.70
   5   6   5  152.08   17.50
  -6   5   5   97.39   12.60
   6   6  -5 1615.14   99.49
   6   6  -5 1465.55  101.49
  -6  -6   5 1556.44   98.29
   6   6   5 1464.15   97.39
   6   6   5 1467.05  100.49
  -6   6   5 1519.25   94.89
  -6   6   5 1497.75   95.79
  -6   6   5 1385.36   99.79
   7   6  -5   25.90   14.60
  -6   7  -5   29.70   16.10
   7   6  -5   36.00    9.40
  -6   7   5   35.50    8.50
  -6   7   5   31.50    7.30
  -6   7   5   35.30    6.80
  -7  -6   5   47.90   10.70
   7   6   5   56.49   12.90
  -6   7   5   32.30    9.40
   7   6   5   38.90   14.10
   7   5  -5   57.79   11.80
  -5   7  -5   67.69   13.40
   7   5  -5   60.39   17.20
   7   5   5   71.29   15.20
  -5   7   5   63.19    9.80
  -5   7   5   54.49   11.60
   7   5   5   53.79   13.50
  -7  -5   5   68.69   13.00
  -5   7   5   54.19    8.20
  -5   7   5   56.99    7.50
  -4   7  -5   36.70   13.20
   7   4  -5   10.40   12.80
   7   4  -5   26.00    8.50
  -4   7   5   28.60   10.60
  -7  -4   5   19.00    8.30
  -4   7   5   42.40    7.40
  -4   7   5   54.09   10.70
   7   4   5   23.20   11.10
  -4   7   5   38.70    5.10
  -4   7   5   36.30    5.90
  -3   7  -5  198.88   21.00
  -3   7  -5  210.78   25.70
   7   3  -5  177.78   20.20
   7   3  -5  179.28   24.20
   7   3   5  187.68   18.30
  -3   7   5  200.28   15.70
  -3   7   5  208.68   20.20
   7   3   5  255.47   27.10
   7   3   5  180.58   23.10
  -3   7   5  188.58   22.20
  -3   7   5  203.78   14.20
  -7  -3   5  179.98   18.80
  -7  -3   5  179.28   20.30
  -7  -2  -5  292.57   21.10
   7   2  -5  292.07   33.40
  -2   7  -5  223.08   28.50
  -2   7  -5  266.37   25.00
  -7  -2  -5  265.17   20.80
  -2   7   5  249.08   18.60
  -7  -2   5  283.77   23.20
  -7  -2   5  260.27   23.30
   7   2   5  270.57   29.30
  -2   7   5  246.78   23.30
  -2   7   5  248.78   25.30
  -7  -1  -5  269.97   22.20
  -1   7  -5  282.87   27.20
  -1   7  -5  316.57   33.10
  -7  -1  -5  276.37   22.40
   7   1  -5  335.57   34.40
   7   1   5  259.07   30.00
   7   1   5  304.37   30.90
  -7  -1   5  325.97   24.70
  -1   7   5  265.17   24.30
  -1   7   5  291.07   21.70
  -7  -1   5  331.97   24.90
  -1   7   5  257.67   26.80
   7   0  -5   64.19   16.60
  -7   0  -5   61.79    9.40
  -7   0  -5   83.09   10.30
   0   7  -5   52.49   13.50
   0   7  -5   49.70   17.60
   7   0   5   85.99   16.00
  -7   0   5   75.29   12.20
   0   7   5   64.29   11.20
   0   7   5   47.70   11.80
  -7   0   5   69.09   10.60
  -7   1  -5  290.57   23.20
   1   7  -5  318.17   30.20
  -7   1  -5  313.47   23.60
   1   7  -5  252.07   32.80
   1   7   5  259.07   27.60
  -7   1   5  321.77   24.40
   7  -1   5  267.77   33.00
   1   7   5  316.87   29.50
  -7   1   5  281.07   24.40
   2   7  -5  250.27   27.20
  -7   2  -5  268.97   21.90
   2   7  -5  248.08   33.10
  -7   2  -5  293.67   22.10
  -7   2   5  258.47   22.30
  -2  -7   5  271.87   29.50
   2   7   5  233.58   29.40
   2   7   5  237.18   25.90
  -7   2   5  300.67   22.90
   3   7  -5  207.98   31.00
   3   7  -5  172.18   21.40
  -7   3  -5  206.38   17.80
  -3  -7   5  146.59   21.30
  -7   3   5  174.88   17.00
   3   7   5  200.18   19.80
   3   7   5  198.28   26.10
  -7   3   5  174.08   18.00
  -7   4  -5   36.90    8.50
   4   7  -5   32.60    8.90
   4   7  -5    1.70   16.60
  -7   4   5   29.50    7.50
  -4  -7   5   39.60   11.70
  -7   4   5   21.40    7.30
   4   7   5   38.40    8.80
   5   7  -5   49.20   10.30
   5   7  -5   50.09   18.00
   5   7   5   52.79   10.20
  -5  -7   5   53.49   12.70
   5   7   5   52.39   18.80
  -7   5   5   37.20    8.20
  -7   5   5   59.99   10.00
   6   7  -5   58.09   16.90
   6   7  -5   39.60    9.70
   6   7   5   35.90    9.80
   6   7   5   39.50   16.80
  -7   6   5   45.50    9.70
  -7   6   5   42.80    8.30
  -6  -7   5   35.10   10.90
   7   7  -5   62.39   11.80
   7   7  -5   39.90   16.40
  -7  -7   5   75.29   13.90
   7   7   5   75.29   17.60
  -7   7   5   81.19   12.10
   7   7   5   54.89   12.50
  -7   7   5   65.09   10.40
  -7   7   5   69.89    9.90
   8   7  -5  100.39   20.50
   8   7  -5   93.89   15.10
  -7   8   5   80.39   10.10
  -8  -7   5   88.99   15.10
   8   7   5   86.09   18.40
  -7   8   5   74.49   12.30
  -7   8   5   92.89   11.60
   8   7   5   76.59   15.10
   8   6  -5   13.60    7.10
  -6   8  -5   18.70   13.40
   8   6  -5   14.80   16.10
  -6   8   5   19.80    5.00
  -8  -6   5   25.60    9.10
  -6   8   5   25.40    9.50
  -6   8   5   26.40    6.30
   8   6   5   20.40   11.50
   8   6   5   37.40   14.20
  -6   8   5   29.20    7.60
   8   5  -5   85.49   19.40
  -5   8  -5  107.99   16.70
  -8  -5   5   97.39   14.80
  -5   8   5  102.19    8.30
   8   5   5   77.59   16.00
  -5   8   5  101.89    9.90
  -5   8   5   87.99   14.50
   8   5   5  120.19   18.80
  -5   8   5  103.19   12.50
   8   4  -5  340.97   39.20
  -4   8   5  408.16   34.40
   8   4   5  354.46   35.20
  -4   8   5  381.96   27.20
  -4   8   5  416.66   32.60
   8   4   5  372.46   35.70
  -8  -4   5  336.17   30.40
  -4   8   5  372.96   24.70
  -3   8  -5  456.05   37.90
   8   3  -5  454.25   43.40
  -3   8   5  448.86   31.70
  -3   8   5  479.65   36.90
  -3   8   5  474.55   37.80
   8   3   5  458.45   41.10
   8   3   5  480.45   47.00
   8   3   5  464.95   34.50
  -8  -3   5  482.45   36.10
  -8  -2  -5  203.38   19.40
  -8  -2  -5  214.88   18.00
  -2   8  -5  201.48   22.20
   8   2  -5  189.98   27.40
  -2   8  -5  189.78   24.40
  -8  -2   5  205.78   20.50
  -8  -2   5  229.28   20.40
   8   2   5  206.68   26.00
  -2   8   5  217.38   20.70
  -2   8   5  188.48   21.90
  -8  -1  -5  124.69   13.60
  -1   8  -5  110.79   17.30
  -8  -1  -5  106.09   13.30
  -1   8  -5  131.99   20.80
   8   1  -5  114.89   24.70
  -1   8   5   96.49   14.60
  -1   8   5   99.69   13.70
  -8  -1   5  121.99   15.30
   8   1   5  120.79   20.60
  -8  -1   5  111.99   14.50
   0   8  -5   36.10   11.40
  -8   0  -5   28.80    7.50
   0   8  -5   45.60   16.00
  -8   0  -5   36.10    8.20
  -8   0   5   34.10    8.60
   0   8   5   38.20    9.30
  -8   0   5   33.10    8.70
   0   8   5   23.40    9.30
   8   0   5   17.70   15.10
  -8   1  -5  111.69   13.80
   1   8  -5  151.08   21.10
  -8   1  -5  120.19   13.90
   1   8  -5  112.49   21.60
  -8   1   5  125.09   15.30
  -8   1   5  104.49   14.30
   1   8   5  122.99   15.60
   1   8   5  116.09   17.90
  -8   2  -5  243.88   19.40
   2   8  -5  243.38   24.90
  -8   2  -5  188.28   18.70
   2   8  -5  173.78   27.30
   2   8   5  184.78   23.40
  -8   2   5  208.48   19.30
  -2  -8   5  238.28   26.90
   2   8   5  188.08   22.00
  -8   3  -5  421.26   32.80
   3   8  -5  489.95   48.00
   3   8  -5  383.66   36.00
  -8   3  -5  486.25   33.50
  -3  -8   5  388.46   36.90
  -8   3   5  437.26   33.10
   3   8   5  476.05   38.90
   3   8   5  465.85   34.00
  -8   3   5  412.46   33.10
   4   8  -5  378.26   45.50
   4   8  -5  421.86   32.50
  -8   4  -5  345.97   29.00
   4   8   5  376.16   38.00
  -8   4   5  372.66   30.00
  -8   4   5  332.27   28.80
  -4  -8   5  338.67   32.70
   4   8   5  416.46   29.50
   5   8  -5  107.29   24.50
   5   8  -5  107.49   14.90
   5   8   5  122.59   24.90
   5   8   5  103.39   13.20
  -8   5   5  122.99   15.40
  -8   5   5   99.79   13.20
  -5  -8   5  102.29   16.80
   6   8  -5   24.30   17.30
   6   8  -5   25.70    8.20
   6   8   5   24.40    9.00
  -8   6   5   24.30    7.60
  -8   6   5    9.10    7.30
   6   8   5   12.20   17.80
  -6  -8   5   24.40    9.50
   7   8  -5   68.19   12.40
   7   8  -5   96.49   20.40
  -7  -8   5   97.19   15.60
   7   8   5   76.99   13.80
  -8   7   5   79.39   11.80
  -8   7   5   90.39   13.70
  -8   7   5   83.69   11.40
   7   8   5   74.69   20.90
   8   8  -5   12.20   14.10
   8   8  -5   12.20    7.30
   8   8   5   -9.90   14.30
  -8   8   5   -0.70    5.60
   8   8   5    9.70   10.00
  -8  -8   5    8.60    8.10
  -8   8   5    8.50    7.20
  -8   8   5    3.20    5.50
   9   8  -5  203.18   28.40
   9   8   5  211.08   28.00
   9   8   5  189.78   24.10
  -8   9   5  220.08   21.60
  -9  -8   5  207.68   23.70
  -8   9   5  218.38   17.30
  -8   9   5  196.58   18.30
   9   7  -5   95.59   21.60
  -7   9   5  117.19   12.00
  -9  -7   5   97.99   15.00
  -7   9   5   85.49   13.10
  -7   9   5   90.19    9.00
   9   7   5   73.59   15.90
   9   7   5  125.99   21.10
   9   6  -5  186.48   27.10
  -6   9  -5  244.38   41.40
  -6   9   5  212.28   23.90
  -6   9   5  209.58   19.30
   9   6   5  189.88   23.90
   9   6   5  211.08   26.30
  -9  -6   5  190.48   22.10
  -6   9   5  207.58   15.80
   9   5  -5  162.08   26.30
  -5   9  -5  207.58   23.00
  -5   9   5  184.28   23.30
  -5   9   5  177.48   21.00
   9   5   5  137.59   22.00
  -9  -5   5  182.08   20.80
  -4   9  -5   93.19   15.50
   9   4  -5   94.39   21.00
   9   4   5   94.19   18.90
  -4   9   5  109.39   16.10
  -4   9   5  136.39   19.50
  -9  -4   5  111.79   15.50
  -3   9  -5  189.38   22.20
   9   3  -5  203.58   28.80
  -3   9   5  181.68   20.40
   9   3   5  184.38   19.00
  -3   9   5  190.18   22.90
   9   3   5  212.08   26.70
  -9  -3   5  221.68   21.10
  -2   9  -5   32.50   10.00
  -9  -2   5   30.80    8.70
  -9  -2   5   36.00    9.70
   9   2   5   29.20   14.90
  -2   9   5   39.50    9.30
  -2   9   5   28.60   10.10
  -1   9  -5   96.79   17.20
  -9  -1  -5   98.09   13.10
  -9  -1  -5   97.79   13.20
  -1   9  -5  106.99   18.60
  -1   9   5   98.89   14.30
  -9  -1   5  109.79   14.40
  -1   9   5   99.69   14.40
  -9  -1   5  113.69   15.50
  -9   0  -5  573.34   40.10
  -9   0  -5  587.14   40.30
   0   9  -5  551.14   46.60
   0   9  -5  549.74   46.90
  -9   0   5  553.54   41.80
   0   9   5  560.24   42.80
  -9   0   5  547.15   41.20
   0   9   5  549.45   41.00
  -9   1  -5  109.59   14.00
  -9   1  -5  126.89   14.50
   1   9  -5   89.99   19.30
   1   9  -5  116.49   18.30
  -9   1   5   74.59   12.80
   1   9   5  102.99   13.30
  -9   1   5   86.39   12.90
   1   9   5   69.19   14.40
  -9   2  -5   27.70    7.80
   2   9  -5   12.90   14.90
  -9   2  -5   42.00    9.20
   2   9  -5   43.70   11.80
   2   9   5   36.70    9.40
  -9   2   5   41.10   10.40
   2   9   5   27.30    8.80
  -2  -9   5   30.70   13.30
  -9   2   5   25.90    8.40
  -9   3  -5  187.28   18.40
  -9   3  -5  190.38   18.20
   3   9  -5  175.58   20.80
   3   9  -5  146.39   25.50
   3   9   5  172.88   21.10
  -9   3   5  197.68   18.70
   3   9   5  184.18   17.70
  -3  -9   5  161.18   22.90
  -9   3   5  155.78   19.10
  -9   4  -5  108.79   14.50
   4   9  -5  132.39   17.30
   4   9  -5  134.89   25.90
   4   9   5  109.59   13.90
  -9   4   5  113.69   16.20
  -4  -9   5  116.79   18.60
   4   9   5  120.79   17.90
  -9   4   5  137.09   16.00
   5   9  -5  196.28   19.60
  -9   5  -5  188.18   19.40
   5   9  -5  198.38   30.90
  -9   5   5  173.98   19.60
   5   9   5  176.58   17.80
  -5  -9   5  181.48   22.70
   5   9   5  176.48   23.80
  -9   5   5  175.68   20.60
   6   9  -5  160.08   29.60
   6   9  -5  218.78   20.90
  -9   6   5  200.08   19.70
  -6  -9   5  250.27   23.30
  -9   6   5  185.48   21.40
   6   9   5  178.18   19.80
   6   9   5  207.68   30.50
  -9   6   5  192.08   19.80
   7   9  -5   53.69   20.80
   7   9  -5   87.19   13.70
  -9   7   5   85.79   13.20
  -9   7   5   84.29   12.60
   7   9   5   78.79   12.90
  -9   7   5  116.39   16.00
   7   9   5  106.49   24.30
  -7  -9   5  100.29   16.20
   8   9  -5  223.48   22.30
   8   9  -5  196.08   29.80
  -9   8   5  204.98   19.40
  -8  -9   5  235.08   23.30
  -9   8   5  202.18   20.00
   8   9   5  229.28   31.80
  -9   8   5  184.08   21.90
   8   9   5  201.38   22.50
   9   9  -5  208.68   23.40
   9   9  -5  171.58   27.90
   9   9   5  228.58   23.70
  -9   9   5  235.18   19.30
  -9   9   5  220.38   20.10
  -9  -9   5  251.17   23.70
   9   9   5  202.68   30.70
  -9   9   5  190.28   23.00
  10   8  -5   71.59   20.30
  -8  10   5   49.60    8.20
  10   8   5   63.19   18.70
 -10  -8   5   55.99   13.20
  10   8   5   55.59   13.30
  10   7  -5  735.53   58.79
 -10  -7   5  644.14   48.20
  10   7   5  578.74   49.99
  10   6  -5    8.70   16.90
  -6  10   5   15.00    8.90
 -10  -6   5   23.90    9.70
  10   6   5   23.60   12.60
  -5  10  -5   53.79   12.70
  10   5  -5   46.60   19.00
 -10  -5   5   38.90   11.40
  -5  10   5   46.70   11.50
  10   5   5   39.90   14.70
  10   4  -5   -1.70   15.70
  -4  10  -5   10.70    8.10
  10   4   5   -2.90   12.20
 -10  -4   5   13.20    8.00
  -4  10   5    1.60    6.10
  -4  10   5   16.50   10.90
  -3  10  -5  122.19   17.90
  10   3   5  130.89   23.00
  10   3   5  146.89   16.10
  -3  10   5  125.49   17.90
 -10  -3   5  118.39   17.10
  -3  10   5  151.78   17.80
  -2  10  -5   91.79   16.00
  -2  10   5   82.39   13.20
 -10  -2   5   51.99   12.30
  -2  10   5   55.49   12.00
  -1  10  -5  488.45   42.40
 -10  -1   5  550.84   38.30
  -1  10   5  461.65   37.20
 -10  -1   5  491.75   37.80
  -1  10   5  452.65   37.60
 -10   0  -5   19.40    7.40
   0  10  -5   13.10   13.20
   0  10  -5   33.30   12.00
 -10   0  -5   11.00    6.50
 -10   0   5   12.40    7.90
   0  10   5   29.40    9.60
 -10   0   5   36.30   10.30
   0  10   5   23.50    8.10
   1  10  -5  462.15   43.40
 -10   1  -5  524.25   37.70
   1  10  -5  585.74   44.20
 -10   1  -5  497.95   37.40
   1  10   5  495.75   41.10
 -10   1   5  480.95   38.10
   1  10   5  504.65   36.60
 -10   1   5  464.05   38.60
 -10   2  -5   52.79   10.40
   2  10  -5   57.79   13.00
 -10   2  -5   34.80    9.20
   2  10  -5   56.29   17.00
  -2 -10   5   56.19   15.10
 -10   2   5   42.50   10.80
   2  10   5   63.69   10.50
 -10   2   5   45.00   10.80
   3  10  -5  125.39   17.50
 -10   3  -5  132.19   15.80
   3  10  -5  114.29   21.30
 -10   3  -5  130.79   16.20
   3  10   5  137.19   13.60
  -3 -10   5   91.29   18.40
 -10   3   5  129.79   16.90
   3  10   5   96.29   12.90
 -10   3   5  142.39   17.50
 -10   4  -5   12.20    7.40
   4  10  -5   10.00    6.30
 -10   4  -5    2.20    6.20
   4  10   5    6.20    5.40
  -4 -10   5   12.20   10.10
   4  10   5    7.20    7.30
 -10   4   5    1.90    6.50
 -10   4   5   12.00    7.80
   5  10  -5   50.59   10.10
 -10   5  -5   49.80   11.10
   5  10  -5   56.89   20.70
  -5 -10   5   49.00   13.70
   5  10   5   33.00    8.20
   5  10   5   64.09   12.30
 -10   5   5   44.20   10.20
 -10   5   5   59.29   11.90
   6  10  -5   20.50    7.30
   6  10  -5   12.10   19.40
  -6 -10   5   30.20   11.30
   6  10   5   15.40    7.30
 -10   6   5   21.60    8.50
 -10   6   5   28.10    9.10
 -10   6   5   15.80    9.30
   6  10   5   25.90   12.90
   7  10  -5  681.33   48.30
   7  10  -5  600.94   59.49
   7  10   5  612.74   45.00
 -10   7   5  591.64   46.50
   7  10   5  658.13   53.59
 -10   7   5  711.73   48.30
 -10   7   5  680.13   49.40
  -7 -10   5  760.32   50.89
   8  10  -5   30.50   20.90
   8  10  -5   54.59   11.20
 -10   8   5   49.90   12.50
 -10   8   5   47.70   10.30
 -10   8   5   68.59   12.00
   8  10   5   79.19   22.10
   8  10   5   45.10    9.40
 -11  -7   5    5.40    9.10
  -7  11   5   18.70   14.10
  11   6  -5   27.90   19.20
  11   6   5   38.80   14.30
  -6  11   5   55.29   15.60
 -11  -6   5   38.30   11.70
  -5  11  -5  133.99   20.10
  11   5   5   86.29   18.90
 -11  -5   5  103.39   16.60
  -5  11   5   99.29   16.90
  -4  11  -5  274.57   28.70
 -11  -4   5  257.57   26.80
  -4  11   5  300.87   28.30
  11   4   5  305.77   34.00
  -3  11  -5  172.48   21.30
 -11  -3   5  154.18   21.10
  -3  11   5  175.08   20.60
  -3  11   5  196.78   23.90
  11   3   5  180.88   17.70
  -2  11  -5   19.50    8.60
  -2  11  -5   32.50   11.50
  -2  11   5   36.80   11.10
  -2  11   5   27.80    8.60
 -11  -2   5   21.00    9.30
  -1  11  -5   58.49   15.50
  -1  11   5   57.89   11.90
 -11  -1   5   68.59   13.40
  -1  11   5   64.39   11.60
 -11   0  -5  132.59   16.70
 -11   0  -5  160.18   19.80
   0  11  -5  155.58   22.80
 -11   0   5  124.79   17.50
 -11   0   5  117.89   16.80
   0  11   5  140.89   16.60
   0  11   5  118.29   18.20
 -11   1  -5  101.19   14.20
   1  11  -5   56.29   14.40
   1  11  -5   60.29   15.90
 -11   1  -5   72.69   12.70
 -11   1   5   56.29   11.80
   1  11   5   65.29   12.70
 -11   1   5   79.99   14.40
   1  11   5   69.19   10.00
   2  11  -5   24.00   13.20
 -11   2  -5   37.20   10.20
 -11   2  -5   46.90   10.80
   2  11  -5   19.20    9.90
 -11   2   5   42.30   10.90
   2  11   5   23.70    6.50
  -2 -11   5   36.20   14.00
   2  11   5   32.10    6.90
 -11   2   5   32.50   10.70
   3  11  -5  154.98   22.30
 -11   3  -5  171.08   19.30
 -11   3  -5  142.39   18.60
   3  11  -5  170.28   19.40
  -3 -11   5  170.88   24.40
   3  11   5  187.48   14.20
 -11   3   5  171.48   19.80
 -11   3   5  183.78   21.40
   3  11   5  162.68   13.90
   4  11  -5  226.68   29.00
   4  11  -5  285.57   24.20
 -11   4  -5  260.57   24.70
 -11   4  -5  289.87   25.20
 -11   4   5  267.67   25.50
  -4 -11   5  274.27   30.00
 -11   4   5  249.97   25.10
 -11   5  -5   95.49   15.50
   5  11  -5  107.19   21.40
   5  11  -5  150.38   15.60
  -5 -11   5  144.09   19.90
 -11   5   5  152.28   19.50
 -11   5   5   97.39   15.80
 -11   5   5   88.69   15.60
   6  11  -5   34.60   17.60
   6  11  -5   35.80    8.40
 -11   6   5   44.30   11.00
 -11   6   5   42.10   12.10
 -11   6   5   44.40   10.80
   7  11  -5    6.40    5.60
 -11   7   5   11.00    7.90
 -11   7   5    1.70    7.60
  -5  12  -5   35.40   11.80
  12   5   5   53.29   15.30
 -12  -5   5   34.60   11.30
  -5  12   5   42.80   11.80
  -4  12  -5  218.38   24.60
 -12  -4   5  214.78   24.40
  -4  12   5  191.48   23.10
  -3  12  -5  282.67   27.00
 -12  -3   5  255.47   25.10
  -3  12   5  255.97   29.10
  -3  12   5  231.98   25.30
  12   3   5  239.08   20.30
  -2  12  -5   31.90    9.80
  -2  12  -5   35.00   13.40
 -12  -2   5   23.70    9.80
  -2  12   5   30.80   11.90
  -2  12   5   33.80    9.70
  -1  12  -5   38.50   10.00
  -1  12  -5   38.30   13.60
 -12  -1   5   10.80    9.30
  -1  12   5   29.70   10.40
  -1  12   5   34.00   10.50
   0  12  -5   12.40    9.90
   0  12   5    7.60    7.70
   0  12   5   10.80    9.30
 -12   0   5   -1.00    8.30
 -12   0   5   -1.30    6.90
 -12   1  -5   45.40   10.40
 -12   1  -5   38.80    9.90
   1  12  -5   26.90   11.30
 -12   1   5   31.00   10.90
  -1 -12   5   59.09   17.20
   1  12   5   27.40    7.80
 -12   1   5   41.60   12.20
   1  12   5   27.00    7.30
 -12   2  -5   28.90    9.50
 -12   2  -5   32.90    9.90
   2  12  -5   22.00    8.80
 -12   2   5   23.90    9.90
 -12   2   5   12.90    9.20
  -2 -12   5   45.40   16.30
   3  12  -5  259.77   23.90
 -12   3  -5  276.47   25.40
   3  12  -5  268.47   28.30
 -12   3  -5  253.37   25.10
 -12   3   5  252.97   25.80
 -12   3   5  261.97   25.70
   4  12  -5  204.68   18.80
 -12   4  -5  212.18   21.90
   4  12  -5  158.58   21.70
 -12   4  -5  213.88   24.00
 -12   4   5  188.98   23.60
 -12   4   5  218.28   24.10
   5  12  -5   37.20    7.90
 -12   5  -5   36.30   11.10
   5  12  -5   27.80   13.40
 -12   5   5   29.90   10.50
 -12   5   5   57.19   12.50
 -12   5   5   34.30   11.90
  -1  13  -5  329.57   29.40
  -1  13  -5  349.17   36.00
  -1  13   5  316.97   31.20
   0  13  -5   41.10    9.60
   0  13  -5   37.10   12.60
 -13   0   5   32.80   12.40
   0  13   5   46.10   10.10
   0  13   5   33.60    8.70
   1  13  -5  324.37   26.50
   1  13  -5  272.37   29.10
 -13   1   5  318.87   29.50
   0   0  -6 1541.75  104.79
   0   0   6 1622.84  107.19
   0   0   6 1424.06   97.89
   0   0   6 1502.35  102.79
   1   0  -6    0.60   17.80
  -1   0  -6    4.40   14.40
   0   1  -6   20.20   16.80
   1   0   6    8.80    8.40
   1   0   6   13.90    7.70
  -1   0   6    7.50    7.60
   0   1   6   12.30    8.60
   0  -1   6   11.20    7.70
  -1   0   6   10.40    7.40
   0   1   6   11.80    7.00
   0   1   6   13.00    7.00
   0  -1   6   22.10    9.30
  -1   0   6    9.30    7.90
   1   0   6   10.30   13.30
   0   1   6   24.50   18.10
  -1   1  -6  129.79   24.50
   1  -1  -6  166.58   28.60
   1   1  -6  125.99   17.60
   1   1  -6  112.49   24.10
  -1   1   6  127.89   14.50
  -1  -1   6  104.99   17.90
  -1   1   6   97.59   13.50
   1  -1   6  104.99   14.70
   1   1   6  138.69   18.90
  -1  -1   6  114.39   15.10
   1   1   6  101.99   14.10
   1  -1   6  124.49   18.50
  -1  -1   6  104.69   15.30
  -1   1   6  121.79   23.00
  -1   1   6   93.59   14.90
   1   1   6  203.78   27.50
   2   1  -6  508.05   41.70
  -1   2  -6  554.24   43.60
  -1   2  -6  470.65   50.79
   2   1  -6  547.85   47.30
  -2  -1   6  532.25   39.50
   2   1   6  565.14   39.10
  -1   2   6  595.94   37.30
  -1   2   6  489.25   40.90
   2   1   6  493.05   51.39
   2   1   6  515.25   42.90
  -2  -1   6  545.05   39.40
  -2  -1   6  477.05   41.60
  -1   2   6  530.85   47.80
   1  -2   6  541.45   42.70
  -1   2   6  559.24   37.50
   2   0  -6  944.51   74.19
   0   2  -6 1190.18   79.99
   0   2  -6 1119.29   74.59
  -2   0  -6  930.31   74.99
   2   0   6 1075.29   69.89
  -2   0   6  982.60   71.59
  -2   0   6 1013.10   68.69
   0  -2   6 1101.59   70.19
   0   2   6 1008.70   67.59
   0   2   6  971.70   73.29
   2   0   6 1045.00   73.59
   0   2   6  970.00   67.09
   2   0   6 1148.99   78.39
  -2   0   6 1066.39   69.29
   0  -2   6 1081.69   73.99
   1   2  -6  662.53   46.30
   1   2  -6  526.25   52.19
  -2   1  -6  567.44   49.10
   2  -1  -6  466.05   45.90
  -2   1   6  574.94   39.20
  -2   1   6  514.15   41.80
   1   2   6  562.84   51.99
  -2   1   6  488.05   49.70
   1   2   6  565.64   45.50
   1   2   6  589.84   39.30
  -2   1   6  607.34   39.90
   2  -1   6  492.75   43.20
   1   2   6  551.84   38.90
  -1  -2   6  586.44   41.30
  -2   2  -6   20.30    8.40
  -2   2  -6   11.30   16.00
   2   2  -6   19.30    9.20
   2   2  -6   26.60   18.50
  -2   2   6   50.59   17.80
   2  -2   6   39.80   11.80
   2   2   6   28.60    7.90
  -2   2   6   38.90    7.30
  -2  -2   6   26.80   11.00
   2   2   6   28.30   10.40
  -2  -2   6   26.60    9.00
  -2   2   6   27.90    8.00
  -2   2   6   28.20    7.40
   2   2   6   32.60    6.00
   3   2  -6 1084.09   75.99
   3   2  -6  990.70   72.99
  -2   3  -6 1012.50   73.39
  -2   3  -6  962.90   78.79
   3   2   6 1142.79   67.19
  -3  -2   6 1035.30   70.99
  -3  -2   6 1053.49   71.49
   3   2   6 1170.58   70.19
  -2   3   6  971.90   67.79
  -2   3   6 1119.89   76.19
  -2   3   6 1036.90   71.99
   3   2   6  987.60   73.99
  -2   3   6 1103.29   67.69
   3   2   6 1051.99   77.09
   3   1  -6  435.86   34.20
  -1   3  -6  432.36   36.50
   3   1  -6  380.36   37.90
  -1   3   6  432.76   28.60
  -3  -1   6  354.46   30.70
   3   1   6  448.36   32.30
  -3  -1   6  399.06   33.60
   3   1   6  345.87   34.50
  -1   3   6  413.36   33.50
  -1   3   6  442.06   29.00
   3   1   6  366.76   39.20
  -3  -1   6  404.26   32.20
  -1   3   6  357.26   41.10
  -3   0  -6   43.40   20.10
   0   3  -6   72.29   23.50
   0   3  -6   84.79   16.00
   3   0  -6   24.40   14.20
  -3   0   6   52.09   10.20
   0   3   6   49.10   12.20
   0   3   6   70.79    8.90
   3   0   6   40.60   16.00
   0   3   6   54.29    8.20
  -3   0   6   47.60   10.10
   0   3   6   69.19    8.70
  -3   0   6   40.10    9.50
   3   0   6   43.80   12.20
   0   3   6   92.19   25.30
  -3   1  -6  468.75   44.30
   1   3  -6  442.96   37.90
   1   3  -6  568.74   50.29
   3  -1  -6  443.06   39.10
   3  -1   6  385.06   36.00
   1   3   6  419.36   37.80
  -3   1   6  432.46   31.80
  -3   1   6  428.86   34.70
   1   3   6  474.65   30.70
   1   3   6  410.86   29.40
  -3   1   6  397.56   31.70
   1   3   6  421.86   30.10
  -1  -3   6  469.35   34.20
   1   3   6  398.46   29.90
  -3   2  -6  983.10   78.89
   2   3  -6  976.50   82.89
   2   3  -6 1068.29   76.09
  -2  -3   6 1028.50   73.39
   2   3   6 1100.99   68.39
   2   3   6 1191.18   77.49
   2   3   6 1091.29   82.39
  -3   2   6 1064.59   69.79
  -3   2   6 1095.19   73.59
   3  -2   6 1055.09   74.99
  -3   2   6 1040.80   69.89
  -2  -3   6 1207.98   73.29
   2   3   6 1099.69   67.89
   2   3   6 1045.60   68.99
   3   3  -6    6.80   14.10
  -3   3  -6   44.40   17.20
  -3   3  -6   26.20    9.10
   3   3  -6    9.80    7.40
  -3   3   6   13.40    5.90
   3  -3   6   26.20   10.80
  -3  -3   6   10.30    9.10
   3   3   6   12.00    9.20
   3   3   6   20.20    6.30
  -3   3   6   19.00    7.90
   3   3   6   46.90   17.80
  -3   3   6   21.50    6.40
   3   3   6   22.50    4.70
  -3  -3   6   13.20    8.70
   3   3   6   19.10    4.30
  -3   4  -6  144.49   23.80
   4   3  -6  151.98   18.90
  -3   4  -6  188.48   19.80
   4   3  -6  156.08   22.40
  -3   4   6  151.38   17.90
  -4  -3   6  116.09   17.50
   4   3   6  130.79   11.60
   4   3   6  136.99   23.50
  -3   4   6  156.58   13.70
  -3   4   6  152.08   13.60
   4   3   6  144.79   14.00
   4   3   6  133.89   18.90
   4   3   6  123.39   14.50
  -4  -3   6  117.09   16.90
  -3   4   6  176.78   22.40
  -2   4  -6  101.59   24.20
   4   2  -6  148.49   17.60
   4   2  -6  152.98   22.00
  -2   4  -6   99.49   15.60
   4   2   6  128.79   11.60
   4   2   6  125.39   15.30
  -2   4   6  123.49   11.80
   4   2   6  132.79   21.70
   4   2   6  146.49   19.00
  -4  -2   6  117.59   16.00
  -2   4   6  112.19   19.30
  -2   4   6  124.49   11.90
  -2   4   6  107.79   15.40
  -4  -2   6  139.19   17.20
   4   1  -6  689.43   55.89
  -1   4  -6  713.73   54.99
   4   1  -6  789.92   53.19
  -1   4   6  752.12   46.70
  -4  -1   6  721.83   50.49
  -1   4   6  722.83   46.80
   4   1   6  708.93   54.09
   4   1   6  646.74   50.49
  -1   4   6  686.83   51.99
  -1   4   6  771.42   59.49
   4   1   6  663.63   56.39
  -4  -1   6  780.62   51.29
   0   4  -6  231.48   32.00
   0   4  -6  172.38   23.80
   4   0  -6  151.58   21.70
   4   0   6  177.18   24.70
  -4   0   6  188.98   20.20
   0   4   6  213.48   14.40
   0   4   6  181.48   21.40
  -4   0   6  185.18   18.40
   0   4   6  132.99   24.40
   0   4   6  146.39   13.90
   0   4   6  185.48   14.30
   4   0   6  186.18   22.60
  -4   0   6  197.68   18.70
   1   4  -6  846.42   66.99
  -4   1  -6  668.63   58.49
   4  -1  -6  760.42   57.89
   4  -1   6  734.73   56.59
  -4   1   6  781.32   55.29
  -4   1   6  728.93   51.79
   1   4   6  743.83   48.50
   1   4   6  796.32   48.90
   1   4   6  864.31   66.79
   1   4   6  841.72   59.39
   4  -1   6  679.13   63.49
  -4   1   6  746.83   52.09
   1   4   6  819.82   49.10
   1   4   6  755.92   49.20
  -4   2  -6  169.98   24.00
   2   4  -6  137.39   30.20
   2   4  -6  139.49   20.40
  -4   2   6   92.69   17.50
   2   4   6  136.89   10.80
  -4   2   6  111.79   13.70
  -2  -4   6  154.68   17.80
  -4   2   6  112.59   13.80
   2   4   6  125.69    9.90
  -2  -4   6  118.89   18.00
   2   4   6  125.69   10.60
  -4   2   6  139.49   17.00
   4  -2   6  114.59   17.70
   2   4   6  133.19   11.50
   2   4   6  159.38   27.00
   2   4   6  137.29   19.80
   3   4  -6  122.39   18.50
   3   4  -6  144.79   25.80
  -4   3  -6  122.89   20.60
  -4   3  -6  190.28   26.40
  -4   3   6  143.49   14.80
   3   4   6  156.08   11.70
   3   4   6  157.78   11.90
  -4   3   6  176.68   22.80
   3   4   6  149.88   26.40
  -4   3   6  153.28   15.00
   3   4   6  162.28   11.00
  -3  -4   6  125.69   19.70
  -4   3   6  157.78   18.60
  -3  -4   6  195.58   20.90
   3   4   6  133.09   19.40
   4   4  -6  261.47   27.20
  -4   4  -6  320.77   35.10
  -4   4   6  314.27   22.90
  -4  -4   6  309.87   28.20
   4   4   6  283.67   28.40
  -4  -4   6  278.87   26.80
  -4   4   6  291.17   29.90
   4   4   6  275.87   18.80
  -4   4   6  270.37   22.30
  -4   4   6  292.37   26.80
   4   4   6  304.17   19.60
   5   4  -6  243.98   29.30
   5   4  -6  276.97   26.10
  -4   5  -6  295.57   33.60
   5   4   6  256.97   17.30
  -4   5   6  264.67   28.60
  -4   5   6  275.67   25.70
  -5  -4   6  284.77   26.60
  -5  -4   6  294.77   26.10
   5   4   6  242.68   30.30
   5   4   6  247.18   26.40
  -4   5   6  266.57   21.20
   5   4   6  282.27   18.10
  -4   5   6  250.27   20.50
  -3   5  -6  456.95   46.70
  -5  -3  -6  473.55   33.90
  -3   5  -6  444.36   39.00
   5   3  -6  480.95   39.10
  -3   5   6  464.05   33.60
   5   3   6  476.55   35.20
  -3   5   6  476.25   38.70
  -5  -3   6  528.25   38.60
  -5  -3   6  465.95   37.70
  -3   5   6  499.95   41.10
   5   3   6  502.35   32.80
   5   3   6  540.25   41.00
   5   3   6  586.04   44.70
  -3   5   6  511.95   33.50
  -2   5  -6  235.68   31.00
  -2   5  -6  159.18   19.90
   5   2  -6  165.18   23.00
   5   2  -6  146.19   18.10
  -5  -2  -6  137.49   13.90
  -2   5   6  160.08   20.90
  -2   5   6  142.29   17.70
  -5  -2   6  145.39   18.50
  -2   5   6  154.08   12.90
  -2   5   6  173.88   13.60
   5   2   6  174.48   21.80
  -5  -2   6  151.18   18.60
   5   2   6  137.09   17.50
  -1   5  -6  309.07   29.80
  -1   5  -6  313.17   36.10
  -5  -1  -6  302.57   22.70
   5   1  -6  315.87   27.20
   5   1  -6  277.17   33.40
   5   1   6  329.67   29.80
  -1   5   6  263.77   26.20
  -5  -1   6  309.97   25.50
  -1   5   6  265.87   20.60
  -1   5   6  311.37   33.80
  -1   5   6  314.27   20.80
  -5  -1   6  300.57   25.30
  -1   5   6  282.27   20.10
   5   1   6  268.87   32.70
   0   5  -6   13.30    9.40
   0   5   6   11.80    7.30
  -5   0   6    4.90    6.60
   5   0   6  -12.10   11.20
   0   5   6   13.70    2.90
   0   5   6   12.60    4.00
   5   0   6    7.10    9.70
   0   5   6   -5.20   14.30
  -5   0   6    1.40    6.30
   0   5   6   13.70    2.90
   0   5   6   11.40    3.50
   1   5  -6  326.77   31.50
   5  -1  -6  348.97   36.80
   1   5  -6  396.26   44.60
  -5   1   6  283.27   31.10
   1   5   6  291.27   31.10
  -5   1   6  327.47   26.20
   1   5   6  471.95   43.60
   1   5   6  305.47   20.80
   1   5   6  311.67   20.50
  -5   1   6  277.17   24.90
   2   5  -6  162.78   22.20
   2   5  -6  143.69   27.20
   2   5   6  196.48   29.40
  -5   2   6  158.28   16.40
  -5   2   6  167.48   16.60
   2   5   6  157.28   22.20
  -2  -5   6  173.48   19.80
  -5   2   6  154.28   19.00
  -2  -5   6  129.59   20.70
   3   5  -6  366.66   37.00
   3   5  -6  508.55   51.29
  -3  -5   6  409.26   37.10
   3   5   6  377.66   36.80
  -5   3   6  425.16   31.90
  -5   3   6  465.75   36.50
   3   5   6  457.55   47.80
  -5   3   6  482.85   32.70
  -3  -5   6  503.25   35.70
   4   5  -6  223.08   31.90
   4   5  -6  286.57   27.60
  -5   4   6  298.37   22.20
   4   5   6  197.28   31.60
   4   5   6  272.77   27.30
  -5   4   6  278.97   22.50
  -5   4   6  310.57   27.10
  -4  -5   6  272.37   27.00
   5   5  -6   49.10   11.50
   5   5  -6   36.80   15.00
   5   5   6   49.60   11.60
  -5  -5   6   45.90   12.00
   5   5   6   37.00   17.00
  -5   5   6   31.60    7.10
  -5   5   6   23.70    8.20
  -5   5   6   26.40    7.30
   6   5  -6  230.98   28.60
   6   5  -6  233.98   23.70
  -5   6   6  209.98   18.60
  -5   6   6  231.48   23.60
   6   5   6  191.88   23.60
   6   5   6  188.78   26.80
  -6  -5   6  186.08   22.70
  -5   6   6  220.48   18.00
  -4   6  -6  479.75   45.50
   6   4  -6  473.25   38.20
   6   4  -6  407.86   42.20
   6   4   6  446.56   29.00
   6   4   6  455.35   38.50
  -6  -4   6  484.45   37.60
  -4   6   6  419.26   39.00
   6   4   6  469.65   29.50
  -4   6   6  451.15   31.70
  -4   6   6  474.65   32.70
   6   4   6  498.25   42.80
  -4   6   6  512.25   38.30
   6   3  -6  369.26   39.40
   6   3  -6  350.96   33.50
  -3   6  -6  384.96   33.70
  -3   6  -6  357.96   41.00
  -6  -3   6  385.96   31.50
  -3   6   6  363.86   34.80
  -3   6   6  394.66   27.20
  -3   6   6  410.66   33.00
   6   3   6  361.46   28.90
  -6  -3   6  367.36   31.40
   6   3   6  408.06   34.60
   6   3   6  397.96   37.90
  -3   6   6  389.36   26.20
   6   2  -6  539.75   48.10
  -6  -2  -6  510.45   38.40
  -2   6  -6  575.54   45.10
  -2   6  -6  495.05   49.90
   6   2   6  592.74   42.00
   6   2   6  620.34   46.00
  -2   6   6  532.15   36.80
   6   2   6  687.43   49.60
  -6  -2   6  576.04   41.90
  -2   6   6  517.85   44.70
  -2   6   6  540.05   42.40
  -6  -2   6  594.64   42.00
  -2   6   6  562.54   35.70
  -1   6  -6  888.31   78.99
  -6  -1  -6 1083.89   69.49
   6   1  -6 1173.08   77.89
  -1   6  -6 1002.30   75.99
   6   1   6 1135.89   76.29
  -6  -1   6 1123.19   71.99
   6   1   6 1173.68   77.39
  -1   6   6  979.80   66.59
  -1   6   6  998.90   73.19
  -1   6   6 1129.69   76.09
  -6  -1   6 1114.59   72.09
  -1   6   6 1091.59   66.79
  -6   0  -6  183.18   17.20
   6   0  -6  154.08   24.00
   0   6  -6  206.68   25.10
  -6   0   6  220.98   20.30
  -6   0   6  222.78   20.20
   0   6   6  188.18   22.10
   0   6   6  211.28   26.40
   6   0   6  183.28   23.40
  -6   1  -6 1050.19   73.29
   1   6  -6 1249.77   81.79
   1   6  -6 1137.89   85.59
   1   6   6 1022.00   79.69
  -6   1   6 1174.98   74.99
  -6   1   6 1127.89   74.79
   1   6   6 1128.39   81.79
   6  -1   6 1183.78   80.79
   2   6  -6  588.24   45.20
  -6   2   6  472.65   37.60
   2   6   6  496.65   49.99
  -6   2   6  548.75   38.30
   2   6   6  527.25   44.00
  -2  -6   6  532.35   43.30
   3   6  -6  370.86   34.20
   3   6  -6  383.46   46.40
  -3  -6   6  317.87   31.80
  -6   3   6  362.06   28.00
   3   6   6  421.36   43.00
   3   6   6  345.57   32.60
  -6   3   6  351.96   28.10
   4   6  -6  392.76   47.80
   4   6  -6  413.26   36.40
  -6   4   6  448.66   32.10
   4   6   6  425.96   35.60
   4   6   6  441.16   47.90
  -6   4   6  460.35   31.70
  -4  -6   6  351.26   35.00
   5   6  -6  228.38   30.60
   5   6  -6  265.27   24.70
   5   6   6  217.28   23.10
  -6   5   6  179.78   26.50
  -5  -6   6  226.98   25.80
   5   6   6  257.67   32.30
  -6   5   6  188.98   19.20
  -6   5   6  209.08   19.00
   6   6  -6    2.60    6.00
   6   6  -6   20.10   14.90
  -6   6   6    7.90    5.90
  -6   6   6   10.50    7.60
  -6  -6   6   -3.50    8.80
   6   6   6    6.80   15.30
   6   6   6    1.70    8.70
  -6   6   6    8.30    5.40
   7   6  -6  282.17   33.10
  -6   7   6  268.97   27.10
  -6   7   6  217.38   20.50
   7   6   6  238.38   27.50
  -6   7   6  267.67   22.10
  -6   7   6  255.77   20.30
  -7  -6   6  252.67   25.00
   7   6   6  267.47   32.20
   7   5  -6  460.65   45.80
  -5   7   6  472.55   35.30
  -5   7   6  473.55   33.60
  -5   7   6  498.55   40.80
  -7  -5   6  548.25   40.50
   7   5   6  541.25   46.20
   7   5   6  508.75   41.60
   7   4  -6  107.69   23.10
  -7  -4   6  197.18   21.50
  -4   7   6  139.09   21.80
  -4   7   6  140.89   13.70
   7   4   6  129.79   19.80
  -4   7   6  141.19   12.70
  -4   7   6  149.88   19.40
   7   4   6  128.59   21.90
  -4   7   6  131.19   11.30
  -3   7  -6   15.50   14.40
   7   3  -6   37.40   16.50
  -7  -3   6   13.80    7.90
   7   3   6    9.60   11.10
  -3   7   6   17.90    4.30
   7   3   6   28.60   14.30
  -7  -3   6   29.40   10.10
  -3   7   6   16.50    5.40
  -3   7   6   17.00    7.60
  -3   7   6   12.00    2.70
  -3   7   6   18.20    2.70
   7   3   6   22.10    7.60
  -7  -2  -6  630.84   42.90
  -2   7  -6  657.03   55.69
   7   2  -6  590.94   52.29
  -7  -2  -6  582.24   42.40
  -2   7  -6  626.94   49.10
  -2   7   6  664.23   38.80
  -2   7   6  588.44   38.90
   7   2   6  581.64   45.00
  -7  -2   6  635.64   45.60
  -7  -2   6  656.43   45.70
  -2   7   6  652.83   41.20
  -2   7   6  672.23   47.10
   7   2   6  490.95   48.30
  -2   7   6  624.84   47.90
   7   1  -6  220.18   35.20
  -1   7  -6  191.08   28.90
  -7  -1  -6  237.18   18.20
  -1   7  -6  158.38   22.70
  -7  -1  -6  196.08   17.60
   7   1   6  165.18   22.90
  -1   7   6  186.38   20.90
  -7  -1   6  242.68   21.20
  -7  -1   6  206.28   19.90
  -1   7   6  162.48   21.70
  -7   0  -6   11.80    5.90
   0   7  -6   10.40    9.10
   0   7  -6   29.30   16.30
   0   7   6   15.20    8.40
   0   7   6    4.60   11.60
  -7   0   6    7.10    6.80
  -7   0   6    7.40    7.00
   7   0   6   -7.20   12.70
   1   7  -6  245.78   26.70
   1   7  -6  200.38   31.90
  -7   1  -6  201.68   18.70
   1   7   6  240.58   26.50
  -7   1   6  228.08   20.40
   1   7   6  194.48   25.10
  -7   1   6  189.08   19.80
   2   7  -6  655.83   59.19
  -7   2  -6  631.04   43.90
   2   7  -6  641.94   50.59
  -2  -7   6  632.84   49.50
   2   7   6  585.94   51.99
  -7   2   6  628.94   44.40
   2   7   6  611.34   49.60
  -7   2   6  608.44   44.50
   3   7  -6    5.20   19.00
   3   7  -6    8.40    8.80
  -3  -7   6    9.00   10.60
  -7   3   6   10.80    6.80
  -7   3   6   26.70    7.30
   3   7   6   19.10    8.90
   3   7   6   11.60   16.30
   4   7  -6   97.49   17.30
   4   7  -6  110.59   25.90
   4   7   6  105.99   16.20
  -7   4   6  161.38   17.10
   4   7   6  132.59   25.20
  -4  -7   6  112.39   18.80
  -7   4   6  189.88   16.00
   5   7  -6  435.16   50.39
   5   7  -6  465.55   39.70
   5   7   6  510.15   38.50
  -7   5   6  528.65   36.10
   5   7   6  496.75   52.29
  -5  -7   6  444.26   40.10
  -7   5   6  485.65   36.30
   6   7  -6  239.48   32.70
   6   7  -6  262.67   25.40
   6   7   6  234.28   25.20
  -6  -7   6  278.97   26.70
  -7   6   6  220.48   20.60
  -7   6   6  232.58   21.80
   6   7   6  236.68   32.90
   7   7  -6   23.00   16.70
   7   7  -6   13.20    7.80
   7   7   6   21.20   10.60
  -7   7   6   21.30    8.10
  -7   7   6   35.70    7.60
   7   7   6    4.20   17.10
  -7   7   6   22.50    7.50
  -7  -7   6   12.60   10.30
   8   7  -6   39.30   17.70
   8   7   6   21.50   18.30
  -8  -7   6   46.80   12.90
  -7   8   6   58.79   10.90
   8   7   6   22.20   12.30
  -7   8   6   42.60    8.60
  -7   8   6   40.30    7.60
   8   6  -6  638.34   54.29
  -8  -6   6  620.14   46.80
  -6   8   6  622.24   42.90
  -6   8   6  613.94   48.50
   8   6   6  569.04   48.40
  -6   8   6  603.74   41.00
  -6   8   6  593.44   39.70
   8   6   6  544.55   52.19
   8   5  -6   87.99   21.40
  -5   8   6  100.39    9.90
   8   5   6   61.29   16.40
  -8  -5   6  102.99   16.50
  -5   8   6   85.49    7.90
   8   5   6   72.09   19.00
  -5   8   6   81.69   11.50
  -5   8   6   74.89   14.50
   8   4  -6    5.80   14.70
  -8  -4   6   27.30   10.30
   8   4   6    2.80   12.70
  -4   8   6   19.60    8.90
  -4   8   6   25.90    9.70
  -4   8   6   25.50    4.60
   8   3  -6   97.19   21.80
  -3   8  -6  143.89   23.40
  -3   8   6  121.89   17.20
   8   3   6  173.18   24.20
  -3   8   6  140.49   19.40
  -8  -3   6  142.09   18.90
   8   3   6  143.39   16.00
  -2   8  -6   40.70   16.80
  -2   8  -6   23.10    9.90
  -8  -2  -6   15.30    9.40
  -2   8   6   22.20   10.60
  -2   8   6   37.40    9.50
  -8  -2   6   29.90   10.10
   8   2   6   34.50   15.70
  -8  -2   6   25.90    9.00
  -1   8  -6   74.09   16.10
  -1   8  -6   59.99   19.30
  -8  -1  -6   77.39   11.20
  -8  -1  -6   87.49   11.50
  -1   8   6   59.49   13.60
   8   1   6   71.09   18.90
  -8  -1   6   73.39   12.90
  -8  -1   6   73.29   13.00
  -1   8   6   77.89   13.80
   0   8  -6  381.96   35.90
  -8   0  -6  383.96   28.20
  -8   0  -6  352.16   27.90
   0   8  -6  401.76   42.60
   0   8   6  355.76   32.80
  -8   0   6  332.87   29.30
   0   8   6  334.87   32.30
  -8   0   6  359.16   30.20
   1   8  -6   62.09   15.00
  -8   1  -6   88.19   12.20
   1   8  -6   77.19   21.20
   1   8   6   63.59   15.00
  -8   1   6   76.59   12.70
   1   8   6   81.39   16.20
  -8   1   6   93.99   14.20
  -8   2  -6   15.00    6.60
   2   8  -6   33.40   11.70
   2   8  -6   41.50   18.80
   2   8   6   29.40   10.70
   2   8   6   13.70   13.00
  -8   2   6   22.20    8.50
  -8   2   6   14.30    9.00
  -2  -8   6   24.10   13.10
   3   8  -6   96.49   17.80
  -8   3  -6  127.19   15.20
   3   8  -6  146.99   26.60
  -8   3   6  126.99   15.40
  -8   3   6  113.89   15.40
   3   8   6  136.89   18.00
  -3  -8   6  113.39   20.30
   4   8  -6   17.40   20.10
   4   8  -6   18.40    8.80
   4   8   6   37.40   17.20
  -8   4   6    8.50    8.00
  -4  -8   6   16.30   11.40
  -8   4   6   13.80    7.30
   4   8   6   18.30    8.50
   5   8  -6   78.09   24.20
   5   8  -6   67.79   13.20
   5   8   6   78.89   22.30
  -8   5   6   85.89   13.60
  -8   5   6   79.99   12.00
  -5  -8   6   53.99   15.00
   5   8   6   90.89   13.60
   6   8  -6  632.04   46.30
   6   8  -6  459.35   56.49
   6   8   6  573.64   43.90
  -6  -8   6  617.04   46.60
  -8   6   6  616.54   43.20
  -8   6   6  538.85   41.40
   6   8   6  602.54   58.39
   7   8  -6   46.70   20.40
   7   8  -6   52.99   12.30
  -8   7   6   37.00    8.90
  -7  -8   6   46.90   13.30
  -8   7   6   31.00    8.20
   7   8   6   29.60   20.40
   7   8   6   32.80   11.70
  -8   7   6   63.29   12.10
   8   8  -6   82.69   22.00
  -8   8   6   53.89    9.60
  -8   8   6   45.30   10.00
   8   8   6   34.20   19.70
   8   8   6   61.99   14.60
  -8  -8   6   59.09   14.20
  -8   8   6   77.09   13.20
   9   8  -6   17.60   18.10
  -8   9   6   41.80    8.40
  -8   9   6   40.40   10.40
   9   8   6    4.90   11.20
   9   8   6   -9.90   18.00
  -8   9   6   44.70    7.40
  -9  -8   6   24.00   10.80
   9   7  -6    1.00   15.40
  -7   9   6    2.20    5.00
   9   7   6   -1.90   11.60
  -7   9   6    8.30   10.80
  -7   9   6    1.70    3.50
   9   7   6   13.30   17.30
  -9  -7   6    4.90    9.40
   9   6  -6  785.42   63.49
  -6   9   6  780.12   58.29
  -6   9   6  731.83   48.20
  -9  -6   6  713.93   54.99
   9   6   6  723.93   57.59
  -5   9  -6  226.18   28.10
   9   5  -6  320.47   37.20
  -9  -5   6  309.57   27.40
   9   5   6  252.37   32.30
  -5   9   6  249.58   27.10
   9   4  -6  561.24   52.89
  -9  -4   6  550.24   43.40
  -4   9   6  562.74   44.90
   9   4   6  560.74   49.50
  -3   9   6  109.19   18.10
   9   3   6  139.19   23.60
   9   3   6  140.09   15.80
  -9  -3   6  140.99   18.90
  -3   9   6  133.19   18.60
  -2   9  -6  239.98   28.50
  -2   9  -6  231.78   31.00
  -9  -2   6  258.37   24.40
  -2   9   6  285.57   27.40
  -2   9   6  254.37   25.20
  -9  -2   6  276.27   27.10
   9   2   6  213.58   29.40
  -9  -1  -6  243.78   23.30
  -1   9  -6  244.88   30.20
  -9  -1  -6  301.07   26.20
  -1   9  -6  309.27   36.50
  -1   9   6  313.77   27.90
  -9  -1   6  264.57   26.00
  -9  -1   6  322.07   26.40
  -1   9   6  264.77   27.30
  -9   0  -6   -1.20    5.10
   0   9  -6   -1.00    8.40
  -9   0  -6    8.60    6.00
   0   9  -6    5.20   14.40
  -9   0   6    5.00    7.20
   0   9   6   -5.00    8.50
   0   9   6   -4.10    6.90
  -9   0   6    5.60    6.90
  -9   1  -6  299.17   24.10
   1   9  -6  308.67   30.60
   1   9  -6  228.38   32.80
  -9   1  -6  276.67   23.70
  -9   1   6  260.47   25.40
   1   9   6  307.87   30.60
   1   9   6  246.38   26.90
  -9   1   6  254.87   24.60
   2   9  -6  277.77   28.70
   2   9  -6  228.08   31.30
  -9   2  -6  291.27   23.20
  -9   2   6  250.27   23.20
  -9   2   6  248.48   23.50
   2   9   6  263.67   27.10
   2   9   6  204.38   25.30
  -2  -9   6  233.68   28.50
   3   9  -6  123.89   19.20
  -9   3  -6  157.18   17.70
   3   9  -6  157.08   26.90
  -3  -9   6   82.69   18.70
   3   9   6  120.99   19.20
  -9   3   6  137.79   16.50
  -9   3   6  155.18   18.70
   3   9   6  129.39   17.30
   4   9  -6  553.94   54.39
   4   9  -6  555.04   43.90
  -4  -9   6  455.05   43.90
   4   9   6  506.25   46.50
  -9   4   6  589.14   40.80
  -9   4   6  514.05   40.40
   4   9   6  549.05   40.20
   5   9  -6  269.77   26.80
   5   9  -6  244.98   35.30
   5   9   6  282.27   34.90
  -9   5   6  272.67   24.90
  -5  -9   6  238.58   29.90
  -9   5   6  300.87   25.20
   5   9   6  281.07   25.00
   6   9  -6  824.62   55.49
   6   9  -6  704.73   65.79
   6   9   6  813.12   62.69
   6   9   6  688.23   51.39
  -9   6   6  695.03   52.39
  -6  -9   6  704.63   55.39
  -9   6   6  688.23   51.39
   7   9  -6    6.00    6.30
   7   9  -6   -0.10   19.70
  -9   7   6    7.60    6.80
   7   9   6   -2.70    8.90
  -9   7   6    3.30    6.50
  -7  -9   6    6.80   10.40
   7   9   6   10.60   19.80
  -9   7   6   10.00    8.50
   8   9  -6   42.50   21.80
  -9   8   6   30.70    9.10
  -9   8   6   30.00    8.50
   8   9   6   37.90   23.10
  -8  -9   6   37.90   12.80
  -9   8   6   22.00    9.80
   8   9   6   26.00   11.90
  10   7  -6  110.19   25.30
 -10  -7   6  101.69   17.30
  10   7   6  100.99   19.00
  10   6  -6  177.98   29.90
  10   6   6  164.58   24.90
  -6  10   6  197.98   24.40
 -10  -6   6  162.88   21.40
  -5  10  -6   26.10   10.60
  10   5  -6    7.10   21.00
  -5  10   6   27.30   10.40
 -10  -5   6   26.90   11.10
  10   5   6   14.10   15.20
  -4  10  -6   19.90   10.10
  10   4   6    6.60   14.20
  -4  10   6   16.30    8.60
 -10  -4   6   13.10    9.40
  10   3   6  125.59   14.80
  -3  10   6  122.09   18.00
 -10  -3   6  127.89   19.00
  -3  10   6  131.99   18.40
  -2  10   6 1041.00   73.19
 -10  -2   6 1010.90   71.69
  -2  10   6 1043.20   71.99
  -1  10  -6  185.08   27.30
  -1  10  -6  209.38   28.20
 -10  -1   6  172.38   21.80
  -1  10   6  182.38   22.60
 -10  -1   6  216.38   21.90
  -1  10   6  238.68   23.30
   0  10  -6   25.50   16.20
 -10   0  -6    2.70    6.10
 -10   0  -6    2.00    6.20
   0  10  -6    5.50    9.70
   0  10   6   10.40    9.60
 -10   0   6   20.20    8.80
 -10   0   6   -3.60    7.80
   0  10   6   11.80    8.60
 -10   1  -6  224.58   21.30
 -10   1  -6  234.48   21.50
   1  10  -6  278.17   28.90
   1  10  -6  164.78   27.10
 -10   1   6  219.78   22.10
 -10   1   6  236.68   23.60
   1  10   6  212.18   26.00
   1  10   6  218.98   23.00
 -10   2  -6 1089.19   66.89
   2  10  -6  873.41   74.19
   2  10  -6 1057.79   72.39
 -10   2  -6  963.50   66.09
   2  10   6  835.22   66.79
   2  10   6  990.90   65.89
  -2 -10   6  936.11   71.39
 -10   2   6  959.50   67.29
 -10   2   6 1004.20   67.29
 -10   3  -6  127.59   16.60
   3  10  -6  127.69   19.30
   3  10  -6  103.39   22.80
 -10   3   6   96.59   15.00
 -10   3   6  109.29   16.60
  -3 -10   6  101.29   19.60
   3  10   6  111.89   14.50
   3  10   6  109.39   15.30
   4  10  -6   10.70    8.10
   4  10  -6   22.70   18.50
 -10   4  -6   11.80    7.90
 -10   4   6   21.20    9.90
 -10   4   6   13.20    8.30
   4  10   6    7.00   10.40
   4  10   6   13.10    7.20
  -4 -10   6   12.30   12.10
   5  10  -6    7.90   18.40
   5  10  -6   10.00    7.30
 -10   5   6   14.80    8.70
 -10   5   6    4.90    8.30
   5  10   6    4.80    7.30
   5  10   6    8.30   12.40
  -5 -10   6   17.40   12.30
   6  10  -6  172.08   20.40
   6  10  -6  166.88   29.90
 -10   6   6  156.58   19.70
 -10   6   6  163.28   20.50
  -6 -10   6  161.98   23.20
   6  10   6  155.98   19.20
 -10   6   6  190.48   22.30
   6  10   6  184.98   24.50
   7  10  -6  105.89   16.20
   7  10  -6  100.99   26.80
 -10   7   6  135.99   19.10
 -10   7   6  105.29   15.70
 -10   7   6  133.39   16.60
  -7 -10   6  106.39   19.20
   7  10   6  105.79   15.00
   7  10   6   99.49   21.30
  11   6   6  272.77   32.90
 -11  -6   6  253.97   28.00
  -6  11   6  241.28   28.80
  -5  11  -6  161.78   23.20
  11   5   6  138.39   24.00
  -5  11   6  141.69   21.80
 -11  -5   6  153.28   21.10
  -4  11  -6   99.49   18.50
  -4  11   6  113.79   18.70
 -11  -4   6  135.19   19.60
  -3  11  -6  350.26   32.60
  -3  11   6  317.07   31.70
 -11  -3   6  330.17   30.70
  -3  11   6  326.77   30.80
  11   3   6  288.07   24.80
  -2  11   6  137.89   18.40
 -11  -2   6  133.79   19.00
  -2  11   6  125.49   18.70
  -1  11  -6   11.30   11.20
  -1  11   6   10.80    8.60
 -11  -1   6    2.80    9.00
  -1  11   6   24.20   10.40
   0  11  -6   64.09   15.70
   0  11  -6   54.79   17.80
 -11   0  -6   25.80   10.20
 -11   0   6   31.80   10.80
 -11   0   6   42.20   11.40
   0  11   6   48.30   10.70
   0  11   6   50.99   14.00
 -11   1  -6   17.10    8.30
   1  11  -6   33.60   12.40
   1  11  -6   26.00   15.40
 -11   1  -6   21.60    8.40
  -1 -11   6   26.30   14.60
 -11   1   6   13.80    8.70
   1  11   6    8.40    8.80
 -11   1   6   14.60   10.30
   1  11   6   18.70    8.40
   2  11  -6  153.38   22.10
   2  11  -6  145.69   23.60
 -11   2  -6  147.79   18.70
 -11   2  -6  144.09   18.10
 -11   2   6  158.48   20.00
 -11   2   6  160.28   20.80
   2  11   6  130.39   16.50
   2  11   6  116.19   16.10
  -2 -11   6  126.99   22.70
   3  11  -6  251.67   33.00
 -11   3  -6  359.16   28.70
   3  11  -6  297.47   30.00
  -3 -11   6  262.87   33.60
   3  11   6  329.87   25.10
 -11   3   6  337.97   28.70
   3  11   6  291.17   25.00
 -11   3   6  328.67   29.10
 -11   4  -6  110.09   16.50
   4  11  -6  109.69   17.00
   4  11  -6   91.69   21.20
   4  11   6  103.19   12.20
 -11   4   6  126.99   17.80
  -4 -11   6  109.99   20.70
 -11   4   6  121.19   17.90
   4  11   6  116.99   13.50
   5  11  -6  171.08   19.20
   5  11  -6  159.18   26.00
 -11   5   6  149.39   19.90
   5  11   6  140.09   17.30
 -11   5   6  162.18   21.50
   5  11   6  147.39   16.00
  -5 -11   6  149.49   23.30
   6  11  -6  250.17   34.10
   6  11  -6  285.77   26.40
 -11   6   6  310.17   27.40
 -11   6   6  329.57   29.10
 -11   6   6  326.97   27.70
  -6 -11   6  245.78   30.30
   6  11   6  251.47   25.50
   6  11   6  273.07   22.50
  -4  12  -6   19.70   10.30
  -3  12  -6  219.28   25.40
 -12  -3   6  211.08   24.60
  -3  12   6  186.98   23.90
  12   3   6  180.88   16.60
  -3  12   6  219.18   24.80
  -2  12  -6   21.90    9.80
  -2  12   6   51.99   13.10
 -12  -2   6   24.20   11.70
  -2  12   6   35.20   11.30
  -1  12  -6  192.98   28.20
  -1  12   6  191.78   21.30
  -1  12   6  131.89   21.50
 -12  -1   6  177.68   22.80
   0  12  -6   14.50   10.60
 -12   0   6   27.60   12.10
   0  12   6   14.10    8.20
   0  12   6   13.90   10.50
 -12   0   6   29.60   10.60
   1  12  -6  183.98   24.70
 -12   1  -6  138.39   19.60
 -12   1  -6  174.78   21.10
  -1 -12   6  216.58   29.40
   1  12   6  133.49   18.60
 -12   1   6  220.48   24.50
 -12   1   6  175.48   23.50
   1  12   6  214.78   18.50
   2  12  -6   31.70   11.30
 -12   2  -6   32.00   10.40
   2  12  -6   24.20   15.00
 -12   2  -6   40.80   11.20
  -2 -12   6   33.10   15.20
 -12   2   6   50.39   12.70
   2  12   6   46.70    8.00
 -12   2   6   27.20   11.70
   2  12   6   27.90    7.30
 -12   3  -6  187.98   22.30
   3  12  -6  164.78   25.20
   3  12  -6  211.28   23.20
  -3 -12   6  187.18   28.10
   3  12   6  231.08   16.20
 -12   3   6  179.58   23.10
 -12   3   6  168.28   23.20
 -12   4  -6   29.40   10.10
   4  12  -6    9.90    7.30
   0   0  -7    0.50   16.50
   0   0   7   -2.80    6.70
   0   0   7    8.10    8.30
   0   0   7   -2.00    6.90
   1   0  -7  538.65   53.09
   0   1  -7  380.46   50.69
  -1   0  -7  687.73   57.19
   1   0   7  473.25   38.30
  -1   0   7  490.15   43.10
   1   0   7  572.24   52.99
   0   1   7  530.25   44.00
  -1   0   7  474.85   38.80
  -1   0   7  491.55   38.70
   1   0   7  483.45   42.50
   0   1   7  517.75   38.40
   0   1   7  478.75   37.60
   0  -1   7  541.65   39.30
   0  -1   7  521.65   43.00
   1  -1  -7   -0.50   19.10
   1   1  -7   18.10   19.70
  -1  -1   7   22.60   10.80
  -1   1   7    0.60   19.20
   1   1   7    8.90    7.50
  -1   1   7    2.80    7.30
  -1   1   7   13.30    8.60
   1  -1   7   13.10    8.00
  -1   1   7   17.00    8.50
   1   1   7   16.80   16.50
  -1  -1   7   13.20    8.80
   1   1   7   24.20   10.80
  -1  -1   7   11.30    8.50
   1  -1   7    4.90    8.10
  -1   2  -7  502.25   44.80
  -1   2  -7  434.26   55.19
   2   1  -7  744.13   58.09
   2   1  -7  555.14   44.80
   2   1   7  610.44   46.60
  -2  -1   7  483.05   44.20
  -1   2   7  527.55   44.60
   2   1   7  556.14   40.60
   1  -2   7  538.45   44.80
  -1   2   7  545.75   39.60
   2   1   7  609.24   53.89
   1  -2   7  591.04   41.60
  -1   2   7  551.94   39.00
  -2  -1   7  493.95   41.00
  -2  -1   7  480.35   41.40
   0   2  -7    3.30   18.30
   0   2  -7    8.80    8.40
  -2   0  -7  -30.80   17.80
   0   2   7    2.90    6.40
   0  -2   7    2.20    7.30
   2   0   7    1.00    8.10
   2   0   7   10.40    7.90
  -2   0   7    3.70    7.30
  -2   0   7    9.80    8.50
  -2   0   7    6.30    8.40
   0  -2   7    2.30    7.60
   2   0   7   20.70   17.90
   0   2   7    2.70    6.50
   0   2   7   -1.40    8.60
   1   2  -7  589.64   46.50
  -2   1  -7  517.55   53.49
   1   2  -7  541.35   54.89
   2  -1  -7  646.44   52.79
  -2   1   7  582.84   41.20
   2  -1   7  518.75   45.70
  -2   1   7  515.65   40.60
  -1  -2   7  639.74   44.00
  -2   1   7  642.44   56.79
   1   2   7  568.74   40.10
   1   2   7  602.34   47.30
   2  -1   7  524.85   41.70
   1   2   7  452.45   39.30
  -1  -2   7  597.44   42.60
  -2   1   7  522.15   44.30
   2   2  -7  135.19   20.60
   2   2  -7  152.78   31.90
  -2   2  -7  131.19   27.80
  -2   2   7  117.59   14.90
  -2   2   7  132.39   28.40
   2   2   7  127.69   19.60
   2   2   7  119.39   15.20
  -2   2   7  133.79   19.30
  -2  -2   7  105.89   16.00
  -2   2   7  146.89   16.00
  -2  -2   7  115.69   17.90
   2   2   7  102.69   23.70
   3   2  -7 1116.19   85.19
  -2   3  -7 1483.75   93.79
   3   2  -7 1271.67   90.19
  -2   3  -7 1085.89   85.59
  -2   3   7 1272.87   84.99
  -2   3   7 1299.47   79.69
   3   2   7 1103.49   85.99
   3   2   7 1163.58   92.79
   3   2   7 1344.97   81.49
  -3  -2   7 1100.79   82.99
  -2   3   7 1233.08   78.99
  -3  -2   7 1284.37   83.09
  -1   3  -7  375.76   36.50
   3   1  -7  357.96   34.40
   3   1  -7  407.16   42.80
  -1   3  -7  378.96   48.70
  -1   3   7  399.96   29.70
  -3  -1   7  392.46   33.00
   3   1   7  490.85   47.60
  -1   3   7  417.96   29.50
  -1   3   7  395.36   35.60
  -1   3   7  449.56   46.40
  -3  -1   7  392.26   33.70
   3   1   7  432.16   32.70
   3   1   7  358.06   36.60
   0   3  -7   93.99   16.90
   0   3  -7   76.09   26.30
   0   3   7   93.89   11.40
  -3   0   7   92.99   14.30
   3   0   7   71.09   13.20
   0   3   7   55.69   14.60
   0  -3   7   73.49   12.90
  -3   0   7   67.59   12.60
  -3   0   7   62.89   13.00
   3   0   7   71.49   16.00
   0   3   7   84.59   11.40
   1   3  -7  377.36   46.80
   1   3  -7  464.45   37.80
   3  -1  -7  344.07   47.40
  -3   1  -7  412.76   52.89
  -1  -3   7  398.36   32.30
  -3   1   7  384.26   30.80
   3  -1   7  359.16   35.60
   1   3   7  456.85   38.20
  -3   1   7  363.56   33.40
   1   3   7  387.96   29.20
   1   3   7  314.87   28.60
   1   3   7  385.56   28.80
  -3   1   7  429.86   31.70
  -3   2  -7 1034.40   91.19
   2   3  -7 1224.58   87.69
   2   3  -7 1270.17   95.49
   2   3   7 1235.78   79.89
  -3   2   7 1257.97   80.89
  -3   2   7 1216.18   89.09
   2   3   7 1163.68   79.99
   2   3   7 1345.97   88.79
  -2  -3   7 1326.97   83.79
  -3   2   7 1307.17   86.09
  -3   2   7 1298.27   81.39
  -2  -3   7 1177.08   84.09
   2   3   7 1252.97   94.19
   3   3  -7   79.49   16.20
  -3   3  -7   89.19   23.80
   3   3  -7   89.49   22.30
   3   3   7  111.89   13.20
  -3   3   7  113.89   13.20
  -3   3   7   49.80   18.70
  -3   3   7  129.59   14.30
  -3  -3   7   80.19   16.40
  -3  -3   7  120.69   17.40
  -3   3   7  107.19   16.80
   3   3   7  127.89   20.20
   4   3  -7   52.39   19.60
  -3   4  -7   47.80   21.40
   4   3  -7   40.80   11.70
   4   3   7   68.19   22.70
  -3   4   7   44.00    8.20
   4   3   7   56.69   14.90
   4   3   7   54.89    9.90
  -4  -3   7   51.09   13.10
  -3   4   7   47.20   15.40
  -4  -3   7   32.80   11.50
  -3   4   7   49.20   11.50
  -3   4   7   48.90    8.80
  -2   4  -7  465.65   44.30
  -2   4  -7  425.96   49.80
   4   2  -7  482.75   47.00
   4   2  -7  430.86   45.50
  -2   4   7  536.65   35.00
  -2   4   7  523.45   47.40
  -2   4   7  465.75   40.10
   4   2   7  569.74   38.20
  -4  -2   7  469.95   38.90
  -4  -2   7  490.35   40.00
   4   2   7  478.25   47.90
   4   2   7  489.25   43.20
  -2   4   7  515.75   34.50
   4   1  -7  281.07   33.30
  -1   4  -7  267.17   30.70
  -1   4  -7  328.07   40.20
  -1   4   7  284.67   29.30
  -4  -1   7  340.37   28.10
   4   1   7  325.87   32.30
  -1   4   7  314.57   23.50
   4   1   7  359.96   28.20
   4   1   7  236.68   32.70
  -4  -1   7  354.66   28.60
  -1   4   7  275.67   35.80
  -1   4   7  320.87   23.30
   0   4  -7    8.50    8.70
   4   0  -7   12.40   14.60
   0   4  -7   34.30   18.20
   0   4   7    2.00    4.70
   0   4   7   -2.90    4.30
   4   0   7    7.70   10.60
  -4   0   7    0.20    8.10
   0   4   7    4.00    4.60
   0   4   7    7.00    8.20
  -4   0   7    8.40    7.90
   0   4   7   -4.10   16.00
   4   0   7   39.50   21.70
   1   4  -7  322.07   39.10
   1   4  -7  409.36   34.60
   1   4   7  306.67   23.30
   4  -1   7  306.07   32.80
  -1  -4   7  336.97   28.90
   1   4   7  374.76   44.50
   1   4   7  319.77   24.00
   1   4   7  325.87   33.70
   1   4   7  326.47   24.00
  -4   1   7  341.37   27.30
  -4   1   7  332.67   27.70
   2   4  -7  525.85   44.20
   2   4  -7  610.24   54.79
  -2  -4   7  465.95   40.90
   2   4   7  485.15   33.60
   2   4   7  515.85   34.70
  -4   2   7  489.45   41.30
   2   4   7  499.65   34.90
  -2  -4   7  511.95   40.00
   2   4   7  597.34   54.59
  -4   2   7  488.65   37.50
  -4   2   7  553.34   38.60
   2   4   7  525.75   44.50
   3   4  -7   83.99   25.60
   3   4  -7   58.29   14.10
   3   4   7   79.49    9.70
  -4   3   7   52.29    9.50
  -3  -4   7   55.79   13.90
   3   4   7   60.29   14.70
  -3  -4   7   52.89   12.50
  -4   3   7   72.69   11.10
   3   4   7   57.59    6.80
   3   4   7   59.99    8.10
  -4   3   7   58.39   13.20
   3   4   7   53.79   21.80
   4   4  -7   31.70   11.40
   4   4  -7   89.49   22.80
  -4   4   7   56.49    9.40
   4   4   7   70.69    6.80
   4   4   7   75.59   22.30
   4   4   7   69.29    8.30
  -4   4   7   71.19   10.60
  -4   4   7   73.49   14.50
  -4  -4   7   75.39   14.60
  -4  -4   7   52.69   13.80
   4   4   7   61.09   14.40
   5   4  -7   38.30   17.60
  -4   5  -7   42.70   19.20
  -4   5   7   31.30    7.20
  -5  -4   7   38.30   12.10
   5   4   7   30.00    5.80
   5   4   7   30.40   12.40
  -4   5   7   31.20    7.70
  -5  -4   7   24.20   11.20
   5   4   7   27.80   18.20
   5   4   7   34.90    4.70
  -4   5   7   40.10   11.10
  -3   5  -7   42.40   19.40
   5   3  -7   96.49   20.70
  -5  -3   7   85.59   15.10
  -3   5   7   78.59   10.30
   5   3   7  100.39   18.00
  -3   5   7   77.39   14.40
   5   3   7   91.79   12.30
   5   3   7   78.39   22.50
  -5  -3   7   89.59   15.50
  -3   5   7   80.89   18.80
  -3   5   7   51.29    8.60
  -2   5  -7  449.86   52.89
   5   2  -7  467.95   45.70
  -2   5   7  510.85   45.80
   5   2   7  480.55   43.20
   5   2   7  402.36   47.10
  -5  -2   7  451.75   38.90
  -2   5   7  496.55   33.90
  -2   5   7  517.35   40.90
   5   2   7  560.74   38.40
  -2   5   7  529.85   33.90
  -1   5  -7  510.75   52.99
  -1   5  -7  521.65   46.20
   5   1  -7  510.95   48.50
  -5  -1   7  589.14   42.20
   5   1   7  698.23   49.20
  -1   5   7  500.35   36.10
   5   1   7  657.73   42.90
  -5  -1   7  552.04   42.10
  -1   5   7  512.95   51.99
  -1   5   7  512.35   43.70
  -1   5   7  534.15   36.40
   0   5  -7 1386.66   97.99
   0   5  -7 1342.17   92.99
   5   0   7 1159.58   91.09
  -5   0   7 1371.16   87.49
  -5   0   7 1441.86   87.89
   0   5   7 1306.27   92.09
   0   5   7 1220.38   81.49
   0   5   7 1324.77   81.69
   0   5   7 1352.46   81.99
   0   5   7 1285.27   95.09
   1   5  -7  487.65   55.29
   1   5  -7  540.85   45.90
  -5   1   7  576.64   40.90
   1   5   7  520.35   34.40
   1   5   7  510.05   34.20
   1   5   7  541.35   57.39
   1   5   7  632.64   48.20
   1   5   7  556.84   35.30
  -1  -5   7  553.74   41.50
  -5   1   7  557.74   40.60
   2   5  -7  481.35   54.29
   2   5  -7  573.14   44.90
   2   5   7  594.84   55.19
  -5   2   7  506.85   37.70
   2   5   7  473.75   32.60
  -2  -5   7  516.65   41.60
   2   5   7  502.45   44.00
  -5   2   7  496.05   37.70
  -2  -5   7  481.45   39.10
   3   5  -7   40.90   23.50
   3   5  -7   54.59   13.90
  -3  -5   7   66.79   15.70
  -3  -5   7   69.19   16.60
   3   5   7   48.70   13.70
   3   5   7   56.09   22.00
  -5   3   7   70.49   11.10
  -5   3   7   64.19   10.50
   4   5  -7   38.70   11.60
   4   5  -7   37.40   20.50
  -5   4   7   34.50    8.10
   4   5   7   30.30   12.40
   4   5   7   86.49   23.30
  -5   4   7   38.60   13.00
  -5   4   7   30.60    8.70
  -4  -5   7   32.70   12.20
   5   5  -7   38.10   19.70
   5   5   7   49.30   13.40
  -5   5   7   38.10    8.90
  -5   5   7   44.80   12.60
  -5   5   7   41.40    8.60
  -5  -5   7   62.19   14.90
   5   5   7   30.40   20.20
   6   5  -7  296.17   38.10
   6   5   7  339.77   32.70
  -5   6   7  320.27   25.00
  -6  -5   7  292.37   29.30
   6   5   7  304.57   37.40
  -5   6   7  293.47   23.70
  -5   6   7  291.37   30.00
   6   4  -7   60.39   17.90
  -4   6  -7   59.19   21.70
  -4   6   7   66.49    8.90
   6   4   7   58.89    7.50
   6   4   7   67.29   15.20
  -4   6   7   71.99   10.10
  -6  -4   7   66.79   14.10
  -4   6   7   60.29   13.20
   6   4   7   45.90   19.90
   6   3  -7  281.37   33.40
  -3   6  -7  242.28   35.10
  -6  -3   7  240.28   25.70
   6   3   7  290.37   30.10
  -3   6   7  264.27   26.50
  -3   6   7  262.07   31.50
   6   3   7  253.37   22.80
  -3   6   7  259.17   20.30
  -3   6   7  279.67   19.80
   6   3   7  236.08   34.60
  -6  -3   7  208.18   25.70
  -6  -2  -7  638.54   45.10
   6   2  -7  704.13   56.09
  -2   6  -7  546.45   58.79
  -2   6   7  682.93   43.20
  -2   6   7  676.03   42.10
  -2   6   7  615.04   49.99
  -6  -2   7  631.64   48.50
   6   2   7  674.03   53.69
  -2   6   7  623.74   53.09
   6   2   7  671.73   47.60
  -6  -2   7  675.33   49.20
  -1   6  -7  473.65   52.99
  -1   6  -7  499.45   45.00
  -1   6   7  500.85   32.60
  -6  -1   7  599.44   41.00
  -6  -1   7  490.45   40.20
  -1   6   7  519.45   32.60
  -1   6   7  479.05   41.90
   6   1   7  553.74   45.90
  -1   6   7  554.74   47.60
  -1   6   7  520.55   35.00
   0   6  -7  108.89   19.50
   0   6  -7   42.80   20.30
   0   6   7   76.49   20.80
  -6   0   7   69.89   13.70
   0   6   7   76.89   16.10
  -6   0   7   77.99   13.90
   0   6   7   90.29    7.60
   6   0   7   39.60   17.60
   1   6  -7  611.04   55.79
   1   6  -7  647.04   48.70
  -6   1   7  547.05   41.60
  -6   1   7  525.75   41.20
   1   6   7  485.95   46.60
   1   6   7  582.64   52.69
   2   6  -7  634.94   62.09
   2   6  -7  717.63   54.09
   2   6   7  587.34   59.69
  -6   2   7  713.63   47.60
   2   6   7  718.93   54.39
  -6   2   7  601.44   46.40
  -2  -6   7  604.54   50.39
   3   6  -7  254.37   28.80
   3   6  -7  279.77   37.60
  -6   3   7  241.18   22.20
  -6   3   7  244.98   22.20
   3   6   7  300.37   35.80
   3   6   7  222.18   27.50
  -3  -6   7  185.48   25.90
   4   6  -7   41.50   12.30
   4   6  -7   74.49   25.90
  -6   4   7   66.79   11.60
  -4  -6   7   68.09   15.60
   4   6   7   56.89   14.30
   4   6   7   69.19   26.20
  -6   4   7   56.99   10.30
   5   6  -7  318.57   35.30
   5   6  -7  252.37   36.70
  -6   5   7  326.37   25.00
   5   6   7  281.67   30.60
   5   6   7  296.77   40.50
  -6   5   7  304.57   25.10
  -5  -6   7  272.07   32.00
   6   6  -7  542.45   52.19
  -6   6   7  470.65   35.30
   6   6   7  521.35   42.60
  -6   6   7  511.65   36.70
  -6  -6   7  472.85   41.70
   6   6   7  425.26   51.29
   7   6  -7  153.08   28.30
   7   6   7  124.59   28.70
  -7  -6   7  197.58   24.90
  -6   7   7  190.68   17.90
  -6   7   7  165.68   15.90
   7   6   7  125.19   21.20
   7   5  -7  271.37   33.80
   7   5   7  248.88   30.30
  -5   7   7  254.37   21.70
  -5   7   7  246.18   20.00
   7   5   7  227.48   37.20
  -5   7   7  242.18   27.10
  -7  -5   7  283.17   28.10
   7   4  -7   18.00   17.30
  -4   7  -7   30.90   18.80
  -4   7   7   26.60    5.40
  -7  -4   7   23.00   11.80
  -4   7   7   20.70    9.40
   7   4   7   20.00    4.70
   7   4   7   18.20   12.90
  -4   7   7   19.40    6.70
  -3   7  -7   24.30   19.50
   7   3  -7   23.50   15.90
   7   3   7   18.70   14.30
  -7  -3   7   27.80   11.80
  -3   7   7   42.40    5.00
  -3   7   7   26.90   14.50
  -3   7   7   52.99   11.30
  -7  -3   7   45.60   12.50
  -3   7   7   38.30   11.20
   7   3   7   35.70    9.10
  -2   7  -7  756.02   64.59
  -7  -2   7  831.92   55.99
  -7  -2   7  701.63   54.79
   7   2   7  784.22   60.89
  -2   7   7  810.42   59.49
  -2   7   7  694.53   56.29
   7   2   7  743.53   53.89
  -7  -1  -7  158.78   15.80
  -1   7  -7  164.98   28.00
  -1   7  -7  149.39   29.20
  -7  -1   7  158.78   19.80
  -1   7   7  136.99   22.20
   7   1   7  160.38   23.80
  -1   7   7  115.59   18.60
  -7  -1   7  181.88   20.90
  -7   0  -7    0.50    5.30
   0   7  -7    6.30   17.90
   0   7  -7    3.00    9.10
  -7   0   7    9.20    8.00
  -7   0   7   20.70    9.60
   0   7   7   13.50   14.00
   0   7   7    9.20    8.70
   1   7  -7  186.28   24.80
   1   7  -7  132.69   26.00
  -7   1   7  171.68   18.80
   1   7   7  144.79   22.60
   1   7   7  130.39   24.60
  -7   1   7  135.99   18.10
   2   7  -7  874.21   62.99
   2   7  -7  813.02   68.09
   2   7   7  671.83   64.19
   2   7   7  802.82   61.89
  -2  -7   7  842.72   61.09
  -7   2   7  865.91   56.39
  -7   2   7  729.33   55.79
   3   7  -7   44.50   22.60
   3   7  -7   27.00   11.90
  -7   3   7   30.80    8.90
   3   7   7   35.90   12.20
   3   7   7   10.70   17.80
  -7   3   7   24.90    8.70
  -3  -7   7   27.80   13.40
   4   7  -7   16.70   21.00
   4   7  -7   14.90    9.60
   4   7   7   30.70   19.30
   4   7   7   27.20   10.80
  -7   4   7   16.70    7.30
  -4  -7   7    7.70   10.90
  -7   4   7   14.80    7.80
   5   7  -7  260.67   28.30
   5   7  -7  185.08   36.90
   5   7   7  246.88   27.40
  -7   5   7  272.07   22.60
  -7   5   7  247.48   22.50
  -5  -7   7  215.48   29.20
   5   7   7  272.67   39.90
   6   7  -7  105.29   27.30
  -6  -7   7  147.99   23.60
   6   7   7  166.68   21.70
  -7   6   7  170.58   17.30
   6   7   7  207.88   34.50
  -7   6   7  182.18   20.20
   7   7  -7   63.49   22.60
  -7  -7   7   48.30   14.50
   7   7   7   37.30   13.60
  -7   7   7   36.40    8.60
  -7   7   7   30.90   10.00
   7   7   7   64.29   24.00
   8   7  -7  113.29   25.10
  -7   8   7  119.89   14.40
   8   7   7  120.79   28.90
  -8  -7   7  122.89   20.60
   8   7   7  121.39   20.80
  -7   8   7  107.59   12.80
  -7   8   7  139.09   17.10
   8   6  -7   89.09   22.40
  -6   8   7   56.49    9.50
  -6   8   7   49.30   10.40
  -6   8   7   52.79    7.90
  -8  -6   7   75.49   16.80
   8   6   7   70.69   17.60
   8   5  -7   58.79   20.10
  -5   8   7   73.29    9.20
  -8  -5   7   63.29   15.50
  -5   8   7   63.49    7.10
  -5   8   7   72.79   15.40
   8   5   7   55.59   16.40
   8   4  -7   59.39   20.30
  -4   8   7   89.29    9.20
  -8  -4   7  118.69   18.70
  -4   8   7   89.49   16.10
   8   4   7   96.69   19.10
  -3   8  -7  178.08   28.80
   8   3   7  204.98   19.30
   8   3   7  198.88   27.70
  -8  -3   7  154.28   21.80
  -3   8   7  192.68   22.60
  -2   8  -7   92.79   24.40
  -8  -2   7  130.39   19.00
  -8  -2   7   96.59   16.70
   8   2   7  125.19   17.00
  -2   8   7   97.29   19.60
  -2   8   7   96.49   16.70
   8   2   7  130.49   23.20
  -1   8  -7  142.69   25.80
  -8  -1  -7  132.99   15.70
  -1   8   7  111.69   18.70
  -1   8   7  110.39   20.00
  -8  -1   7  119.69   17.50
  -8  -1   7  144.19   18.90
   0   8  -7   62.39   15.30
   0   8  -7   72.89   22.40
  -8   0  -7   46.30   10.10
  -8   0   7   43.40   11.40
   0   8   7   39.20   14.70
   0   8   7   68.89   15.20
  -8   0   7   59.89   11.90
   1   8  -7  111.39   25.40
   1   8  -7  145.79   22.20
  -8   1  -7  116.99   15.70
   1   8   7  146.79   22.30
  -8   1   7  130.59   17.60
   1   8   7  112.49   20.20
  -8   1   7  121.49   16.50
   2   8  -7  104.69   19.80
   2   8  -7  103.09   23.60
  -8   2   7  127.99   16.60
   2   8   7   79.89   20.90
  -2  -8   7  115.19   20.20
  -8   2   7  107.69   16.10
   2   8   7  104.29   18.50
   3   8  -7  166.88   24.10
   3   8  -7  208.88   33.10
  -8   3   7  180.58   20.70
  -3  -8   7  157.18   24.20
   3   8   7  164.18   22.40
   3   8   7  169.38   28.70
  -8   3   7  192.48   19.70
   4   8  -7   77.79   16.70
   4   8  -7   87.09   26.00
   4   8   7   66.69   14.90
  -4  -8   7   75.49   17.50
  -8   4   7  117.89   15.00
  -8   4   7  110.59   15.90
   4   8   7  100.29   23.40
   5   8  -7   78.79   25.60
   5   8  -7   53.59   14.30
   5   8   7   80.19   15.00
   5   8   7   78.59   23.30
  -8   5   7   88.49   14.10
  -8   5   7   85.09   13.30
  -5  -8   7   75.39   18.30
   6   8  -7   53.19   24.40
   6   8   7   68.69   25.80
  -8   6   7   82.39   14.00
  -6  -8   7   57.89   15.90
  -8   6   7   82.69   12.70
   6   8   7   48.10   13.00
   7   8  -7  120.59   28.70
  -8   7   7  131.39   15.60
  -8   7   7  121.39   17.30
   7   8   7  119.79   30.20
   7   8   7  104.19   17.70
  -7  -8   7  144.59   22.10
   8   8  -7   88.09   26.30
  -8   8   7  105.09   14.00
  -8   8   7  136.59   17.40
  -8  -8   7   89.59   18.70
   8   8   7   93.79   18.00
  -8   8   7   86.39   12.20
   8   8   7   74.29   27.00
   9   8  -7  255.37   38.00
  -8   9   7  245.38   19.40
   9   8   7  218.18   27.70
  -9  -8   7  256.57   30.50
  -8   9   7  254.47   21.40
   9   7  -7  207.68   31.80
  -7   9   7  227.78   16.30
  -9  -7   7  214.08   26.90
  -7   9   7  225.08   19.00
   9   7   7  219.98   28.30
   9   6  -7   80.29   22.60
   9   6   7   60.59   18.60
  -9  -6   7   70.69   16.30
  -6   9   7   99.69   10.20
  -9  -5   7  242.78   27.70
  -5   9   7  258.87   28.50
  -5   9   7  240.38   16.90
   9   4   7   -9.30   14.40
  -4   9   7    3.80    7.50
  -9  -4   7    9.40   10.10
   9   3   7  263.07   34.20
   9   3   7  272.07   24.20
  -9  -3   7  346.57   29.30
  -3   9   7  283.07   29.40
  -2   9  -7  244.48   33.20
  -2   9   7  222.58   28.00
  -2   9   7  202.48   25.40
  -9  -2   7  264.97   26.00
   9   2   7  270.67   24.80
  -1   9  -7   98.19   25.40
  -1   9   7  106.79   18.40
  -9  -1   7  120.19   17.60
  -1   9   7   94.79   17.50
  -9  -1   7  114.79   17.00
   0   9  -7  519.05   44.30
   0   9  -7  427.66   48.30
  -9   0  -7  487.35   35.10
   0   9   7  415.06   39.70
   0   9   7  405.36   40.90
  -9   0   7  420.06   36.40
  -9   0   7  483.35   37.20
   1   9  -7  107.39   25.40
  -9   1  -7   82.99   13.30
   1   9  -7  111.99   19.80
   1   9   7  115.89   19.70
   1   9   7   90.19   18.10
  -9   1   7  107.89   15.50
  -9   1   7   89.19   15.90
   2   9  -7  285.17   29.60
  -9   2  -7  224.38   22.40
   2   9  -7  204.68   32.50
   2   9   7  251.67   28.00
   2   9   7  214.98   27.00
  -9   2   7  259.37   24.00
  -2  -9   7  212.18   28.50
  -9   2   7  243.38   24.60
   3   9  -7  298.07   36.20
   3   9  -7  282.67   30.50
  -3  -9   7  272.37   31.20
  -9   3   7  280.27   25.60
  -9   3   7  251.17   24.80
   3   9   7  256.57   27.80
   3   9   7  251.37   30.80
   4   9  -7   -3.00    7.40
   4   9  -7   20.00   20.10
  -9   4   7   -0.80    6.60
   4   9   7   -1.50    8.40
  -9   4   7    1.20    8.20
  -4  -9   7   -2.50    9.90
   4   9   7    9.30   15.90
   5   9  -7  255.17   27.80
   5   9  -7  234.78   35.30
  -9   5   7  250.17   24.70
   5   9   7  245.58   25.50
  -5  -9   7  207.68   28.40
  -9   5   7  243.68   23.50
   5   9   7  217.28   30.90
   6   9  -7   61.49   24.10
  -9   6   7   71.89   14.10
  -9   6   7   73.79   12.90
   6   9   7  107.29   23.90
   6   9   7   70.49   14.70
  -6  -9   7  120.49   20.50
   7   9  -7  135.59   32.50
   7   9   7  248.38   35.30
   7   9   7  207.98   24.70
  -9   7   7  221.38   24.70
  -9   7   7  218.58   22.20
  -9   7   7  257.87   22.60
  -7  -9   7  244.68   29.60
   8   9  -7  186.48   35.40
  -9   8   7  239.98   22.50
  -8  -9   7  259.77   30.70
  -9   8   7  228.08   21.70
   8   9   7  318.77   41.30
   8   9   7  202.98   25.50
  -9   8   7  249.88   26.80
 -10  -6   7   77.39   16.10
  10   6   7   54.29   19.10
  10   5   7  732.33   62.99
 -10  -5   7  762.82   57.39
  -5  10   7  773.32   60.49
  -4  10   7  295.47   30.60
 -10  -4   7  308.17   32.60
  10   4   7  276.37   39.20
  10   3   7  113.59   14.30
 -10  -3   7  138.29   20.60
  -3  10   7  129.09   19.50
  -2  10   7   76.19   15.30
 -10  -2   7   98.99   17.50
  10   2   7   95.79   15.60
  -2  10   7   81.99   16.10
  -1  10  -7  216.18   31.10
 -10  -1   7  147.59   21.00
  -1  10   7  181.08   22.60
  -1  10   7  177.38   24.60
 -10  -1   7  193.38   23.50
   0  10  -7   24.70   18.30
 -10   0  -7   20.70    7.90
 -10   0   7   12.00    9.20
 -10   0   7    8.60    8.90
   0  10   7   16.60   11.00
   0  10   7   18.80   11.50
   1  10  -7  263.47   29.00
   1  10  -7  170.08   29.20
 -10   1  -7  196.58   20.60
 -10   1   7  155.68   21.50
   1  10   7  183.18   22.80
   1  10   7  219.48   27.10
 -10   1   7  202.58   23.50
   2  10  -7   89.99   23.40
   2  10  -7  102.29   19.20
 -10   2  -7  126.89   16.70
  -2 -10   7  102.59   20.50
   2  10   7   89.39   16.50
   2  10   7   75.99   16.00
 -10   2   7  102.09   16.40
 -10   2   7  107.49   17.60
   3  10  -7  150.38   26.80
   3  10  -7  140.29   22.40
   3  10   7  148.29   20.80
 -10   3   7  153.38   21.00
  -3 -10   7  123.19   22.60
   3  10   7  151.98   20.00
 -10   3   7  168.18   20.40
   4  10  -7  265.97   29.70
   4  10  -7  281.47   35.90
 -10   4   7  321.47   27.80
  -4 -10   7  257.87   32.90
 -10   4   7  306.67   28.10
   4  10   7  234.08   28.90
   4  10   7  278.87   26.60
   5  10  -7  859.11   68.69
   5  10  -7  777.02   59.79
  -5 -10   7  636.44   59.69
   5  10   7  786.32   55.29
   5  10   7  767.92   61.29
 -10   5   7  804.02   57.49
 -10   5   7  792.52   56.69
   6  10  -7   70.89   24.70
   6  10  -7   84.29   16.10
 -10   6   7   90.29   15.00
   6  10   7   74.49   13.80
   6  10   7   75.19   21.10
 -10   6   7   92.79   16.00
  -6 -10   7   55.89   16.80
 -11  -5   7  132.49   20.90
  -5  11   7  121.49   20.80
  -4  11  -7   64.49   16.00
  -4  11   7   73.29   15.90
 -11  -4   7   57.39   14.90
  11   3   7  174.08   17.00
 -11  -3   7  187.98   25.00
  -3  11   7  176.18   24.40
  -2  11   7   34.00   12.70
  -2  11   7   33.70   12.00
  11   2   7   39.50   11.40
 -11  -2   7   42.40   13.80
 -11  -1   7   71.69   15.70
  -1  11   7   62.39   16.10
  -1  11   7   43.40   12.50
   0  11  -7   22.00   18.10
   0  11   7   34.40   11.30
   0  11   7   31.70   13.70
 -11   0   7   26.40   11.00
 -11   0   7   41.60   11.80
   1  11  -7   39.80   19.60
   1  11  -7   70.89   17.10
 -11   1  -7   58.29   12.40
  -1 -11   7   89.19   20.40
 -11   1   7   84.79   16.30
   1  11   7   53.79   14.10
   1  11   7   66.19   13.20
 -11   1   7   73.69   14.80
   2  11  -7   30.10   13.30
   2  11  -7    1.80   16.10
 -11   2  -7   35.30   10.40
  -2 -11   7   32.70   15.60
 -11   2   7   16.90    9.60
   2  11   7   45.80   11.70
 -11   2   7   35.60   12.80
   2  11   7   27.50   10.20
   3  11  -7  146.19   23.40
   3  11  -7  155.58   28.20
 -11   3   7  209.28   23.40
   3  11   7  159.58   19.80
   3  11   7  177.68   20.50
  -3 -11   7  169.68   26.50
 -11   3   7  200.88   23.30
   4  11  -7   79.59   16.40
   4  11  -7   64.59   21.10
   4  11   7   70.69   11.70
   4  11   7   52.79   13.00
  -4 -11   7   62.19   17.40
 -11   4   7   63.89   13.70
 -11   4   7   58.89   13.60
   5  11  -7  133.79   25.80
   5  11  -7  113.09   18.20
 -11   5   7  122.89   17.90
  -5 -11   7   84.29   20.80
 -11   5   7  116.29   19.10
   5  11   7   92.99   16.70
   5  11   7  118.89   14.70
  -1  12   7   35.40   13.30
 -12  -1   7   30.70   12.90
  -1  12   7   41.40   11.30
 -12   0   7   -9.70    8.60
   0  12   7   10.80    8.00
   0  12   7   14.50   10.80
 -12   0   7    3.70    9.70
   1  12  -7   20.00   11.10
   1  12  -7   40.60   19.10
   1  12   7   33.40   10.70
  -1 -12   7   56.39   17.50
 -12   1   7   54.99   13.60
   1  12   7   36.80    9.50
 -12   1   7   21.00   12.20
   0   0   8 1225.68   76.09
   0   0   8 1073.69   75.09
   0   0   8 1024.10   79.59
   0   1  -8  -14.00   26.10
   0   1   8   56.09   29.70
   0   1   8   16.60    9.30
   1   0   8    2.00    7.90
   0   1   8    5.80    9.10
  -1   0   8    3.20    8.90
  -1   0   8    2.50    9.30
   0  -1   8    7.30    8.30
   0   1   8    6.80    7.80
   1   0   8   -5.80    8.10
  -1   0   8   -8.40    7.60
   1   1  -8  365.06   42.90
   1   1   8  387.16   31.50
   1  -1   8  396.36   31.80
  -1   1   8  357.16   31.20
  -1   1   8  342.87   30.90
   1   1   8  389.36   36.50
   1   1   8  450.35   50.19
  -1  -1   8  331.47   31.60
  -1  -1   8  372.76   33.00
  -1   1   8  352.66   36.60
   2   1  -8 1270.17  102.29
  -1   2  -8 1490.65  103.49
   1  -2   8 1319.77   89.19
  -1   2   8 1245.08   87.29
   2   1   8 1090.29  120.39
  -1   2   8 1271.37   94.59
  -2  -1   8 1414.16   90.19
  -2  -1   8 1400.86   90.99
  -1   2   8  962.80  117.49
  -1   2   8 1300.07   88.09
   2   1   8 1374.06   94.99
   2   1   8 1622.44   90.29
   0   2  -8 1857.61  112.19
  -2   0   8 1392.86   99.39
   0   2   8 1579.64  106.09
  -2   0   8 1368.96   98.89
   0  -2   8 1687.33  100.29
   0   2   8 1335.97   97.59
   0   2   8 1338.27   97.19
   2   0   8 1600.14   99.49
   2   0   8 1494.05  104.99
   1   2  -8 1382.16  100.99
  -2   1   8 1261.77   89.99
   1   2   8 1643.34  105.69
  -2   1   8 1319.37   90.09
  -2   1   8 1118.59   93.89
   1   2   8 1375.56   89.59
   2  -1   8 1382.86   90.59
  -1  -2   8 1307.87   90.69
   1   2   8 1463.95   97.19
   1   2   8 1388.76   88.99
  -1  -2   8 1411.26   92.29
   2   2  -8 2316.37  160.88
   2   2   8 2792.52  158.98
  -2  -2   8 2460.65  152.08
  -2   2   8 2110.49  154.88
  -2   2   8 2307.47  149.29
   2   2   8 2214.48  149.49
  -2   2   8 2389.86  150.18
   2  -2   8 2234.58  150.88
   2   2   8 2498.85  161.08
   3   2  -8  158.98   32.60
  -2   3   8  161.58   23.20
  -2   3   8  172.88   18.40
   3   2   8  149.49   23.20
  -3  -2   8  174.18   21.10
   3   2   8  139.89   31.30
  -2   3   8  158.88   17.90
  -3  -2   8  171.48   23.20
   3   2   8  161.88   19.30
  -1   3  -8 1439.76  103.49
   3   1   8 1658.53   93.39
  -3  -1   8 1332.97   93.79
  -1   3   8 1232.78   96.89
  -1   3   8 1384.96   90.59
   1  -3   8 1474.25   93.49
  -1   3   8 1371.26   89.79
   3   1   8 1422.56   99.09
  -1   3   8 1248.08  102.89
  -3  -1   8 1347.77   93.29
   0   3  -8   17.00   20.10
   3   0   8   -0.10   10.30
   0   3   8    5.50   10.30
   0   3   8    3.20    6.70
   0  -3   8    3.10    7.70
   3   0   8    1.40    7.80
   0   3   8   -2.60    6.40
  -3   0   8   -1.40    7.40
   0   3   8   17.60   21.00
  -3   0   8    1.70    9.20
   1   3  -8 1434.76  104.19
   1   3   8 1381.56   91.29
   1   3   8 1212.58   91.09
  -1  -3   8 1414.76   94.29
   1   3   8 1540.35  101.09
  -1  -3   8 1524.85   96.59
  -3   1   8 1334.17   92.99
   3  -1   8 1361.66   94.09
   1   3   8 1675.83  108.19
  -3   1   8 1409.36   93.99
   2   3  -8  169.38   30.50
  -3   2   8  200.58   20.70
   2   3   8  180.78   19.00
  -3   2   8  199.98   25.30
  -3   2   8  165.18   19.80
   2   3   8  182.28   19.40
   2   3   8  206.08   27.30
  -2  -3   8  168.98   24.10
  -2  -3   8  204.88   23.50
   2   3   8  216.88   32.80
   3   3  -8  428.66   51.59
  -3   3   8  522.75   35.20
  -3  -3   8  494.85   38.80
   3   3   8  416.86   41.80
   3   3   8  416.46   34.00
   3   3   8  501.65   53.09
  -3   3   8  449.95   35.30
  -3   3   8  446.86   39.90
  -3  -3   8  446.86   39.80
   4   3  -8  389.56   46.50
  -3   4   8  411.16   37.20
   4   3   8  360.86   51.49
  -4  -3   8  413.06   36.30
  -3   4   8  434.06   31.10
   4   3   8  357.86   30.80
  -4  -3   8  422.56   35.90
   4   3   8  360.96   39.00
  -3   4   8  435.46   30.90
  -2   4  -8   38.90   24.80
   4   2  -8   49.30   20.20
  -2   4   8   50.99    9.70
  -2   4   8   74.39   10.90
   4   2   8   59.49   12.40
  -4  -2   8   63.89   14.40
  -2   4   8   54.89   13.40
  -4  -2   8   56.59   14.20
   4   2   8   62.79   16.90
  -1   4  -8   58.79   21.60
  -1   4   8   85.89   11.30
  -1   4   8   57.59   14.50
  -1   4   8   46.80   23.90
   4   1   8   79.99   18.00
  -1   4   8   80.79   11.40
   4   1   8  112.19   15.20
  -4  -1   8   72.59   14.30
  -4  -1   8   42.60   13.60
   0   4  -8  292.37   39.70
   0   4   8  323.67   24.40
   0   4   8  301.97   39.70
   4   0   8  281.97   40.60
   4   0   8  320.27   28.60
   0  -4   8  312.37   28.60
  -4   0   8  308.77   29.10
  -4   0   8  295.47   28.00
   0   4   8  341.67   24.90
   0   4   8  289.27   33.30
   1   4  -8   81.39   23.40
   1   4   8   89.49   17.60
   1   4   8   97.79   12.00
  -1  -4   8   76.09   14.50
  -4   1   8   71.79   13.30
  -4   1   8   64.29   13.80
   1   4   8   97.59   29.50
   1   4   8  104.99   12.00
   2   4  -8   32.90   24.50
   2   4   8   54.59    9.50
  -2  -4   8   47.50   13.90
  -4   2   8   74.49   12.80
   2   4   8   63.09   15.40
   2   4   8   56.19    9.90
   2   4   8   70.99   25.10
  -2  -4   8   81.79   14.80
  -4   2   8   71.79   12.70
   3   4  -8  427.16   52.09
   3   4   8  418.06   30.70
  -4   3   8  421.86   32.90
   3   4   8  431.06   40.50
  -4   3   8  429.96   33.40
   3   4   8  424.36   37.20
  -3  -4   8  368.16   36.50
  -3  -4   8  478.05   37.10
   4   4  -8   18.00   19.80
  -4  -4   8    1.10    8.50
  -4   4   8    7.50    6.10
  -4  -4   8    6.70   10.70
   4   4   8   -7.90    9.90
  -4   4   8   11.10   10.20
  -4   4   8    2.40    6.40
   4   4   8  -13.00   19.10
   4   4   8    6.40    5.40
   5   4  -8  789.42   72.89
  -5  -4   8  856.41   65.89
  -4   5   8  916.71   60.09
  -4   5   8  950.30   60.59
   5   4   8  883.61   58.29
   5   4   8  852.91   69.19
  -4   5   8  985.50   68.49
   5   3  -8 1095.39   86.39
  -3   5   8 1116.29   80.89
  -5  -3   8  996.10   78.09
   5   3   8 1123.19   83.29
  -3   5   8 1200.98   73.39
   5   3   8 1108.39   74.49
  -5  -3   8 1141.99   79.29
  -3   5   8 1153.18   73.09
  -2   5  -8  415.66   48.50
  -5  -2   8  427.46   37.10
  -2   5   8  420.16   30.90
  -2   5   8  398.96   30.60
  -2   5   8  453.45   39.40
  -5  -2   8  440.36   37.20
   5   2   8  519.25   35.70
   5   2   8  386.06   41.40
  -1   5  -8  294.87   37.90
  -5  -1   8  273.27   27.70
   5   1   8  312.57   27.60
  -1   5   8  276.57   38.10
  -5  -1   8  280.67   28.20
   5   1   8  269.27   34.30
  -1   5   8  299.27   22.10
  -1   5   8  311.97   22.30
  -1   5   8  251.27   30.20
   0   5  -8  104.89   24.70
   0   5   8  117.19   11.10
  -5   0   8   65.99   14.30
   0   5   8   73.49   17.30
   5   0   8   64.19   14.00
   0   5   8   57.99   23.50
  -5   0   8   59.39   14.00
   0   5   8   79.49    9.10
   1   5  -8  383.06   46.70
   1   5   8  321.57   40.20
  -5   1   8  276.67   28.10
   1   5   8  363.26   35.40
  -5   1   8  328.47   28.70
  -1  -5   8  318.87   29.10
   1   5   8  298.47   22.20
   2   5  -8  644.84   55.79
  -5   2   8  479.65   36.40
   2   5   8  430.16   29.60
   2   5   8  432.26   29.90
  -5   2   8  441.26   36.30
  -2  -5   8  448.56   39.10
   2   5   8  473.25   54.29
   2   5   8  558.14   44.50
  -2  -5   8  437.86   37.40
   3   5  -8 1177.78   92.19
   3   5   8 1131.49   84.59
   3   5   8 1263.27   90.99
  -3  -5   8 1137.79   82.09
  -5   3   8 1122.69   77.19
  -5   3   8 1145.99   77.39
   4   5  -8  808.02   78.39
   4   5   8  812.42   68.59
  -5   4   8 1004.10   62.49
  -4  -5   8  854.71   67.49
   4   5   8  936.51   77.89
  -5   4   8  987.30   62.39
   5   5  -8 1218.78   98.29
   5   5   8 1338.57   93.29
   5   5   8 1222.38   99.49
  -5   5   8 1407.16   84.99
  -5  -5   8 1113.29   89.39
  -5   5   8 1348.27   84.29
   6   5  -8  416.36   52.99
  -6  -5   8  419.46   41.00
  -5   6   8  546.45   36.70
   6   5   8  465.65   44.40
  -5   6   8  521.35   35.70
   6   4  -8   87.79   23.30
  -4   6   8   59.19   14.70
   6   4   8   61.59    8.70
   6   4   8   57.89   16.80
  -6  -4   8   59.49   16.00
  -4   6   8   61.59   10.50
  -4   6   8   61.49    9.40
   6   3   8  920.11   60.49
  -6  -3   8  843.72   65.09
  -3   6   8  932.01   58.59
   6   3   8  820.02   68.19
  -3   6   8  941.01   67.49
  -3   6   8  892.11   57.59
  -6  -3   8  787.72   64.29
  -2   6  -8  974.50   92.19
  -2   6   8 1151.38   86.39
   6   2   8 1269.67   89.99
  -2   6   8 1217.08   81.29
  -6  -2   8 1291.37   85.19
  -2   6   8 1229.18   77.09
  -6  -2   8 1300.27   85.69
   6   2   8 1333.07   82.39
  -1   6  -8  656.23   63.19
  -6  -1   8  750.12   53.09
  -1   6   8  689.23   56.09
  -1   6   8  680.83   44.30
  -6  -1   8  677.43   52.19
   6   1   8  689.83   51.19
  -1   6   8  730.73   60.99
   0   6  -8  469.65   50.59
  -6   0   8  536.45   40.50
   0   6   8  473.95   44.80
   0   6   8  423.96   51.69
  -6   0   8  537.45   40.10
   1   6  -8  697.33   63.19
  -6   1   8  641.84   51.19
  -6   1   8  789.92   52.89
   1   6   8  709.13   57.89
   1   6   8  674.73   63.19
   2   6  -8 1269.17   96.99
  -6   2   8 1266.27   85.59
  -2  -6   8 1225.28   88.49
   2   6   8 1374.56   92.89
   2   6   8 1261.77   97.99
  -6   2   8 1263.47   85.59
   3   6  -8  848.52   75.89
  -3  -6   8  901.01   66.39
   3   6   8 1033.90   76.29
   3   6   8  811.62   67.69
  -6   3   8  888.21   61.89
   4   6  -8   51.59   24.20
  -4  -6   8   49.40   17.10
  -6   4   8   61.59   11.40
  -6   4   8   73.39   12.60
   4   6   8   89.99   24.90
   4   6   8   48.60   15.50
   5   6  -8  488.35   55.89
   5   6   8  572.24   58.89
   5   6   8  417.36   42.60
  -6   5   8  503.15   35.90
  -6   5   8  483.35   36.40
  -5  -6   8  364.66   40.60
   6   6  -8  374.76   48.20
   6   6   8  422.36   39.90
  -6   6   8  438.56   32.50
   6   6   8  387.36   54.19
  -6   6   8  426.76   31.70
  -6  -6   8  329.07   36.30
   7   6  -8  388.36   46.70
  -6   7   8  370.36   29.40
   7   6   8  340.07   37.80
  -7  -6   8  343.27   34.50
  -6   7   8  328.07   27.00
   7   5  -8  587.64   55.89
  -7  -5   8  478.15   43.60
  -5   7   8  505.55   37.80
   7   5   8  525.65   48.60
  -5   7   8  511.15   36.10
  -7  -4   8  372.36   35.30
   7   4   8  394.36   41.80
  -4   7   8  370.56   25.80
   7   4   8  326.87   25.00
  -4   7   8  368.66   35.30
  -7  -3   8  221.38   27.50
  -3   7   8  197.48   25.70
   7   3   8  223.18   21.10
  -3   7   8  230.28   16.30
   7   3   8  191.48   28.80
  -2   7  -8  171.68   30.90
  -2   7   8  210.88   26.20
   7   2   8  230.78   22.80
  -7  -2   8  240.78   26.90
  -7  -2   8  261.77   26.40
  -1   7  -8  789.32   73.79
  -7  -1   8  801.82   61.69
  -1   7   8  855.81   65.89
   7   1   8  930.21   61.79
  -1   7   8  780.02   66.89
  -7  -1   8  919.71   62.59
   0   7  -8   14.60   18.50
   0   7   8   17.80   17.60
  -7   0   8   23.30   10.60
   0   7   8   31.60   13.30
  -7   0   8   39.50   12.40
   1   7  -8  966.10   71.69
   1   7   8  736.23   68.69
  -7   1   8  758.12   58.49
   1   7   8  829.82   65.09
  -7   1   8  821.92   58.79
   2   7  -8  266.57   36.60
   2   7   8  231.98   29.30
  -7   2   8  251.37   24.30
  -7   2   8  245.18   24.00
  -2  -7   8  240.98   29.70
   2   7   8  246.48   34.90
   3   7  -8  187.88   31.80
  -7   3   8  235.38   21.80
   3   7   8  220.68   33.40
   3   7   8  177.28   25.90
  -3  -7   8  172.58   25.40
  -7   3   8  184.38   21.30
   4   7  -8  389.66   47.00
  -4  -7   8  298.67   35.90
  -7   4   8  368.86   30.00
   4   7   8  324.67   35.60
   4   7   8  390.76   46.60
  -7   4   8  347.87   29.40
   5   7  -8  398.06   50.09
   5   7   8  477.45   43.20
  -5  -7   8  360.96   43.30
  -7   5   8  501.75   37.10
   5   7   8  565.94   54.69
  -7   5   8  463.25   36.20
   6   7  -8  319.67   46.10
   6   7   8  317.37   35.10
   6   7   8  364.46   48.40
  -7   6   8  380.86   30.20
  -7   6   8  345.17   28.30
  -6  -7   8  296.07   36.30
   7   7  -8  167.78   36.00
  -7   7   8  209.38   19.60
   7   7   8  165.68   24.90
  -7   7   8  209.88   22.30
  -7  -7   8  184.48   27.00
   8   7  -8  377.66   47.40
  -8  -7   8  379.26   36.50
   8   7   8  324.17   38.20
  -7   8   8  355.36   26.70
  -7   8   8  324.47   27.50
   8   6  -8  655.03   63.89
  -8  -6   8  577.84   51.09
   8   6   8  612.94   53.99
  -6   8   8  642.74   41.80
  -6   8   8  602.64   43.00
  -5   8   8   68.29    9.60
  -8  -5   8   74.19   18.00
   8   5   8   53.19   19.00
  -5   8   8   69.89   24.20
  -5   8   8   67.09    7.70
   8   4   8    3.20    3.50
  -4   8   8   12.00    4.70
   8   4   8   -9.70   14.40
  -4   8   8    9.50    9.60
  -8  -4   8   -2.70    9.00
  -3   8  -8   41.10   26.10
  -8  -3   8   47.70   14.70
   8   3   8   44.80   10.30
  -3   8   8   56.89   14.30
  -3   8   8   51.79    6.00
   8   3   8   31.20   21.40
  -2   8  -8  496.35   59.29
  -8  -2   8  609.64   47.40
   8   2   8  589.54   43.80
  -2   8   8  556.24   48.40
  -8  -2   8  603.84   46.60
  -1   8  -8   56.09   23.50
  -1   8   8   53.29   14.60
   8   1   8   62.89   13.70
  -1   8   8   56.99   18.70
  -8  -1   8   72.49   15.10
  -8  -1   8   56.79   13.70
   0   8  -8  283.77   40.30
  -8   0   8  397.86   32.40
   0   8   8  299.07   35.60
   0   8   8  327.77   38.70
  -8   0   8  373.96   31.60
   1   8  -8   73.09   22.50
  -8   1   8   76.69   13.90
   1   8   8   56.79   20.40
   1   8   8   79.29   17.20
  -8   1   8   78.39   15.40
   2   8  -8  607.04   57.29
   2   8   8  587.94   50.69
  -8   2   8  569.64   45.10
  -8   2   8  593.24   45.30
  -2  -8   8  615.94   49.80
   2   8   8  596.04   56.89
   3   8  -8   67.09   23.70
  -3  -8   8   30.00   14.90
   3   8   8   48.60   14.50
   3   8   8   38.60   21.20
  -8   3   8   49.99   11.30
  -8   3   8   50.79   13.00
   4   8  -8    3.20   19.90
  -8   4   8    0.30    7.40
   4   8   8   19.90   19.30
  -8   4   8    1.30    8.00
   4   8   8    0.50   10.10
  -4  -8   8    6.40   11.70
   5   8  -8   80.39   26.70
   5   8   8   36.90   21.30
  -5  -8   8   55.19   17.20
  -8   5   8   47.30   11.20
   5   8   8   62.39   15.60
  -8   5   8   61.49   12.60
   6   8  -8  627.04   64.29
  -8   6   8  536.95   42.80
   6   8   8  718.53   60.79
  -8   6   8  559.74   44.20
   6   8   8  617.74   49.40
  -6  -8   8  453.15   47.60
   7   8  -8  305.27   46.60
  -8   7   8  372.86   31.50
   7   8   8  433.06   50.79
  -8   7   8  357.26   29.60
  -7  -8   8  347.57   38.90
   7   8   8  335.07   36.80
   8   8  -8  103.09   30.90
  -8  -8   8   99.99   20.80
  -8   8   8  148.19   25.60
  -8   8   8  155.68   17.70
   8   8   8  133.89   23.40
  -8   8   8  132.39   15.30
   9   7  -8  107.59   33.70
  -7   9   8   66.99   10.30
   9   7   8   60.39   19.00
  -7   9   8   62.99    6.90
  -9  -7   8   62.29   17.90
   9   6   8  498.75   52.69
  -6   9   8  567.14   37.40
  -9  -6   8  565.14   47.90
   9   5   8  990.30   75.89
  -5   9   8  863.31   57.59
  -9  -5   8 1021.80   70.49
  -5   9   8  913.61   70.79
  -9  -4   8  247.68   29.20
  -4   9   8  267.17   30.10
   9   4   8  243.58   41.10
  -3   9  -8  291.47   42.10
  -9  -3   8  336.57   32.40
  -3   9   8  283.17   32.30
   9   3   8  319.97   25.90
  -2   9  -8 1111.39   89.39
  -2   9   8 1139.79   82.69
   9   2   8 1083.89   76.09
  -9  -2   8 1150.18   80.09
  -1   9  -8   -0.80   19.20
   9   1   8   28.90   11.50
  -1   9   8   10.50   14.50
  -1   9   8   23.00   11.70
  -9  -1   8   25.20   11.40
  -9  -1   8   11.40    9.80
   0   9  -8   -2.20   19.40
   0   9   8    2.70   13.80
   0   9   8   19.40   11.80
  -9   0   8   14.40    9.60
  -9   0   8   16.60   11.30
   1   9  -8    6.40   18.70
   1   9   8   38.00   13.90
   1   9   8   13.70   15.20
  -1  -9   8   40.40   14.30
  -9   1   8   26.30   10.60
  -9   1   8   23.40   10.40
   2   9  -8 1132.59   88.09
  -9   2   8 1192.88   79.29
  -9   2   8 1072.99   79.09
   2   9   8 1086.99   83.89
  -2  -9   8 1276.57   84.09
   2   9   8 1119.99   83.49
   3   9  -8  256.97   35.70
  -9   3   8  292.67   28.30
  -9   3   8  311.07   27.60
   3   9   8  267.27   34.30
   3   9   8  256.67   30.70
  -3  -9   8  295.47   34.90
   4   9  -8  320.77   39.00
  -4  -9   8  265.87   33.60
   4   9   8  211.18   33.00
  -9   4   8  243.28   27.00
  -9   4   8  229.28   25.70
   4   9   8  246.78   29.40
   5   9  -8  966.50   79.29
   5   9   8  941.41   76.19
  -9   5   8  998.90   66.79
  -9   5   8  956.90   65.59
   5   9   8  927.91   68.09
  -5  -9   8  743.13   69.09
   6   9  -8  516.85   60.39
  -6  -9   8  438.36   47.20
  -9   6   8  602.04   43.90
  -9   6   8  608.74   45.00
   6   9   8  586.14   47.00
   6   9   8  593.14   56.39
   7   9  -8   48.90   26.50
   7   9   8   92.79   24.90
  -9   7   8   76.79   15.00
  -7  -9   8   69.79   17.60
   7   9   8   68.29   16.80
  -9   7   8   60.59   12.50
  -5  10   8  117.99   21.20
  10   5   8   96.49   29.20
 -10  -5   8  143.59   22.70
  -4  10   8   36.30   13.00
 -10  -4   8   28.60   14.40
  10   3   8   70.79   11.50
 -10  -3   8   92.79   18.80
  -3  10   8  102.89   19.30
  -2  10  -8 1100.79   87.59
  10   2   8 1045.90   72.99
  -2  10   8 1059.29   79.99
 -10  -2   8 1064.69   77.09
  -1  10  -8  510.25   55.79
  -1  10   8  461.15   46.80
 -10  -1   8  490.35   42.80
 -10  -1   8  531.05   43.50
  -1  10   8  570.64   46.70
  10   1   8  543.95   42.90
   0  10  -8  775.72   70.79
 -10   0   8  860.71   61.59
   0  10   8  813.52   63.19
   0  10   8  881.41   67.69
 -10   0   8  763.22   60.39
   1  10  -8  441.96   55.19
 -10   1   8  610.74   46.60
   1  10   8  505.75   47.40
  -1 -10   8  560.44   48.80
   1  10   8  598.34   50.09
 -10   1   8  615.34   45.90
   2  10  -8 1036.40   88.19
 -10   2   8 1210.58   80.09
  -2 -10   8 1282.17   84.99
   2  10   8 1128.99   82.69
   2  10   8 1185.18   82.29
 -10   2   8 1018.40   78.79
   3  10  -8   85.09   23.00
 -10   3   8   65.79   14.40
   3  10   8   44.40   14.30
   3  10   8   46.40   17.50
  -3 -10   8  126.09   23.70
 -10   3   8   90.59   15.70
   4  10  -8   70.49   22.10
   4  10   8   56.29   14.30
   4  10   8   22.60   18.00
  -4 -10   8   19.00   15.30
 -10   4   8   53.89   14.10
 -10   4   8   44.60   12.10
   5  10  -8  138.19   28.10
  -5 -10   8  127.69   24.30
 -10   5   8  140.29   20.40
 -10   5   8  190.28   21.40
   5  10   8  131.09   19.50
   5  10   8  122.49   26.00
  11   3   8  319.67   24.90
 -11  -3   8  373.46   34.80
  -3  11   8  314.07   35.30
 -11  -2   8  305.77   30.30
  11   2   8  260.47   25.90
  -2  11   8  268.97   32.90
  -1  11  -8  118.89   28.20
  11   1   8  108.09   18.70
  -1  11   8  125.29   23.10
  -1  11   8  131.89   20.40
 -11  -1   8  115.19   20.30
   0  11  -8    8.30   18.90
 -11   0   8   -1.10    8.90
 -11   0   8   10.10   10.20
   0  11   8   -8.30    9.40
   0  11   8    8.00   11.20
   1  11  -8  102.79   27.40
 -11   1   8  140.29   20.40
  -1 -11   8  135.59   24.50
   1  11   8  131.49   21.60
   1  11   8  129.09   19.50
 -11   1   8  122.29   20.50
   2  11  -8  227.58   35.60
   2  11   8  226.38   28.60
 -11   2   8  284.17   28.30
   2  11   8  295.37   30.80
 -11   2   8  265.97   29.90
  -2 -11   8  347.67   38.10
   3  11  -8  283.67   39.30
   3  11   8  332.57   32.20
 -11   3   8  342.67   31.80
  -3 -11   8  364.46   39.80
   3  11   8  316.07   33.60
 -11   3   8  310.97   34.40
   0   0   9    0.60    9.10
   0   0   9    8.00    8.80
   0   1   9  409.46   33.00
   0  -1   9  409.06   33.60
   0   1   9  342.77   32.00
   0  -1   9  411.46   34.10
   1   0   9  386.86   33.00
  -1   0   9  333.27   32.50
  -1   0   9  396.16   33.90
   1   1   9  528.55   38.60
  -1  -1   9  513.25   40.20
  -1   1   9  455.75   38.90
  -1  -1   9  503.25   40.80
  -1   1   9  430.46   38.80
   1  -1   9  542.95   39.80
   1   1   9  448.46   38.40
   1  -2   9  197.68   22.90
  -1   2   9  200.18   22.70
  -2  -1   9  167.68   22.10
   2   1   9  175.88   21.50
  -2  -1   9  170.08   23.10
  -1   2   9  169.68   20.90
  -1   2   9  234.08   38.80
  -2   0   9   73.89   14.80
  -2   0   9   65.59   15.00
   0   2   9   90.59   15.00
   0   2   9   87.39   14.40
   0  -2   9   76.09   14.70
   2   0   9   81.39   14.80
   0   2   9  112.39   21.20
  -1  -2   9  253.17   25.00
  -2   1   9  166.48   22.30
   1   2   9  206.58   23.50
   1   2   9  235.28   22.80
   2  -1   9  213.28   24.60
  -1  -2   9  240.28   24.50
  -2   1   9  197.28   24.30
   1   2   9  249.97   28.60
   2   2   9  303.17   26.40
  -2   2   9  255.17   25.50
   2  -2   9  247.68   26.20
  -2  -2   9  303.17   28.20
   2   2   9  261.67   31.30
  -2   2   9  265.27   26.50
  -2  -2   9  225.78   27.80
   2   2   9  314.57   25.40
  -3  -2   9   85.99   16.00
   3   2   9   78.49   13.60
   2  -3   9   70.59   14.40
  -2   3   9   90.59   14.20
   3   2   9   90.09   19.60
  -3  -2   9   68.49   16.10
  -2   3   9   72.39   13.30
   1  -3   9   23.10   10.20
  -1   3   9   24.40    9.10
   3   1   9    3.60    8.30
  -1   3   9   15.00    8.60
  -3  -1   9    4.80    9.30
  -1   3   9   26.10   13.00
  -3  -1   9   32.70   12.30
  -3   0   9   71.09   15.00
   0   3   9   76.39   13.30
   3   0   9  111.29   16.20
  -3   0   9   52.09   13.60
   0   3   9   59.49   12.30
   0  -3   9   55.49   12.60
   0   3   9   68.79   18.20
  -1  -3   9   35.10   12.30
  -3   1   9   10.40   10.00
   1   3   9   24.80   12.70
   3  -1   9   12.00    9.30
  -1  -3   9   29.50   11.00
  -3   1   9   17.20   10.40
   1   3   9   15.70    8.40
   1   3   9   12.10    8.50
   2   3   9   58.89   12.10
   3  -2   9   81.49   15.80
   2   3   9   41.80   14.00
  -3   2   9   76.49   14.00
  -2  -3   9   78.19   17.60
  -3   2   9   79.09   14.00
  -2  -3   9   90.29   16.50
   2   3   9  101.19   14.10
  -3  -3   9  212.28   27.70
   3   3   9  201.18   28.10
  -3   3   9  170.18   21.20
  -3   3   9  195.88   21.80
  -3  -3   9  258.07   27.40
   3   3   9  175.48   20.70
   3   3   9  217.88   20.30
   4   3   9  141.79   25.70
   4   3   9  155.48   18.60
  -4  -3   9  156.18   22.10
  -3   4   9  181.98   19.40
  -3   4   9  179.98   19.30
  -4  -3   9  155.88   23.50
  -2   4   9   44.80   14.20
  -2   4   9   36.30    9.90
   4   2   9   52.09   16.60
  -2   4   9   48.00   10.60
  -4  -2   9   55.79   16.20
   4   2   9   63.59   12.20
  -4  -2   9   71.69   15.90
  -1   4   9   24.70    8.20
  -1   4   9   10.20   10.80
  -1   4   9    8.70    7.80
  -4  -1   9   12.20   10.50
  -4  -1   9   22.80   13.20
   1  -4   9   21.00   11.10
   4   1   9   26.80   10.30
   0  -4   9    7.10    8.30
   4   0   9  -10.70    6.40
   0   4   9    1.00    9.00
  -4   0   9   13.10   11.20
   0   4   9   -4.40    5.90
   0   4   9    4.20    6.50
  -4   0   9    6.60    9.00
   1   4   9   18.80    7.90
  -1  -4   9    9.70    9.70
  -4   1   9   29.80   11.10
  -4   1   9    6.80   10.00
  -1  -4   9   31.80   11.00
   1   4   9   14.10   10.90
   4  -1   9   38.60   11.40
   1   4   9   13.50    7.30
   2   4  -9   53.59   28.60
  -4   2   9   86.99   14.90
   2   4   9   32.00    8.80
   2   4   9   29.80   13.30
  -2  -4   9   38.40   12.70
  -4   2   9   78.79   13.80
  -2  -4   9   36.10   14.20
  -4   3   9  167.08   20.60
  -4   3   9  194.88   21.40
   3   4   9  172.48   25.80
   3   4   9  158.18   17.40
  -3  -4   9  148.19   22.90
  -3  -4   9  197.48   24.60
  -4  -4   9  363.76   33.40
   4   4   9  310.47   37.20
   4   4   9  313.57   26.40
  -4   4   9  344.77   28.90
  -4  -4   9  346.77   35.00
  -4   4   9  377.56   29.60
  -4   5   9  190.78   19.00
   5   4   9  152.08   27.50
  -4   5   9  221.88   20.00
   5   4   9  165.88   17.30
  -5  -4   9  192.58   27.30
  -5  -3   9   69.39   15.90
  -3   5   9   67.89   10.90
   5   3   9   38.80   18.10
  -5  -3   9   46.20   15.10
  -3   5   9   80.19   11.70
   5   3   9   49.40   11.00
  -3   5   9   82.89   19.70
  -5  -2   9  -16.20    8.60
   5   2   9   17.80    9.00
  -5  -2   9   11.50   10.50
  -2   5   9   11.90   10.20
  -2   5   9   16.40    7.10
  -2   5   9    8.90    6.40
  -1   5   9   18.10   11.60
  -1   5   9   31.90    7.60
  -5  -1   9   12.10   10.60
   5   1   9   16.00    8.90
  -1   5   9   20.10    7.30
  -5  -1   9   15.60   12.50
   0   5  -9   24.80   24.60
  -5   0   9   17.50   10.50
   0   5   9    2.00   10.20
  -5   0   9    4.40    9.50
   0   5   9    3.80    5.10
   5   0   9    8.30    9.00
   0  -5   9   12.00    9.10
   1   5  -9   40.30   22.80
  -5   1   9   26.80   10.70
   1   5   9   32.60    6.90
   1   5   9   47.60   15.10
   5  -1   9   13.80   10.50
  -1  -5   9   34.30   11.90
  -1  -5   9   13.80   10.80
  -5   1   9   17.40   10.00
   2   5  -9    6.40   21.10
   2   5   9   14.00    5.00
  -5   2   9   10.80    9.20
  -2  -5   9    7.40   11.10
   2   5   9   12.60   11.10
  -5   2   9    5.00    8.00
   3   5  -9   62.69   25.00
  -5   3   9   70.19   13.80
   3   5   9   83.59    8.50
  -3  -5   9   79.29   17.90
  -5   3   9   58.09   12.90
   3   5   9   73.19   17.80
   4   5  -9  218.18   40.00
   4   5   9  185.78   27.30
  -5   4   9  161.68   19.80
  -5   4   9  189.48   21.60
  -4  -5   9  202.28   27.40
  -5   5   9  119.89   15.70
   5   5   9   82.59   21.20
  -5   5   9   87.89   13.50
  -5  -5   9   80.69   17.90
  -5   6   9  366.16   28.40
   6   5   9  326.47   39.40
  -6  -5   9  254.57   35.40
  -5   6   9  384.66   29.50
  -4   6   9  290.87   22.90
   6   4   9  260.07   34.20
  -6  -4   9  232.78   31.50
   6   4   9  229.78   21.00
  -4   6   9  315.67   24.30
   6   3   9   37.80    9.70
  -6  -3   9   38.20   14.20
   6   3   9   26.10   16.40
  -6  -3   9   39.00   14.50
  -3   6   9   26.30   12.30
  -3   6   9   36.00    7.60
  -6  -2   9   19.40   11.60
  -2   6   9   34.70    6.90
  -2   6   9   16.80   11.50
   6   2   9   39.80   10.80
  -6  -2   9   25.00   13.60
  -6  -1   9   49.90   13.80
  -1   6   9   46.40   15.00
  -6  -1   9   40.10   13.70
   6   1   9   27.90   10.50
  -1   6   9   35.70    6.30
   0   6  -9   41.30   20.40
   6   0   9   31.90   11.80
   0   6   9   52.49    6.00
  -6   0   9   50.99   13.70
   0   6   9   65.49   17.40
  -6   0   9   32.80   13.50
   1   6  -9   41.20   19.60
  -6   1   9   57.29   14.50
  -1  -6   9   43.30   14.50
   1   6   9   40.90   14.00
  -6   1   9   64.99   14.90
   2   6  -9   18.20   20.80
   2   6   9   35.30   13.50
  -6   2   9   37.10   11.20
  -6   2   9   33.20   10.70
  -2  -6   9   17.20   11.30
   3   6  -9    5.70   22.70
  -6   3   9   60.99   13.20
   3   6   9   33.00   14.30
  -6   3   9   33.10   10.20
  -3  -6   9   35.40   13.80
   4   6  -9  261.17   40.20
  -6   4   9  275.27   25.60
  -6   4   9  299.77   26.30
   4   6   9  251.97   33.20
  -4  -6   9  241.48   31.00
   5   6  -9  388.26   49.80
  -6   5   9  377.06   29.60
   5   6   9  299.07   37.60
  -6   5   9  307.27   27.80
  -5  -6   9  255.97   34.00
  -6   6   9  125.89   16.80
  -6   6   9  115.19   15.20
  -6  -6   9   95.09   21.00
   6   6   9   89.59   20.90
  -7  -6   9   58.59   18.40
  -6   7   9   91.89   12.80
   7   6   9  102.59   23.20
  -5   7   9   32.90    7.70
   7   5   9    9.90   14.90
  -7  -5   9   15.40   12.60
  -4   7   9  102.39   11.10
   7   4   9   73.09    9.80
  -7  -4   9   95.09   19.80
   7   4   9   79.49   21.50
  -3   7   9  188.38   26.40
   7   3   9  189.38   20.10
  -7  -3   9  151.18   24.70
  -3   7   9  179.98   14.70
  -7  -2   9   79.59   17.30
   7   2   9  122.49   16.60
  -2   7   9   88.69   19.50
  -7  -2   9   93.99   20.10
  -1   7  -9   61.79   30.40
  -7  -1   9   44.50   15.00
   7   1   9   63.29   13.30
  -7  -1   9   49.99   14.20
  -1   7   9   55.19   16.40
   0   7  -9   50.09   20.80
  -7   0   9   46.00   13.40
  -7   0   9   48.20   14.70
   7   0   9   65.09   14.40
   0   7   9   49.00   15.80
   1   7  -9   52.09   21.50
  -1  -7   9   67.09   17.20
  -7   1   9   63.09   15.40
   1   7   9   57.59   16.50
  -7   1   9   71.99   15.00
   2   7  -9   97.79   26.60
   2   7   9   93.49   19.90
  -7   2   9  113.99   18.00
  -7   2   9  103.49   17.20
  -2  -7   9   97.59   18.70
   3   7  -9  173.18   33.10
   3   7   9  167.88   25.60
  -7   3   9  182.28   22.80
   3   7   9  165.28   47.30
  -7   3   9  196.48   22.60
  -3  -7   9  191.88   27.00
   4   7  -9  106.89   29.40
  -4  -7   9   95.59   21.80
   4   7   9  100.09   21.30
  -7   4   9  113.39   17.70
  -7   4   9  100.19   16.00
   5   7  -9    4.40   23.70
  -7   5   9   18.80    9.60
  -5  -7   9   12.50   13.00
   5   7   9   15.50   15.30
  -7   5   9   28.90    9.70
  -7   6   9  119.19   15.90
   6   7   9  100.19   21.60
  -7   6   9  100.69   16.40
  -6  -7   9   69.89   19.60
   7   7  -9   90.49   43.00
  -7  -7   9  133.09   23.90
  -7   7   9  118.19   17.70
  -7   7   9  143.29   16.60
   7   7   9  109.29   22.90
   8   7   9   25.90   18.10
  -7   8   9   60.39   11.10
  -8  -7   9   68.19   20.00
  -7   8   9   45.00    9.20
  -6   8   9   38.30    7.50
  -6   8   9   29.40    8.30
   8   6   9   -6.50   17.20
  -8  -6   9   21.90   16.10
  -8  -5   9    6.40   13.10
  -5   8   9    2.20    3.90
   8   5   9   -7.30   17.40
   8   4   9    8.40    4.20
  -4   8   9    0.60   10.50
  -8  -4   9   15.90   12.50
   8   3   9  255.27   22.50
  -3   8   9  222.38   30.50
  -8  -3   9  241.28   29.80
  -3   8   9  217.28   16.80
  -8  -2   9  145.09   23.00
  -2   8   9  135.19   24.30
   8   2   9  164.18   20.00
  -8  -2   9  187.38   26.10
  -1   8  -9   25.50   21.60
  -8  -1   9   27.30   12.50
  -8  -1   9   27.60   12.50
   8   1   9   23.60   10.90
  -1   8   9   40.80   15.50
   0   8  -9   34.40   22.30
  -8   0   9   34.50   12.90
  -8   0   9   41.30   13.70
   0   8   9   69.79   17.50
   8   0   9   24.50   12.20
   1   8  -9   44.30   20.30
  -8   1   9   18.80   11.70
   1   8   9   51.79   15.60
  -8   1   9   34.60   11.80
  -1  -8   9   42.40   13.40
   2   8  -9  179.18   31.20
  -8   2   9  176.18   23.10
   2   8   9   96.79   28.20
  -8   2   9  179.78   22.90
   2   8   9  162.08   25.30
  -2  -8   9  173.68   25.70
   3   8  -9  256.77   36.00
  -3  -8   9  205.48   30.10
   3   8   9  228.28   30.80
   3   8   9  232.08   37.00
  -8   3   9  270.57   28.90
  -8   3   9  248.98   25.70
   4   8  -9    2.10   21.10
   4   8   9    8.70   12.00
  -8   4   9   11.90    9.30
  -8   4   9    6.70   10.00
  -4  -8   9   -4.70   12.30
   4   8   9   21.50   22.10
   5   8  -9   -9.00   22.10
   5   8   9   12.10   13.80
  -8   5   9    8.80    9.10
  -8   5   9   25.00   10.40
  -5  -8   9    3.60   12.60
   6   8  -9   21.20   25.50
   6   8   9   25.60   14.30
  -6  -8   9   21.50   15.60
  -8   6   9   25.90    9.90
  -8   6   9    1.40    9.10
   7   8  -9   25.30   27.10
  -8   7   9   68.39   14.70
  -7  -8   9   45.60   17.50
  -8   7   9   74.39   12.90
   7   8   9   47.20   17.50
  -5   9   9   14.30    4.70
  -9  -5   9   -6.60    9.80
  -4   9   9   31.80   13.60
  -9  -4   9   19.50   14.90
   9   3   9   37.90    9.50
  -9  -3   9   58.29   17.60
  -3   9   9   34.50   14.70
  -2   9   9   81.99   19.60
   9   2   9   86.59   14.70
  -9  -2   9  102.49   20.30
  -1   9  -9  183.08   35.30
   9   1   9  224.48   25.70
  -9  -1   9  238.08   28.40
  -9  -1   9  232.28   28.70
  -1   9   9  207.58   30.80
   0   9  -9   59.69   24.90
   0   9   9   28.80   14.90
  -9   0   9   77.09   16.30
  -9   0   9   59.89   16.50
   1   9  -9  230.98   36.90
   1   9   9  215.58   35.40
  -9   1   9  289.57   28.40
  -9   1   9  252.77   29.50
  -1  -9   9  272.37   32.80
   1   9   9  232.08   31.50
   2   9  -9  113.69   26.20
  -9   2   9   94.89   17.60
  -9   2   9  103.39   18.60
   2   9   9   97.29   20.00
   2   9   9   78.99   24.10
  -2  -9   9  117.69   21.80
   3   9  -9   49.50   21.10
  -9   3   9   61.09   15.10
  -3  -9   9   29.40   15.10
  -9   3   9   73.19   14.60
   3   9   9  -11.30   19.40
   3   9   9   49.00   15.60
   4   9  -9   22.50   19.80
  -9   4   9   27.90   11.40
   4   9   9    1.60   20.40
  -4  -9   9   42.50   16.50
   4   9   9   16.50   13.20
  -9   4   9   33.30   12.90
   5   9  -9    5.10   21.10
  -9   5   9   24.40   11.80
   5   9   9   17.10   22.20
  -5  -9   9   28.70   15.50
   5   9   9   20.00   13.10
  -9   5   9    9.00    9.80
  -4  10   9   25.20   12.90
 -10  -4   9   24.40   14.50
 -10  -3   9   27.80   15.20
  -3  10   9   10.40   11.90
  10   3   9   33.70    8.60
  -2  10   9   74.89   19.40
 -10  -2   9   65.29   17.10
  10   2   9   40.60   11.30
  -1  10  -9  198.68   35.80
  10   1   9  224.58   26.10
 -10  -1   9  252.37   31.10
 -10  -1   9  253.77   29.80
  -1  10   9  201.78   30.80
   0  10  -9   20.90   22.10
 -10   0   9   14.50   12.50
   0  10   9   26.40   13.20
 -10   0   9   16.50   11.40
   1  10  -9  171.08   36.20
 -10   1   9  281.57   31.30
   1  10   9  206.48   31.10
 -10   1   9  273.57   30.50
  -1 -10   9  249.18   31.80
   1  10   9  307.37   33.20
   2  10  -9   33.80   21.80
 -10   2   9   57.59   14.80
   2  10   9   28.40   18.50
 -10   2   9   74.79   17.20
  -2 -10   9  103.69   21.60
   2  10   9   69.99   17.10
   3  10  -9   28.00   19.10
   3  10   9   -0.20   16.90
  -3 -10   9   25.40   15.90
   3  10   9   22.50   12.80
 -10   3   9   23.90   11.50
 -10   3   9   13.60   12.10
   4  10  -9   29.10   19.50
 -10   4   9    4.00    9.00
 -10   4   9   14.40   10.70
   4  10   9    8.60   12.20
  -4 -10   9   10.60   14.40
   0   0  10  680.93   54.49
   0   0  10  819.02   56.09
   0  -1  10    1.00    8.40
   0   1  10    4.70    8.80
   0   1  10    6.60    8.30
  -1   0  10    7.20   10.10
   1   0  10    2.00    8.40
  -1   0  10   -1.10    8.40
   0  -1  10    5.10    8.80
   1   0  10   12.60    9.40
   1   1  10  125.29   18.10
   1   1  10  140.09   19.70
  -1  -1  10  135.79   19.90
  -1   1  10  135.99   20.10
  -1  -1  10  115.49   20.10
   1  -1  10  162.68   20.50
  -1   1  10  114.89   18.90
   2   1  10  338.37   29.90
  -2  -1  10  313.27   31.00
  -2  -1  10  307.97   34.00
   2   1  10  375.76   30.10
  -1   2  10  275.67   29.30
  -1   2  10  323.67   29.90
   1  -2  10  319.37   30.10
   0  -2  10   54.49   13.40
  -2   0  10   52.59   15.00
   0   2  10   61.59   13.50
   0  -2  10   43.20   12.90
   0   2  10   44.90   12.20
   2   0  10   61.09   13.50
  -2   0  10   44.10   13.50
  -1  -2  10  349.47   31.20
  -2   1  10  317.67   31.00
   2  -1  10  305.37   29.50
  -2   1  10  308.27   31.00
   1   2  10  324.67   28.50
   1   2  10  288.37   29.30
  -1  -2  10  358.36   31.70
   2   2  10  633.64   42.80
  -2  -2  10  605.64   47.10
   2  -2  10  500.05   43.30
   2   2  10  544.55   43.00
  -2   2  10  518.65   44.20
  -2   2  10  525.45   43.40
  -2  -2  10  563.64   45.10
   2  -3  10  728.23   56.89
  -3  -2  10  838.02   59.39
   3   2  10  853.81   56.59
  -2   3  10  749.62   55.59
  -2   3  10  707.23   55.69
  -3  -2  10  766.32   59.89
  -3  -1  10   17.80   11.20
   1  -3  10   16.20    9.90
  -3  -1  10   29.70   14.10
  -1   3  10   23.50    9.60
  -1   3  10   34.20   10.90
   3   1  10   20.70   10.00
   0  -3  10    4.90    8.70
   0   3  10   -2.20    8.20
   0  -3  10    2.50   10.60
   3   0  10    8.90    8.80
  -3   0  10    5.20   11.30
   0   3  10   17.00    9.20
  -3   0  10    2.20    9.90
   3  -1  10   18.80   10.50
  -3   1  10   24.00   12.30
  -1  -3  10   24.20   10.70
  -3   1  10   10.30   10.50
  -1  -3  10   25.20   12.10
   1   3  10   33.80   10.80
   1   3  10   23.10    9.90
  -3   2  10  781.22   56.19
  -3   2  10  653.53   55.09
   2   3  10  740.03   54.39
   3  -2  10  727.83   55.99
  -2  -3  10  868.71   58.99
  -2  -3  10  678.93   55.79
   2   3  10  838.42   53.89
   3   3  10   76.39   13.00
  -3  -3  10   59.59   15.50
  -3  -3  10   49.80   14.60
  -3   3  10   56.69   13.30
  -3   3  10   55.79   14.20
   3  -3  10   43.30   13.10
   3   3  10   75.99   13.50
  -4  -3  10   85.09   19.50
  -3   4  10   62.29   13.20
  -4  -3  10   84.99   17.50
  -3   4  10   75.89   14.20
   4   3  10   83.69   13.80
  -4  -2  10   16.30   11.90
   4   2  10   12.80    9.10
   2  -4  10   34.30   12.40
  -4  -2  10   21.90   11.90
  -2   4  10   24.00    9.30
  -2   4  10   13.70    9.00
   1  -4  10  159.68   21.40
  -4  -1  10   86.39   18.20
  -4  -1  10  119.69   21.70
   4   1  10  133.59   19.20
  -1   4  10  157.08   18.90
  -1   4  10  161.98   19.00
   0   4  10   10.90    8.00
   0   4  10   -1.00    7.00
  -4   0  10   -0.40    9.60
   4   0  10   10.80    8.80
   0  -4  10    1.80    8.00
   0   4  10   -4.10    9.30
  -4   0  10   -2.30    9.10
   1   4  10  107.99   15.90
  -1  -4  10  166.18   22.00
   1   4  10  130.69   22.60
  -4   1  10  124.29   20.80
  -4   1  10  112.49   18.90
   4  -1  10  133.99   19.60
  -1  -4  10  152.58   22.00
   2   4  10   28.90    9.30
   4  -2  10   25.70   11.80
   2   4  10   24.30   13.50
  -4   2  10   23.40   11.60
  -2  -4  10   28.40   12.60
  -4   2  10   23.10   11.20
  -2  -4  10   40.70   12.70
  -3  -4  10   76.79   16.00
  -4   3  10  108.09   17.20
  -3  -4  10  105.29   20.10
   3   4  10   77.79   18.40
   3   4  10   57.59   11.70
  -4   3  10   73.79   14.80
   4   4  10    4.40   12.70
  -4  -4  10   14.20   12.10
  -4   4  10   -5.90    6.70
  -4   4  10    6.00    8.20
   4   4  10    0.10    6.60
  -4   5  10  273.17   24.30
   5   4  10  237.28   21.80
  -5  -4  10  238.28   32.10
   5   4  10  185.48   32.20
  -4   5  10  286.67   24.50
  -5  -3  10    4.90   11.60
   5   3  10    9.10    8.20
  -3   5  10   14.20    7.90
  -5  -3  10   16.40   12.30
  -3   5  10   21.00    9.00
  -2   5  10  154.08   17.50
   5   2  10  151.98   19.60
   2  -5  10  201.28   25.50
  -5  -2  10  124.99   23.30
  -5  -2  10  146.49   23.80
  -1   5  10  741.03   65.89
  -1   5  10  768.52   52.89
  -5  -1  10  702.63   59.59
   1  -5  10  803.42   58.59
   5   1  10  806.52   56.49
  -5  -1  10  772.82   59.99
  -5   0  10    1.20   10.20
  -5   0  10   17.50   12.10
   0   5  10   26.00   13.70
   5   0  10    7.80    8.90
   0   5  10   19.00    7.40
   0  -5  10   12.20    9.90
  -1  -5  10  866.81   62.89
  -5   1  10  802.32   61.79
   1   5  10  801.32   55.29
   1   5  10  847.32   67.49
   5  -1  10  868.41   61.79
  -5   1  10  802.32   62.09
   5  -2  10  136.89   21.60
  -5   2  10  121.69   20.30
  -5   2  10  130.59   20.00
   2   5  10  137.29   14.00
   2   5  10  157.68   25.30
  -2  -5  10  132.79   21.80
  -3  -5  10   15.60   13.30
  -5   3  10   10.20    9.90
   3   5  10   21.40   13.40
  -5   3  10   15.30   10.70
   3   5  10   18.70    5.70
   4   5  10  251.77   18.60
  -4  -5  10  388.16   35.10
   4   5  10  259.27   34.90
  -5   4  10  243.58   25.60
  -5   4  10  276.07   26.50
   5   5  10   54.99   20.10
  -5  -5  10   59.09   17.10
  -5   5  10   64.39   12.70
  -5   5  10   60.39   13.30
  -6  -5  10  164.58   27.10
  -5   6  10  199.68   20.10
   6   5  10  160.58   29.50
   6   4  10   35.50    8.30
  -6  -4  10   21.50   15.00
  -4   6  10   45.50    9.70
   6   3  10  411.86   33.50
  -3   6  10  428.86   31.60
  -6  -3  10  456.45   63.39
  -6  -3  10  373.36   39.30
  -6  -2  10   75.59   19.50
  -2   6  10   51.79    9.10
  -6  -2  10   62.49   16.20
   6   2  10   74.89   13.60
  -1   6  10  705.73   62.29
  -1   6  10  704.93   46.80
   6   1  10  748.13   53.09
  -6  -1  10  685.53   56.19
  -6  -1  10  673.63   56.69
   0   6  10  465.85   30.40
  -6   0  10  428.86   40.10
   6   0  10  450.95   38.40
  -6   0  10  393.96   40.40
   0   6  10  470.95   46.20
  -6   1  10  739.63   55.69
  -1  -6  10  782.52   56.29
   1   6  10  658.93   58.99
  -6   1  10  675.73   55.49
   6  -1  10  658.13   53.69
   2   6  10   66.29   17.70
  -6   2  10   63.59   16.00
  -2  -6  10   55.99   17.30
  -6   2  10   93.29   16.80
  -6   3  10  468.85   39.20
   3   6  10  467.25   45.80
  -3  -6  10  440.56   41.40
  -6   3  10  476.95   39.50
  -6   4  10   42.60   12.50
   4   6  10   49.80   18.40
  -6   4  10   47.30   12.60
  -4  -6  10   44.00   15.80
  -5  -6  10  210.48   30.70
   5   6  10  140.49   28.10
  -6   5  10  219.78   22.30
  -6   5  10  199.38   24.20
  -6   6  10  111.29   15.60
  -6  -6  10   86.19   21.70
  -6   6  10  108.99   17.00
   6   6  10   61.09   20.80
  -6   7  10   81.89   12.70
  -7  -6  10   70.69   21.10
   7   6  10   42.70   20.40
  -7  -5  10   54.79   18.40
  -5   7  10   98.29   12.80
   7   5  10   83.69   33.80
  -4   7  10   18.70    6.80
   7   4  10   11.20    6.10
  -7  -4  10   12.20   15.00
   7   3  10   72.99   12.50
  -7  -3  10   53.89   17.00
  -3   7  10   71.09    9.00
   7   2  10  258.97   24.80
  -2   7  10  251.07   17.00
  -7  -2  10  218.28   30.20
  -2   7  10  198.48   31.00
  -7  -2  10  207.78   29.30
  -7  -1  10    5.20   12.00
  -7  -1  10    4.40   11.50
  -1   7  10   21.50   14.20
   7   1  10   17.10   10.10
   7   0  10    1.70    9.50
  -7   0  10   22.90   13.30
  -7   0  10  -15.00    9.00
   0   7  10   -0.70   10.30
   1   7  10   30.70   13.90
   7  -1  10   17.60   11.40
  -7   1  10   28.10   12.90
  -1  -7  10   24.40   13.70
  -7   1  10   13.80   12.40
  -7   2  10  258.77   29.50
  -7   2  10  205.28   27.40
   2   7  10  282.27   33.50
  -2  -7  10  294.97   32.70
  -3  -7  10   87.29   19.40
  -7   3  10   73.69   16.40
  -7   3  10   60.59   14.20
   3   7  10   55.89   16.90
   4   7  10   12.40   13.80
  -7   4  10   29.30   12.40
  -4  -7  10   48.20   17.00
  -7   4  10   18.10   10.10
   5   7  10   45.70   19.80
  -7   5  10  105.09   17.50
  -5  -7  10   86.59   21.10
  -7   5  10   93.49   16.00
  -7   6  10   76.99   14.20
  -7   6  10  100.49   17.10
   6   7  10   57.99   19.80
  -6  -7  10   72.09   21.00
  -7   7  10  322.87   27.40
  -7  -7  10  238.78   35.60
  -5   8  10   96.29   10.10
  -8  -5  10   77.79   21.30
  -8  -4  10   79.99   21.10
   8   4  10   98.89    9.90
   8   3  10   85.89   13.20
  -8  -3  10   80.59   20.50
   8   2  10  101.19   16.10
  -8  -2  10  124.19   25.40
  -8  -2  10   84.19   20.80
  -2   8  10   96.99   21.50
  -8  -1  10  120.79   21.60
  -1   8  10  124.79   24.40
  -8  -1  10   86.09   20.40
   8   1  10   93.79   16.80
   8   0  10   63.49   15.10
  -8   0  10   44.40   15.80
  -8   0  10   41.50   16.10
   0   8  10   56.09   17.50
   8  -1  10   97.19   18.90
   1   8  10  128.19   23.60
  -8   1  10   95.29   19.40
  -8   1  10   99.89   19.50
  -1  -8  10   83.59   18.40
  -8   2  10  111.29   20.60
  -2  -8  10  136.79   23.60
  -8   2  10  113.29   19.60
   2   8  10  138.49   23.90
  -8   3  10   95.39   18.90
   3   8  10   82.59   20.30
  -3  -8  10   63.39   19.00
  -8   3  10  101.09   18.20
   4   8  10   74.59   20.10
  -4  -8  10   89.09   21.50
  -8   4  10  112.69   18.90
  -8   4  10  105.89   17.50
  -5  -8  10   76.99   20.30
  -8   5  10   91.29   16.80
   5   8  10   77.79   21.10
  -8   5  10  104.69   18.40
  -9  -4  10  185.08   30.30
  -3   9  10  482.75   49.80
  -9  -3  10  450.85   45.40
   9   3  10  457.85   34.70
   9   2  10  243.78   23.30
  -2   9  10  158.08   28.80
  -9  -2  10  209.88   30.60
  -9  -1  10    0.40   12.50
  -1   9  10   15.60   13.50
  -9  -1  10   21.60   13.30
   9   1  10   13.70    9.80
   9   0  10    4.00   10.70
  -9   0  10   11.00   12.00
  -9   0  10   16.20   12.20
   0   9  10    2.50   10.70
   1   9  10    8.10   11.20
  -1  -9  10   24.10   13.70
  -9   1  10    5.60   10.90
  -9   1  10    6.00   12.10
   2   9 -10  246.18   37.00
  -2  -9  10  229.58   31.20
   2   9  10  207.48   30.40
  -9   2  10  230.58   29.70
  -9   2  10  284.07   30.50
   3   9 -10  512.85   52.89
   3   9  10  465.05   46.50
  -3  -9  10  445.96   44.40
  -9   3  10  472.35   42.10
  -9   3  10  450.35   41.10
   4   9 -10  251.37   36.60
   4   9  10  136.89   26.70
  -9   4  10  205.28   27.20
  -4  -9  10  172.68   27.90
  -9   4  10  219.08   26.20
   0   0  11    2.40   10.10
   0   0  11    8.60    9.30
   0   1  11   45.40   13.10
   1   0  11   51.29   13.20
   0  -1  11   37.80   12.20
   1   0  11   43.00   13.20
  -1   0  11   44.00   13.40
   0  -1  11   25.80   12.40
  -1   0  11   32.90   13.30
   0   1  11   21.90   11.40
  -1  -1  11  448.76   39.90
   1  -1  11  435.96   38.30
   1  -1  11  430.66   38.20
  -1   1  11  505.75   40.80
   1   1  11  474.85   38.60
  -1   1  11  448.26   39.70
  -1  -1  11  489.15   39.90
   1   1  11  435.86   38.20
  -1   2  11   36.00   12.70
   1  -2  11   23.80   11.00
  -1   2  11   45.90   13.30
  -2  -1  11   15.10   10.60
   1  -2  11   22.30   10.80
  -2  -1  11   21.90   12.40
   2   1  11   27.00   10.70
   2   1  11   37.50   12.00
   0   2  11   22.60   10.80
  -2   0  11   22.50   13.00
   2   0  11   17.60   10.10
  -2   0  11    7.70   10.30
   0  -2  11   -4.40   10.00
   2   0  11   17.10   10.80
   0   2  11   15.70   10.10
   0  -2  11   27.00   11.60
  -1  -2  11   32.50   13.70
   2  -1  11   17.50   10.10
  -1  -2  11   35.10   11.90
   1   2  11   17.90   10.70
  -2   1  11    6.80   11.20
   1   2  11   24.30   10.70
  -2   1  11   29.90   12.40
  -2   2  11    5.70   10.20
  -2  -2  11    8.10   10.30
  -2  -2  11    7.90    9.50
  -2   2  11    7.40   10.30
   2   2  11    9.90    9.10
   2  -2  11   19.20   10.20
   2   2  11    5.30    8.80
  -3  -2  11  707.63   55.79
  -2   3  11  649.04   52.59
  -3  -2  11  694.33   54.89
   3   2  11  795.22   51.69
   3   2  11  757.32   52.59
   2  -3  11  629.34   52.59
  -2   3  11  618.84   51.59
  -3  -1  11   54.69   16.10
   1  -3  11   40.30   12.90
  -1   3  11   65.49   14.20
  -1   3  11   55.09   13.60
  -3  -1  11   76.49   17.40
   3   1  11   86.69   15.30
   0   3  11 1558.34  103.09
   3   0  11 1557.44  103.19
   0  -3  11 1521.95  103.79
   0  -3  11 1618.14  104.59
  -3   0  11 1544.15  105.79
   0   3  11 1508.65  101.99
  -3   0  11 1438.66  105.19
  -1  -3  11   49.00   13.50
   1   3  11   41.10   11.90
   1   3  11   53.09   13.30
   3  -1  11   81.89   15.90
  -3   1  11   41.40   14.70
  -3   1  11   54.79   15.10
  -1  -3  11   68.79   15.80
   3  -2  11  643.54   51.29
  -2  -3  11  746.03   54.39
  -2  -3  11  757.52   53.79
   2   3  11  658.13   50.29
  -3   2  11  579.94   51.59
  -3   2  11  656.83   52.39
  -3  -3  11  231.58   28.90
  -3  -3  11  271.87   32.10
  -3   3  11  219.98   27.70
  -3   3  11  252.57   29.00
   3  -3  11  257.47   29.30
   3   3  11  285.27   26.40
  -4  -3  11   12.90   14.20
   4   3  11   13.10    9.70
  -3   4  11   11.70    9.90
   3  -4  11   25.00   11.70
  -3   4  11   33.50   11.70
  -4  -3  11   33.00   14.00
  -4  -2  11  510.25   43.20
   2  -4  11  512.45   41.00
  -2   4  11  412.56   37.30
  -2   4  11  460.75   37.90
  -4  -2  11  400.66   41.20
   4   2  11  471.85   37.80
   4   1  11  100.99   16.30
   1  -4  11   87.89   16.80
  -4  -1  11   95.99   19.60
  -1   4  11   68.49   14.80
  -4  -1  11   66.99   17.20
   0  -4  11   10.90   11.30
  -4   0  11    9.70   12.20
   0   4  11   -2.60    7.30
   0  -4  11    4.00    9.90
   4   0  11    5.20    9.20
  -4   0  11   11.50   11.60
   4  -1  11   99.29   17.00
  -1  -4  11   94.89   16.90
  -4   1  11  138.79   21.40
   1   4  11   62.69   13.60
  -1  -4  11   94.99   17.90
  -4   1  11   86.99   19.80
   4  -2  11  478.75   39.80
  -4   2  11  407.36   39.50
  -4   2  11  448.26   40.20
  -2  -4  11  517.85   41.80
  -2  -4  11  493.35   40.30
   2   4  11  412.06   35.70
   4  -3  11   27.60   12.00
  -4   3  11   13.90   10.80
  -4   3  11   22.40   11.70
  -3  -4  11   33.40   15.40
  -3  -4  11    7.50   11.60
   3   4  11   32.80   10.30
  -4   4  11  938.01   67.69
   4  -4  11  916.41   70.49
  -4   4  11  999.60   68.49
  -4  -4  11 1016.60   74.09
   4   4  11  910.71   64.39
   5   4  11   15.50    7.90
  -4   5  11   11.80    9.20
  -4   5  11   27.60   16.60
  -5  -4  11   11.30   13.60
   5   3  11   52.49   11.80
  -5  -3  11   28.50   16.70
  -3   5  11   30.30   10.10
   3  -5  11   35.00   14.80
  -5  -3  11   73.59   19.00
   2  -5  11  115.39   20.40
  -5  -2  11  120.49   23.70
  -5  -2  11  115.29   21.60
  -2   5  11   73.49   13.70
   5   2  11  131.49   17.90
   5   1  11   33.10   11.20
   1  -5  11   24.50   12.00
  -5  -1  11   33.40   14.40
  -5  -1  11   20.10   15.30
  -1   5  11   28.90    9.50
   0  -5  11 2475.85  161.28
   0   5  11 2325.87  150.38
   0  -5  11 2565.64  157.28
   5   0  11 2288.97  153.98
  -5   0  11 2426.16  158.08
  -5   0  11 2265.17  157.58
   1   5  11   24.40    8.40
  -1  -5  11   37.70   14.00
   5  -1  11    0.30    9.20
  -5   1  11   28.50   13.30
  -5   1  11   24.10   14.10
  -5   2  11  123.19   21.20
   5  -2  11   94.09   18.00
  -2  -5  11  136.09   21.20
  -5   2  11  113.89   20.20
   2   5  11  103.29   13.10
  -5   3  11   35.30   13.40
  -3  -5  11   27.20   15.10
   3   5  11   18.30    6.70
   5  -3  11   35.30   14.10
  -5   3  11   35.60   13.30
  -5   4  11   17.50   11.10
   4   5  11   14.10    5.10
  -5   4  11   16.10   10.80
  -4  -5  11   13.10   12.90
  -5   5  11   40.80   11.60
  -5  -5  11   16.10   14.10
  -5   5  11   30.70   11.70
  -5   6  11  158.38   19.30
  -6  -5  11  137.99   27.10
   6   4  11   92.59   12.90
  -6  -4  11   96.19   21.90
  -4   6  11  121.99   15.70
  -3   6  11  211.88   21.60
   6   3  11  278.27   24.30
  -6  -3  11  201.58   30.20
  -6  -2  11   49.50   17.30
   6   2  11   52.89   12.50
  -2   6  11   44.90    9.20
  -6  -2  11   33.00   15.50
   6   1  11  154.78   20.90
  -6  -1  11  130.89   23.80
  -1   6  11  146.89   15.00
  -6  -1  11  147.89   24.80
   6   0  11   44.10   12.90
   0   6  11  100.09   10.20
  -6   0  11   72.19   17.40
  -6   0  11   45.70   17.20
   0  -6  11  119.49   20.70
  -6   1  11  168.78   25.70
  -1  -6  11  181.48   25.10
   1   6  11  161.48   12.80
  -6   1  11  183.98   27.00
   1   6  11  159.98   31.00
   6  -1  11  173.78   24.10
   6  -2  11   30.70   14.60
  -6   2  11   40.00   14.90
  -6   2  11   69.39   16.70
  -2  -6  11   67.19   17.80
   2   6  11   63.39   17.90
   3   6  11  283.97   35.00
  -3  -6  11  242.28   30.90
   6  -3  11  236.48   30.00
  -6   3  11  243.58   29.00
  -6   3  11  239.28   29.40
  -6   4  11  110.69   18.80
  -4  -6  11   97.49   23.20
  -6   4  11  131.49   20.40
   4   6  11  112.09   24.10
  -6   5  11  131.69   19.20
  -5  -6  11  124.99   23.70
   5   6  11   94.09   25.80
  -6   5  11  139.69   20.90
  -6  -6  11   31.70   17.80
  -6   6  11   35.50   11.30
  -7  -5  11   59.89   20.30
  -5   7  11   34.30    9.20
  -4   7  11   10.80    6.50
  -7  -4  11   -6.80   13.30
   7   4  11   12.60    6.00
  -3   7  11   17.90    6.00
   7   3  11   17.40    8.70
  -7  -3  11    0.60   14.90
  -2   7  11   23.40    5.10
   7   2  11   23.40    9.90
  -7  -2  11   17.80   14.50
  -7  -2  11   21.00   16.60
  -7  -1  11  682.23   60.89
  -7  -1  11  760.52   62.09
   7   1  11  816.12   57.19
  -7   0  11    8.80   14.40
   7   0  11   32.40   11.80
  -7   0  11   58.49   17.60
   0   7  11   59.39   18.40
   0  -7  11   62.99   17.10
  -1  -7  11  881.61   64.29
  -7   1  11  757.32   63.89
   1   7  11  915.61   70.29
   7  -1  11  814.12   62.49
  -7   1  11  773.72   63.69
  -7   2  11   21.80   13.00
  -2  -7  11   38.00   14.60
   7  -2  11   18.50   12.70
   2   7  11   29.30   14.40
  -7   2  11    8.90   12.90
   3   7  11   26.60   14.90
  -3  -7  11   17.70   14.70
  -7   3  11   16.60   11.50
  -7   3  11   37.90   14.70
   4   7  11   14.30   15.50
  -7   4  11   23.90   12.80
  -7   4  11   10.80   11.00
  -4  -7  11   23.20   14.20
   5   7  11   42.90   20.80
  -7   5  11   61.69   15.90
  -5  -7  11   25.10   16.60
  -7   5  11   73.49   15.50
   8   3  11 1026.90   66.69
  -8  -3  11  897.01   76.69
  -8  -2  11   81.09   21.80
   8   2  11   91.29   15.10
  -8  -1  11   64.19   19.50
   8   1  11   36.50   12.00
  -8  -1  11   39.20   17.40
  -1   8  11   40.50   21.10
  -8   0  11   26.20   14.40
   8   0  11   17.00   11.00
   0  -8  11   48.10   15.30
  -8   0  11   38.10   16.00
   0   8  11   41.90   16.00
  -8   1  11   23.90   13.30
   1   8  11   50.79   16.40
   8  -1  11   41.10   14.50
  -8   1  11   11.00   13.30
  -1  -8  11   78.09   18.20
   2   8  11   81.79   20.60
  -2  -8  11   78.59   19.30
  -8   2  11   95.89   20.10
  -8   2  11  102.19   19.80
   8  -2  11   68.29   18.10
  -3  -8  11 1075.29   78.79
  -8   3  11  946.21   75.29
   3   8  11 1129.29   83.09
  -8   3  11  978.30   75.79
   0   0  12 2082.19  132.99
   0   0  12 1949.60  132.69
   0  -1  12   -0.50    8.70
   1   0  12   11.00   10.30
   1   0  12   -6.30    8.40
  -1   0  12   16.10   12.20
  -1   0  12    8.30   10.70
   0  -1  12    1.70    9.10
   0   1  12    6.50   10.00
   0   1  12    1.80   10.30
  -1   1  12  409.96   36.40
   1  -1  12  375.16   34.80
  -1  -1  12  385.66   35.80
   1   1  12  341.07   34.10
   1   1  12  427.76   36.00
  -1  -1  12  428.36   37.50
   1  -1  12  354.96   34.50
  -2  -1  12  591.34   48.00
   2   1  12  539.25   45.40
   1  -2  12  556.24   46.20
  -1   2  12  543.45   46.30
   1  -2  12  525.35   45.80
   2   1  12  623.54   45.40
  -2  -1  12  617.44   49.30
  -1   2  12  576.84   47.10
   0  -2  12  253.97   30.10
   0  -2  12  274.97   28.90
   2   0  12  295.17   28.20
   0   2  12  294.47   28.70
   2   0  12  267.97   27.80
  -2   0  12  304.87   33.10
  -2   0  12  276.57   31.40
   0   2  12  260.17   30.00
   1   2  12  625.04   44.90
  -1  -2  12  482.55   44.10
   2  -1  12  555.14   44.80
   2  -1  12  563.94   44.60
  -2   1  12  511.25   45.70
  -1  -2  12  507.85   45.40
   1   2  12  520.75   44.40
  -2   1  12  591.94   46.70
   2   2  12 1293.17   94.49
  -2   2  12 1255.97   95.79
  -2   2  12 1323.67   95.69
  -2  -2  12 1647.64   98.69
   2  -2  12 1326.67   95.29
   2   2  12 1538.45   94.49
  -2  -2  12 1408.76   97.99
   3   2  12   19.10   10.20
  -2   3  12   27.50   12.30
  -3  -2  12   -4.90   10.30
  -2   3  12   31.00   12.60
  -3  -2  12   19.20   12.50
   2  -3  12   19.00   10.70
   3   1  12  153.68   20.40
  -1   3  12  145.29   21.30
  -3  -1  12  167.48   24.70
  -3  -1  12  159.38   23.80
   1  -3  12  144.29   21.90
  -1   3  12  105.89   19.50
   3   1  12  165.18   21.20
   1  -3  12  139.49   21.70
   0   3  12   22.30   11.60
   0  -3  12   24.70   11.60
  -3   0  12   24.40   13.90
   3   0  12   26.20   11.10
  -3   0  12   13.20   11.90
   0  -3  12   42.40   14.40
  -3   1  12  120.19   22.50
  -1  -3  12  170.18   24.60
   1   3  12  146.89   20.90
  -1  -3  12  175.38   23.80
  -3   1  12  150.98   24.00
   3  -1  12  160.58   22.20
  -2  -3  12   24.30   12.00
   3  -2  12   22.40   11.10
  -2  -3  12   27.20   13.70
   2   3  12   28.60   11.80
  -3   2  12   10.70   11.90
  -3   2  12   -0.90   10.70
   3   3  12  878.01   61.69
   3  -3  12  769.42   62.49
  -3  -3  12  877.41   65.89
  -3   3  12  772.32   63.39
  -3   3  12  821.22   63.19
  -3  -3  12  984.50   66.29
   4   3  12  161.98   20.60
  -3   4  12  135.09   21.50
   3  -4  12  159.48   24.10
  -4  -3  12  176.78   26.60
  -3   4  12  176.68   26.10
  -4  -3  12  178.68   27.80
  -2   4  12   43.70   12.90
  -4  -2  12   39.90   16.50
   4   2  12   33.20   11.40
   2  -4  12   25.60   12.00
  -4  -2  12   33.30   14.80
   4   1  12  129.69   19.20
   1  -4  12  187.68   24.90
  -1   4  12  122.49   19.50
  -4  -1  12  158.48   25.10
   1  -4  12  160.78   24.60
  -4  -1  12  174.18   27.00
   0  -4  12   -1.40    8.70
   0  -4  12   -7.80    8.90
  -4   0  12   17.90   14.40
   0   4  12   20.50   10.60
   4   0  12   31.90   11.90
  -4   0  12   15.90   13.50
  -4   1  12  144.29   23.80
  -1  -4  12  153.48   22.10
  -4   1  12  124.29   22.60
  -1  -4  12  181.08   24.30
   4  -1  12  130.49   20.50
   1   4  12  132.09   19.20
  -4   2  12   48.80   15.00
   4  -2  12   41.70   13.40
  -4   2  12   36.70   14.90
  -2  -4  12   47.20   13.70
  -2  -4  12   18.00   12.80
   2   4  12   30.00   10.50
  -3  -4  12  144.39   23.90
   4  -3  12  164.78   23.30
   3   4  12  139.69   18.50
  -4   3  12  175.08   24.50
  -4   3  12  189.48   25.00
   4   4  12   74.09   13.20
  -4  -4  12   92.89   21.80
  -4   4  12   75.39   16.70
   4  -4  12  100.79   19.40
  -4   4  12   66.99   15.90
   4  -5  12  341.47   37.70
  -5  -4  12  362.96   40.60
  -4   5  12  261.47   29.10
   5   4  12  305.57   26.30
  -5  -3  12  393.46   44.10
  -5  -3  12  325.67   39.40
   5   3  12  330.87   29.20
   3  -5  12  336.37   33.70
  -3   5  12  247.88   28.50
  -5  -2  12  146.49   25.80
   5   2  12  149.99   19.30
  -5  -2  12  164.38   27.30
   2  -5  12  158.88   23.70
  -2   5  12  102.59   17.10
  -5  -1  12  274.57   34.90
  -5  -1  12  240.28   32.60
   5   1  12  255.07   26.80
   1  -5  12  252.37   29.70
  -1   5  12  244.18   24.80
   0  -5  12   -1.80   11.10
   5   0  12   14.60   10.50
   0   5  12   24.00    9.20
  -5   0  12    9.90   12.60
  -5   0  12    9.90   13.00
   5  -1  12  291.87   28.30
  -5   1  12  219.58   30.10
   1   5  12  190.28   21.60
  -5   1  12  250.07   32.00
  -1  -5  12  221.78   28.30
  -5   2  12  104.89   21.60
   5  -2  12  141.29   21.10
  -2  -5  12  152.28   23.30
  -5   2  12  116.09   22.50
   2   5  12  108.29   14.30
  -5   3  12  298.07   33.90
   5  -3  12  300.17   34.70
  -5   3  12  306.17   34.90
   3   5  12  289.27   24.00
  -3  -5  12  365.66   35.10
  -5   4  12  330.77   31.70
   5  -4  12  356.06   34.10
   4   5  12  257.47   20.80
  -5   4  12  279.57   32.10
  -4  -5  12  275.77   34.80
  -5   5  12 1274.97   90.89
  -5  -5  12 1397.26   97.79
   5  -5  12 1336.67   96.19
   6   4  12  198.18   19.30
  -6  -4  12  285.77   36.30
  -4   6  12  205.28   23.00
  -6  -3  12  272.87   36.30
   6   3  12  273.57   25.10
  -3   6  12  209.98   22.70
  -2   6  12  137.09   16.70
  -6  -2  12  158.18   28.20
   6   2  12  148.49   19.50
  -6  -2  12  229.48   31.40
  -6  -1  12  153.28   26.70
  -6  -1  12  197.88   29.50
  -1   6  12  192.18   18.10
   6   1  12  177.18   23.00
   0  -6  12  546.45   45.60
  -6   0  12  562.34   49.20
   6   0  12  569.84   43.80
  -6   0  12  541.45   47.90
   0   6  12  448.96   35.10
  -6   1  12  203.78   29.20
   6  -1  12  205.48   25.40
   1   6  12  181.08   14.40
  -6   1  12  155.38   26.90
  -1  -6  12  174.58   25.30
   6  -2  12  180.98   25.20
  -2  -6  12  154.28   25.10
  -6   2  12  173.18   25.90
  -6   2  12  147.99   25.20
  -3  -6  12  241.98   32.10
  -6   3  12  279.97   32.00
   6  -3  12  226.78   30.40
  -6   3  12  258.27   31.50
   6  -4  12  151.88   25.40
  -6   4  12  206.88   27.40
  -4  -6  12  239.78   31.70
  -6   4  12  189.98   26.00
  -7  -2  12  111.59   25.20
  -2   7  12  133.19   11.80
   7   2  12  162.78   19.70
  -7  -2  12  118.39   24.80
  -7  -1  12   25.50   16.20
   7   1  12   59.39   13.50
  -7  -1  12   58.19   20.30
   0  -7  12   23.00   13.70
  -7   0  12   27.20   16.50
  -7   0  12   11.40   13.30
   7   0  12   12.70   11.00
   7  -1  12   81.39   17.20
  -7   1  12   61.69   19.00
  -1  -7  12   77.79   19.70
  -7   1  12   67.99   19.40
  -2  -7  12  147.99   23.40
  -7   2  12  138.49   24.90
  -7   2  12  124.39   23.00
   7  -2  12  156.58   23.50
   0   0  13    1.40    9.90
   0   0  13    4.60   10.70
   0  -1  13    6.50   11.30
  -1   0  13   22.70   12.40
   0   1  13    2.10   10.60
  -1   0  13   23.00   12.50
   1   0  13    0.90    9.90
   0  -1  13   -2.40    8.90
   1   0  13   -7.60    8.60
   0   1  13   15.80   11.30
   1   1  13  716.83   55.09
  -1   1  13  735.63   56.99
   1  -1  13  713.83   55.49
  -1  -1  13  740.23   56.59
  -1   1  13  729.03   56.79
   1   1  13  740.53   56.19
  -1  -1  13  745.63   57.09
   1  -1  13  637.94   54.19
   2   1  13   53.99   14.10
   1  -2  13   52.69   14.40
  -1   2  13   61.69   16.30
  -2  -1  13   81.99   19.30
  -1   2  13   59.99   16.10
  -2  -1  13   70.19   17.60
   1  -2  13   75.79   17.00
   2   1  13   63.39   14.90
   0  -2  13   43.00   13.50
   0  -2  13   24.20   12.50
   0   2  13   18.30   12.10
   2   0  13   12.60   10.50
   0   2  13   56.39   14.70
  -2   0  13   24.70   13.40
  -2   0  13    6.90   12.70
   2   0  13   20.40   11.30
  -1  -2  13   47.00   16.20
   2  -1  13   95.29   17.30
  -2   1  13   96.39   19.10
  -1  -2  13   65.09   16.10
   1   2  13   53.89   14.90
  -2   1  13   82.79   18.80
   2  -1  13   78.39   16.70
   2   2  13   87.59   17.10
   2  -2  13   85.19   16.50
  -2  -2  13   62.89   16.80
  -2   2  13   75.39   17.60
   2  -2  13   75.19   17.60
  -2   2  13   76.89   18.00
  -2  -2  13   97.79   19.00
  -3  -2  13   36.30   16.30
   2  -3  13   14.90   12.60
  -2   3  13    9.30   19.80
   2  -3  13   13.90   10.90
   3   2  13    8.40    9.80
  -3  -2  13    1.20   10.70
  -2   3  13   22.40   12.50
   3   1  13    5.60    9.20
   3   1  13   10.40   10.30
  -3  -1  13    0.50   11.90
   1  -3  13    4.30   10.20
  -3  -1  13   -8.40   12.20
   1  -3  13   11.10   11.30
  -1   3  13  -11.20   10.00
   3   0  13  640.74   50.09
  -3   0  13  652.43   54.29
   0   3  13  622.84   50.89
   3   0  13  652.13   51.09
   0  -3  13  674.93   52.19
   0  -3  13  621.64   52.19
  -3   0  13  661.33   54.49
  -3   1  13    2.40   11.90
  -3   1  13    4.30   11.20
   3  -1  13   14.50   11.70
   1   3  13   -2.60    8.60
  -1  -3  13    0.20   10.20
  -1  -3  13   19.10   12.80
   3  -1  13   17.30   10.50
  -2  -3  13   11.80   11.30
   2   3  13   16.50   10.70
   3  -2  13   14.10   10.80
  -3   2  13   19.30   13.30
  -3   2  13   21.30   13.50
  -2  -3  13   -8.60   11.60
  -3   3  13   -0.50   11.80
  -3  -3  13    7.60   11.80
  -3   3  13    9.20   12.20
  -3  -3  13    5.50   13.50
   3   3  13    0.30    9.30
   3  -3  13   -2.70    9.40
   4   3  13   18.70   10.20
  -4  -3  13   23.70   16.10
  -3   4  13   16.90   11.60
   3  -4  13   54.89   15.30
  -4  -3  13   44.80   16.20
  -4  -2  13   95.49   20.40
   4   2  13   72.79   14.80
  -4  -2  13   97.19   21.40
   2  -4  13   57.99   15.30
  -2   4  13   47.50   14.10
  -1   4  13  124.59   19.80
  -4  -1  13  103.19   21.40
   1  -4  13  140.29   21.70
  -4  -1  13  108.19   21.70
   4   1  13  138.79   19.90
   1  -4  13   90.79   18.50
   0  -4  13    4.60   11.70
   0   4  13   -3.30    9.50
  -4   0  13    3.70   13.30
   0  -4  13   18.60   11.20
  -4   0  13    8.60   13.10
   4   0  13    1.10    9.30
  -1  -4  13  120.39   20.50
  -4   1  13  115.79   22.80
   1   4  13  119.99   18.00
  -1  -4  13  137.49   22.10
   4  -1  13  108.69   19.30
  -4   1  13  149.79   23.70
  -4   2  13   95.79   20.40
   4  -2  13   61.69   16.00
  -2  -4  13   61.19   17.90
  -4   2  13   64.99   18.60
   2   4  13   84.09   15.00
   3   4  13   18.80   10.00
  -4   3  13   24.00   14.60
   4  -3  13   34.20   13.40
  -3  -4  13   48.40   16.60
  -4   3  13   29.00   13.90
   4  -4  13 1255.47   93.19
  -4  -4  13 1389.76   96.79
   2  -5  13    3.40   12.20
  -5  -2  13   11.80   15.30
  -5  -2  13   33.30   15.50
  -2   5  13   19.30   10.10
   5   2  13   33.00   11.60
  -5  -1  13   46.40   18.30
   1  -5  13   37.60   14.60
  -5  -1  13   39.40   16.10
  -1   5  13   35.00   11.30
   5   1  13   36.60   12.40
  -5   0  13   27.50   14.70
   0  -5  13   40.30   14.40
   0   5  13   29.00   10.40
   5   0  13   52.39   14.30
  -5   0  13   47.50   16.60
  -5   1  13   26.30   16.30
  -5   1  13   53.99   17.20
  -1  -5  13   46.30   15.10
   1   5  13   31.50    9.90
   5  -1  13   52.69   14.60
  -5   2  13   27.90   15.50
  -5   2  13   41.60   16.50
   5  -2  13   30.40   12.50
   2   5  13   43.30    9.80
  -2  -5  13   25.00   14.50
   0   0  14   16.90   11.50
   0   0  14   19.00   12.00
  -1   0  14   20.30   13.50
   0   1  14  -11.10    9.70
   0  -1  14    4.90   10.40
  -1   0  14   -0.80    9.90
   0   1  14   16.40   11.90
   1   0  14    3.20   10.60
   1   0  14    5.60   10.40
   0  -1  14   10.00   11.60
   1   1  14   13.60   11.20
  -1   1  14   11.20   12.60
  -1  -1  14    4.00   10.60
   1  -1  14    2.60   10.00
   1  -1  14   14.50   11.30
  -1   1  14   -6.30   11.30
  -1  -1  14    8.40   11.70
   1   1  14    2.80   10.70
   2   1  14   61.49   15.10
   1  -2  14   39.10   13.90
   1  -2  14   43.70   14.80
  -2  -1  14   43.00   15.40
  -2  -1  14   46.30   15.10
  -1   2  14   61.79   16.40
   0   2  14   46.90   14.90
   2   0  14   27.50   12.90
   2   0  14   37.60   13.30
   0  -2  14   33.40   13.00
  -2   0  14   25.20   14.50
  -2   0  14    4.40   12.20
   0  -2  14   40.80   14.90
  -2   1  14   38.50   16.00
  -2   1  14   43.20   16.20
  -1  -2  14   60.09   17.20
  -1  -2  14   87.79   18.20
   1   2  14   55.99   15.60
   2  -1  14   87.59   17.30
   2  -1  14   86.39   17.10
   0   0   0    0.00    0.00

_computing_structure_solution     'SHELXT 2014/5 (Sheldrick, 2014)'
;
_shelx_hkl_checksum              25061
_olex2_submission_special_instructions 'No special instructions were received'
loop_
_space_group_symop_operation_xyz
'x, y, z'
'-x, -y, z'
'-y+1/2, x+1/2, z+1/2'
'y+1/2, -x+1/2, z+1/2'
'-x+1/2, y+1/2, -z+1/2'
'x+1/2, -y+1/2, -z+1/2'
'y, x, -z'
'-y, -x, -z'
'-x, -y, -z'
'x, y, -z'
'y-1/2, -x-1/2, -z-1/2'
'-y-1/2, x-1/2, -z-1/2'
'x-1/2, -y-1/2, z-1/2'
'-x-1/2, y-1/2, z-1/2'
'-y, -x, z'
'y, x, z'
loop_
_atom_site_label
_atom_site_type_symbol
_atom_site_fract_x
_atom_site_fract_y
_atom_site_fract_z
_atom_site_U_iso_or_equiv
_atom_site_adp_type
_atom_site_occupancy
_atom_site_site_symmetry_order
_atom_site_calc_flag
_atom_site_refinement_flags_posn
_atom_site_refinement_flags_adp
_atom_site_refinement_flags_occupancy
Ir1 Ir 0.31234(7) 0.68766(7) 0.26020(10) 0.0039(3) Uani 1 2 d S T P
In2 In 0.5000 0.5000 0.1654(3) 0.0091(6) Uani 1 4 d S T P
In1 In 0.4039(2) 0.5961(2) 0.5000 0.0083(6) Uani 1 4 d S T P
In3 In 0.05221(14) 0.70110(15) 0.19528(16) 0.0109(4) Uani 1 1 d . . .
In4 In 0.3161(2) 0.6839(2) 0.0000 0.0151(7) Uani 1 4 d S T P
S1 S 0.0000 0.5000 0.0000 0.051(6) Uani 1 4 d S T P
In5 In 0.1779(4) 0.7796(4) 0.5000 0.0101(11) Uani 0.5 2 d S T P
loop_
_atom_site_aniso_label
_atom_site_aniso_U_11
_atom_site_aniso_U_22
_atom_site_aniso_U_33
_atom_site_aniso_U_23
_atom_site_aniso_U_13
_atom_site_aniso_U_12
Ir1 0.0041(3) 0.0041(3) 0.0036(5) 0.0005(2) -0.0005(2) -0.0001(3)
In2 0.0097(8) 0.0097(8) 0.0079(12) 0.000 0.000 0.0034(10)
In1 0.0104(8) 0.0104(8) 0.0040(12) 0.000 0.000 0.0050(10)
In3 0.0038(6) 0.0108(7) 0.0183(8) 0.0025(6) -0.0005(5) 0.0025(5)
In4 0.0207(10) 0.0207(10) 0.0039(12) 0.000 0.000 0.0078(13)
S1 0.13(2) 0.017(7) 0.008(6) 0.000 0.000 -0.007(9)
In5 0.014(2) 0.012(2) 0.0044(14) 0.000 0.000 0.0081(19)
loop_
_atom_type_symbol
_atom_type_description
_atom_type_scat_dispersion_real
_atom_type_scat_dispersion_imag
_atom_type_scat_source
In In -0.7276 1.3100 'International Tables Vol C Tables 4.2.6.8 and 6.1.1.4'
Ir Ir -1.4442 7.9887 'International Tables Vol C Tables 4.2.6.8 and 6.1.1.4'
S S 0.1246 0.1234 'International Tables Vol C Tables 4.2.6.8 and 6.1.1.4'
loop_
_geom_angle_atom_site_label_1
_geom_angle_atom_site_label_2
_geom_angle_atom_site_label_3
_geom_angle
_geom_angle_site_symmetry_1
_geom_angle_site_symmetry_3
In2 Ir1 In5 142.82(10) . 15_665
In2 Ir1 In5 142.82(10) . .
In1 Ir1 In2 82.16(8) . .
In1 Ir1 In5 61.23(9) . .
In1 Ir1 In5 61.23(9) . 15_665
In3 Ir1 In2 74.90(4) 6_565 .
In3 Ir1 In2 74.90(4) 11_566 .
In3 Ir1 In2 126.28(6) 15_665 .
In3 Ir1 In2 126.28(6) . .
In3 Ir1 In1 123.67(6) 15_665 .
In3 Ir1 In1 72.05(4) 11_566 .
In3 Ir1 In1 123.67(6) . .
In3 Ir1 In1 72.05(4) 6_565 .
In3 Ir1 In3 71.65(7) 6_565 15_665
In3 Ir1 In3 152.42(4) 6_565 .
In3 Ir1 In3 71.65(7) 11_566 .
In3 Ir1 In3 152.42(4) 11_566 15_665
In3 Ir1 In3 135.46(8) 6_565 11_566
In3 Ir1 In3 80.93(7) . 15_665
In3 Ir1 In5 87.07(9) 6_565 15_665
In3 Ir1 In5 83.10(9) 15_665 .
In3 Ir1 In5 75.34(8) . .
In3 Ir1 In5 97.95(9) 6_565 .
In3 Ir1 In5 97.95(9) 11_566 15_665
In3 Ir1 In5 87.07(9) 11_566 .
In3 Ir1 In5 83.10(9) . 15_665
In3 Ir1 In5 75.34(8) 15_665 15_665
In4 Ir1 In2 68.81(10) . .
In4 Ir1 In1 150.96(10) . .
In4 Ir1 In3 99.35(5) . 6_565
In4 Ir1 In3 76.59(7) . 15_665
In4 Ir1 In3 99.35(5) . 11_566
In4 Ir1 In3 76.59(7) . .
In4 Ir1 In5 147.50(11) . .
In4 Ir1 In5 147.50(11) . 15_665
In5 Ir1 In5 11.75(16) 15_665 .
Ir1 In2 Ir1 139.93(13) . 2_665
Ir1 In2 In3 110.10(7) 2_665 6_565
Ir1 In2 In3 50.62(3) 2_665 5_545
Ir1 In2 In3 110.10(7) 2_665 11_566
Ir1 In2 In3 110.10(7) . 12_766
Ir1 In2 In3 50.62(3) . 11_566
Ir1 In2 In3 50.62(3) 2_665 12_766
Ir1 In2 In3 110.10(7) . 5_545
Ir1 In2 In3 50.62(3) . 6_565
Ir1 In2 In4 53.03(4) . .
Ir1 In2 In4 53.03(4) 2_665 9_665
Ir1 In2 In4 167.04(11) . 9_665
Ir1 In2 In4 167.04(11) 2_665 .
Ir1 In2 In5 95.14(7) . 13_675
Ir1 In2 In5 95.14(7) 2_665 5_545
Ir1 In2 In5 105.14(7) 2_665 11_566
Ir1 In2 In5 105.14(7) 2_665 13_675
Ir1 In2 In5 105.14(7) . 3_654
Ir1 In2 In5 105.14(7) . 5_545
Ir1 In2 In5 95.14(7) . 11_566
Ir1 In2 In5 95.14(7) 2_665 3_654
In3 In2 In3 95.61(7) 12_766 5_545
In3 In2 In3 129.77(11) 6_565 5_545
In3 In2 In3 129.77(11) 12_766 11_566
In3 In2 In3 95.61(7) 6_565 11_566
In3 In2 In3 62.74(6) 6_565 12_766
In3 In2 In3 62.74(6) 5_545 11_566
In4 In2 In3 131.89(3) 9_665 6_565
In4 In2 In3 78.14(4) 9_665 5_545
In4 In2 In3 78.14(4) . 6_565
In4 In2 In3 131.89(3) 9_665 11_566
In4 In2 In3 78.14(4) . 11_566
In4 In2 In3 131.89(3) . 5_545
In4 In2 In3 131.89(3) . 12_766
In4 In2 In3 78.14(4) 9_665 12_766
In4 In2 In4 114.01(12) . 9_665
In4 In2 In5 78.33(8) . 3_654
In4 In2 In5 78.33(8) 9_665 11_566
In4 In2 In5 78.33(8) . 5_545
In4 In2 In5 69.18(8) 9_665 3_654
In4 In2 In5 69.18(8) . 13_675
In4 In2 In5 69.18(8) 9_665 5_545
In4 In2 In5 69.18(8) . 11_566
In4 In2 In5 78.33(8) 9_665 13_675
In5 In2 In3 68.41(6) 13_675 12_766
In5 In2 In3 143.38(8) 11_566 6_565
In5 In2 In3 68.41(6) 11_566 5_545
In5 In2 In3 153.85(8) 5_545 6_565
In5 In2 In3 68.41(6) 5_545 11_566
In5 In2 In3 153.85(8) 11_566 12_766
In5 In2 In3 143.38(8) 5_545 12_766
In5 In2 In3 68.41(6) 3_654 6_565
In5 In2 In3 62.42(5) 11_566 11_566
In5 In2 In3 62.42(5) 13_675 6_565
In5 In2 In3 153.85(8) 3_654 11_566
In5 In2 In3 143.38(8) 13_675 11_566
In5 In2 In3 62.42(5) 3_654 12_766
In5 In2 In3 153.85(8) 13_675 5_545
In5 In2 In3 143.38(8) 3_654 5_545
In5 In2 In3 62.42(5) 5_545 5_545
In5 In2 In5 118.41(12) 5_545 13_675
In5 In2 In5 117.33(12) 11_566 13_675
In5 In2 In5 118.41(12) 11_566 3_654
In5 In2 In5 10.48(14) 3_654 13_675
In5 In2 In5 10.48(14) 11_566 5_545
In5 In2 In5 117.33(12) 5_545 3_654
Ir1 In1 Ir1 124.24(12) 10_556 .
Ir1 In1 In3 119.55(6) . 13_676
Ir1 In1 In3 119.55(7) . 4_455
Ir1 In1 In3 119.55(7) 10_556 11_566
Ir1 In1 In3 52.73(3) 10_556 4_455
Ir1 In1 In3 52.73(3) . 6_565
Ir1 In1 In3 119.55(7) 10_556 6_565
Ir1 In1 In3 52.73(3) 10_556 13_676
Ir1 In1 In3 52.73(3) . 11_566
Ir1 In1 In5 62.28(6) . .
Ir1 In1 In5 62.28(6) 10_556 .
Ir1 In1 In5 62.28(6) 10_556 15_665
Ir1 In1 In5 62.28(6) . 15_665
In1 In1 Ir1 117.88(6) 9_666 10_556
In1 In1 Ir1 117.88(6) 9_666 .
In1 In1 In3 96.90(6) 9_666 13_676
In1 In1 In3 96.90(6) 9_666 6_565
In1 In1 In3 96.90(6) 9_666 4_455
In1 In1 In3 96.90(6) 9_666 11_566
In1 In1 In5 174.06(8) 9_666 .
In1 In1 In5 174.06(8) 9_666 15_665
In3 In1 In3 76.86(6) 13_676 6_565
In3 In1 In3 101.45(6) 11_566 6_565
In3 In1 In3 166.20(12) 11_566 13_676
In3 In1 In3 166.20(12) 4_455 6_565
In3 In1 In3 76.86(6) 11_566 4_455
In3 In1 In3 101.45(6) 13_676 4_455
In5 In1 In3 87.74(9) 15_665 11_566
In5 In1 In3 78.49(8) . 4_455
In5 In1 In3 78.49(8) . 11_566
In5 In1 In3 78.49(8) 15_665 13_676
In5 In1 In3 87.74(9) . 13_676
In5 In1 In3 87.74(9) . 6_565
In5 In1 In3 87.74(9) 15_665 4_455
In5 In1 In3 78.49(8) 15_665 6_565
In5 In1 In5 11.87(16) 15_665 .
Ir1 In3 Ir1 147.60(7) 12_666 .
Ir1 In3 In2 95.21(5) . 11_576
Ir1 In3 In2 54.48(4) 12_666 11_576
Ir1 In3 In1 129.23(8) . 3_554
Ir1 In3 In1 55.22(4) 12_666 3_554
Ir1 In3 In3 131.96(7) . 12_666
Ir1 In3 In3 54.10(5) . 11_566
Ir1 In3 In3 54.25(6) 12_666 12_666
Ir1 In3 In3 134.22(7) 12_666 11_566
Ir1 In3 In4 146.72(8) 12_666 .
Ir1 In3 In4 51.28(4) . .
Ir1 In3 S1 104.17(5) 12_666 .
Ir1 In3 S1 108.13(5) . .
In1 In3 In2 68.14(6) 3_554 11_576
In1 In3 In4 91.57(7) 3_554 .
In3 In3 In2 98.40(7) 12_666 11_576
In3 In3 In2 129.92(9) 11_566 11_576
In3 In3 In1 98.49(8) 12_666 3_554
In3 In3 In1 161.71(9) 11_566 3_554
In3 In3 In3 82.75(4) 11_566 12_666
In3 In3 In4 146.24(7) 12_666 .
In3 In3 In4 78.14(7) 11_566 .
In4 In3 In2 115.22(6) . 11_576
S1 In3 In2 152.69(6) . 11_576
S1 In3 In1 85.84(5) . 3_554
S1 In3 In3 76.65(4) . 11_566
S1 In3 In3 76.65(4) . 12_666
S1 In3 In4 72.03(4) . .
Ir1 In4 Ir1 177.68(16) . 10
Ir1 In4 In2 58.16(7) 10 9_665
Ir1 In4 In2 58.16(7) . .
Ir1 In4 In2 124.15(12) . 9_665
Ir1 In4 In2 124.15(12) 10 .
Ir1 In4 In3 52.13(4) . .
Ir1 In4 In3 126.13(9) . 10
Ir1 In4 In3 126.13(9) . 8_665
Ir1 In4 In3 126.13(9) 10 .
Ir1 In4 In3 52.13(4) 10 10
Ir1 In4 In3 52.13(4) . 15_665
Ir1 In4 In3 52.13(4) 10 8_665
Ir1 In4 In3 126.13(9) 10 15_665
In2 In4 In2 65.99(12) 9_665 .
In2 In4 In3 100.12(5) . .
In2 In4 In3 100.12(5) 9_665 8_665
In2 In4 In3 146.23(6) 9_665 15_665
In2 In4 In3 146.23(6) . 8_665
In2 In4 In3 146.23(6) 9_665 .
In2 In4 In3 146.23(6) . 10
In2 In4 In3 100.12(5) . 15_665
In2 In4 In3 100.12(5) 9_665 10
In3 In4 In3 63.56(7) . 15_665
In3 In4 In3 74.01(8) 15_665 8_665
In3 In4 In3 106.22(11) . 8_665
In3 In4 In3 74.01(8) . 10
In3 In4 In3 106.22(11) 15_665 10
In3 In4 In3 63.56(7) 10 8_665
In3 S1 In3 180.0 . 9_565
In3 S1 In3 87.63(6) 9_565 2_565
In3 S1 In3 92.37(6) . 2_565
In3 S1 In3 87.63(6) . 10
In3 S1 In3 92.37(6) 9_565 10
In3 S1 In3 180.00(4) 10 2_565
Ir1 In5 Ir1 112.72(14) 10_556 .
Ir1 In5 In2 91.69(6) 10_556 3
Ir1 In5 In2 151.87(12) . 3
Ir1 In5 In2 151.87(12) 10_556 11_576
Ir1 In5 In2 91.69(6) . 11_576
In2 In5 In2 61.59(12) 3 11_576
In1 In5 Ir1 56.49(7) . 10_556
In1 In5 Ir1 56.49(7) . .
In1 In5 In2 147.15(7) . 11_576
In1 In5 In2 147.15(7) . 3
In5 In5 Ir1 84.12(8) 15_665 .
In5 In5 Ir1 84.12(8) 15_665 10_556
In5 In5 In2 84.77(7) 15_665 3
In5 In5 In2 84.77(7) 15_665 11_576
In5 In5 In1 84.06(8) 15_665 .
loop_
_geom_bond_atom_site_label_1
_geom_bond_atom_site_label_2
_geom_bond_distance
_geom_bond_site_symmetry_2
Ir1 In2 2.7949(15) .
Ir1 In1 2.7397(17) .
Ir1 In3 2.6543(15) 6_565
Ir1 In3 2.6543(15) 11_566
Ir1 In3 2.6592(17) .
Ir1 In3 2.6592(17) 15_665
Ir1 In4 2.6283(11) .
Ir1 In5 2.909(2) .
Ir1 In5 2.909(2) 15_665
In2 Ir1 2.7949(15) 2_665
In2 In3 3.315(2) 12_766
In2 In3 3.315(2) 6_565
In2 In3 3.315(2) 11_566
In2 In3 3.315(2) 5_545
In2 In4 3.067(3) 9_665
In2 In4 3.067(3) .
In2 In5 3.262(4) 11_566
In2 In5 3.262(4) 3_654
In2 In5 3.262(4) 13_675
In2 In5 3.262(4) 5_545
In1 Ir1 2.7397(17) 10_556
In1 In1 2.689(6) 9_666
In1 In3 3.1730(16) 13_676
In1 In3 3.1730(16) 4_455
In1 In3 3.1730(16) 6_565
In1 In3 3.1730(16) 11_566
In1 In5 2.880(5) 15_665
In1 In5 2.880(5) .
In3 Ir1 2.6543(15) 12_666
In3 In2 3.315(2) 11_576
In3 In1 3.1730(16) 3_554
In3 In3 3.110(2) 11_566
In3 In3 3.110(2) 12_666
In3 In4 3.277(3) .
In3 S1 2.8487(16) .
In4 Ir1 2.6283(11) 10
In4 In2 3.067(3) 9_665
In4 In3 3.277(3) 10
In4 In3 3.277(3) 8_665
In4 In3 3.277(3) 15_665
S1 In3 2.8487(16) 9_565
S1 In3 2.8487(16) 10
S1 In3 2.8487(16) 2_565
In5 Ir1 2.909(2) 10_556
In5 In2 3.262(4) 3
In5 In2 3.262(4) 11_576
In5 In5 0.596(8) 15_665
