#------------------------------------------------------------------------------
#$Date: 2019-11-25 05:29:27 +0200 (Mon, 25 Nov 2019) $
#$Revision: 240100 $
#$URL: file:///home/coder/svn-repositories/cod/cif/4/12/93/4129373.cif $
#------------------------------------------------------------------------------
#
# This file is available in the Crystallography Open Database (COD),
# http://www.crystallography.net/
#
# All data on this site have been placed in the public domain by the
# contributors.
#
data_4129373
loop_
_publ_author_name
'Hu, Dennis X.'
'Seidl, Frederick J.'
'Bucher, Cyril'
'Burns, Noah Z.'
_publ_section_title
;
 Catalytic chemo-, regio-, and enantioselective bromochlorination of
 allylic alcohols.
;
_journal_issue                   11
_journal_name_full               'Journal of the American Chemical Society'
_journal_page_first              3795
_journal_page_last               3798
_journal_paper_doi               10.1021/jacs.5b01384
_journal_volume                  137
_journal_year                    2015
_chemical_absolute_configuration rmad
_chemical_formula_moiety         'C8 H14 Br Cl O2'
_chemical_formula_sum            'C8 H14 Br Cl O2'
_chemical_formula_weight         257.55
_space_group_crystal_system      monoclinic
_space_group_IT_number           4
_space_group_name_Hall           'P 2yb'
_space_group_name_H-M_alt        'P 1 21 1'
_atom_sites_solution_hydrogens   geom
_atom_sites_solution_primary     vecmap
_atom_sites_solution_secondary   difmap
_audit_creation_method           SHELXL-2014/7
_cell_angle_alpha                90
_cell_angle_beta                 100.7510(11)
_cell_angle_gamma                90
_cell_formula_units_Z            2
_cell_length_a                   7.9216(3)
_cell_length_b                   7.4237(3)
_cell_length_c                   8.8915(4)
_cell_measurement_reflns_used    8713
_cell_measurement_temperature    120(2)
_cell_measurement_theta_max      71.74
_cell_measurement_theta_min      5.06
_cell_volume                     513.71(4)
_computing_cell_refinement       'Bruker SAINT v8.34A'
_computing_data_collection       'Bruker APEX-II v2014-5.0'
_computing_data_reduction        'Bruker SAINT v8.34A'
_computing_molecular_graphics    'Bruker XP'
_computing_publication_material  'CIFTAB (Sheldrick, 2008)'
_computing_structure_refinement  'SHELXL-2014/7 (Sheldrick, 2014)'
_computing_structure_solution    'SHELXT-2014/2 (Sheldrick, 2014)'
_diffrn_ambient_temperature      120(2)
_diffrn_detector_area_resol_mean 8.33
_diffrn_measured_fraction_theta_full 1.000
_diffrn_measured_fraction_theta_max 0.992
_diffrn_measurement_device_type  'Bruker APEX-II'
_diffrn_measurement_method       'combination of \w and \f-scans '
_diffrn_radiation_type           CuK\a
_diffrn_radiation_wavelength     1.54184
_diffrn_reflns_av_R_equivalents  0.0281
_diffrn_reflns_av_unetI/netI     0.0223
_diffrn_reflns_Laue_measured_fraction_full 1.000
_diffrn_reflns_Laue_measured_fraction_max 0.992
_diffrn_reflns_limit_h_max       9
_diffrn_reflns_limit_h_min       -9
_diffrn_reflns_limit_k_max       9
_diffrn_reflns_limit_k_min       -8
_diffrn_reflns_limit_l_max       10
_diffrn_reflns_limit_l_min       -10
_diffrn_reflns_number            9058
_diffrn_reflns_point_group_measured_fraction_full 0.970
_diffrn_reflns_point_group_measured_fraction_max 0.957
_diffrn_reflns_theta_full        67.679
_diffrn_reflns_theta_max         71.745
_diffrn_reflns_theta_min         5.063
_diffrn_source                   'Incoatec micro-focus'
_exptl_absorpt_coefficient_mu    7.544
_exptl_absorpt_correction_T_max  0.8635
_exptl_absorpt_correction_T_min  0.5301
_exptl_absorpt_correction_type   numerical
_exptl_absorpt_process_details   'SADABS (Sheldrick, 2014)'
_exptl_crystal_colour            colorless
_exptl_crystal_density_diffrn    1.665
_exptl_crystal_description       tablet
_exptl_crystal_F_000             260
_exptl_crystal_size_max          0.176
_exptl_crystal_size_mid          0.109
_exptl_crystal_size_min          0.031
_refine_diff_density_max         0.192
_refine_diff_density_min         -0.447
_refine_diff_density_rms         0.074
_refine_ls_abs_structure_details
;
 Flack x determined using 842 quotients [(I+)-(I-)]/[(I+)+(I-)]
 (Parsons, Flack and Wagner, Acta Cryst. B69 (2013) 249-259).
;
_refine_ls_abs_structure_Flack   0.070(9)
_refine_ls_extinction_method     none
_refine_ls_goodness_of_fit_ref   1.124
_refine_ls_hydrogen_treatment    constr
_refine_ls_matrix_type           full
_refine_ls_number_parameters     112
_refine_ls_number_reflns         1927
_refine_ls_number_restraints     1
_refine_ls_restrained_S_all      1.123
_refine_ls_R_factor_all          0.0158
_refine_ls_R_factor_gt           0.0158
_refine_ls_shift/su_max          0.000
_refine_ls_shift/su_mean         0.000
_refine_ls_structure_factor_coef Fsqd
_refine_ls_weighting_details
'w=1/[\s^2^(Fo^2^)+(0.0226P)^2^+0.0638P] where P=(Fo^2^+2Fc^2^)/3'
_refine_ls_weighting_scheme      calc
_refine_ls_wR_factor_gt          0.0403
_refine_ls_wR_factor_ref         0.0404
_reflns_Friedel_coverage         0.786
_reflns_Friedel_fraction_full    0.935
_reflns_Friedel_fraction_max     0.917
_reflns_number_gt                1924
_reflns_number_total             1927
_reflns_threshold_expression     'I > 2\s(I)'
_cod_data_source_file            ja5b01384_si_003.cif
_cod_data_source_block           su1417
_cod_original_sg_symbol_H-M      'P 21'
_cod_database_code               4129373
_shelx_shelxl_version_number     2014/7
_shelx_space_group_comment
;
The symmetry employed for this shelxl refinement is uniquely defined
by the following loop, which should always be used as a source of
symmetry information in preference to the above space-group names.
They are only intended as comments.
;
_shelx_estimated_absorpt_t_min   0.350
_shelx_estimated_absorpt_t_max   0.800
_diffrn_source_monochromator     'MONTEL Multi-layer'
_shelx_res_file
;

    su1417.res created by SHELXL-2014/7


TITL su1417 in P2(1)
CELL  1.54178   7.9216   7.4237   8.8915   90.000  100.751   90.000
ZERR    2.00   0.00030   0.00030   0.00040   0.0000   0.0011   0.0000
LATT -1
SYMM -X, 1/2+Y, -Z
SFAC C H O CL BR
UNIT 16 28 4 2 2
TEMP -153.140
SIZE 0.031 0.109 0.176

L.S. 10
BOND $H
FMAP 2
PLAN 20
CONF

EQIV $1 -x+1, y-1/2, -z+1
HTAB O1 O2_$1

ACTA

WGHT    0.022600    0.063800
FVAR       1.02580
BR1   5    0.053259    0.477017    0.662778    11.00000    0.01381    0.02739 =
         0.02189    0.00220    0.00489   -0.00066
CL1   4    0.612193    0.534698    0.635863    11.00000    0.01241    0.02480 =
         0.01936    0.00087    0.00276    0.00018
O1    3    0.444589    0.250274    0.827349    11.00000    0.01752    0.02449 =
         0.02657    0.00819    0.00323    0.00275
AFIX 147
H1O   2    0.544690    0.222342    0.817445    11.00000   -1.50000
AFIX   0
O2    3    0.206379    0.658055    0.115236    11.00000    0.01945    0.03094 =
         0.01919    0.00098    0.00242   -0.00574
C1    1    0.437120    0.437249    0.856137    11.00000    0.01740    0.02768 =
         0.01563    0.00217    0.00129    0.00207
AFIX  23
H1A   2    0.544993    0.474277    0.924329    11.00000   -1.20000
H1B   2    0.341297    0.460656    0.910786    11.00000   -1.20000
AFIX   0
C2    1    0.411678    0.553279    0.710656    11.00000    0.01168    0.02009 =
         0.01614    0.00069    0.00207   -0.00012
C3    1    0.272199    0.474018    0.583982    11.00000    0.01114    0.01658 =
         0.01645    0.00049    0.00202    0.00065
AFIX  13
H3    2    0.302568    0.345953    0.566459    11.00000   -1.20000
AFIX   0
C4    1    0.245066    0.572826    0.431098    11.00000    0.01604    0.01629 =
         0.01522    0.00208   -0.00026   -0.00083
AFIX  23
H4A   2    0.353885    0.570978    0.391540    11.00000   -1.20000
H4B   2    0.216752    0.700243    0.447968    11.00000   -1.20000
AFIX   0
C5    1    0.102617    0.492072    0.310364    11.00000    0.02254    0.02258 =
         0.01704    0.00245   -0.00206   -0.00798
AFIX  23
H5A   2    0.125756    0.362114    0.299595    11.00000   -1.20000
H5B   2   -0.008125    0.503423    0.345922    11.00000   -1.20000
AFIX   0
C6    1    0.086558    0.581415    0.155343    11.00000    0.01505    0.01595 =
         0.01618   -0.00286    0.00018    0.00015
C7    1   -0.085745    0.567611    0.051940    11.00000    0.01700    0.02765 =
         0.01626   -0.00237   -0.00144   -0.00173
AFIX 137
H7A   2   -0.083048    0.632388   -0.043618    11.00000   -1.50000
H7B   2   -0.173573    0.620810    0.102653    11.00000   -1.50000
H7C   2   -0.113169    0.440616    0.029238    11.00000   -1.50000
AFIX   0
C8    1    0.389360    0.749766    0.749592    11.00000    0.02404    0.02134 =
         0.01943   -0.00419    0.00006   -0.00078
AFIX 137
H8A   2    0.282384    0.764485    0.788642    11.00000   -1.50000
H8B   2    0.384617    0.823394    0.657416    11.00000   -1.50000
H8C   2    0.486663    0.788343    0.827869    11.00000   -1.50000

AFIX   0
HKLF 4

REM  su1417 in P2(1)
REM R1 =  0.0158 for    1924 Fo > 4sig(Fo)  and  0.0158 for all    1927 data
REM    112 parameters refined using      1 restraints

END

WGHT      0.0225      0.0637

REM Highest difference peak  0.192,  deepest hole -0.447,  1-sigma level  0.074
Q1    1   0.3564  0.2118  0.6010  11.00000  0.05    0.19
Q2    1   0.2595  0.3161  0.6036  11.00000  0.05    0.19
Q3    1   0.3997  0.6727  0.7246  11.00000  0.05    0.18
Q4    1   0.3194  0.7857  0.4154  11.00000  0.05    0.18
Q5    1   0.2992  0.3231  0.7381  11.00000  0.05    0.17
Q6    1   0.1719  0.5252  0.3672  11.00000  0.05    0.17
Q7    1   0.0904  0.7539  0.4227  11.00000  0.05    0.17
Q8    1   0.0096  0.6921  0.3577  11.00000  0.05    0.17
Q9    1   0.1210  0.2890  0.5672  11.00000  0.05    0.16
Q10   1   0.2452  0.8401  0.7446  11.00000  0.05    0.15
Q11   1   0.1347  0.1733  0.2823  11.00000  0.05    0.15
Q12   1  -0.0457  0.7842  0.0600  11.00000  0.05    0.15
Q13   1   0.0424  0.6920 -0.0649  11.00000  0.05    0.15
Q14   1  -0.0151  0.7958 -0.1267  11.00000  0.05    0.15
Q15   1   0.1535  0.8614  0.8015  11.00000  0.05    0.15
Q16   1   0.2775  0.7625  0.2984  11.00000  0.05    0.15
Q17   1   0.0048  0.3785  0.1084  11.00000  0.05    0.15
Q18   1   0.2972  0.9631  0.7027  11.00000  0.05    0.14
Q19   1   0.2553  0.2184  0.2669  11.00000  0.05    0.14
Q20   1   0.0214  0.2552  0.3644  11.00000  0.05    0.14
;
_shelx_res_checksum              92515
_shelx_hkl_file
;
   0  -1   0  -12.00    0.30
   0  -1   0  -12.00    0.30
   0  -1   0  -11.90    0.30
   0   1   0  -11.80    0.30
   0   1   0  -11.90    0.40
   0  -2   0 8367.46  398.76
   0  -2   0 8048.49  357.06
   0  -2   0 7949.60  381.76
   0  -2   0 7831.82  392.36
   0   2   0 8883.71  418.56
   0   2   0 8840.32  414.36
   0   2   0 8070.49  265.47
   0  -3   0   -0.20    0.60
   0  -3   0    1.10    0.90
   0  -3   0    0.90    0.60
   0   3   0    0.10    0.70
   0   3   0    1.00    0.60
   0   3   0   -0.20    0.70
   0   3   0   -0.30    0.50
   0  -4   0 3826.62  124.19
   0   4   0 3774.22  121.19
   0   4   0 3754.42  144.29
   0   4   0 3862.21  130.09
   0   5   0    7.70    2.50
   0   5   0    4.20    2.30
   0  -6   0  263.67   13.70
   0   6   0  293.87   14.40
   0   6   0  260.17   17.60
   0   6   0  253.97   21.20
   0   7   0    0.10    0.80
   0   7   0    2.90    1.90
   0   7   0    0.50    0.70
   0   7   0    1.60    1.00
   0   7   0    0.90    0.70
   0   7   0    0.40    0.70
   0   8   0  151.78    7.60
   0   8   0  157.38    6.90
   0   8   0  154.98    7.20
   0   8   0  156.78    7.90
   0   8   0  145.19    8.40
   0   9   0    0.80    0.70
   0   9   0    2.00    0.80
   0   9   0    1.50    0.60
   1   9   0  118.19    5.20
   1   9   0  125.29    5.00
   1   9   0  112.39    5.50
   1   9   0  131.69    5.80
   1   8   0  629.24   22.10
   1   8   0  631.74   24.20
   1   8   0  645.34   22.70
   1   8   0  642.74   23.10
   1   8   0  629.84   21.90
   1   8   0  646.64   21.70
   1   7   0  242.98   10.50
   1   7   0  242.08   11.40
   1   7   0  235.98   10.00
   1   7   0  237.18   13.60
   1   7   0  238.28   10.40
   1   7   0  247.98   10.90
   1   7   0  238.18   12.40
   1   6   0 1390.56   55.09
   1   6   0 1402.26   49.00
   1   6   0 1419.86   62.19
  -1  -6   0 1293.07   47.00
   1   5   0  465.55   23.00
   1   5   0  453.95   18.90
   1   5   0  457.85   27.00
  -1  -5   0  420.96   17.80
   1   4   0  763.12   28.00
   1   4   0  747.33   35.40
   1   4   0  778.32   31.70
  -1  -4   0  898.81   31.20
  -1  -4   0  853.41   28.10
   1   3   0  243.38   11.70
   1   3   0  210.58   13.20
   1   3   0  233.18    9.40
  -1  -3   0  229.48    9.30
  -1  -3   0  231.88   11.20
   1   2   0 3288.47  124.79
   1   2   0 3001.50  102.59
   1   2   0 3164.88  116.09
   1   2   0 3386.56  110.19
   1   2   0 3419.86  127.09
  -1  -2   0 3235.28  111.39
  -1  -2   0 2716.93  104.69
  -1  -2   0 3093.79  102.19
  -1  -2   0 3006.90  118.39
  -1  -2   0 3252.47  125.59
   1   1   0 2126.39   82.49
   1   1   0 2206.38   86.49
  -1  -1   0 2130.99   73.19
  -1  -1   0 2095.69   84.49
  -1  -1   0 2173.48   86.49
   1   0   0  556.24   21.50
   1   0   0  529.75   18.10
   1   0   0  518.75   22.30
  -1   0   0  541.05   18.30
  -1   0   0  532.35   21.20
  -1   0   0  521.95   24.00
   1  -1   0 1909.31   67.19
   1  -1   0 1993.40   67.79
  -1   1   0 2108.39  109.29
  -1   1   0 2036.40   67.99
   1  -2   0 2763.72  165.38
   1  -2   0 2850.21   92.39
  -1   2   0 2292.97  104.69
   1  -3   0  222.48   10.50
  -1   3   0  227.28   11.10
  -1   3   0  226.58    8.80
  -1   3   0  219.48   10.20
  -1   3   0  220.78   11.10
  -1   3   0  228.58   13.10
   1  -4   0  844.42   26.50
  -1   4   0  774.12   34.30
  -1   4   0  719.63   26.30
  -1   4   0  760.02   30.50
  -1   5   0  442.36   18.70
  -1   5   0  481.25   27.00
  -1   5   0  450.15   22.50
   1  -6   0 1238.08   50.99
  -1   6   0 1364.96   59.69
  -1   6   0 1321.67   51.89
  -1   7   0  227.88   10.70
  -1   7   0  230.18    9.90
  -1   7   0  234.08    9.60
  -1   8   0  643.54   23.20
  -1   8   0  658.03   22.30
  -1   8   0  653.13   22.00
   2   8   0  171.48    8.00
   2   8   0  163.58    6.90
   2   8   0  155.28    7.30
   2   8   0  154.58    8.70
   2   8   0  157.58    7.60
   2   8   0  154.68    7.10
   2   7   0  182.08    9.20
   2   7   0  173.98    7.90
   2   7   0  173.88   11.00
   2   7   0  178.38    8.40
   2   7   0  181.08    8.80
   2   7   0  176.68    8.40
   2   7   0  180.28   10.10
   2   6   0  169.18   14.00
   2   6   0  173.48   10.90
   2   6   0  165.68   17.30
  -2  -6   0  197.58   10.50
   2   5   0  728.23   37.90
   2   5   0  720.13   27.90
   2   5   0  691.73   31.90
  -2  -5   0  783.62   27.60
   2   4   0 1589.34   55.29
   2   4   0 1540.45   60.09
   2   4   0 1586.24   51.39
  -2  -4   0 1560.14   50.69
  -2  -4   0 1472.55   53.89
   2   3   0 1211.38   42.10
   2   3   0 1174.88   45.80
  -2  -3   0 1213.58   42.00
  -2  -3   0 1196.98   39.10
   2   2   0 2097.79   82.69
   2   2   0 2027.70   70.59
   2   2   0 1914.71   74.69
  -2  -2   0 2050.09   72.89
  -2  -2   0 1881.81   79.89
  -2  -2   0 2154.18   75.39
  -2  -2   0 2071.19   66.99
   2   1   0 3289.77  123.29
   2   1   0 3192.48  125.99
   2   1   0 3204.08  207.78
  -2  -1   0 3334.47  134.69
  -2  -1   0 3351.66  109.29
  -2  -1   0 3064.79  129.59
  -2  -1   0 3438.06  111.59
   2   0   0 3244.08  124.29
   2   0   0 3118.09  105.69
   2   0   0 3288.07  124.69
  -2   0   0 3172.98  124.09
  -2   0   0 3363.96  108.59
  -2   0   0 3249.27  125.79
   2  -1   0 3251.17  105.19
   2  -1   0 3078.19  193.68
   2  -1   0 3155.98  113.59
  -2   1   0 3208.68  109.39
  -2   1   0 3107.69  117.49
  -2   1   0 3307.17  107.19
   2  -2   0 1939.81   67.49
   2  -2   0 2134.09   63.09
   2  -2   0 2063.19   66.09
  -2   2   0 1816.02   71.09
  -2   2   0 1837.22   68.69
  -2   2   0 1949.20   68.49
  -2   2   0 1948.80   64.39
  -2   3   0 1165.18   40.10
  -2   3   0 1172.68   40.50
  -2   3   0 1142.79   43.80
  -2   4   0 1542.55   53.19
  -2   4   0 1495.65   58.29
   2  -5   0  624.24   37.00
  -2   5   0  695.53   34.90
   3   8   0   44.60    3.40
   3   8   0   43.30    2.70
   3   8   0   46.30    3.20
   3   8   0   46.10    3.30
   3   8   0   46.20    3.20
   3   8   0   46.50    4.00
  -3  -8   0   46.10    3.20
   3   7   0  541.65   20.70
   3   7   0  560.04   23.40
   3   7   0  552.54   20.20
   3   7   0  551.24   21.50
   3   7   0  554.94   20.10
   3   7   0  577.14   22.20
   3   7   0  536.95   19.20
   3   7   0  563.04   20.20
   3   6   0   99.69    5.40
   3   6   0  114.79    6.20
   3   6   0  109.29    7.30
   3   6   0  111.29    6.20
   3   6   0  108.29    6.50
   3   6   0  108.29    7.30
   3   6   0  104.49    8.10
   3   6   0  101.69    6.10
   3   5   0  941.91   40.00
   3   5   0 1023.80   47.90
   3   5   0  921.41   34.90
  -3  -5   0  992.20   34.90
  -3  -5   0  899.21   38.70
   3   4   0  619.64   26.70
   3   4   0  612.94   23.30
   3   4   0  628.94   32.20
  -3  -4   0  618.04   23.00
  -3  -4   0  582.24   26.60
   3   3   0 1576.24   51.79
   3   3   0 1535.35   57.19
  -3  -3   0 1415.56   48.50
  -3  -3   0 1463.55   52.69
   3   2   0 1706.73   62.49
  -3  -2   0 1769.02   56.39
  -3  -2   0 1870.01   60.29
   3   1   0  968.90   34.70
   3   1   0 1038.10   38.10
   3   1   0  955.00   41.80
  -3  -1   0 1086.89   43.30
  -3  -1   0 1019.60   33.10
  -3  -1   0 1015.40   35.50
  -3  -1   0 1047.30   36.40
  -3  -1   0 1108.59   35.10
   3   0   0  865.81   28.00
   3   0   0  831.02   31.00
  -3   0   0  862.41   29.40
  -3   0   0  839.82   29.70
  -3   0   0  731.93   26.60
  -3   0   0  782.32   28.90
   3  -1   0 1069.29   38.80
  -3   1   0 1016.60   36.00
  -3   1   0  985.70   35.70
   3  -2   0 1676.33   58.59
  -3   2   0 1581.24   54.59
  -3   2   0 1422.06   59.59
  -3   2   0 1708.33   54.69
  -3   3   0 1489.65   52.39
  -3   4   0  603.94   26.20
  -3   4   0  597.54   22.30
   4   8   0  124.79    5.40
   4   8   0  115.29    5.40
   4   8   0  121.39    6.40
   4   8   0  123.99    5.60
  -4  -8   0  119.19    5.50
   4   7   0  582.04   20.70
   4   7   0  565.04   25.00
   4   7   0  595.64   20.60
   4   7   0  578.84   22.30
   4   7   0  589.74   22.00
   4   7   0  587.94   20.90
  -4  -7   0  592.24   20.90
   4   6   0  345.57   15.20
   4   6   0  327.87   16.10
   4   6   0  329.87   13.50
   4   6   0  346.77   13.70
   4   6   0  347.07   15.10
   4   6   0  315.77   13.30
  -4  -6   0  339.77   13.90
   4   5   0  715.63   39.70
   4   5   0  723.23   27.90
  -4  -5   0  729.23   28.10
  -4  -5   0  701.63   32.70
   4   4   0  419.36   26.20
   4   4   0  409.16   17.60
  -4  -4   0  433.66   17.90
  -4  -4   0  401.86   21.60
   4   3   0 2324.67   85.99
  -4  -3   0 2408.26   76.49
  -4  -3   0 2422.66   81.99
   4   2   0  194.28   13.70
  -4  -2   0  182.78    8.90
  -4  -2   0  201.48   12.30
   4   1   0 2028.80   69.59
  -4  -1   0 1937.41   67.09
  -4   0   0  184.08   10.70
  -4   0   0  155.78    9.70
  -4   1   0 1921.91   64.69
  -4   1   0 1882.21   64.79
  -4   2   0  187.88   11.80
  -4   2   0  190.38    9.30
  -4   3   0 2324.17   80.59
  -4   3   0 2371.76   74.99
  -4   4   0  430.76   17.50
  -4   4   0  408.16   21.70
  -4   5   0  717.63   27.70
   5   7   0  162.48    7.50
   5   7   0  174.68    7.40
   5   7   0  160.38    8.10
   5   7   0  170.48    8.10
  -5  -7   0  163.08    7.30
  -5  -7   0  176.58    7.70
   5   6   0  180.38    8.60
   5   6   0  168.88    9.20
   5   6   0  175.08    8.20
   5   6   0  176.48    9.30
  -5  -6   0  175.48    8.30
  -5  -6   0  174.48    8.50
   5   5   0  786.82   27.80
   5   5   0  783.52   28.80
   5   5   0  727.43   28.30
  -5  -5   0  844.92   28.10
  -5  -5   0  800.92   27.80
  -5  -4   0   55.49    5.30
  -5  -4   0   63.59    7.90
  -5  -3   0 1459.15   54.59
  -5  -3   0 1366.16   48.10
  -5  -2   0  129.59   10.70
  -5  -1   0 3555.24  118.09
   5   0   0  239.18   13.70
  -5   0   0  228.68   13.60
  -5   0   0  234.28   14.60
  -5   0   0  221.88   10.00
  -5   1   0 3299.97  109.29
  -5   1   0 3191.38  109.89
  -5   1   0 3378.26  102.99
  -5   2   0  161.38   12.10
  -5   2   0  178.58    8.90
  -5   3   0 1519.95   57.49
  -5   3   0 1562.74   50.69
  -5   3   0 1438.16   48.90
  -5   4   0   65.59    8.20
  -5   4   0   61.99    5.50
  -5   4   0   59.09    5.10
  -5   5   0  719.83   27.80
  -5   5   0  679.03   25.70
  -5   5   0  719.43   25.50
   6   7   0  402.46   14.30
  -6  -7   0  404.96   14.10
   6   6   0    2.70    1.30
   6   6   0    2.40    1.10
   6   6   0    1.50    0.90
  -6  -6   0    3.20    1.20
  -6  -6   0    4.80    1.40
   6   5   0  426.36   16.80
   6   5   0  413.56   16.00
  -6  -5   0  378.56   15.50
  -6  -5   0  417.26   16.20
   6   4   0  366.96   14.90
   6   4   0  350.76   14.20
   6   4   0  347.47   14.60
  -6  -4   0  330.97   14.20
  -6  -4   0  313.97   13.90
   6   3   0  437.96   17.60
   6   3   0  445.26   17.50
   6   3   0  426.36   17.30
  -6  -3   0  462.35   17.50
  -6  -3   0  409.26   31.30
  -6  -3   0  473.75   18.00
  -6  -2   0  891.91   39.80
   6   1   0  307.17   12.60
  -6  -1   0  264.77   18.10
  -6  -1   0  255.17   12.00
   6   0   0 2149.39   68.89
  -6   0   0 2170.18   78.59
  -6   0   0 2189.58   69.19
  -6   0   0 2057.39   68.49
   6  -1   0  264.57   17.40
  -6   1   0  292.07   13.10
  -6   1   0  309.27   18.40
  -6   1   0  286.47   12.30
   6  -2   0  892.81   39.50
  -6   2   0  913.21   40.20
  -6   2   0  900.31   31.60
  -6   2   0  947.31   33.10
  -6   3   0  404.26   18.00
  -6   3   0  427.96   18.40
  -6   3   0  455.45   18.50
  -6   3   0  427.36   16.90
  -6   3   0  428.26   16.90
  -6   3   0  440.76   17.00
  -6   3   0  415.56   15.30
  -6   4   0  349.77   14.90
  -6   4   0  352.06   14.80
  -6   4   0  354.56   16.40
  -6   4   0  366.26   16.00
  -6   5   0  418.06   16.20
  -6   5   0  383.06   17.70
  -6   5   0  416.76   16.20
  -6   5   0  389.16   16.80
   7   6   0  130.39    5.90
  -7  -6   0  121.29    5.60
   7   5   0  311.87   12.70
   7   5   0  280.87   12.20
  -7  -5   0  318.77   12.30
  -7  -5   0  328.57   12.20
   7   4   0   90.99    5.70
   7   4   0   91.99    5.80
  -7  -4   0   92.69    5.70
  -7  -4   0   86.49    5.50
   7   3   0  428.26   17.50
   7   3   0  467.45   18.00
  -7  -3   0  456.25   17.80
  -7  -3   0  458.95   17.80
   7   2   0  454.65   17.70
   7   2   0  493.75   18.10
  -7  -2   0  458.95   18.50
  -7  -2   0  446.36   17.70
  -7  -2   0  444.26   18.00
   7   1   0  793.42   28.40
   7   1   0  815.92   29.70
  -7  -1   0  801.72   29.40
  -7  -1   0  813.42   28.40
  -7  -1   0  811.92   28.00
  -7  -1   0  851.21   29.60
  -7  -1   0  800.62   27.40
   7   0   0  565.94   22.30
   7   0   0  601.04   21.40
  -7   0   0  624.24   22.70
  -7   0   0  568.74   21.10
  -7   0   0  576.84   22.30
  -7   0   0  553.14   21.10
  -7   0   0  596.54   22.80
   7  -1   0  865.81   29.10
  -7   1   0  813.22   28.70
  -7   1   0  776.52   29.60
  -7   1   0  752.72   27.30
  -7   1   0  791.62   27.90
  -7   1   0  790.22   29.20
  -7   1   0  772.62   29.20
  -7   1   0  781.72   26.60
   7  -2   0  456.35   19.00
  -7   2   0  493.95   20.10
  -7   2   0  490.15   19.90
  -7   2   0  506.95   19.30
  -7   2   0  493.35   18.70
  -7   2   0  497.45   17.40
  -7   2   0  466.45   18.50
  -7   2   0  488.35   20.30
   7  -3   0  465.25   17.90
  -7   3   0  450.75   19.00
  -7   3   0  439.16   17.50
  -7   3   0  430.26   17.50
  -7   3   0  469.75   17.80
  -7   3   0  447.36   15.90
  -7   3   0  445.16   19.00
  -7   3   0  425.06   18.00
   7  -4   0   91.99    5.60
  -7   4   0   96.89    5.80
  -7   4   0   90.39    5.70
  -7   4   0   82.49    6.20
  -7   4   0   70.79    6.00
  -7   4   0   84.99    6.50
  -7   4   0   88.49    4.40
  -7   5   0  270.57   10.90
  -7   5   0  259.47   11.70
  -7   5   0  261.47   11.10
   8   4   0  433.76   15.60
   8   4   0  436.36   15.60
  -8  -4   0  430.26   15.60
  -8  -4   0  406.46   15.10
   8   3   0  198.68    8.50
   8   3   0  175.38    8.50
  -8  -3   0  174.08    8.20
  -8  -3   0  192.18    8.80
   8   2   0  222.98   10.10
  -8  -2   0  222.48   10.40
   8   1   0   38.00    3.00
   8   1   0   38.40    3.90
   8   1   0   39.70    3.40
  -8  -1   0   31.30    2.80
  -8  -1   0   44.20    4.00
  -8  -1   0   35.00    3.70
  -8  -1   0   37.20    3.40
  -8  -1   0   33.60    3.00
   8   0   0  323.77   14.20
   8   0   0  337.07   12.40
   8   0   0  312.87   12.90
  -8   0   0  319.57   14.00
  -8   0   0  327.07   13.10
  -8   0   0  306.17   12.80
  -8   0   0  337.37   14.20
  -8   0   0  314.77   12.30
   8  -1   0   36.50    3.80
   8  -1   0   33.40    3.10
  -8   1   0   41.70    3.90
  -8   1   0   38.60    3.20
  -8   1   0   36.50    3.80
  -8   1   0   39.40    3.40
  -8   1   0   41.60    4.30
  -8   1   0   42.80    4.10
  -8   1   0   35.50    2.90
   8  -2   0  215.08   10.30
  -8   2   0  210.78   10.10
  -8   2   0  211.58    8.70
  -8   2   0  221.58   10.30
  -8   2   0  218.08   11.00
  -8   2   0  206.58   10.60
  -8   2   0  220.78    9.80
  -8   2   0  202.78    9.50
   8  -3   0  183.28    8.90
  -8   3   0  190.68    8.90
  -8   3   0  191.78    8.80
  -8   3   0  191.28    7.70
  -8   3   0  192.28    9.80
  -8   3   0  187.58    8.90
  -8   3   0  190.28    8.80
   8  -4   0  416.46   13.80
  -8   4   0  421.96   15.20
  -8   4   0  400.86   16.30
  -8   4   0  389.66   13.90
  -8   4   0  423.46   15.30
   9   3   0    9.50    1.60
  -9  -3   0   10.20    1.30
   9   2   0  879.51   29.60
  -9  -2   0  932.41   30.00
   9   1   0    3.50    1.10
   9   1   0    3.70    1.00
  -9  -1   0    5.60    1.20
  -9  -1   0    5.60    1.10
  -9  -1   0    5.60    1.50
   9   0   0  798.22   26.70
   9   0   0  804.12   26.30
  -9   0   0  798.62   26.30
  -9   0   0  783.22   26.50
  -9   0   0  845.52   27.60
   9  -1   0    5.60    1.70
   9  -1   0    5.10    1.20
   9  -1   0    5.90    1.30
  -9   1   0    5.20    1.20
  -9   1   0    4.10    1.60
  -9   1   0    6.10    1.30
  -9   1   0    3.80    1.20
   9  -2   0  877.21   27.60
  -9   2   0  900.21   28.40
  -9   2   0  837.92   27.60
  -9   2   0  831.62   28.30
  -9   3   0    9.30    1.30
  -9   2  -1  266.77   10.10
  -9   2  -1  267.87    9.90
  -9   2  -1  272.07    9.60
   9  -2   1  278.77    9.60
  -9   1  -1  638.44   21.30
  -9   1  -1  643.14   21.40
  -9   1  -1  657.53   22.00
   9  -1   1  656.63   21.30
  -9   0  -1  594.14   19.70
  -9   0  -1  591.74   20.40
   9   0   1  600.64   19.80
   9   0   1  585.84   19.60
  -9  -1  -1  659.23   22.40
   9   1   1  669.03   22.00
   9   1   1  656.83   21.50
  -9  -2  -1  295.07   10.70
   9   2   1  278.17   10.50
  -8   4  -1  297.77   11.00
  -8   4  -1  288.17   12.40
  -8   4  -1  301.37   11.50
  -8   4  -1  298.07   11.00
   8  -4   1  270.27   12.10
  -8   3  -1  165.98    7.80
  -8   3  -1  158.38    6.70
  -8   3  -1  174.78    7.70
  -8   3  -1  159.38    7.80
  -8   3  -1  164.88    7.80
  -8   3  -1  167.98    9.00
   8  -3   1  161.28    7.80
   8  -3   1  151.58    6.60
  -8   2  -1  226.78    9.60
  -8   2  -1  207.38   10.90
  -8   2  -1  220.58    9.60
  -8   2  -1  223.48   10.20
  -8   2  -1  222.58   10.00
  -8   2  -1  205.58    8.70
   8  -2   1  218.68   10.20
   8  -2   1  210.28    8.70
  -8   1  -1  201.48   10.90
  -8   1  -1  198.28    9.20
  -8   1  -1  208.48   10.20
  -8   1  -1  205.68    8.70
  -8   1  -1  212.08   10.10
   8  -1   1  225.08    9.00
   8  -1   1  220.98   10.40
  -8   0  -1  110.99    5.60
  -8   0  -1  111.19    6.90
  -8   0  -1  104.49    5.60
  -8   0  -1  113.59    6.60
   8   0   1  101.29    5.80
   8   0   1  105.09    5.50
   8   0   1  101.19    6.70
  -8  -1  -1  233.38   10.30
  -8  -1  -1  217.08    9.60
  -8  -1  -1  211.08    9.00
   8   1   1  213.08    9.10
   8   1   1  210.78   10.70
   8   1   1  211.98    9.60
  -8  -2  -1  208.88    9.70
  -8  -2  -1  222.68    8.80
  -8  -2  -1  205.18    9.30
   8   2   1  216.38    8.80
   8   2   1  213.18   10.20
   8   2   1  220.28    9.60
  -8  -3  -1  152.18    7.30
  -8  -3  -1  147.89    7.00
   8   3   1  157.88    7.40
  -8  -4  -1  271.77   10.70
  -8  -4  -1  293.47   11.00
   8   4   1  314.47   10.90
   8   4   1  296.17   11.20
  -7   5  -1   38.50    3.20
  -7   5  -1   33.80    3.50
  -7   5  -1   42.30    3.10
  -7   5  -1   36.90    3.00
  -7   4  -1  710.23   27.40
  -7   4  -1  713.33   27.20
  -7   4  -1  765.72   25.90
  -7   4  -1  732.13   25.90
  -7   4  -1  735.43   25.90
  -7   3  -1   76.59    5.30
  -7   3  -1   78.09    6.20
  -7   3  -1   78.39    4.30
  -7   3  -1   80.49    6.20
  -7   3  -1   76.89    5.30
  -7   3  -1   71.89    5.20
  -7   3  -1   77.49    5.50
   7  -3   1   77.39    5.40
  -7   2  -1 1269.57   44.00
  -7   2  -1 1364.16   45.20
  -7   2  -1 1285.77   45.50
  -7   2  -1 1334.17   44.00
  -7   2  -1 1327.77   42.60
  -7   2  -1 1337.77   44.80
  -7   2  -1 1325.57   46.20
   7  -2   1 1359.06   44.90
  -7   1  -1    7.10    1.60
  -7   1  -1   10.70    2.40
  -7   1  -1    5.80    2.10
  -7   1  -1    9.90    2.60
  -7   1  -1    9.10    2.50
  -7   1  -1    8.10    2.00
   7  -1   1    8.30    2.20
  -7   0  -1 1362.36   47.00
  -7   0  -1 1394.86   46.40
  -7   0  -1 1354.46   45.50
  -7   0  -1 1424.96   47.00
  -7   0  -1 1372.86   45.40
  -7   0  -1 1421.96   44.90
  -7   0  -1 1393.96   47.90
   7   0   1 1391.36   44.70
   7   0   1 1398.16   47.30
   7   0   1 1375.86   45.50
  -7  -1  -1    7.80    1.70
  -7  -1  -1    7.10    2.10
  -7  -1  -1    7.70    2.20
  -7  -1  -1    8.00    2.00
  -7  -1  -1   11.00    2.40
   7   1   1    6.60    1.60
   7   1   1    7.00    2.10
   7   1   1    6.30    1.80
  -7  -2  -1 1290.77   43.20
  -7  -2  -1 1395.26   44.70
  -7  -2  -1 1352.06   44.70
   7   2   1 1353.06   46.00
   7   2   1 1303.37   43.30
   7   2   1 1314.37   44.40
  -7  -3  -1   78.79    5.40
  -7  -3  -1   71.19    5.10
   7   3   1   86.49    5.50
   7   3   1   74.69    5.00
  -7  -4  -1  785.72   26.60
  -7  -4  -1  776.22   26.80
   7   4   1  737.03   26.60
   7   4   1  760.62   26.90
  -7  -5  -1   36.80    2.80
  -7  -5  -1   35.80    3.00
   7   5   1   39.00    2.90
   7   5   1   37.20    3.00
  -7  -6  -1  137.39    7.10
  -6   6  -1  476.15   18.00
  -6   6  -1  504.35   17.60
  -6   5  -1   77.69    6.30
  -6   5  -1   79.69    5.20
  -6   5  -1   74.09    5.10
  -6   5  -1   79.59    5.30
  -6   4  -1  786.12   27.60
  -6   4  -1  739.93   29.20
  -6   4  -1  765.02   27.50
  -6   4  -1  781.82   28.90
  -6   4  -1  747.53   27.70
  -6   3  -1   44.50    4.10
  -6   3  -1   47.70    4.10
  -6   3  -1   46.40    4.40
  -6   3  -1   46.00    3.20
  -6   3  -1   49.40    4.90
  -6   3  -1   48.10    4.80
   6  -3   1   59.29    4.60
  -6   2  -1 1065.89   38.00
  -6   2  -1 1058.19   45.90
  -6   2  -1 1086.79   37.00
  -6   2  -1 1096.09   38.60
   6  -2   1 1093.19   37.20
  -6   1  -1  196.78    9.60
  -6   1  -1  189.88    9.80
  -6   1  -1  189.48   10.40
  -6   1  -1  189.58   14.30
   6  -1   1  191.58    9.50
   6  -1   1  190.68   14.20
  -6   0  -1  575.54   21.80
   6   0   1  574.64   21.80
  -6  -1  -1  191.18    9.70
  -6  -1  -1  181.08   14.90
   6   1   1  201.48   10.00
  -6  -2  -1 1038.10   46.20
  -6  -2  -1 1067.89   37.30
   6   2   1 1095.99   37.60
  -6  -3  -1   52.89    4.20
  -6  -3  -1   54.99    4.50
   6   3   1   50.69    4.40
   6   3   1   47.20    4.20
  -6  -4  -1  713.83   26.20
  -6  -4  -1  743.73   26.60
   6   4   1  742.03   26.90
   6   4   1  786.12   27.30
  -6  -5  -1   96.79    5.60
  -6  -5  -1   93.99    5.70
   6   5   1   85.09    5.50
   6   5   1   82.09    5.70
  -6  -6  -1  484.85   17.70
   6   6   1  508.35   18.30
  -5   6  -1  797.62   27.70
  -5   5  -1  357.16   15.10
  -5   5  -1  380.26   17.10
  -5   5  -1  352.46   15.20
  -5   5  -1  379.16   15.40
  -5   4  -1 1456.75   49.99
  -5   4  -1 1391.66   53.69
  -5   4  -1 1495.25   49.30
  -5   3  -1 1355.66   45.60
  -5   3  -1 1296.07   52.69
  -5   2  -1  934.21   32.70
  -5   2  -1  927.11   39.20
  -5   1  -1 1924.11   69.39
  -5   1  -1 1988.40   63.09
  -5   0  -1 1484.65   49.40
  -5   0  -1 1553.74   56.99
  -5  -1  -1 2083.19   74.79
   5   1   1 2095.19   78.69
  -5  -2  -1  953.20   39.40
   5   2   1  899.11   42.80
  -5  -3  -1 1239.68   50.19
   5   3   1 1217.28   54.79
  -5  -4  -1 1516.25   60.69
   5   4   1 1583.84   57.59
   5   4   1 1538.85   67.49
  -5  -5  -1  350.46   14.90
  -5  -5  -1  366.66   15.00
   5   5   1  377.36   15.50
   5   5   1  341.27   18.50
   5   5   1  400.26   16.10
   5   5   1  391.26   15.10
   5   5   1  379.66   15.00
  -5  -6  -1  782.12   27.20
  -5  -6  -1  799.72   27.30
   5   6   1  802.42   28.10
   5   6   1  760.62   27.90
   5   6   1  796.62   27.20
   5   6   1  776.62   27.10
  -5  -7  -1    4.10    1.20
  -5  -7  -1    4.40    1.20
   5   7   1    0.70    0.70
   5   7   1    2.80    1.00
   5   7   1    2.20    0.80
   5   7   1    2.60    1.20
  -4   5  -1 1102.29   37.90
  -4   5  -1 1056.29   38.70
  -4   5  -1  927.71   40.90
  -4   5  -1 1036.20   43.80
  -4   4  -1  492.15   25.50
  -4   4  -1  511.05   20.40
  -4   3  -1  671.53   24.50
  -4   3  -1  655.13   29.70
  -4   2  -1 1103.09   38.00
  -4   2  -1 1106.39   43.10
   4  -2   1 1208.78   49.20
  -4   1  -1 1377.46   49.80
   4  -1   1 1405.86   54.59
  -4   0  -1  777.02   31.10
  -4   0  -1  790.22   30.10
   4   0   1  781.52   34.70
  -4  -1  -1 1373.56   50.09
   4   1   1 1395.76   54.09
  -4  -2  -1 1165.88   44.30
   4   2   1 1150.68   48.70
  -4  -3  -1  620.94   23.70
  -4  -3  -1  642.34   29.10
   4   3   1  648.54   33.50
  -4  -4  -1  581.54   28.00
  -4  -4  -1  575.64   22.50
   4   4   1  513.75   31.80
  -4  -5  -1 1126.29   41.30
  -4  -5  -1 1098.29   47.40
  -4  -5  -1 1171.28   39.00
   4   5   1 1206.38   42.00
   4   5   1 1170.08   40.00
   4   5   1 1118.89   39.60
   4   5   1 1144.99   38.70
   4   5   1 1128.49   38.30
   4   5   1 1170.08   56.89
  -4  -6  -1  690.83   24.20
   4   6   1  693.63   24.10
   4   6   1  664.33   25.50
   4   6   1  697.43   26.90
   4   6   1  652.33   23.90
   4   6   1  656.23   25.10
  -4  -7  -1  360.96   13.90
   4   7   1  345.97   13.70
   4   7   1  348.87   14.70
   4   7   1  366.66   14.00
   4   7   1  373.96   13.60
   4   7   1  368.56   15.30
   4   7   1  379.86   14.40
  -4  -8  -1   31.00    2.10
  -4  -8  -1   25.60    2.10
   4   8   1   32.50    2.70
   4   8   1   32.80    2.20
   4   8   1   35.20    2.40
   4   8   1   27.90    2.30
  -3   5  -1  814.52   30.60
  -3   4  -1  347.77   18.70
  -3   4  -1  356.46   15.00
  -3   4  -1  361.66   23.60
   3  -4   1  326.47   22.80
  -3   3  -1 1039.30   40.70
  -3   3  -1 1065.69   38.70
  -3   3  -1 1072.89   46.50
   3  -3   1 1160.58   47.20
  -3   2  -1  245.98   13.70
   3  -2   1  307.97   18.30
  -3   1  -1 1987.80   65.19
  -3   1  -1 2159.78   70.49
   3  -1   1 1849.61   70.49
  -3   0  -1   12.70    2.20
  -3   0  -1   13.10    2.30
   3   0   1   12.10    3.00
  -3  -1  -1 2066.29   69.29
   3   1   1 2104.29   82.39
   3   1   1 2140.79   79.29
  -3  -2  -1  278.97   11.30
  -3  -2  -1  305.37   15.00
   3   2   1  267.87   17.00
   3   2   1  281.07   13.20
  -3  -3  -1 1176.08   43.00
  -3  -3  -1 1103.09   37.50
   3   3   1 1088.19   40.70
   3   3   1 1083.39   46.40
  -3  -4  -1  332.67   15.00
  -3  -4  -1  327.17   18.90
   3   4   1  375.66   23.90
   3   4   1  360.16   15.10
   3   4   1  334.07   18.10
  -3  -5  -1  790.22   30.30
  -3  -5  -1  785.32   35.90
   3   5   1  836.22   43.00
   3   5   1  805.72   35.70
   3   5   1  818.32   30.70
   3   6   1  233.08   10.20
   3   6   1  232.48   11.40
   3   6   1  229.08   12.60
   3   6   1  221.88   10.70
   3   6   1  216.38    9.30
   3   6   1  233.28   11.70
   3   6   1  219.28   10.00
   3   6   1  234.78   10.20
  -3  -7  -1  511.45   19.20
   3   7   1  515.85   18.40
   3   7   1  527.05   19.20
   3   7   1  572.74   21.00
   3   7   1  545.55   19.40
   3   7   1  528.85   19.40
   3   7   1  523.15   22.40
   3   7   1  508.55   19.90
   3   7   1  556.84   21.30
  -3  -8  -1  129.59    5.70
   3   8   1  122.19    5.80
   3   8   1  118.19    6.70
   3   8   1  121.19    6.10
   3   8   1  125.29    5.20
   3   8   1  110.89    5.40
   3   8   1  122.59    5.80
   3   8   1  112.19    5.90
  -2   8  -1   21.90    2.30
  -2   7  -1  118.99    6.30
  -2   7  -1  117.79    6.20
  -2   6  -1   27.90    7.00
   2  -6   1   26.90    7.10
  -2   5  -1 1027.90   41.40
  -2   5  -1 1021.40   48.00
   2  -5   1 1063.49   48.40
   2  -5   1 1066.29   41.00
  -2   4  -1  173.08   14.10
  -2   4  -1  177.68   11.00
  -2   4  -1  178.38   11.20
  -2   4  -1  173.98    8.80
   2  -4   1  163.38   10.60
  -2   3  -1 2552.34   89.19
  -2   3  -1 2561.94   92.49
  -2   3  -1 2601.24   84.79
   2  -3   1 2675.03   93.89
   2  -3   1 2580.54   96.19
  -2   2  -1  908.91   32.60
  -2   2  -1  850.21   31.20
  -2   2  -1  868.51   35.60
   2  -2   1  983.60   31.60
   2  -2   1  960.40   36.90
   2  -2   1  909.81   31.60
  -2   1  -1 6697.83  494.95
  -2   1  -1 6350.17  478.35
  -2   1  -1 7208.98  222.38
   2  -1   1 6819.42  477.95
   2  -1   1 6530.85  235.48
   2  -1   1 6693.03  456.15
  -2   0  -1    0.60    1.60
  -2   0  -1    0.70    0.70
   2   0   1    1.70    1.80
   2   0   1    0.00    0.60
   2   0   1   -0.20    1.30
   2   0   1    0.00    1.40
  -2  -1  -1 7194.28  265.07
  -2  -1  -1 6939.51  356.06
  -2  -1  -1 7195.88  232.28
  -2  -1  -1 7348.27  576.64
   2   1   1 6762.72  355.56
   2   1   1 6952.10  260.47
   2   1   1 6934.21  245.08
   2   1   1 7189.58  259.57
  -2  -2  -1  929.01   30.60
  -2  -2  -1  958.20   33.30
  -2  -2  -1  973.40   34.00
   2   2   1  895.91   36.70
   2   2   1  938.61   33.00
   2   2   1  929.81   30.70
  -2  -3  -1 2682.33   92.89
  -2  -3  -1 2636.84   88.19
   2   3   1 2665.53   91.49
   2   3   1 2672.63   86.59
   2   3   1 2769.92  110.69
  -2  -4  -1  158.98    8.70
  -2  -4  -1  159.48   11.30
   2   4   1  181.08    9.10
   2   4   1  171.88   11.60
   2   4   1  181.88   14.90
  -2  -5  -1 1153.68   38.40
  -2  -5  -1 1061.49   42.70
   2   5   1 1059.49   38.60
   2   5   1 1003.60   43.20
   2   5   1 1093.29   50.69
  -2  -6  -1   21.90    3.50
   2   6   1   24.00    3.90
   2   6   1   26.10    3.90
   2   6   1   29.70    5.80
   2   6   1   23.80    3.40
   2   6   1   27.30    4.00
   2   6   1   38.40    5.70
   2   6   1   28.80    7.30
   2   7   1  116.19    6.20
   2   7   1  125.59    7.60
   2   7   1  119.59    8.80
   2   7   1  125.29    8.00
   2   7   1  116.69    6.60
   2   7   1  116.79    5.90
   2   7   1  120.09    6.40
   2   7   1  111.99    6.90
  -2  -8  -1   14.40    1.80
   2   8   1   18.90    2.00
   2   8   1   18.10    2.10
   2   8   1   17.90    2.10
   2   8   1   21.90    2.50
   2   8   1   18.80    2.70
   2   8   1   19.20    1.90
  -1   8  -1   19.20    2.00
  -1   8  -1   21.20    2.60
  -1   8  -1   18.20    2.10
  -1   8  -1   20.00    2.20
  -1   7  -1 1210.58   40.90
  -1   7  -1 1246.98   40.40
  -1   7  -1 1270.97   41.20
  -1   7  -1 1248.18   42.10
  -1   6  -1  149.88   15.70
  -1   6  -1  142.69   12.00
   1  -6   1  137.89   11.80
  -1   5  -1 1196.18   51.19
  -1   5  -1 1175.78   44.80
   1  -5   1 1089.19   44.40
  -1   4  -1  241.08   13.40
  -1   4  -1  232.98   16.20
   1  -4   1  255.97   13.70
  -1   3  -1 2099.99   73.99
  -1   3  -1 2085.49   74.99
  -1   3  -1 2203.88   74.19
   1  -3   1 2213.68   73.99
  -1   2  -1  124.59    6.90
  -1   2  -1  122.69    8.40
  -1   2  -1  128.89    6.90
  -1   2  -1  126.69    8.70
  -1   2  -1  110.59    9.30
   1  -2   1  133.39    6.20
   1  -2   1  152.18    7.40
   1  -2   1  134.29    6.10
   1  -2   1  135.99    6.20
   1  -2   1  134.49    5.80
  -1   1  -1  473.75   19.90
  -1   1  -1  453.25   20.00
   1  -1   1  494.15   20.00
   1  -1   1  495.45   18.90
   1  -1   1  501.75   15.60
  -1   0  -1   11.90    1.50
  -1   0  -1   16.30    3.50
  -1   0  -1   12.40    3.40
  -1   0  -1   11.00    1.40
   1   0   1    9.90    1.40
   1   0   1    9.90    3.10
   1   0   1    9.80    3.20
  -1  -1  -1  512.35   17.30
  -1  -1  -1  490.25   20.40
  -1  -1  -1  495.65   21.00
   1   1   1  481.65   20.70
   1   1   1  463.25   20.40
   1   1   1  468.75   17.00
  -1  -2  -1  137.19    7.50
  -1  -2  -1  145.99    8.00
  -1  -2  -1  124.19    8.80
  -1  -2  -1  142.19    9.60
  -1  -2  -1  134.19    5.90
   1   2   1  127.49    8.70
   1   2   1  135.99    7.40
   1   2   1  128.49    5.90
   1   2   1  131.29    9.60
   1   2   1  123.29    9.30
  -1  -3  -1 2152.38   71.39
  -1  -3  -1 2026.40   69.29
   1   3   1 2234.38   70.39
   1   3   1 2201.58   71.29
   1   3   1 2162.28   93.69
  -1  -4  -1  248.68   13.80
  -1  -4  -1  251.67   10.90
   1   4   1  218.28   10.70
   1   4   1  238.88   16.60
   1   4   1  245.48   14.00
  -1  -5  -1 1153.98   40.90
  -1  -5  -1 1057.19   44.50
   1   5   1 1240.48   53.39
   1   5   1 1206.18   46.80
   1   5   1 1254.67   41.60
   1   5   1 1187.08   41.60
  -1  -6  -1  152.58    9.40
   1   6   1  158.48   16.90
   1   6   1  156.48   10.00
   1   6   1  153.78   13.30
   1   7   1 1262.07   43.90
   1   7   1 1206.48   45.30
   1   7   1 1253.57   40.90
   1   7   1 1268.37   41.60
   1   7   1 1245.98   40.40
   1   7   1 1222.08   42.00
   1   8   1   17.50    1.90
   1   8   1   18.90    2.30
   1   8   1   16.10    2.30
   1   8   1   20.10    2.90
   1   8   1   17.90    2.00
   1   9   1  470.65   18.00
   0   9  -1   16.40    1.60
   0   9  -1   15.80    1.90
   0   9  -1   18.60    1.80
   0   8  -1   52.89    4.00
   0   8  -1   56.19    3.50
   0   8  -1   53.09    3.70
   0   8  -1   53.99    3.80
   0   8  -1   53.49    4.20
   0   7  -1  151.68    7.60
   0   7  -1  151.28    8.00
   0   7  -1  154.98    7.60
   0   7  -1  145.79    8.30
   0   7  -1  158.88    7.30
   0   6  -1  278.67   18.00
   0   6  -1  312.47   15.20
   0   6  -1  290.57   22.70
   0  -6   1  279.07   18.20
   0   5  -1  921.41   42.50
   0   5  -1  874.61   32.70
   0   5  -1  922.11   37.50
   0   4  -1 1012.90   43.30
   0   4  -1 1063.19   39.90
   0  -4   1 1115.99   35.10
   0   3  -1 3716.53  143.29
   0   3  -1 3743.03  129.99
   0   3  -1 3820.92  124.59
   0   3  -1 3912.31  132.59
   0  -3   1 4057.29  125.19
   0  -3   1 3944.11  132.29
   0   2  -1 3420.56  124.19
   0   2  -1 3315.07  125.79
   0   2  -1 3523.25  118.69
   0   2  -1 3224.38  115.29
   0   2  -1 3454.55  128.19
   0  -2   1 3436.76  127.79
   0  -2   1 3441.76  112.69
   0  -2   1 3419.16  121.49
   0   1  -1 4370.06  306.77
   0   1  -1 4413.06  192.28
   0   1  -1 4502.95  319.87
   0  -1   1 4520.25  189.68
   0  -1   1 4149.88  285.77
   0  -1   1 4442.56  321.77
   0   0  -1 1351.26   48.30
   0   0  -1 1409.66   55.89
   0   0  -1 1411.26   56.79
   0   0   1 1434.16   48.00
   0   0   1 1418.86   58.99
   0   0   1 1379.06   56.99
   0  -1  -1 4317.77  241.98
   0  -1  -1 4097.49  134.89
   0  -1  -1 4045.50  298.07
   0   1   1 3878.41  287.17
   0   1   1 4286.27  258.17
   0   1   1 4135.59  135.09
   0   1   1 4010.50  219.18
   0  -2  -1 3064.19  102.99
   0  -2  -1 3210.08  209.58
   0  -2  -1 3234.28  216.78
   0  -2  -1 3018.20  164.68
   0   2   1 2678.43  116.79
   0   2   1 3224.88  115.39
   0   2   1 2938.31  101.29
   0   2   1 3189.38  100.59
   0   2   1 3319.07  107.09
   0  -3  -1 3886.21  133.89
   0   3   1 3858.51  132.29
   0   3   1 3768.22  143.59
   0   3   1 3504.95  129.69
   0   3   1 3917.51  124.49
   0  -4  -1 1046.60   34.60
   0  -4  -1 1007.90   38.40
   0   4   1 1049.30   42.70
   0   4   1  992.70   38.90
   0   4   1 1034.00   34.80
   0   4   1 1005.70   38.30
   0  -5  -1  874.61   31.90
   0   5   1  905.21   32.40
   0   5   1  918.01   37.50
   0   5   1  929.41   32.90
   0   5   1  878.11   42.10
   0  -6  -1  292.97   14.10
   0   6   1  293.87   19.10
   0   6   1  297.87   15.10
   0   6   1  294.87   14.50
   0   6   1  293.67   23.10
   0   7   1  148.09    9.20
   0   7   1  147.29    8.00
   0   7   1  149.19    7.00
   0   7   1  150.48   10.30
   0   7   1  147.29    7.30
   0   7   1  150.18    7.90
   0   8   1   52.19    3.40
   0   8   1   58.19    4.10
   0   8   1   49.10    4.60
   0   8   1   51.79    4.00
   0   8   1   53.59    3.50
   0   9   1   17.00    2.40
   0   9   1   14.90    1.40
   1   9  -1   43.10    2.60
   1   9  -1   44.70    2.50
   1   9  -1   47.90    3.00
   1   8  -1  588.14   20.80
   1   8  -1  609.64   21.80
   1   8  -1  588.44   21.30
   1   8  -1  589.74   20.90
   1   8  -1  587.74   20.30
   1   7  -1  325.47   13.20
   1   7  -1  322.17   14.00
   1   7  -1  315.97   13.50
   1   7  -1  308.27   16.20
   1   7  -1  329.47   13.20
   1   7  -1  331.47   12.60
   1   6  -1 1099.79   39.70
   1   6  -1 1045.30   50.89
   1   6  -1 1050.79   44.40
  -1  -6   1 1058.09   44.40
  -1  -6   1 1042.60   37.20
   1   5  -1  835.12   39.90
   1   5  -1  840.12   35.30
   1   5  -1  827.82   30.70
  -1  -5   1  783.52   29.00
   1   4  -1 2933.81  108.69
   1   4  -1 3027.60   95.99
  -1  -4   1 2740.63   92.29
   1   3  -1  707.33   31.60
   1   3  -1  758.02   29.50
  -1  -3   1  853.31   26.60
  -1  -3   1  883.51   28.00
   1   2  -1 2851.51  116.29
   1   2  -1 3081.79  104.59
   1   2  -1 2889.51  110.39
   1   2  -1 2923.21  112.59
  -1  -2   1 3043.20  114.69
  -1  -2   1 2750.82  112.69
  -1  -2   1 3134.19   96.69
  -1  -2   1 3104.79  104.99
   1   1  -1  396.06   17.80
   1   1  -1  383.06   15.10
   1   1  -1  430.46   18.20
  -1  -1   1  429.46   17.60
  -1  -1   1  456.05   15.10
  -1  -1   1  467.35   18.20
   1   0  -1  378.26   15.10
   1   0  -1  375.46   14.90
  -1   0   1  375.16   15.20
  -1   0   1  400.76   13.70
  -1   0   1  354.06   14.80
   1  -1  -1  437.46   16.50
   1  -1  -1  429.46   15.80
   1  -1  -1  443.36   15.20
  -1   1   1  402.16   15.40
  -1   1   1  400.86   15.30
  -1   1   1  390.06   15.50
   1  -2  -1 2759.82   90.69
  -1   2   1 2501.55   90.59
  -1   2   1 2737.53   91.19
  -1   2   1 2504.75   91.99
  -1   2   1 2577.74   89.49
  -1   3   1  638.04   26.50
  -1   3   1  687.83   22.20
  -1   3   1  626.84   24.30
  -1   3   1  613.24   25.80
   1  -4  -1 2718.43   89.59
  -1   4   1 2744.93   93.39
  -1   4   1 2768.52  100.09
  -1   4   1 2684.63   84.79
  -1   4   1 2545.05   89.49
   1  -5  -1  791.12   29.20
  -1   5   1  824.92   34.60
  -1   5   1  787.32   30.30
  -1   5   1  848.82   29.80
  -1   5   1  857.41   40.00
  -1   6   1 1075.09   39.20
  -1   6   1 1024.70   44.00
  -1   7   1  307.57   12.90
  -1   7   1  297.57   13.00
  -1   7   1  313.57   12.00
  -1   7   1  304.47   15.90
  -1   8   1  589.54   20.10
  -1   8   1  596.64   21.30
  -1   8   1  590.24   21.30
   2   8  -1   44.20    3.30
   2   8  -1   42.40    3.40
   2   8  -1   43.30    3.60
   2   8  -1   40.80    4.10
   2   8  -1   44.00    3.00
   2   8  -1   47.40    3.40
   2   7  -1   69.89    4.80
   2   7  -1   77.39    5.00
   2   7  -1   73.69    5.40
   2   7  -1   80.99    6.30
   2   7  -1   77.29    4.60
   2   7  -1   73.99    4.90
   2   7  -1   75.99    6.90
   2   7  -1   81.29    5.30
   2   6  -1 1012.00   44.00
   2   6  -1 1089.29   51.69
   2   6  -1 1091.89   39.60
  -2  -6   1 1058.79   37.80
  -2  -6   1 1040.60   44.30
   2   5  -1  388.46   17.20
   2   5  -1  402.16   25.20
   2   5  -1  385.06   20.80
  -2  -5   1  366.06   16.00
   2   4  -1  737.23   31.10
   2   4  -1  746.23   35.10
  -2  -4   1  838.82   27.30
   2   3  -1   54.29    6.20
   2   3  -1   56.39    5.10
   2   2  -1 2847.02  105.19
   2   2  -1 3099.39  126.69
   2   2  -1 3208.38  105.89
  -2  -2   1 3071.99  122.19
  -2  -2   1 3252.67  104.79
  -2  -2   1 3138.39  103.59
  -2  -2   1 2993.90   98.99
   2   1  -1   17.90    3.60
   2   1  -1   17.20    3.30
  -2  -1   1   12.30    1.40
  -2  -1   1   12.90    2.10
  -2  -1   1   13.40    3.20
  -2  -1   1   14.80    3.40
  -2  -1   1   17.30    2.20
   2   0  -1   51.29    5.30
   2   0  -1   53.99    3.80
   2   0  -1   49.00    5.10
  -2   0   1   50.29    5.30
  -2   0   1   51.39    5.50
   2  -1  -1   13.10    2.20
   2  -1  -1   13.80    2.30
   2  -1  -1   15.00    2.30
  -2   1   1   18.90    2.80
  -2   1   1   18.10    2.50
  -2   1   1   19.80    2.80
  -2   1   1   20.70    2.40
   2  -2  -1 2868.31   95.09
  -2   2   1 2751.22   91.69
  -2   2   1 2840.82  101.09
  -2   2   1 2934.81   99.19
  -2   2   1 3012.70   98.39
  -2   3   1   50.89    4.50
  -2   3   1   49.30    4.40
  -2   3   1   51.59    5.80
  -2   3   1   56.99    3.70
  -2   4   1  665.73   39.60
  -2   4   1  718.03   24.70
  -2   4   1  693.43   35.10
   3   8  -1  207.28    8.60
   3   8  -1  209.98   10.10
   3   8  -1  205.28    8.00
   3   8  -1  205.08    8.60
   3   8  -1  205.58    8.80
   3   8  -1  208.58    9.00
   3   7  -1   17.60    2.30
   3   7  -1   16.40    2.40
   3   7  -1   19.80    2.40
   3   7  -1   18.50    2.50
   3   7  -1   21.80    3.20
   3   7  -1   23.00    4.80
   3   7  -1   21.00    2.50
   3   7  -1   18.10    2.00
  -3  -7   1   14.40    2.10
   3   6  -1  561.84   21.00
   3   6  -1  548.05   21.40
   3   6  -1  591.64   24.60
   3   6  -1  565.54   20.00
   3   6  -1  570.14   21.10
   3   6  -1  573.24   20.90
   3   6  -1  583.34   21.10
   3   6  -1  583.24   22.90
  -3  -6   1  602.44   21.40
   3   5  -1  178.18   13.30
   3   5  -1  211.08   11.30
   3   5  -1  190.38   16.90
  -3  -5   1  198.68   10.50
   3   4  -1 1788.92   69.59
   3   4  -1 1878.11   63.69
   3   4  -1 1745.83   59.59
  -3  -4   1 1860.71   59.49
  -3  -4   1 1797.92   62.79
   3   3  -1  329.27   18.90
  -3  -3   1  360.76   16.40
  -3  -3   1  341.77   13.80
   3   2  -1  724.63   28.80
  -3  -2   1  669.73   23.90
  -3  -2   1  719.63   26.80
   3   1  -1 1144.79   40.60
   3   1  -1 1265.87   42.10
   3   1  -1 1127.59   47.20
  -3  -1   1 1252.07   48.50
  -3  -1   1 1249.57   41.50
  -3  -1   1 1221.58   41.70
  -3  -1   1 1227.98   40.90
  -3  -1   1 1205.98   38.90
   3   0  -1 6605.04  213.88
  -3   0   1 6227.58  213.18
  -3   0   1 6606.24  212.98
  -3   0   1 6090.99  201.38
  -3   0   1 6575.54  215.58
  -3   1   1 1171.58   40.70
  -3   1   1 1154.98   41.70
  -3   1   1 1117.69   38.30
  -3   1   1 1260.47   40.80
  -3   2   1  675.23   25.70
  -3   2   1  665.43   26.60
  -3   2   1  638.64   22.60
  -3   3   1  299.07   16.80
  -3   3   1  305.57   15.00
  -3   4   1 1581.34   55.79
   4   8  -1  384.26   13.80
   4   8  -1  401.66   13.90
   4   8  -1  389.46   15.20
   4   8  -1  380.86   14.00
  -4  -8   1  408.76   14.10
   4   7  -1   40.10    3.30
   4   7  -1   44.90    4.20
   4   7  -1   39.00    3.40
   4   7  -1   36.90    3.10
   4   7  -1   36.20    4.30
   4   7  -1   37.10    3.20
  -4  -7   1   32.90    3.20
  -4  -7   1   37.40    3.10
   4   6  -1  882.71   29.80
   4   6  -1  852.31   29.40
   4   6  -1  825.62   29.20
   4   6  -1  862.61   31.40
   4   6  -1  885.01   31.60
   4   6  -1  855.01   29.60
   4   6  -1  873.61   33.10
  -4  -6   1  817.82   29.50
   4   5  -1  132.49   14.30
   4   5  -1  138.39    9.20
  -4  -5   1  150.58    9.10
   4   4  -1  780.62   38.40
  -4  -4   1  808.72   29.50
  -4  -4   1  809.02   33.60
   4   3  -1  331.17   19.60
   4   3  -1  312.97   13.80
  -4  -3   1  315.77   16.90
  -4  -3   1  335.57   14.00
  -4  -2   1 1773.92   61.09
  -4  -2   1 1766.32   57.19
   4   1  -1 1617.34   56.59
  -4  -1   1 1645.44   54.09
  -4  -1   1 1729.53   58.19
  -4  -1   1 1743.73   57.19
   4   0  -1  863.01   32.70
  -4   0   1  906.51   33.70
  -4   0   1  899.71   33.20
  -4   0   1  875.81   30.20
   4  -1  -1 1529.45   55.39
  -4   1   1 1647.64   56.39
  -4   1   1 1667.03   56.09
  -4   2   1 1699.83   61.39
  -4   2   1 1850.71   63.29
  -4   3   1  289.67   17.80
  -4   3   1  320.47   13.10
  -4   3   1  307.27   16.70
   4  -4  -1  804.32   33.30
  -4   4   1  769.22   33.30
  -4   4   1  771.42   28.40
   5   7  -1  240.08   10.60
   5   7  -1  255.97   10.20
   5   7  -1  254.07   11.20
  -5  -7   1  226.98   10.10
  -5  -7   1  258.67   10.00
   5   6  -1   50.19    4.60
   5   6  -1   64.69    5.20
   5   6  -1   52.29    4.10
   5   6  -1   47.10    3.80
   5   6  -1   53.49    5.30
  -5  -6   1   53.69    4.10
  -5  -6   1   60.29    4.40
   5   5  -1  508.55   20.90
   5   5  -1  479.05   18.40
   5   5  -1  475.55   19.50
   5   5  -1  486.15   19.40
   5   5  -1  479.05   18.40
  -5  -5   1  489.25   18.60
  -5  -5   1  457.55   18.40
  -5  -4   1 1099.89   45.20
  -5  -4   1 1120.99   40.00
  -5  -3   1  316.17   18.30
  -5  -3   1  304.17   14.30
  -5  -2   1 2224.18   77.09
  -5  -2   1 2164.18   71.19
  -5  -1   1  193.88   12.80
  -5  -1   1  184.38    8.80
   5   0  -1 3069.09   99.89
  -5   0   1 2975.90   99.99
  -5   0   1 2976.30   94.69
  -5   0   1 3087.29  101.39
   5  -1  -1  192.58   12.70
  -5   1   1  198.48   13.30
  -5   1   1  176.38   12.30
  -5   1   1  236.38    9.80
   5  -2  -1 2202.88   74.79
  -5   2   1 2157.18   74.99
  -5   2   1 2032.70   75.99
  -5   2   1 2098.69   68.39
   5  -3  -1  317.17   18.20
  -5   3   1  310.17   13.80
  -5   3   1  296.97   18.10
  -5   3   1  298.07   12.60
   5  -4  -1 1080.39   44.90
  -5   4   1 1087.49   37.10
  -5   4   1 1106.49   38.70
  -5   4   1 1159.98   39.30
  -5   4   1 1084.19   45.40
   6   7  -1  135.29    6.10
   6   7  -1  109.09    5.60
  -6  -7   1  124.59    5.50
   6   6  -1  224.58   10.50
   6   6  -1  225.98   10.50
   6   6  -1  227.58    9.80
  -6  -6   1  227.58    9.90
  -6  -6   1  245.28    9.90
   6   5  -1  389.36   16.40
   6   5  -1  415.36   16.80
   6   5  -1  397.56   15.90
  -6  -5   1  434.06   16.30
  -6  -5   1  389.76   16.00
   6   4  -1  194.08    9.40
   6   4  -1  186.58    9.60
   6   4  -1  198.28    9.90
  -6  -4   1  184.78    9.40
  -6  -4   1  185.38    9.40
  -6  -3   1  705.23   33.40
  -6  -2   1  178.18   14.00
   6   1  -1  592.94   22.90
  -6  -1   1  614.14   22.90
  -6  -1   1  683.13   31.10
  -6  -1   1  646.54   23.40
   6   0  -1    1.00    1.30
  -6   0   1    0.70    1.30
  -6   0   1    0.90    1.40
  -6   0   1    1.10    0.90
  -6   0   1    1.30    0.90
   6  -1  -1  625.04   28.90
  -6   1   1  597.04   22.40
  -6   1   1  618.34   23.50
  -6   1   1  601.34   29.10
  -6   1   1  628.64   30.90
   6  -2  -1  174.78   13.40
  -6   2   1  182.78   14.10
  -6   2   1  184.98    9.90
  -6   2   1  180.48    8.90
  -6   2   1  175.58    9.80
   6  -3  -1  694.73   32.90
  -6   3   1  680.13   33.50
  -6   3   1  717.23   27.20
  -6   3   1  725.73   27.10
  -6   3   1  717.53   25.60
  -6   4   1  209.68    9.70
  -6   4   1  189.98    8.10
  -6   4   1  188.88    9.80
  -6   4   1  197.98   10.60
  -6   4   1  188.88   10.80
  -6   4   1  194.38    9.60
  -6   5   1  399.46   16.70
  -6   5   1  405.76   15.90
  -6   5   1  379.56   17.50
   7   6  -1   35.30    2.80
  -7  -6   1   44.00    2.80
  -7  -6   1   40.40    2.70
   7   5  -1  390.36   15.50
  -7  -5   1  402.96   15.00
  -7  -5   1  384.76   14.90
   7   4  -1   88.99    5.80
   7   4  -1   80.69    5.40
  -7  -4   1   81.39    5.50
  -7  -4   1   83.89    5.50
   7   3  -1  929.51   33.20
   7   3  -1  946.81   33.20
  -7  -3   1  997.80   33.60
   7   2  -1  438.16   16.80
   7   2  -1  412.46   16.60
  -7  -2   1  435.26   16.80
  -7  -2   1  409.46   16.00
  -7  -2   1  413.46   17.20
   7   1  -1  609.44   22.40
   7   1  -1  576.24   22.20
   7   1  -1  616.34   23.20
  -7  -1   1  602.24   21.10
  -7  -1   1  604.64   22.10
  -7  -1   1  628.14   23.70
  -7  -1   1  620.64   22.40
  -7  -1   1  638.74   23.20
   7   0  -1  528.45   19.80
   7   0  -1  554.24   20.90
  -7   0   1  533.95   21.40
  -7   0   1  529.25   21.10
  -7   0   1  524.95   18.70
  -7   0   1  527.95   20.50
  -7   0   1  531.65   19.70
  -7   0   1  530.25   19.90
  -7   1   1  604.34   21.50
  -7   1   1  589.94   20.60
  -7   1   1  566.24   23.10
  -7   1   1  595.04   23.20
  -7   1   1  554.54   21.60
  -7   1   1  620.04   23.50
  -7   1   1  596.94   22.40
  -7   1   1  621.64   22.10
  -7   2   1  415.96   16.20
  -7   2   1  436.36   18.40
  -7   2   1  434.06   17.30
  -7   2   1  438.36   18.60
  -7   2   1  449.76   15.80
  -7   2   1  412.26   16.90
  -7   2   1  445.86   17.30
  -7   3   1  922.81   32.40
  -7   3   1  939.21   33.80
  -7   3   1  929.71   30.60
  -7   3   1  918.21   32.30
  -7   3   1  922.71   34.10
  -7   3   1  953.40   32.50
  -7   4   1   84.69    5.50
  -7   4   1   87.99    5.70
  -7   4   1   84.19    5.30
  -7   4   1   77.79    6.00
  -7   4   1   79.29    6.40
  -7   4   1   83.39    4.40
  -7   5   1  388.06   16.10
  -7   5   1  404.96   15.40
   8   5  -1  808.42   26.60
   8   4  -1   13.50    1.90
   8   4  -1   15.10    2.00
  -8  -4   1   15.60    2.10
   8   3  -1  446.86   16.90
   8   3  -1  459.75   16.90
  -8  -3   1  419.36   16.90
   8   2  -1   91.29    5.50
   8   2  -1   91.19    5.70
  -8  -2   1  100.39    6.20
  -8  -2   1   92.89    5.70
  -8  -2   1   88.99    5.20
   8   1  -1  527.75   19.60
   8   1  -1  524.75   18.60
   8   1  -1  493.65   20.30
  -8  -1   1  532.95   19.60
  -8  -1   1  549.95   20.40
  -8  -1   1  529.05   18.50
  -8  -1   1  501.75   19.10
  -8  -1   1  539.65   20.70
   8   0  -1  319.77   14.00
   8   0  -1  311.57   12.90
  -8   0   1  302.57   12.00
  -8   0   1  313.67   13.00
  -8   0   1  313.77   13.90
  -8   0   1  320.67   13.80
  -8   0   1  331.17   14.30
  -8   0   1  312.67   13.00
   8  -1  -1  509.55   19.00
   8  -1  -1  508.95   20.10
  -8   1   1  531.95   19.60
  -8   1   1  500.65   20.50
  -8   1   1  518.35   19.00
  -8   1   1  532.75   20.80
  -8   1   1  524.15   20.10
  -8   1   1  517.05   18.30
  -8   1   1  532.85   20.80
   8  -2  -1   89.39    5.00
   8  -2  -1   91.89    5.90
  -8   2   1   89.99    6.50
  -8   2   1   87.99    5.60
  -8   2   1   89.59    5.10
  -8   2   1   89.19    6.30
  -8   2   1   90.99    4.80
  -8   2   1   84.49    5.70
  -8   2   1   80.09    5.20
   8  -3  -1  423.86   16.70
  -8   3   1  438.26   16.60
  -8   3   1  424.46   15.30
  -8   3   1  441.06   16.90
  -8   3   1  444.46   18.00
  -8   3   1  449.16   17.00
   8  -4  -1   17.70    2.60
  -8   4   1   11.90    1.80
  -8   4   1   13.40    2.20
  -8   4   1   11.50    2.30
  -8   4   1   14.50    1.50
  -8   4   1   12.10    2.30
  -8   5   1  759.82   25.30
   9   3  -1  503.05   17.80
  -9  -3   1  546.95   18.20
   9   2  -1  298.77   11.70
  -9  -2   1  312.97   11.00
  -9  -2   1  299.77   11.90
   9   1  -1 1220.58   37.60
  -9  -1   1 1115.09   37.80
  -9  -1   1 1107.09   36.90
   9   0  -1  513.55   18.20
   9   0  -1  489.25   19.00
   9   0  -1  514.85   17.60
  -9   0   1  520.85   18.30
  -9   0   1  507.35   18.90
  -9   0   1  512.05   18.30
  -9   0   1  539.95   17.70
  -9   0   1  536.55   19.30
   9  -1  -1 1119.89   36.60
   9  -1  -1 1079.39   37.80
   9  -1  -1 1113.79   36.30
  -9   1   1 1177.68   37.90
  -9   1   1 1150.28   36.80
  -9   1   1 1189.88   37.10
  -9   1   1 1089.49   37.30
  -9   1   1 1185.18   36.40
   9  -2  -1  304.07   10.70
   9  -2  -1  312.17   10.90
  -9   2   1  303.77   10.80
  -9   2   1  290.27   11.20
  -9   2   1  270.77   10.70
  -9   2   1  304.77   12.50
  -9   2   1  294.77   11.50
   9  -3  -1  536.35   17.20
  -9   3   1  512.55   17.90
  -9   3   1  529.85   17.90
  -9   3   1  513.75   17.20
  -9   1  -2  678.63   22.40
   9  -1   2  681.23   23.30
  -9   0  -2  114.49    5.00
   9   0   2  110.39    4.60
  -8   4  -2   20.50    2.00
  -8   4  -2   19.10    1.70
  -8   4  -2   18.50    2.00
  -8   3  -2  211.68    9.20
  -8   3  -2  220.28    8.90
  -8   3  -2  205.98   10.30
  -8   3  -2  213.78    8.70
   8  -3   2  228.48   10.60
  -8   2  -2   42.50    3.30
  -8   2  -2   39.90    2.70
  -8   2  -2   41.40    3.10
  -8   2  -2   35.00    3.10
  -8   2  -2   41.60    4.10
   8  -2   2   30.60    3.60
   8  -2   2   34.50    3.30
   8  -2   2   31.80    2.50
  -8   1  -2  188.08    8.20
  -8   1  -2  203.98    8.80
  -8   1  -2  195.68    8.10
  -8   1  -2  187.58   10.00
  -8   1  -2  185.58    7.80
   8  -1   2  168.18    7.60
   8  -1   2  181.08    9.20
   8  -1   2  151.28    9.40
  -8   0  -2   23.10    2.70
  -8   0  -2   27.00    2.50
   8   0   2   25.00    3.10
   8   0   2   24.40    2.30
  -8  -1  -2  159.68    7.70
  -8  -1  -2  169.18    8.10
  -8  -1  -2  159.28    7.40
   8   1   2  178.68    7.50
   8   1   2  183.68    9.10
   8   1   2  182.88    7.90
  -8  -2  -2   32.00    2.90
  -8  -2  -2   30.70    2.70
   8   2   2   33.80    3.10
   8   2   2   38.60    3.10
   8   2   2   37.60    2.50
  -8  -3  -2  221.08    8.90
  -8  -3  -2  225.68    8.90
   8   3   2  223.88    9.10
  -8  -4  -2   13.50    1.40
   8   4   2   18.50    1.60
  -7   5  -2  367.36   14.10
  -7   5  -2  372.36   13.40
  -7   5  -2  370.46   13.40
  -7   4  -2  154.08    7.60
  -7   4  -2  149.19    8.70
  -7   4  -2  163.08    7.60
  -7   4  -2  160.78    8.00
  -7   3  -2  351.56   15.60
  -7   3  -2  353.26   14.10
  -7   3  -2  340.67   16.00
  -7   3  -2  375.86   14.70
  -7   3  -2  349.57   14.00
  -7   3  -2  351.56   14.60
  -7   2  -2  423.76   17.00
  -7   2  -2  453.65   19.30
  -7   2  -2  442.86   17.10
  -7   2  -2  426.76   17.50
  -7   2  -2  446.86   18.40
  -7   2  -2  453.15   17.50
  -7   2  -2  424.96   16.70
  -7   2  -2  451.65   15.90
   7  -2   2  439.66   17.80
   7  -2   2  414.86   15.80
  -7   1  -2  995.70   32.20
  -7   1  -2  921.71   32.60
  -7   1  -2  949.31   33.10
  -7   1  -2  986.10   34.00
  -7   1  -2  962.20   35.70
  -7   1  -2  918.11   34.00
   7  -1   2  984.30   32.20
   7  -1   2 1013.00   34.50
  -7   0  -2  595.44   22.10
  -7   0  -2  595.14   21.70
  -7   0  -2  597.44   20.70
  -7   0  -2  586.04   23.90
  -7   0  -2  578.04   22.80
   7   0   2  588.24   20.70
   7   0   2  566.84   21.10
   7   0   2  570.74   23.70
   7   0   2  574.54   22.80
  -7  -1  -2  965.30   33.70
  -7  -1  -2 1020.00   33.50
  -7  -1  -2  965.90   32.50
   7   1   2  989.90   32.60
   7   1   2  962.40   33.20
   7   1   2  931.21   34.80
  -7  -2  -2  436.86   16.80
  -7  -2  -2  401.26   16.60
  -7  -2  -2  410.06   15.80
   7   2   2  449.56   16.00
   7   2   2  445.76   18.10
   7   2   2  420.96   16.70
  -7  -3  -2  341.27   14.00
  -7  -3  -2  355.66   14.10
   7   3   2  370.56   14.50
  -7  -4  -2  135.89    7.00
   7   4   2  152.28    7.40
   7   4   2  161.88    8.00
  -7  -5  -2  405.56   13.70
   7   5   2  364.76   13.50
   7   5   2  363.86   13.50
  -6   6  -2  368.46   13.30
  -6   6  -2  363.66   13.40
  -6   6  -2  357.56   13.70
  -6   5  -2  188.08    8.70
  -6   5  -2  172.28   10.70
  -6   5  -2  185.08    8.50
  -6   5  -2  178.68    8.90
  -6   4  -2  376.16   15.40
  -6   4  -2  383.86   15.60
  -6   4  -2  381.76   15.30
  -6   4  -2  373.06   16.70
  -6   4  -2  374.96   16.90
  -6   4  -2  359.76   15.00
  -6   3  -2  661.03   26.10
  -6   3  -2  680.13   24.70
  -6   3  -2  694.33   24.90
  -6   3  -2  686.83   26.30
  -6   3  -2  633.94   24.20
  -6   3  -2  641.14   24.10
  -6   2  -2   81.59    4.70
  -6   2  -2   86.79    5.80
  -6   2  -2   81.89    5.40
  -6   2  -2   82.19    5.90
  -6   2  -2   82.69    5.70
  -6   2  -2   86.29    5.80
  -6   2  -2   87.89    6.80
  -6   2  -2   82.59    6.30
   6  -2   2   80.49    5.80
  -6   1  -2 1017.70   34.50
  -6   1  -2  964.50   34.00
  -6   1  -2  958.80   35.40
   6  -1   2  934.21   34.20
  -6   0  -2  128.59    8.50
  -6   0  -2  137.69    8.00
   6   0   2  146.99    8.30
  -6  -1  -2  896.51   33.00
   6   1   2  953.30   33.50
  -6  -2  -2   74.19    5.30
  -6  -2  -2   79.69    4.90
   6   2   2   92.09    5.20
   6   2   2   86.69    6.50
  -6  -3  -2  650.23   24.00
   6   3   2  662.43   25.40
   6   3   2  689.63   24.60
  -6  -4  -2  384.56   15.20
  -6  -4  -2  376.86   14.90
   6   4   2  361.06   15.10
   6   4   2  381.16   15.40
   6   4   2  363.76   14.30
  -6  -5  -2  166.68    7.90
  -6  -5  -2  165.88    8.20
   6   5   2  182.18    8.60
   6   5   2  199.58    8.10
   6   5   2  178.88    8.30
  -6  -6  -2  343.17   12.70
  -6  -6  -2  365.46   13.20
   6   6   2  375.46   12.80
   6   6   2  344.27   12.80
   6   6   2  371.96   13.60
  -5   7  -2  188.88    7.50
  -5   6  -2  236.68   10.20
  -5   6  -2  237.18   10.40
  -5   5  -2  244.08   11.20
  -5   5  -2  266.57   11.80
  -5   5  -2  259.27   11.40
  -5   5  -2  247.28   13.20
  -5   5  -2  252.07   11.80
  -5   4  -2  602.54   22.50
  -5   4  -2  594.64   24.30
  -5   4  -2  608.44   22.70
  -5   4  -2  592.54   22.40
  -5   4  -2  606.84   22.80
  -5   4  -2  601.94   23.70
  -5   3  -2  198.18   15.50
  -5   3  -2  195.68   10.60
  -5   3  -2  186.98   10.40
  -5   2  -2 1407.46   46.80
  -5   2  -2 1442.06   48.10
  -5   2  -2 1426.66   55.89
   5  -2   2 1420.66   46.90
  -5   1  -2  242.48   13.20
  -5   1  -2  267.97   16.60
  -5   1  -2  282.17   12.00
   5  -1   2  270.57   20.20
   5  -1   2  241.98   13.00
   5   0   2 1639.04   67.89
  -5  -1  -2  264.17   17.30
  -5  -1  -2  263.07   11.90
   5   1   2  271.67   21.00
   5   1   2  273.67   12.20
  -5  -2  -2 1351.46   55.49
   5   2   2 1461.45   48.20
   5   2   2 1445.26   63.29
  -5  -3  -2  157.38   14.00
   5   3   2  192.38   10.00
   5   3   2  192.08   18.50
  -5  -4  -2  591.24   22.20
  -5  -4  -2  601.24   22.20
   5   4   2  613.84   22.20
   5   4   2  621.14   23.00
   5   4   2  597.84   22.70
   5   4   2  617.14   22.20
  -5  -5  -2  257.97   11.30
  -5  -5  -2  272.17   11.50
   5   5   2  256.37   11.20
   5   5   2  256.77   11.60
   5   5   2  254.27   11.20
   5   5   2  249.78   11.80
  -5  -6  -2  233.78   10.00
  -5  -6  -2  227.38   10.00
   5   6   2  241.78   10.10
   5   6   2  244.18   10.70
   5   6   2  229.58    9.90
   5   6   2  238.38   10.10
  -5  -7  -2  218.88    8.40
  -5  -7  -2  213.98    8.40
   5   7   2  211.88    8.30
   5   7   2  204.88    8.70
   5   7   2  212.68    8.70
  -4   7  -2   51.09    4.90
  -4   7  -2   49.99    3.50
  -4   7  -2   48.20    3.60
  -4   6  -2  384.26   17.60
  -4   6  -2  386.76   15.80
  -4   6  -2  390.46   15.20
  -4   6  -2  398.16   15.60
  -4   5  -2  241.98   11.50
  -4   5  -2  245.48   11.30
  -4   5  -2  253.77   11.20
  -4   5  -2  238.88   11.40
  -4   5  -2  255.47   13.30
  -4   4  -2  990.20   43.50
  -4   4  -2 1027.50   36.70
   4  -4   2 1015.50   54.99
  -4   3  -2  596.24   28.80
  -4   3  -2  617.74   22.90
   4  -3   2  573.04   33.60
  -4   2  -2 1539.35   57.59
  -4   2  -2 1545.65   51.19
   4  -2   2 1599.44   64.39
  -4   1  -2  858.81   29.20
  -4   1  -2  874.51   34.60
   4  -1   2  831.52   39.60
  -4   0  -2 1374.76   47.60
   4   0   2 1251.47   53.79
  -4  -1  -2  860.61   35.20
   4   1   2  863.51   40.40
  -4  -2  -2 1670.53   60.19
   4   2   2 1589.54   66.39
  -4  -3  -2  582.14   29.00
   4   3   2  619.54   34.60
  -4  -4  -2  998.40   43.70
   4   4   2 1009.10   50.59
  -4  -5  -2  229.58   10.90
   4   5   2  253.07   11.90
   4   5   2  254.67   11.80
   4   5   2  245.58   11.50
   4   5   2  249.88   11.00
   4   5   2  265.67   11.10
  -4  -6  -2  413.76   15.50
   4   6   2  392.26   15.70
   4   6   2  402.46   15.60
   4   6   2  399.06   15.30
   4   6   2  395.46   16.40
   4   6   2  386.16   16.40
   4   6   2  396.16   16.10
  -4  -7  -2   37.50    3.20
  -4  -7  -2   41.40    3.20
   4   7   2   53.49    3.60
   4   7   2   52.19    4.10
   4   7   2   56.49    3.90
   4   7   2   53.59    3.50
   4   7   2   51.79    3.90
  -3   7  -2   23.40    2.40
  -3   7  -2   25.70    2.70
  -3   7  -2   22.40    2.70
  -3   6  -2  446.96   17.00
  -3   6  -2  451.85   16.80
  -3   6  -2  445.36   17.30
  -3   6  -2  410.56   20.50
  -3   6  -2  445.36   17.60
  -3   5  -2   41.70    6.50
  -3   5  -2   44.60    4.90
  -3   5  -2   41.60    8.90
   3  -5   2   55.49   10.00
  -3   4  -2  395.66   21.30
  -3   4  -2  405.36   27.00
  -3   4  -2  376.86   16.30
   3  -4   2  331.07   24.60
  -3   3  -2  141.79   11.00
  -3   3  -2  139.69    7.70
  -3   3  -2  145.49   14.50
   3  -3   2  160.18   14.50
  -3   2  -2  906.81   34.90
   3  -2   2  849.61   40.00
  -3   1  -2  287.87   15.00
   3  -1   2  337.57   19.80
  -3   0  -2  161.88    9.60
  -3   0  -2  183.88    9.80
   3   0   2  155.38   12.70
  -3  -1  -2  343.57   15.90
   3   1   2  298.47   14.40
   3   1   2  268.77   18.20
  -3  -2  -2  757.12   33.40
   3   2   2  847.32   38.60
   3   2   2  939.21   33.30
  -3  -3  -2  159.28    8.30
  -3  -3  -2  170.18   12.10
   3   3   2  133.59   13.60
   3   3   2  185.58   11.70
  -3  -4  -2  362.06   20.90
  -3  -4  -2  345.67   15.70
   3   4   2  351.46   19.80
   3   4   2  384.86   25.90
  -3  -5  -2   52.39    5.20
  -3  -5  -2   54.49    7.80
   3   5   2   49.20    5.00
   3   5   2   43.40    6.70
   3   5   2   47.40    9.60
  -3  -6  -2  456.85   17.20
   3   6   2  452.25   16.40
   3   6   2  452.55   17.20
   3   6   2  471.65   18.80
   3   6   2  459.75   18.90
   3   6   2  457.25   17.20
   3   6   2  454.65   20.30
   3   6   2  445.46   18.10
   3   6   2  471.05   17.50
  -3  -7  -2   29.70    2.70
   3   7   2   24.50    3.20
   3   7   2   22.80    2.90
   3   7   2   24.60    2.20
   3   7   2   23.10    2.80
   3   7   2   23.70    2.50
   3   7   2   27.50    2.70
   3   7   2   22.60    3.50
   3   7   2   24.60    2.50
  -3  -8  -2  425.26   14.50
   3   8   2  403.56   13.70
   3   8   2  405.16   15.40
   3   8   2  396.76   14.40
   3   8   2  396.26   14.60
   3   8   2  397.96   14.30
   3   8   2  411.36   14.90
  -2   8  -2   62.99    3.80
  -2   8  -2   63.49    3.80
  -2   7  -2   47.10    4.10
  -2   7  -2   41.30    3.70
  -2   7  -2   45.80    3.60
  -2   7  -2   49.50    3.90
  -2   6  -2  189.18    9.50
  -2   6  -2  195.38    9.00
  -2   6  -2  191.28    9.10
  -2   6  -2  186.48    9.50
  -2   6  -2  183.18    9.20
  -2   5  -2  110.69   12.80
  -2   5  -2  102.99    9.40
  -2   5  -2  108.39    7.40
   2  -5   2   78.79    8.50
   2  -5   2   78.59   11.40
  -2   4  -2 1669.83   67.69
  -2   4  -2 1795.32   62.69
  -2   4  -2 1671.83   61.09
  -2   4  -2 1717.03   57.39
   2  -4   2 1761.62   61.59
   2  -4   2 1831.82   70.19
  -2   3  -2  267.57   18.00
  -2   3  -2  292.67   15.50
   2  -3   2  302.57   14.80
   2  -3   2  285.07   18.80
  -2   2  -2 2764.62  108.89
  -2   2  -2 2761.42  101.19
   2  -2   2 2735.63  107.99
   2  -2   2 2850.91   98.49
  -2   1  -2  140.29    7.80
   2  -1   2  109.29    7.50
   2  -1   2  110.89    9.80
  -2   0  -2 9999.00  305.27
  -2   0  -2 9942.81  547.45
  -2   0  -2 8852.71  301.17
   2   0   2 9765.52  331.37
   2   0   2 9402.96  338.27
   2   0   2 8819.12  304.47
   2   1   2  151.38   11.20
   2   1   2  137.19    7.00
   2   1   2  138.99    8.10
   2   1   2  148.49    6.30
   2   1   2  127.09   11.70
   2   1   2  131.29   13.30
  -2  -2  -2 2657.73   94.69
  -2  -2  -2 2619.94   86.99
   2   2   2 2840.02  113.59
   2   2   2 2851.31   89.49
   2   2   2 2857.71   97.09
  -2  -3  -2  255.37   11.30
  -2  -3  -2  247.88   14.60
   2   3   2  268.07   17.90
   2   3   2  295.27   14.90
   2   3   2  269.67   11.60
  -2  -4  -2 1744.03   57.59
  -2  -4  -2 1805.62   63.79
   2   4   2 1684.73   57.69
   2   4   2 1709.43   57.39
   2   4   2 1814.72   70.29
   2   4   2 1698.73   62.89
  -2  -5  -2   85.59    6.90
  -2  -5  -2   78.09    9.10
   2   5   2  109.19   10.40
   2   5   2  109.79    7.50
   2   5   2  114.59   13.80
   2   6   2  189.58    8.30
   2   6   2  186.58    9.00
   2   6   2  190.28    9.60
   2   6   2  189.48   10.30
   2   6   2  196.68    9.00
   2   6   2  188.18   11.40
   2   6   2  198.68   10.30
   2   7   2   47.70    4.10
   2   7   2   42.40    5.10
   2   7   2   45.60    3.30
   2   7   2   48.80    3.70
   2   7   2   51.59    4.80
   2   7   2   49.70    4.50
   2   7   2   45.40    3.80
   2   8   2   64.59    4.10
   2   8   2   63.39    4.10
   2   8   2   60.59    3.50
   2   8   2   64.79    4.30
   2   8   2   62.49    4.70
   2   8   2   64.09    3.80
  -1   8  -2  392.66   13.90
  -1   8  -2  401.36   15.20
  -1   8  -2  394.26   14.40
  -1   8  -2  375.06   14.30
  -1   8  -2  369.56   14.30
  -1   7  -2  341.37   14.50
  -1   7  -2  363.96   13.70
  -1   7  -2  367.76   14.50
  -1   7  -2  368.16   15.30
  -1   7  -2  359.46   14.30
  -1   6  -2 1564.04   66.19
  -1   6  -2 1433.96   56.39
   1  -6   2 1411.16   56.19
   1  -6   2 1409.36   64.09
  -1   5  -2 1205.28   52.79
  -1   5  -2 1121.89   41.60
  -1   5  -2 1199.28   46.10
   1  -5   2 1139.59   45.30
   1  -5   2 1136.59   40.20
  -1   4  -2 1197.58   41.40
  -1   4  -2 1250.47   45.70
  -1   4  -2 1227.38   50.49
  -1   4  -2 1249.68   45.20
   1  -4   2 1198.28   44.90
  -1   3  -2  269.37   13.40
  -1   3  -2  251.47   15.90
  -1   3  -2  289.47   13.90
   1  -3   2  266.07   13.40
  -1   2  -2 1060.99   40.70
  -1   2  -2 1076.79   37.90
  -1   2  -2 1096.09   37.40
   1  -2   2 1074.09   41.00
   1  -2   2 1118.39   37.60
  -1   1  -2 1201.18   40.30
  -1   1  -2 1166.58   45.90
  -1   1  -2 1182.98   43.50
  -1   1  -2 1214.18   46.70
   1  -1   2 1157.58   44.90
   1  -1   2 1125.49   43.10
   1  -1   2 1284.77   46.00
   1  -1   2 1256.97   40.70
  -1   0  -2    5.30    2.50
  -1   0  -2    7.40    1.10
  -1   0  -2    7.00    1.00
  -1   0  -2   10.10    2.80
   1   0   2    7.80    2.30
   1   0   2    5.30    1.90
   1   0   2    8.40    2.50
   1   0   2    5.40    2.20
  -1  -1  -2 1134.69   38.30
  -1  -1  -2 1215.98   50.79
  -1  -1  -2 1221.88   42.70
  -1  -1  -2 1059.89   39.20
  -1  -1  -2 1161.98   44.60
   1   1   2 1202.88   39.90
   1   1   2 1177.08   39.70
   1   1   2 1227.58   45.20
   1   1   2 1136.79   42.40
   1   1   2 1146.49   44.90
  -1  -2  -2 1073.89   39.90
  -1  -2  -2 1129.59   39.40
   1   2   2 1152.68   36.70
   1   2   2 1162.28   39.80
   1   2   2 1117.79   40.30
   1   2   2 1156.18   43.10
  -1  -3  -2  262.97   14.30
  -1  -3  -2  249.88   10.80
   1   3   2  277.17   13.80
   1   3   2  249.18   14.20
   1   3   2  248.48   10.90
   1   3   2  256.17   16.00
  -1  -4  -2 1324.77   43.30
  -1  -4  -2 1253.57   48.20
   1   4   2 1293.27   53.39
   1   4   2 1239.68   43.30
   1   4   2 1254.47   43.10
   1   4   2 1298.07   48.20
  -1  -5  -2 1302.47   43.00
  -1  -5  -2 1168.08   48.30
   1   5   2 1212.28   42.80
   1   5   2 1143.69   42.60
   1   5   2 1256.47   55.89
   1   5   2 1210.58   48.70
  -1  -6  -2 1523.25   53.29
  -1  -6  -2 1324.17   57.79
   1   6   2 1589.94   69.59
   1   6   2 1578.24   53.89
   1   6   2 1556.84   60.99
   1   6   2 1578.14   53.69
   1   7   2  362.26   15.50
   1   7   2  364.06   16.30
   1   7   2  364.36   14.60
   1   7   2  364.96   15.10
   1   7   2  358.26   14.10
   1   7   2  344.67   17.50
   1   7   2  372.16   13.70
   1   8   2  390.66   14.00
   1   8   2  380.76   15.90
   1   8   2  374.76   14.90
   1   8   2  382.06   13.70
   1   8   2  386.16   14.70
   0   8  -2   92.39    4.80
   0   8  -2   85.29    4.90
   0   8  -2   87.59    5.10
   0   8  -2   91.09    5.60
   0   8  -2   91.39    5.10
   0   7  -2  220.88    9.40
   0   7  -2  231.58   14.00
   0   7  -2  214.38   10.70
   0   7  -2  231.28   10.10
   0   7  -2  204.78   10.00
   0   7  -2  226.38   10.20
   0   6  -2   67.09   10.50
   0   6  -2   64.49    8.20
   0  -6   2   71.19    8.30
   0   5  -2  852.71   35.50
   0   5  -2  813.42   40.40
   0  -5   2  833.72   35.30
   0   4  -2 1023.20   42.90
   0   4  -2  967.90   38.00
   0  -4   2 1008.50   38.40
   0   3  -2 1876.01   62.49
   0   3  -2 1767.72   61.89
   0   3  -2 1934.51   66.39
   0  -3   2 1904.61   62.69
   0   2  -2  274.07   12.90
   0   2  -2  269.97   11.50
   0   2  -2  272.07   12.30
   0   2  -2  275.77   14.10
   0  -2   2  303.37   18.50
   0  -2   2  286.07   10.90
   0  -2   2  295.27   12.40
   0   1  -2 7025.80  315.67
   0   1  -2 8037.60  588.94
   0   1  -2 8001.70  271.17
   0  -1   2 7447.85  481.95
   0  -1   2 7210.08  334.17
   0  -1   2 6928.11  549.95
   0   0  -2 2358.76   80.79
   0   0  -2 2441.86  106.59
   0   0  -2 2433.36   95.19
   0   0   2 2378.16   82.59
   0   0   2 2461.75  103.89
   0   0   2 2314.87   92.39
   0  -1  -2 6584.84  215.78
   0  -1  -2 6008.40  351.56
   0  -1  -2 6616.64  499.15
   0  -1  -2 6900.01  527.35
   0   1   2 6941.81  529.55
   0   1   2 6475.45  513.35
   0   1   2 6460.45  378.76
   0  -2  -2  287.67   15.40
   0  -2  -2  298.27   13.50
   0  -2  -2  289.77   12.90
   0   2   2  245.78   10.60
   0   2   2  284.77   13.70
   0   2   2  277.07   13.90
   0   2   2  279.57   12.60
   0  -3  -2 1844.82   63.19
   0   3   2 1862.01   63.59
   0   3   2 1803.82   64.59
   0   3   2 1843.12   61.79
   0   3   2 1815.82   58.69
   0  -4  -2  985.30   38.80
   0   4   2  945.71   37.50
   0   4   2  994.50   41.60
   0   4   2  929.81   33.50
   0   4   2  922.01   38.70
   0   4   2  992.50   33.80
   0  -5  -2  828.62   30.60
   0  -5  -2  770.82   35.60
   0   5   2  827.52   35.80
   0   5   2  867.91   31.40
   0   5   2  839.22   41.30
   0   5   2  859.21   31.20
   0  -6  -2   74.39    6.30
   0   6   2   68.69    6.20
   0   6   2   65.89    8.60
   0   6   2   64.69    6.30
   0   7   2  216.08   12.70
   0   7   2  214.58   10.00
   0   7   2  223.18   11.60
   0   7   2  212.28   10.30
   0   7   2  214.18    9.10
   0   7   2  205.08    9.20
   0   8   2   87.09    4.60
   0   8   2   89.29    6.10
   0   8   2   91.99    5.40
   0   8   2   88.19    5.40
   1   8  -2    0.50    0.60
   1   8  -2    1.50    0.90
   1   8  -2    1.20    0.80
   1   8  -2    0.80    0.80
   1   8  -2    0.70    0.80
   1   8  -2    1.10    1.00
   1   7  -2  685.53   29.00
   1   7  -2  723.33   24.50
   1   7  -2  709.63   25.60
   1   7  -2  710.23   26.20
   1   7  -2  710.93   25.40
   1   7  -2  717.23   25.10
   1   7  -2  722.03   25.30
   1   6  -2   46.50    5.30
   1   6  -2   46.10    6.80
   1   6  -2   40.80    8.20
  -1  -6   2   42.70    6.50
   1   5  -2 1442.56   49.99
   1   5  -2 1447.46   54.49
   1   5  -2 1463.15   60.49
  -1  -5   2 1413.66   50.59
  -1  -5   2 1495.75   55.09
   1   4  -2  175.98   11.30
   1   4  -2  176.18   13.80
  -1  -4   2  171.28   11.40
  -1  -4   2  178.58    8.20
   1   3  -2 1190.78   43.20
   1   3  -2 1258.17   46.90
   1   3  -2 1300.17   43.90
  -1  -3   2 1244.08   43.80
  -1  -3   2 1244.58   39.90
   1   2  -2 1187.18   42.10
   1   2  -2 1215.88   42.90
   1   2  -2 1084.29   50.49
   1   2  -2 1268.47   40.90
  -1  -2   2 1288.07   39.50
  -1  -2   2 1296.37   41.10
  -1  -2   2 1183.58   45.80
  -1  -2   2 1190.28   40.10
   1   1  -2 2790.22  106.39
   1   1  -2 2716.43  115.69
   1   1  -2 2695.83   90.39
  -1  -1   2 2629.64   93.49
  -1  -1   2 2626.94  101.89
   1   0  -2   13.60    3.10
   1   0  -2    7.40    1.90
   1   0  -2   10.80    2.80
  -1   0   2   10.80    2.80
  -1   0   2    7.40    1.80
  -1   0   2   10.80    2.90
   1  -1  -2 2700.13  102.19
   1  -1  -2 2315.37   89.39
   1  -1  -2 2441.96  103.59
  -1   1   2 2454.85   83.39
  -1   1   2 2643.54   95.89
  -1   1   2 2620.64  104.99
  -1   1   2 2615.34   86.99
  -1   1   2 2616.04   96.59
   1  -2  -2 1219.08   45.10
   1  -2  -2 1210.18   42.60
   1  -2  -2 1151.88   41.10
  -1   2   2 1099.89   38.30
  -1   2   2 1259.57   42.70
  -1   2   2 1191.08   40.00
  -1   2   2 1171.58   41.70
  -1   3   2 1268.57   43.50
  -1   3   2 1173.98   45.20
  -1   3   2 1254.47   41.00
  -1   3   2 1268.57   46.10
   1  -4  -2  161.08   11.70
  -1   4   2  168.18    8.70
  -1   4   2  167.78   11.00
  -1   4   2  157.28   12.00
  -1   4   2  157.88    9.30
   1  -5  -2 1409.76   55.39
   1  -5  -2 1474.45   48.80
  -1   5   2 1436.46   49.60
  -1   5   2 1426.46   54.09
  -1   5   2 1344.87   55.39
  -1   5   2 1491.15   49.30
   1  -6  -2   49.10    4.90
  -1   6   2   40.20    6.70
  -1   6   2   43.50    5.10
  -1   6   2   44.20    4.90
  -1   7   2  695.03   26.80
  -1   7   2  678.13   24.80
  -1   7   2  690.43   24.80
  -1   7   2  712.73   23.60
  -1   7   2  668.23   28.40
  -1   8   2    0.80    0.80
  -1   8   2    0.70    0.70
  -1   8   2    0.90    0.90
   2   8  -2   46.50    3.30
   2   8  -2   46.00    3.30
   2   8  -2   48.90    3.70
   2   8  -2   40.00    3.30
   2   8  -2   49.40    3.20
   2   8  -2   46.10    3.50
  -2  -8   2   44.10    3.20
   2   7  -2  329.87   13.60
   2   7  -2  333.27   13.80
   2   7  -2  326.27   15.50
   2   7  -2  354.16   14.20
   2   7  -2  342.77   13.90
   2   7  -2  345.07   17.40
   2   7  -2  342.07   13.00
   2   7  -2  335.17   14.30
   2   6  -2   28.60    2.80
   2   6  -2   28.20    3.20
   2   6  -2   25.90    3.10
   2   6  -2   26.20    3.30
   2   6  -2   24.70    5.10
   2   6  -2   31.80    7.30
   2   6  -2   30.80    5.90
   2   6  -2   25.40    2.90
   2   6  -2   26.00    4.10
   2   6  -2   25.10    3.00
  -2  -6   2   28.80    5.40
  -2  -6   2   28.10    3.50
   2   5  -2  432.16   26.40
   2   5  -2  436.16   21.90
   2   5  -2  448.16   18.60
  -2  -5   2  385.56   21.40
  -2  -5   2  384.26   16.80
   2   4  -2   54.99    6.00
   2   4  -2   53.99    7.40
  -2  -4   2   62.79    4.40
  -2  -4   2   69.99    6.70
   2   3  -2 2484.85   94.69
   2   3  -2 2541.35   84.49
  -2  -3   2 2452.85   84.39
  -2  -3   2 2403.26   80.69
   2   2  -2  345.87   16.00
   2   2  -2  359.06   16.30
   2   2  -2  360.66   14.30
  -2  -2   2  348.67   13.80
  -2  -2   2  341.57   12.70
  -2  -2   2  327.27   14.20
   2   1  -2 3992.80  147.39
   2   1  -2 3840.32  156.68
   2   1  -2 3826.12  133.49
  -2  -1   2 3812.02  154.18
  -2  -1   2 3786.52  130.39
  -2  -1   2 4044.40  158.98
  -2  -1   2 3822.22  123.09
  -2  -1   2 3785.52  126.09
   2   0  -2  502.25   21.80
   2   0  -2  477.45   18.20
   2   0  -2  489.35   21.90
  -2   0   2  446.56   21.90
  -2   0   2  460.75   16.50
  -2   0   2  473.85   18.00
  -2   0   2  482.05   22.00
  -2   0   2  495.85   19.00
   2  -1  -2 3793.42  136.69
   2  -1  -2 3684.83  140.89
   2  -1  -2 3837.32  128.69
  -2   1   2 3988.50  134.19
  -2   1   2 3695.23  145.59
  -2   1   2 3872.91  131.89
  -2   1   2 3621.24  123.69
  -2   1   2 3708.03  134.29
   2  -2  -2  335.37   17.60
   2  -2  -2  340.47   14.10
  -2   2   2  355.96   16.10
  -2   2   2  311.17   12.90
  -2   2   2  332.87   14.20
  -2   2   2  316.07   20.70
   2  -3  -2 2535.85   85.09
  -2   3   2 2435.16   84.09
  -2   3   2 2405.36   85.89
  -2   3   2 2480.15   77.99
  -2   4   2   54.09    4.70
  -2   4   2   55.49    4.60
   2  -5  -2  356.86   25.40
  -2   5   2  427.16   18.40
  -2   5   2  437.86   17.90
  -2   6   2   32.20    4.80
   3   8  -2  257.17   11.90
   3   8  -2  283.07   10.90
   3   8  -2  283.27   11.00
   3   8  -2  268.37   10.60
   3   8  -2  259.37   10.50
   3   8  -2  285.07   10.30
   3   8  -2  290.77   11.20
  -3  -8   2  296.67   10.80
   3   7  -2  191.68    8.40
   3   7  -2  211.78   11.10
   3   7  -2  193.98   12.00
   3   7  -2  204.68    9.40
   3   7  -2  196.98    9.60
   3   7  -2  195.68    9.10
   3   7  -2  206.58    9.50
   3   7  -2  214.48    9.50
  -3  -7   2  209.18    9.40
   3   6  -2  206.68   10.20
   3   6  -2  232.58   10.40
   3   6  -2  219.38   10.30
   3   6  -2  230.68   11.80
   3   6  -2  218.28   13.00
   3   6  -2  213.78    9.20
   3   6  -2  222.18    9.90
   3   6  -2  226.58   10.20
   3   5  -2  554.44   26.60
   3   5  -2  576.04   32.00
   3   5  -2  591.64   23.60
  -3  -5   2  534.85   31.50
  -3  -5   2  591.24   22.60
   3   4  -2   63.49    7.40
   3   4  -2   69.09    5.60
   3   4  -2   64.49    8.40
  -3  -4   2   77.29    5.30
   3   3  -2 3588.04  123.19
  -3  -3   2 3278.57  112.09
  -3  -3   2 3136.19  103.69
   3   2  -2  205.38   11.30
  -3  -2   2  195.68   10.30
  -3  -2   2  187.28    8.60
   3   1  -2 6229.68  214.98
  -3  -1   2 6361.06  200.78
  -3  -1   2 6335.97  210.18
   3   0  -2  177.18    9.50
  -3   0   2  181.48    9.70
  -3   0   2  181.58    8.10
  -3   0   2  183.78    9.60
   3  -1  -2 6553.64  208.08
  -3   1   2 5770.62  197.78
  -3   1   2 6122.49  211.68
  -3   1   2 6192.28  206.58
   3  -2  -2  199.68   11.10
  -3   2   2  202.48   11.20
  -3   2   2  226.98   12.70
  -3   2   2  202.98    9.60
   3  -3  -2 3187.28  108.99
  -3   3   2 3082.69  100.69
  -3   3   2 3087.89  104.89
  -3   3   2 3063.59   97.49
  -3   4   2   70.99    6.30
  -3   4   2   65.39    8.40
   4   8  -2  198.18    8.00
   4   8  -2  205.88    8.20
   4   8  -2  205.28    7.90
   4   8  -2  193.68    9.00
  -4  -8   2  209.78    7.90
  -4  -8   2  193.48    8.10
   4   7  -2  764.82   24.50
   4   7  -2  718.03   24.80
   4   7  -2  704.43   24.80
   4   7  -2  736.03   26.80
   4   7  -2  659.63   27.80
   4   7  -2  724.43   24.80
  -4  -7   2  669.13   24.60
   4   6  -2  148.99   10.20
   4   6  -2  151.48    7.90
   4   6  -2  157.08    9.20
   4   6  -2  153.98    8.10
   4   6  -2  151.88    8.00
  -4  -6   2  177.88    8.40
   4   5  -2  938.71   35.20
  -4  -5   2  933.41   34.50
   4   4  -2 1386.76   47.50
  -4  -4   2 1344.27   46.70
   4   3  -2  826.32   30.10
  -4  -3   2  801.92   33.00
  -4  -3   2  880.71   30.10
  -4  -2   2 1991.50   66.49
  -4  -2   2 1901.31   62.59
   4   1  -2  190.88   11.00
  -4  -1   2  189.38    8.90
  -4  -1   2  179.38   10.90
   4   0  -2 3944.31  135.59
  -4   0   2 4128.69  146.09
  -4   0   2 3968.00  124.79
  -4   0   2 4027.30  142.39
   4  -1  -2  171.58   10.80
  -4   1   2  204.08   11.70
  -4   1   2  203.68    9.80
  -4   1   2  191.68   11.80
   4  -2  -2 2020.70   64.79
  -4   2   2 1792.92   64.39
  -4   2   2 1752.32   60.49
  -4   2   2 1880.61   66.39
   4  -3  -2  813.82   33.20
  -4   3   2  822.92   36.30
  -4   3   2  826.32   33.70
  -4   3   2  816.72   28.90
   4  -4  -2 1255.37   47.20
  -4   4   2 1243.68   41.30
  -4   4   2 1233.78   53.49
  -4   4   2 1261.47   47.90
   5   7  -2  164.68    8.70
   5   7  -2  178.28    7.80
   5   7  -2  176.48    7.40
  -5  -7   2  165.08    7.70
  -5  -7   2  177.18    7.80
   5   6  -2  901.91   32.60
   5   6  -2  940.21   31.60
   5   6  -2  908.81   30.80
   5   6  -2  902.91   34.20
   5   6  -2  915.91   31.40
   5   6  -2  942.21   33.10
  -5  -6   2  929.51   31.60
  -5  -6   2  912.81   31.70
   5   5  -2  259.47   11.80
   5   5  -2  266.97   12.90
   5   5  -2  263.17   12.70
   5   5  -2  262.37   11.60
   5   5  -2  262.77   13.80
  -5  -5   2  282.27   12.10
  -5  -5   2  273.57   12.10
   5   4  -2  698.63   28.20
  -5  -4   2  783.42   29.00
  -5  -3   2  411.26   17.60
  -5  -3   2  390.46   20.80
  -5  -2   2 2119.99   66.69
  -5  -2   2 1991.60   71.09
  -5  -2   2 1951.60   64.89
   5   1  -2  899.01   35.80
  -5  -1   2  878.21   31.20
  -5  -1   2  938.41   32.60
  -5  -1   2  900.31   36.40
   5   0  -2  955.50   37.90
  -5   0   2 1026.70   33.60
  -5   0   2  986.40   39.10
  -5   0   2  938.31   38.10
  -5   0   2  959.30   34.60
   5  -1  -2  902.31   36.50
  -5   1   2  914.91   31.80
  -5   1   2  920.01   36.90
  -5   1   2  914.31   37.90
   5  -2  -2 2039.00   71.19
  -5   2   2 2039.00   71.79
  -5   2   2 2037.70   65.49
  -5   2   2 1961.40   73.59
   5  -3  -2  393.36   21.10
  -5   3   2  400.56   15.80
  -5   3   2  417.46   17.20
  -5   3   2  413.76   21.90
  -5   3   2  399.06   23.80
   5  -4  -2  697.53   31.00
  -5   4   2  647.14   31.10
  -5   4   2  681.93   25.90
  -5   4   2  674.93   24.20
  -5   4   2  665.93   25.60
  -5   5   2  257.57   12.60
   6   7  -2   31.20    2.40
   6   7  -2   33.40    2.70
  -6  -7   2   23.50    2.10
  -6  -7   2   33.70    2.30
   6   6  -2  637.04   23.30
   6   6  -2  641.74   22.30
   6   6  -2  647.24   23.50
  -6  -6   2  597.04   22.30
  -6  -6   2  680.73   22.90
   6   5  -2   37.60    3.90
   6   5  -2   38.60    3.50
   6   5  -2   35.00    3.70
  -6  -5   2   34.70    3.60
  -6  -5   2   38.40    3.60
   6   4  -2 1157.18   39.40
   6   4  -2 1103.69   39.00
  -6  -4   2 1186.58   39.40
  -6  -4   2 1103.69   37.70
   6   3  -2  170.38   10.80
  -6  -3   2  161.48   10.10
  -6  -3   2  157.58   12.90
  -6  -2   2  401.76   22.20
  -6  -2   2  388.26   17.90
  -6  -1   2  138.59    7.90
  -6  -1   2  137.59   11.80
   6   0  -2 1404.96   53.69
  -6   0   2 1388.16   47.10
  -6   0   2 1349.56   45.90
  -6   0   2 1446.46   54.99
   6  -1  -2  137.39   11.60
  -6   1   2  141.79    8.10
  -6   1   2  121.69    7.10
  -6   1   2  134.89   11.60
  -6   1   2  145.29   12.70
   6  -2  -2  408.26   22.50
  -6   2   2  390.56   24.30
  -6   2   2  399.76   16.10
  -6   2   2  417.46   17.50
  -6   2   2  397.36   22.60
  -6   2   2  400.86   17.20
   6  -3  -2  163.38   13.30
  -6   3   2  174.28    8.80
  -6   3   2  162.78   10.50
  -6   3   2  174.38    8.80
  -6   3   2  171.98   13.80
  -6   3   2  168.68    9.90
  -6   3   2  170.78    9.80
  -6   4   2 1152.68   39.10
  -6   4   2 1109.59   40.90
  -6   4   2 1171.18   39.30
  -6   4   2 1114.49   37.10
  -6   4   2 1211.08   41.00
  -6   5   2   33.80    3.90
  -6   5   2   36.20    3.50
   7   6  -2  359.26   13.80
   7   6  -2  385.66   13.90
  -7  -6   2  388.36   13.60
   7   5  -2   12.90    2.50
   7   5  -2   16.60    2.30
  -7  -5   2   18.30    2.30
   7   4  -2  728.43   25.90
   7   4  -2  698.63   25.80
  -7  -4   2  711.23   25.60
  -7  -4   2  697.23   24.30
   7   3  -2   34.80    3.60
   7   3  -2   31.30    3.40
  -7  -3   2   30.70    3.30
  -7  -3   2   31.40    3.50
  -7  -3   2   32.40    3.10
   7   2  -2 1651.83   53.99
   7   2  -2 1655.73   54.29
  -7  -2   2 1628.34   54.79
  -7  -2   2 1667.33   53.89
  -7  -2   2 1667.13   53.69
   7   1  -2  284.57   12.40
   7   1  -2  300.07   12.30
  -7  -1   2  279.17   12.10
  -7  -1   2  282.07   13.00
  -7  -1   2  265.07   12.10
  -7  -1   2  279.97   12.10
  -7  -1   2  267.57   13.00
   7   0  -2 1378.86   46.50
  -7   0   2 1369.06   46.30
  -7   0   2 1404.66   47.00
  -7   0   2 1494.85   47.00
  -7   0   2 1336.87   48.00
  -7   0   2 1417.36   45.10
  -7   0   2 1455.95   48.40
  -7   0   2 1438.06   46.40
  -7   1   2  301.67   14.10
  -7   1   2  305.07   12.90
  -7   1   2  287.17   11.30
  -7   1   2  273.67   12.40
  -7   1   2  298.57   12.30
  -7   1   2  298.67   13.70
  -7   1   2  281.97   12.80
  -7   2   2 1707.93   53.89
  -7   2   2 1674.73   57.19
  -7   2   2 1744.53   56.09
  -7   2   2 1614.54   57.29
  -7   2   2 1697.53   55.59
  -7   2   2 1690.63   54.79
  -7   2   2 1776.42   56.19
  -7   3   2   33.20    2.70
  -7   3   2   35.10    4.20
  -7   3   2   31.50    3.00
  -7   3   2   36.60    4.20
  -7   3   2   35.30    3.60
  -7   3   2   35.60    3.60
  -7   3   2   33.90    3.50
  -7   4   2  674.63   22.50
  -7   4   2  659.53   24.10
  -7   4   2  683.03   24.30
  -7   4   2  668.83   26.00
  -7   4   2  651.63   25.40
  -7   5   2   15.70    1.60
  -7   5   2   15.80    2.20
  -7   5   2   15.00    2.40
   8   5  -2  158.48    7.00
  -8  -5   2  160.98    6.90
   8   4  -2  421.46   15.30
  -8  -4   2  378.16   15.10
   8   3  -2   87.69    5.40
   8   3  -2   94.59    5.50
  -8  -3   2   79.49    5.50
  -8  -3   2   82.19    4.80
   8   2  -2  473.75   17.70
   8   2  -2  458.15   17.60
  -8  -2   2  439.66   17.10
  -8  -2   2  441.46   17.40
  -8  -2   2  488.45   18.50
   8   1  -2  136.29    7.20
   8   1  -2  153.48    7.50
  -8  -1   2  133.89    7.20
  -8  -1   2  134.39    7.20
  -8  -1   2  126.19    7.80
   8   0  -2  362.76   15.20
   8   0  -2  367.36   14.50
   8   0  -2  366.06   14.30
  -8   0   2  338.77   15.40
  -8   0   2  387.06   15.30
  -8   0   2  359.46   14.60
  -8   0   2  362.06   14.40
  -8   0   2  345.57   14.10
  -8   0   2  345.97   13.30
  -8   0   2  348.67   15.50
   8  -1  -2  127.39    7.70
   8  -1  -2  133.69    7.20
  -8   1   2  153.28    8.50
  -8   1   2  150.58    7.90
  -8   1   2  146.29    8.00
  -8   1   2  142.39    8.50
  -8   1   2  150.58    7.40
  -8   1   2  142.19    7.30
  -8   1   2  146.29    6.70
  -8   2   2  477.85   19.60
  -8   2   2  484.25   18.40
  -8   2   2  478.55   17.50
  -8   2   2  486.85   18.50
  -8   2   2  459.65   19.10
  -8   2   2  480.55   16.80
  -8   2   2  448.96   17.80
  -8   3   2   90.39    4.90
  -8   3   2   92.29    4.60
  -8   3   2   94.59    5.80
  -8   3   2   90.39    6.20
  -8   3   2   87.99    5.60
  -8   3   2   91.79    5.50
   8  -4  -2  404.56   15.40
  -8   4   2  421.16   15.50
  -8   4   2  398.36   16.40
  -8   4   2  412.06   14.20
  -8   4   2  415.76   15.50
  -8   5   2  147.59    6.50
   9   3  -2  763.12   28.20
   9   3  -2  916.31   28.00
  -9  -3   2  882.01   28.20
   9   2  -2  171.38    7.50
   9   2  -2  158.58    7.40
  -9  -2   2  178.78    7.90
  -9  -2   2  172.48    7.20
   9   1  -2 1679.43   50.49
   9   1  -2 1556.54   50.69
  -9  -1   2 1475.75   50.99
  -9  -1   2 1601.94   50.59
  -9  -1   2 1642.44   50.89
   9   0  -2   91.19    5.60
   9   0  -2   89.99    4.60
   9   0  -2   94.69    5.20
  -9   0   2   95.59    4.60
  -9   0   2  105.09    5.70
  -9   0   2   85.09    5.30
  -9   0   2   91.49    5.10
  -9   0   2   99.89    5.30
   9  -1  -2 1611.04   50.29
   9  -1  -2 1571.84   51.29
  -9   1   2 1610.44   49.60
  -9   1   2 1554.14   50.19
  -9   1   2 1567.24   51.09
  -9   1   2 1570.94   50.59
   9  -2  -2  174.58    7.00
  -9   2   2  152.58    6.80
  -9   2   2  156.08    7.30
  -9   2   2  166.08    6.60
  -9   2   2  159.18    7.00
  -9   2   2  155.78    7.90
  -9   3   2  924.31   29.90
  -9   3   2  943.51   29.10
  -9   3   2  885.71   29.80
  -8   3  -3   22.20    1.80
  -8   3  -3   25.00    3.00
  -8   3  -3   22.40    1.90
  -8   2  -3  268.17   11.80
  -8   2  -3  255.77    9.40
  -8   2  -3  254.67    9.70
  -8   2  -3  269.77    9.60
  -8   2  -3  277.77   10.20
   8  -2   3  248.48    9.30
   8  -2   3  235.68   11.20
  -8   1  -3   24.50    2.30
  -8   1  -3   23.00    2.00
  -8   1  -3   23.40    2.10
  -8   1  -3   22.70    2.90
   8  -1   3   17.50    2.60
   8  -1   3   19.70    1.80
   8  -1   3   17.70    2.30
  -8   0  -3  103.39    5.20
  -8   0  -3  102.89    5.30
   8   0   3  105.19    6.00
   8   0   3  106.19    5.00
  -8  -1  -3   19.90    2.10
  -8  -1  -3   18.90    2.00
   8   1   3   22.50    1.90
   8   1   3   20.90    2.40
  -8  -2  -3  244.88    9.70
   8   2   3  259.57    9.70
   8   2   3  258.67    9.20
  -8  -3  -3   22.30    1.80
   8   3   3   21.50    1.80
  -7   5  -3  123.59    5.50
  -7   5  -3  123.19    5.70
  -7   5  -3  133.59    5.40
  -7   4  -3  370.36   15.80
  -7   4  -3  398.46   15.00
  -7   4  -3  376.46   13.90
  -7   4  -3  394.36   14.30
  -7   4  -3  390.96   14.10
   7  -4   3  385.56   15.80
  -7   3  -3  512.55   18.10
  -7   3  -3  508.25   18.30
  -7   3  -3  479.45   17.80
  -7   3  -3  485.15   20.40
  -7   3  -3  512.95   19.00
   7  -3   3  488.65   20.40
  -7   2  -3  280.67   11.80
  -7   2  -3  280.57   11.90
  -7   2  -3  297.57   14.50
  -7   2  -3  282.87   11.20
  -7   2  -3  283.07   12.20
  -7   2  -3  288.77   12.60
   7  -2   3  292.47   14.40
   7  -2   3  330.27   13.40
   7  -2   3  301.57   11.30
  -7   1  -3  569.14   19.70
  -7   1  -3  569.84   20.30
  -7   1  -3  542.55   20.60
  -7   1  -3  557.64   23.20
   7  -1   3  563.04   21.80
   7  -1   3  548.55   19.60
   7  -1   3  540.15   23.10
  -7   0  -3  148.09    7.50
  -7   0  -3  135.19    7.50
  -7   0  -3  139.39    6.90
  -7   0  -3  147.39    9.30
   7   0   3  139.69    9.00
   7   0   3  144.69    8.50
   7   0   3  136.29    6.80
  -7  -1  -3  579.24   19.80
  -7  -1  -3  564.44   20.30
  -7  -1  -3  538.75   20.30
   7   1   3  561.34   19.60
   7   1   3  555.04   20.10
   7   1   3  518.25   21.50
  -7  -2  -3  302.87   12.10
  -7  -2  -3  306.47   12.10
   7   2   3  286.37   11.20
   7   2   3  279.57   12.00
   7   2   3  282.17   12.80
  -7  -3  -3  497.95   17.70
   7   3   3  454.55   18.00
   7   3   3  497.65   16.70
   7   3   3  498.55   17.90
  -7  -4  -3  389.56   14.10
   7   4   3  386.96   14.10
  -7  -5  -3   99.29    4.60
   7   5   3  121.19    4.80
  -6   6  -3  115.09    5.20
  -6   6  -3  119.59    5.20
  -6   5  -3  813.02   27.40
  -6   5  -3  810.02   28.30
  -6   5  -3  824.52   27.60
  -6   5  -3  813.42   27.40
  -6   4  -3  252.77   12.90
  -6   4  -3  264.27   11.40
  -6   4  -3  249.08   10.90
  -6   4  -3  259.57   11.90
  -6   4  -3  258.57   11.20
  -6   4  -3  253.17   12.80
   6  -4   3  276.07   13.10
  -6   3  -3  712.93   25.60
  -6   3  -3  739.13   25.50
  -6   3  -3  688.13   25.10
  -6   3  -3  704.53   26.10
  -6   3  -3  688.33   27.20
  -6   3  -3  715.43   28.10
  -6   2  -3  599.84   24.10
  -6   2  -3  586.34   22.70
  -6   2  -3  570.44   21.00
  -6   2  -3  560.84   21.60
  -6   2  -3  540.55   21.10
  -6   2  -3  572.94   21.80
  -6   2  -3  522.05   20.40
  -6   2  -3  556.24   19.80
   6  -2   3  572.84   21.80
   6  -2   3  541.25   19.70
  -6   1  -3  500.35   20.20
  -6   1  -3  516.45   19.90
  -6   1  -3  519.55   21.00
  -6   1  -3  524.25   22.70
  -6   1  -3  515.75   18.90
   6  -1   3  547.75   19.10
   6  -1   3  556.04   21.30
   6  -1   3  566.84   23.00
  -6   0  -3  947.31   36.20
  -6   0  -3  968.80   32.70
  -6   0  -3  986.80   33.70
  -6   0  -3  944.21   33.80
   6   0   3 1019.80   35.40
   6   0   3  988.10   32.80
   6   0   3  994.70   36.70
  -6  -1  -3  510.45   19.60
  -6  -1  -3  538.85   19.00
  -6  -1  -3  534.05   19.70
   6   1   3  480.55   19.30
   6   1   3  526.45   21.30
   6   1   3  519.55   18.90
  -6  -2  -3  528.95   19.90
  -6  -2  -3  534.15   19.60
  -6  -2  -3  567.44   20.50
   6   2   3  555.04   19.70
   6   2   3  532.15   20.40
   6   2   3  553.14   22.00
  -6  -3  -3  745.13   25.80
  -6  -3  -3  742.83   25.40
   6   3   3  704.03   24.50
   6   3   3  706.33   25.90
   6   3   3  702.13   26.50
  -6  -4  -3  271.57   11.30
  -6  -4  -3  291.47   11.90
   6   4   3  279.57   12.00
  -6  -5  -3  837.72   28.10
  -6  -5  -3  847.32   27.90
   6   5   3  876.11   28.40
   6   5   3  801.82   28.10
  -6  -6  -3  125.59    5.20
  -6  -6  -3  120.19    5.10
   6   6   3  116.19    5.30
   6   6   3  119.19    5.10
  -5   6  -3   72.89    4.70
  -5   6  -3   75.89    4.60
  -5   6  -3   69.49    4.30
  -5   6  -3   74.59    4.40
  -5   5  -3  672.43   24.30
  -5   5  -3  662.23   26.50
  -5   5  -3  674.13   25.10
  -5   5  -3  697.53   24.50
  -5   5  -3  683.13   24.20
  -5   4  -3  195.78   11.10
  -5   4  -3  189.78    9.90
  -5   4  -3  194.58   11.00
  -5   4  -3  197.78    9.60
  -5   4  -3  186.08    9.30
  -5   4  -3  192.28    9.50
  -5   3  -3  925.71   33.00
  -5   3  -3  892.81   32.10
  -5   3  -3  958.90   32.50
  -5   3  -3  948.01   34.80
  -5   3  -3  944.41   34.50
  -5   3  -3  950.40   32.80
  -5   2  -3  137.79   12.80
  -5   2  -3  149.99    8.80
  -5   2  -3  151.98    9.40
   5  -2   3  152.08   15.80
  -5   1  -3  972.10   34.70
  -5   1  -3  917.51   32.40
   5  -1   3  909.61   46.00
   5  -1   3  918.91   32.80
  -5   0  -3   75.69    5.60
   5   0   3   90.89   12.30
   5   0   3   73.19    5.60
   5   1   3 1022.20   35.80
   5   1   3  983.90   50.29
  -5  -2  -3  149.69   12.80
   5   2   3  142.79   16.80
   5   2   3  141.49    8.60
  -5  -3  -3  975.50   32.50
  -5  -3  -3  955.40   32.40
   5   3   3  955.30   33.60
   5   3   3  915.21   31.20
   5   3   3  935.31   32.70
   5   3   3  887.81   31.80
  -5  -4  -3  200.28    9.40
  -5  -4  -3  191.68    9.20
   5   4   3  184.08    9.40
   5   4   3  185.18    9.30
   5   4   3  193.78    9.10
  -5  -5  -3  637.44   23.10
  -5  -5  -3  607.64   22.90
   5   5   3  674.83   23.10
   5   5   3  634.44   23.50
   5   5   3  689.03   23.40
  -5  -6  -3   62.19    4.00
  -5  -6  -3   64.69    4.10
   5   6   3   72.89    4.20
   5   6   3   75.99    4.60
   5   6   3   70.39    4.10
  -5  -7  -3  412.36   14.20
   5   7   3  428.76   14.80
   5   7   3  408.36   14.40
  -4   7  -3  161.38    7.30
  -4   7  -3  167.78    7.10
  -4   7  -3  163.58    7.20
  -4   6  -3   97.19    5.90
  -4   6  -3   96.09    5.70
  -4   6  -3   88.39    6.60
  -4   6  -3   94.49    5.60
  -4   6  -3   90.29    6.80
   4  -6   3   92.79    6.60
  -4   5  -3 1041.90   34.60
  -4   5  -3  978.10   35.20
  -4   5  -3 1024.30   34.70
  -4   5  -3  993.40   37.10
  -4   5  -3  998.70   34.50
  -4   5  -3  985.20   34.20
  -4   4  -3  124.09    8.40
  -4   4  -3  123.39   12.50
   4  -4   3  122.89   15.00
  -4   3  -3 1091.89   46.40
  -4   3  -3 1060.09   38.20
   4  -3   3 1082.69   51.89
  -4   2  -3   10.00    2.40
  -4   2  -3    9.50    3.70
   4  -2   3    6.70    4.10
  -4   1  -3 2232.78   80.79
  -4   1  -3 2312.47   74.19
   4  -1   3 2450.15   89.19
   4   0   3   29.70    6.40
   4   1   3 2300.97   89.09
  -4  -2  -3    9.00    3.60
   4   2   3   10.20    4.90
  -4  -3  -3 1102.89   46.30
   4   3   3 1071.89   53.69
  -4  -4  -3  122.19   12.20
   4   4   3  125.89   15.80
  -4  -5  -3 1109.79   34.70
  -4  -5  -3 1065.99   34.20
   4   5   3  944.01   33.70
   4   5   3  963.80   34.80
   4   5   3  976.60   34.80
   4   5   3  972.60   34.30
   4   5   3 1003.90   34.30
  -4  -6  -3  101.99    5.80
  -4  -6  -3   91.49    5.30
   4   6   3   97.69    6.10
   4   6   3   93.89    5.60
   4   6   3  100.79    5.50
   4   6   3   94.49    6.00
   4   6   3   98.09    6.20
   4   6   3  101.39    5.70
  -4  -7  -3  149.99    7.20
   4   7   3  164.88    7.30
   4   7   3  170.08    7.80
   4   7   3  174.28    7.60
   4   7   3  178.18    7.80
  -3   7  -3  663.93   22.90
  -3   7  -3  636.84   22.40
  -3   7  -3  638.94   22.70
  -3   7  -3  641.44   22.40
  -3   6  -3  169.58    8.80
  -3   6  -3  164.08   10.00
  -3   6  -3  170.48    8.60
  -3   6  -3  174.58    8.60
  -3   6  -3  167.18    8.40
   3  -6   3  169.98    9.90
  -3   5  -3  586.64   22.00
  -3   5  -3  601.34   21.90
  -3   5  -3  591.24   21.70
  -3   5  -3  571.64   21.80
  -3   5  -3  573.54   24.10
  -3   4  -3  204.28   15.60
  -3   4  -3  187.18   10.70
   3  -4   3  202.28   19.00
  -3   3  -3 1212.78   42.10
  -3   3  -3 1237.48   49.20
   3  -3   3 1247.28   56.29
  -3   2  -3  429.76   21.40
  -3   2  -3  425.06   16.50
   3  -2   3  397.36   25.20
  -3   1  -3  121.89    9.20
   3  -1   3  118.79   11.90
  -3   0  -3 1487.15   51.69
   3   0   3 1450.45   58.49
   3   0   3 1491.15   52.69
  -3  -1  -3  114.09    9.30
   3   1   3  132.79    9.60
   3   1   3  134.09   13.10
  -3  -2  -3  397.36   21.30
   3   2   3  435.46   26.70
   3   2   3  448.56   21.30
  -3  -3  -3 1175.58   47.60
   3   3   3 1110.29   46.20
   3   3   3 1308.37   56.19
  -3  -4  -3  200.88   15.20
   3   4   3  200.18   19.30
   3   4   3  172.28   14.10
   3   5   3  579.94   21.10
   3   5   3  568.84   21.90
   3   5   3  553.94   21.80
   3   5   3  593.04   21.60
   3   5   3  568.54   22.30
   3   6   3  166.48    9.30
   3   6   3  174.38    8.50
   3   6   3  173.78    8.40
   3   6   3  159.78    8.90
   3   6   3  170.88    7.60
   3   6   3  171.28    9.10
   3   6   3  176.88   10.50
  -3  -7  -3  643.94   23.00
   3   7   3  700.73   22.30
   3   7   3  673.83   23.90
   3   7   3  634.14   24.00
   3   7   3  632.24   23.00
   3   7   3  655.03   23.70
   3   7   3  707.03   23.00
  -3  -8  -3   41.00    2.50
   3   8   3   36.00    2.60
   3   8   3   34.00    2.40
   3   8   3   32.90    2.30
   3   8   3   32.70    2.60
  -2   8  -3   51.29    3.20
  -2   8  -3   43.70    3.20
  -2   8  -3   46.60    3.10
  -2   8  -3   45.00    3.10
  -2   7  -3  147.79    7.60
  -2   7  -3  150.08    7.40
  -2   7  -3  154.28    7.60
  -2   7  -3  144.09    7.90
  -2   7  -3  153.68    7.80
  -2   6  -3  256.47   11.90
  -2   6  -3  261.17   12.40
  -2   6  -3  274.07   11.90
  -2   6  -3  270.67   11.80
  -2   6  -3  269.37   11.90
  -2   6  -3  265.37   13.50
   2  -6   3  272.67   13.40
  -2   5  -3  628.54   31.60
  -2   5  -3  648.04   26.10
  -2   5  -3  655.73   38.40
   2  -5   3  687.33   39.10
   2  -5   3  648.54   31.30
  -2   4  -3 1109.29   38.20
  -2   4  -3 1080.69   44.30
  -2   4  -3 1111.09   50.89
   2  -4   3 1043.40   42.90
   2  -4   3 1032.60   49.90
  -2   3  -3 1856.01   67.39
  -2   3  -3 1889.61   73.89
  -2   3  -3 1857.41   61.59
   2  -3   3 1975.90   66.99
   2  -3   3 1900.11   73.69
  -2   2  -3 3015.40  104.59
   2  -2   3 2927.71  104.69
   2  -2   3 3042.90   98.89
  -2   1  -3 1848.62   67.29
   2  -1   3 2064.49   73.79
   2  -1   3 2130.69   68.59
  -2   0  -3 3980.40  138.29
   2   0   3 4067.49  142.59
   2   0   3 4049.89  156.78
  -2  -1  -3 1979.70   62.89
   2   1   3 1755.72   62.89
   2   1   3 1789.82   68.39
  -2  -2  -3 2848.11   95.69
   2   2   3 2938.81   96.49
   2   2   3 2905.41  102.59
  -2  -3  -3 2033.10   68.79
  -2  -3  -3 1917.41   61.99
   2   3   3 1878.11   62.19
   2   3   3 1895.51   74.59
   2   3   3 1848.52   67.99
  -2  -4  -3 1024.50   37.10
  -2  -4  -3 1019.20   43.30
   2   4   3 1083.99   50.69
   2   4   3 1046.00   43.70
   2   4   3 1019.50   37.30
   2   4   3 1098.29   37.50
  -2  -5  -3  645.24   26.30
  -2  -5  -3  699.33   33.50
   2   5   3  620.24   26.40
   2   5   3  682.33   40.30
   2   5   3  637.54   26.20
   2   5   3  641.14   32.70
   2   6   3  267.27   12.60
   2   6   3  274.47   11.60
   2   6   3  275.77   12.10
   2   6   3  273.97   14.50
   2   6   3  271.07   13.10
   2   6   3  272.17   12.50
   2   6   3  267.07   10.90
   2   6   3  267.07   11.70
   2   7   3  153.48    8.50
   2   7   3  147.79    7.20
   2   7   3  146.59    7.50
   2   7   3  149.49    8.00
   2   7   3  153.38    8.10
   2   7   3  141.69    6.70
   2   7   3  145.39    9.40
  -2  -8  -3   45.20    2.90
   2   8   3   50.09    3.10
   2   8   3   49.80    3.30
   2   8   3   46.90    3.20
   2   8   3   50.59    3.80
   2   8   3   51.29    2.90
   2   8   3   48.40    3.50
  -1   8  -3  821.32   27.70
  -1   8  -3  812.72   27.70
  -1   8  -3  858.21   28.60
  -1   8  -3  835.92   27.90
  -1   7  -3   53.99    4.30
  -1   7  -3   52.39    4.20
  -1   7  -3   51.69    3.70
  -1   7  -3   55.29    4.60
  -1   7  -3   56.49    4.20
  -1   7  -3   49.70    3.90
  -1   6  -3 1493.95   48.50
  -1   6  -3 1493.95   49.60
  -1   6  -3 1432.56   49.30
  -1   6  -3 1562.44   49.60
  -1   6  -3 1619.54   50.99
  -1   6  -3 1448.96   49.80
  -1   5  -3  110.69    7.70
  -1   5  -3  122.39   13.70
   1  -5   3  110.79    7.50
   1  -5   3  114.49   10.70
   1  -5   3  117.89   13.80
  -1   4  -3 3168.98  109.69
  -1   4  -3 3011.40  102.79
  -1   4  -3 3158.58   97.69
   1  -4   3 2935.11  102.59
   1  -4   3 3038.30  109.89
  -1   3  -3  255.87   16.90
  -1   3  -3  241.38   14.30
   1  -3   3  251.97   14.10
   1  -3   3  245.68   17.20
  -1   2  -3 3325.17  117.39
  -1   2  -3 3254.17  117.19
   1  -2   3 3327.07  118.99
   1  -2   3 3496.35  119.49
  -1   1  -3  152.88    9.50
   1  -1   3  165.98   12.00
   1  -1   3  181.68   10.50
  -1   0  -3  997.30   46.60
  -1   0  -3 1040.90   36.00
  -1   0  -3 1049.09   44.80
   1   0   3  949.60   43.80
   1   0   3 1098.29   37.60
   1   0   3 1019.70   40.20
  -1  -1  -3  150.68   13.50
  -1  -1  -3  164.38    9.20
  -1  -1  -3  146.99    8.10
   1   1   3  154.48    9.80
   1   1   3  154.78    6.70
   1   1   3  148.79   11.50
   1   1   3  147.39   13.30
   1   1   3  150.98    9.00
  -1  -2  -3 3359.96  108.79
   1   2   3 3174.18  107.29
   1   2   3 3638.74  119.79
   1   2   3 3164.28  118.39
   1   2   3 3479.95  114.09
  -1  -3  -3  247.38   14.90
   1   3   3  248.48   11.40
   1   3   3  257.17   15.00
   1   3   3  258.07   17.70
   1   3   3  261.57   15.40
  -1  -4  -3 3029.00  102.29
  -1  -4  -3 2813.32   94.99
   1   4   3 2980.50   95.39
   1   4   3 3127.09  109.09
   1   4   3 2865.31   95.49
   1   4   3 3094.39  102.39
  -1  -5  -3  120.09    8.30
  -1  -5  -3  117.89   11.60
   1   5   3  112.99    8.20
   1   5   3  129.39    8.70
   1   5   3  117.69   11.60
   1   5   3  114.89   14.10
   1   6   3 1533.65   50.69
   1   6   3 1589.74   50.29
   1   6   3 1572.14   53.29
   1   6   3 1600.04   52.19
   1   6   3 1509.05   51.59
   1   6   3 1547.65   51.29
   1   6   3 1589.44   52.59
   1   6   3 1620.94   55.49
   1   7   3   50.29    5.50
   1   7   3   53.29    3.60
   1   7   3   51.59    4.80
   1   7   3   53.59    4.20
   1   7   3   56.79    4.60
   1   7   3   53.69    3.80
   1   7   3   51.39    4.40
   1   8   3  834.22   28.30
   1   8   3  882.41   28.40
   1   8   3  866.51   27.50
   1   8   3  831.52   29.40
   1   8   3  845.52   28.70
   1   8   3  802.72   27.50
   0   8  -3  100.59    5.40
   0   8  -3  112.79    5.20
   0   8  -3   97.59    5.50
   0   8  -3  105.39    6.00
   0   8  -3   99.69    5.50
   0   7  -3   22.40    4.60
   0   7  -3   31.70    3.40
   0   7  -3   27.30    3.20
   0   7  -3   29.90    3.10
   0   7  -3   33.70    3.60
   0   7  -3   29.00    2.80
   0   6  -3  779.22   28.90
   0   6  -3  744.63   28.20
   0   6  -3  859.21   28.80
   0   6  -3  842.62   28.60
   0   6  -3  823.32   27.70
   0   6  -3  838.42   29.80
   0   5  -3  181.48   10.10
   0   5  -3  193.48   14.00
   0   5  -3  181.38   16.80
   0  -5   3  216.78   14.50
   0  -5   3  204.28   10.40
   0   4  -3 1800.82   61.79
   0   4  -3 1701.53   61.39
   0   4  -3 1695.13   56.59
   0   4  -3 1723.23   66.59
   0  -4   3 1676.73   61.19
   0  -4   3 1722.33   56.49
   0   3  -3  531.65   24.20
   0   3  -3  558.74   26.90
   0   3  -3  572.34   23.90
   0  -3   3  585.14   23.80
   0   2  -3 6739.43  233.28
   0   2  -3 6640.04  244.28
   0  -2   3 6654.93  242.28
   0  -2   3 6780.12  229.98
   0   1  -3  787.92   36.50
   0   1  -3  731.13   27.40
   0   1  -3  792.12   29.80
   0   1  -3  752.62   31.20
   0  -1   3  883.71   30.40
   0  -1   3  860.41   27.80
   0  -1   3  829.92   36.30
   0  -1   3  818.92   31.80
   0   0  -3 3253.57  129.79
   0   0  -3 3627.44  147.99
   0   0  -3 3633.44  115.99
   0   0  -3 3224.18  112.09
   0   0   3 3002.30  116.69
   0   0   3 3242.48  110.79
   0   0   3 3221.68  122.79
   0   0   3 3362.06  138.59
   0   0   3 3529.55  122.59
   0  -1  -3  829.82   35.40
   0  -1  -3  818.22   28.40
   0   1   3  789.42   35.80
   0   1   3  674.23   30.10
   0   1   3  778.22   29.50
   0   1   3  798.82   28.70
   0   1   3  780.72   25.90
   0   1   3  749.53   28.40
   0  -2  -3 7114.59  237.08
   0   2   3 6858.61  233.98
   0   2   3 6249.27  217.08
   0   2   3 6792.82  247.68
   0   2   3 6903.81  237.68
   0  -3  -3  594.84   25.70
   0   3   3  547.75   21.30
   0   3   3  588.34   25.20
   0   3   3  539.65   26.80
   0   3   3  594.24   25.90
   0  -4  -3 1757.82   64.89
   0   4   3 1782.82   64.29
   0   4   3 1708.63   58.79
   0   4   3 1720.23   68.59
   0   4   3 1791.12   65.69
   0   4   3 1848.12   59.09
   0  -5  -3  207.58   11.30
   0  -5  -3  205.48   15.40
   0   5   3  182.38   11.10
   0   5   3  188.38   14.70
   0   5   3  196.38   11.30
   0   5   3  186.28   15.10
   0   6   3  790.82   28.40
   0   6   3  814.52   30.30
   0   6   3  789.12   32.00
   0   6   3  798.82   28.80
   0   6   3  838.02   29.60
   0   6   3  836.12   27.50
   0   7   3   26.70    3.10
   0   7   3   29.80    4.40
   0   7   3   31.40    3.40
   0   7   3   27.10    3.60
   0   7   3   31.60    3.30
   0   7   3   29.00    2.70
   0   8   3   99.79    5.50
   0   8   3  105.19    5.60
   0   8   3  101.69    5.70
   0   8   3  106.39    6.40
   0   8   3  104.19    5.00
   1   8  -3  266.47   10.50
   1   8  -3  253.97   10.60
   1   8  -3  262.67   10.60
   1   8  -3  250.77   10.50
   1   8  -3  257.67   10.10
   1   8  -3  262.47   11.10
   1   7  -3  407.26   15.90
   1   7  -3  418.96   15.30
   1   7  -3  407.16   16.80
   1   7  -3  403.86   16.30
   1   7  -3  397.16   16.10
   1   7  -3  399.26   15.80
   1   6  -3  475.75   19.30
   1   6  -3  489.95   19.10
   1   6  -3  502.65   19.40
   1   6  -3  511.55   18.30
   1   6  -3  506.85   18.80
   1   6  -3  522.25   20.10
   1   6  -3  518.15   22.90
   1   5  -3  237.98   12.60
   1   5  -3  256.87   16.10
   1   5  -3  242.88   19.20
  -1  -5   3  209.58   15.00
   1   4  -3 1827.02   58.89
   1   4  -3 1694.33   57.69
   1   4  -3 1835.02   63.09
   1   4  -3 1796.42   67.79
  -1  -4   3 1753.82   57.79
  -1  -4   3 1700.03   62.39
   1   3  -3  843.22   31.40
   1   3  -3  790.12   32.60
   1   3  -3  823.32   34.50
  -1  -3   3  823.02   27.10
  -1  -3   3  777.32   31.20
   1   2  -3  461.95   20.70
   1   2  -3  473.35   20.50
   1   2  -3  450.25   18.80
  -1  -2   3  469.75   16.10
  -1  -2   3  461.05   19.30
  -1  -2   3  469.35   18.50
   1   1  -3  341.47   15.70
   1   1  -3  341.27   20.30
   1   1  -3  318.77   19.20
  -1  -1   3  368.76   20.50
  -1  -1   3  355.36   14.40
  -1  -1   3  329.27   19.80
  -1  -1   3  357.16   15.10
  -1  -1   3  356.26   12.40
   1   0  -3 5788.62  206.28
   1   0  -3 5192.28  208.48
   1   0  -3 5571.24  182.68
  -1   0   3 5336.77  208.18
  -1   0   3 5072.19  180.18
  -1   0   3 5178.28  168.28
  -1   0   3 5216.58  172.48
  -1   0   3 4807.82  190.88
   1  -1  -3  371.46   14.80
  -1   1   3  350.16   16.00
  -1   1   3  345.17   13.20
  -1   1   3  357.36   15.80
  -1   1   3  353.26   15.60
  -1   2   3  498.85   21.90
  -1   2   3  490.35   18.30
  -1   2   3  488.15   20.40
  -1   3   3  816.72   33.50
  -1   3   3  806.52   31.20
  -1   3   3  768.52   28.50
   1  -4  -3 1762.12   64.99
  -1   4   3 1733.93   58.99
  -1   4   3 1849.81   63.79
  -1   4   3 1755.82   59.19
  -1   4   3 1770.82   65.59
   1  -5  -3  201.68   15.90
  -1   5   3  224.78   12.40
  -1   5   3  232.38   15.70
  -1   5   3  244.18   17.50
  -1   5   3  241.48   12.70
  -1   6   3  530.15   21.20
  -1   6   3  490.15   22.50
  -1   6   3  492.85   19.80
  -1   6   3  506.85   18.10
  -1   6   3  506.25   19.30
  -1   7   3  384.26   18.90
  -1   7   3  396.76   14.50
  -1   7   3  400.46   16.20
  -1   7   3  404.56   17.30
  -1   7   3  377.06   15.50
  -1   7   3  396.36   15.80
  -1   8   3  270.67   11.00
  -1   8   3  260.17   10.00
  -1   8   3  266.77   11.60
   2   8  -3  185.28    8.40
   2   8  -3  171.38    7.90
   2   8  -3  181.38    7.80
   2   8  -3  181.98    8.20
   2   8  -3  184.48    7.50
   2   8  -3  186.98    8.10
  -2  -8   3  181.18    8.00
   2   7  -3  111.99    8.80
   2   7  -3  106.99    6.10
   2   7  -3  116.29    5.90
   2   7  -3  107.49    6.40
   2   7  -3  115.49    6.40
   2   7  -3  110.89    6.80
   2   7  -3  109.19    6.60
   2   6  -3  989.80   33.30
   2   6  -3  973.20   32.30
   2   6  -3  971.20   33.00
   2   6  -3  950.80   33.80
   2   6  -3  921.01   33.00
   2   6  -3  989.80   33.70
   2   6  -3 1007.80   37.80
   2   6  -3  944.01   33.60
   2   5  -3  804.42   30.80
   2   5  -3  766.12   39.10
   2   5  -3  738.93   33.80
  -2  -5   3  813.82   34.70
  -2  -5   3  793.62   28.50
   2   4  -3  711.63   27.30
   2   4  -3  682.93   30.00
   2   4  -3  673.93   33.40
  -2  -4   3  731.93   26.20
  -2  -4   3  745.33   30.40
  -2  -4   3  762.12   25.80
   2   3  -3 1144.19   45.40
   2   3  -3 1185.08   43.90
   2   3  -3 1296.17   47.90
  -2  -3   3 1290.27   40.80
  -2  -3   3 1282.67   44.60
   2   2  -3 1157.38   38.80
   2   2  -3 1164.28   41.40
  -2  -2   3 1038.50   38.70
  -2  -2   3 1094.29   36.20
   2   1  -3 2773.02  100.69
   2   1  -3 2828.12  112.19
  -2  -1   3 2997.30   95.19
  -2  -1   3 3009.60   96.89
  -2  -1   3 2871.41   99.69
   2   0  -3  285.67   13.00
  -2   0   3  273.17   11.00
  -2   0   3  273.77   13.60
  -2   0   3  286.27   12.60
   2  -1  -3 3108.99  105.89
  -2   1   3 2906.81   99.99
  -2   1   3 2895.41  104.39
   2  -2  -3 1148.49   40.00
  -2   2   3 1199.08   43.20
  -2   2   3 1105.69   38.50
  -2   3   3 1114.99   39.00
  -2   3   3 1162.28   45.10
  -2   4   3  694.53   27.10
  -2   4   3  696.63   33.00
  -2   4   3  720.33   27.00
   2  -5  -3  805.02   36.30
  -2   5   3  731.03   36.00
  -2   5   3  726.43   29.50
  -2   5   3  764.92   30.10
  -2   6   3  920.21   33.40
  -2   6   3  953.40   34.70
  -2   6   3  943.61   32.80
  -2   6   3  979.20   37.10
  -2   7   3  108.99    6.40
  -2   7   3  107.39    8.40
  -2   7   3  112.49    7.30
   3   8  -3   39.60    2.50
   3   8  -3   39.00    3.00
   3   8  -3   40.40    2.90
   3   8  -3   40.40    2.90
   3   8  -3   37.40    2.70
   3   8  -3   40.90    3.00
  -3  -8   3   40.40    2.90
   3   7  -3  598.84   21.50
   3   7  -3  589.54   20.50
   3   7  -3  603.74   21.20
   3   7  -3  614.34   21.80
   3   7  -3  597.44   23.40
   3   7  -3  580.84   25.10
   3   7  -3  618.54   21.90
   3   7  -3  596.14   21.70
  -3  -7   3  542.65   21.50
   3   6  -3   77.49    5.20
   3   6  -3   71.99    7.00
   3   6  -3   75.59    4.50
   3   6  -3   77.09    6.30
   3   6  -3   77.99    5.50
   3   6  -3   78.89    5.40
   3   6  -3   69.59    5.00
  -3  -6   3   86.09    5.30
   3   5  -3 1218.38   43.10
  -3  -5   3 1115.69   40.60
   3   4  -3 1100.29   39.40
  -3  -4   3 1093.39   37.90
   3   3  -3 1041.90   36.80
  -3  -3   3 1054.49   35.90
  -3  -3   3 1063.79   36.00
   3   2  -3  734.93   31.40
  -3  -2   3  799.12   27.20
  -3  -2   3  810.52   29.10
   3   1  -3 1308.37   45.60
  -3  -1   3 1288.37   44.30
  -3  -1   3 1265.87   42.00
   3   0  -3 2734.13   98.69
  -3   0   3 2614.84   86.89
  -3   0   3 2767.02   94.39
   3  -1  -3 1283.57   46.60
  -3   1   3 1326.57   44.40
  -3   1   3 1403.26   47.80
   3  -2  -3  794.02   29.10
  -3   2   3  704.43   26.50
  -3   2   3  745.63   28.90
  -3   2   3  682.23   30.00
   3  -3  -3 1117.49   38.70
  -3   3   3 1023.20   37.30
  -3   3   3 1013.30   42.20
  -3   3   3  973.90   35.90
  -3   3   3  974.50   38.10
  -3   4   3 1032.30   45.20
  -3   4   3 1056.69   37.60
  -3   4   3 1029.20   37.90
   3  -5  -3 1036.90   46.30
  -3   5   3 1115.29   40.00
  -3   5   3 1122.49   48.70
   4   8  -3  116.39    5.10
   4   8  -3  106.49    4.90
   4   8  -3  105.39    4.90
  -4  -8   3  114.09    5.00
  -4  -8   3  100.89    4.80
   4   7  -3  532.95   19.40
   4   7  -3  546.85   21.20
   4   7  -3  533.45   19.60
   4   7  -3  553.34   19.60
  -4  -7   3  536.85   19.70
   4   6  -3  218.08   10.10
   4   6  -3  206.18   11.20
   4   6  -3  200.08    9.60
   4   6  -3  204.58    9.80
   4   6  -3  206.38   12.50
  -4  -6   3  222.78   10.20
   4   5  -3 1437.16   48.40
   4   5  -3 1467.35   48.60
   4   5  -3 1567.84   53.09
   4   5  -3 1417.86   48.50
   4   5  -3 1513.85   49.40
   4   5  -3 1508.15   50.69
  -4  -5   3 1499.55   49.50
  -4  -5   3 1489.65   48.60
   4   4  -3  290.77   14.70
  -4  -4   3  302.87   14.10
   4   3  -3 1874.01   62.59
  -4  -3   3 1889.71   61.79
  -4  -3   3 1878.11   61.19
   4   2  -3  498.75   23.50
   4   2  -3  513.55   19.70
  -4  -2   3  510.15   19.50
  -4  -2   3  513.05   19.20
  -4  -2   3  461.25   21.40
   4   1  -3 1834.52   63.69
  -4  -1   3 1868.61   62.99
  -4  -1   3 1798.52   59.49
   4   0  -3 1634.04   58.59
  -4   0   3 1723.83   58.79
  -4   0   3 1700.63   55.39
   4  -1  -3 1946.41   65.69
  -4   1   3 1868.71   62.39
  -4   1   3 1883.11   66.49
   4  -2  -3  501.15   23.00
  -4   2   3  504.65   23.30
  -4   2   3  517.65   24.80
  -4   2   3  484.25   18.90
  -4   2   3  510.75   20.60
   4  -3  -3 1761.42   63.99
  -4   3   3 1851.01   68.99
  -4   3   3 1817.62   64.59
  -4   3   3 1813.52   60.89
  -4   4   3  274.67   12.20
  -4   4   3  284.97   20.30
  -4   5   3 1500.75   49.70
   5   7  -3  139.39    6.30
   5   7  -3  133.89    6.30
   5   7  -3  136.69    6.50
   5   7  -3  139.49    7.50
  -5  -7   3  129.29    6.20
  -5  -7   3  139.89    6.60
   5   6  -3  213.08    9.60
   5   6  -3  227.58   10.10
   5   6  -3  220.68    9.80
   5   6  -3  227.08   11.20
   5   6  -3  228.18   12.40
  -5  -6   3  204.88   10.00
  -5  -6   3  212.78    9.80
   5   5  -3  492.55   19.90
   5   5  -3  501.25   18.90
   5   5  -3  463.45   17.80
   5   5  -3  477.15   21.00
  -5  -5   3  465.85   18.70
  -5  -5   3  472.15   17.90
   5   4  -3  501.85   24.90
   5   4  -3  437.96   19.70
  -5  -4   3  388.46   18.80
   5   3  -3 1676.43   58.29
  -5  -3   3 1737.53   56.99
  -5  -3   3 1771.62   58.69
   5   2  -3  139.09    8.20
  -5  -2   3  134.49   10.60
  -5  -2   3  140.49    7.90
  -5  -2   3  141.69    8.60
   5   1  -3 1468.85   55.19
  -5  -1   3 1562.04   51.19
  -5  -1   3 1538.75   50.09
  -5  -1   3 1419.96   54.79
   5   0  -3    0.60    1.00
  -5   0   3    1.70    1.10
  -5   0   3    0.90    1.20
  -5   0   3    0.50    0.90
   5  -1  -3 1514.15   55.29
  -5   1   3 1488.35   49.60
  -5   1   3 1477.45   51.29
  -5   1   3 1455.85   56.19
   5  -2  -3  147.19   11.50
  -5   2   3  150.88    8.60
  -5   2   3  157.38   12.10
  -5   2   3  158.18   13.10
   5  -3  -3 1693.43   62.09
  -5   3   3 1691.63   55.99
  -5   3   3 1678.23   66.49
  -5   3   3 1629.74   54.49
  -5   3   3 1659.93   62.49
  -5   4   3  421.86   27.10
  -5   4   3  429.96   18.50
  -5   4   3  436.76   17.30
  -5   5   3  489.85   17.40
  -5   5   3  499.25   19.10
  -5   5   3  499.85   20.40
   6   7  -3  246.28   10.40
  -6  -7   3  289.27   10.20
   6   6  -3  108.79    6.30
  -6  -6   3   87.09    5.40
   6   5  -3  266.67   12.70
   6   5  -3  285.07   13.30
   6   5  -3  284.17   14.10
  -6  -5   3  307.87   12.90
  -6  -5   3  296.77   11.80
   6   4  -3  118.39    6.90
   6   4  -3  118.59    7.40
   6   4  -3  108.99    7.10
  -6  -4   3  106.19    6.90
  -6  -4   3  106.69    6.40
   6   3  -3  368.86   15.10
   6   3  -3  360.06   15.20
  -6  -3   3  309.67   14.70
  -6  -3   3  343.27   14.30
  -6  -2   3  313.27   14.10
  -6  -2   3  290.27   15.00
  -6  -2   3  306.87   18.80
  -6  -1   3  455.65   18.60
  -6  -1   3  440.66   19.70
  -6  -1   3  423.46   23.20
   6   0  -3    1.30    1.50
  -6   0   3    1.70    1.00
  -6   0   3    1.50    1.80
   6  -1  -3  458.75   24.60
  -6   1   3  461.25   18.10
  -6   1   3  457.15   25.70
  -6   1   3  490.85   19.70
   6  -2  -3  312.07   19.30
  -6   2   3  314.77   14.50
  -6   2   3  303.37   13.40
  -6   2   3  315.77   14.80
  -6   2   3  322.07   21.30
  -6   3   3  359.46   15.30
  -6   3   3  393.36   15.70
  -6   3   3  371.36   16.60
  -6   3   3  362.36   16.80
  -6   3   3  367.96   14.60
  -6   3   3  362.16   13.80
  -6   4   3  128.19    6.60
  -6   4   3  117.59    5.90
  -6   4   3  126.29    8.20
  -6   4   3  107.49    6.90
  -6   4   3  118.59    7.10
  -6   5   3  265.37   11.80
  -6   5   3  260.67   12.80
  -6   5   3  273.67   10.40
  -6   5   3  274.27   11.80
   7   6  -3   15.70    1.90
  -7  -6   3   20.80    1.90
   7   5  -3  122.49    6.70
   7   5  -3  113.89    6.50
  -7  -5   3  121.79    6.40
  -7  -5   3  131.09    5.80
   7   4  -3  558.14   21.00
   7   4  -3  572.14   21.20
  -7  -4   3  548.75   19.90
  -7  -4   3  536.45   20.70
   7   3  -3  415.26   16.90
   7   3  -3  427.06   17.10
  -7  -3   3  418.36   16.20
  -7  -3   3  404.76   16.90
   7   2  -3  709.03   26.10
   7   2  -3  670.03   25.20
  -7  -2   3  772.32   27.00
  -7  -2   3  716.43   25.30
  -7  -2   3  722.53   26.00
  -7  -2   3  649.54   25.90
  -7  -2   3  712.33   25.40
   7   1  -3 1213.58   39.50
  -7  -1   3 1137.09   39.00
  -7  -1   3 1124.29   38.50
  -7  -1   3 1130.29   38.80
  -7  -1   3 1125.49   40.20
   7   0  -3 1277.27   44.70
  -7   0   3 1482.75   47.00
  -7   0   3 1307.97   44.70
  -7   0   3 1350.36   44.40
  -7   0   3 1367.56   46.60
  -7   0   3 1324.47   44.90
  -7   0   3 1299.47   44.70
   7  -1  -3 1175.78   39.70
  -7   1   3 1172.58   39.60
  -7   1   3 1195.38   39.30
  -7   1   3 1162.38   41.00
  -7   1   3 1219.68   40.30
  -7   1   3 1153.88   37.90
  -7   1   3 1123.99   39.20
  -7   1   3 1151.78   40.00
  -7   1   3 1195.48   41.80
  -7   2   3  681.93   25.00
  -7   2   3  688.23   24.30
  -7   2   3  642.44   24.30
  -7   2   3  666.63   25.20
  -7   2   3  704.63   25.50
  -7   2   3  701.23   26.60
  -7   2   3  691.13   27.10
  -7   2   3  700.43   23.40
  -7   3   3  433.86   17.40
  -7   3   3  444.36   15.70
  -7   3   3  439.36   18.80
  -7   3   3  422.36   17.40
  -7   3   3  441.86   16.50
  -7   3   3  420.76   18.90
  -7   4   3  578.84   20.40
  -7   4   3  582.34   19.80
  -7   4   3  586.84   22.90
  -7   4   3  586.54   21.60
  -7   4   3  531.25   23.10
  -7   4   3  607.74   21.80
  -7   5   3  125.59    6.50
  -7   5   3  118.69    5.40
  -7   5   3  119.99    7.10
  -7   5   3  128.09    6.60
   8   5  -3   44.40    4.00
  -8  -5   3   60.59    3.40
   8   4  -3  384.06   15.20
  -8  -4   3  401.86   15.10
  -8  -4   3  414.26   14.30
   8   3  -3   55.29    4.10
  -8  -3   3   41.40    3.30
  -8  -3   3   41.00    3.80
   8   2  -3  303.57   12.90
   8   2  -3  313.77   12.60
  -8  -2   3  296.37   13.10
  -8  -2   3  300.07   12.50
  -8  -2   3  300.67   12.40
   8   1  -3  205.68    9.50
   8   1  -3  204.08    9.70
  -8  -1   3  204.28    9.70
  -8  -1   3  194.68   10.20
  -8  -1   3  194.28    9.40
  -8  -1   3  202.48    9.60
   8   0  -3   45.70    4.20
   8   0  -3   53.79    4.20
   8   0  -3   47.80    4.00
  -8   0   3   55.89    4.50
  -8   0   3   48.30    4.00
  -8   0   3   53.19    3.50
  -8   0   3   51.09    4.30
  -8   0   3   56.39    5.00
  -8   0   3   55.99    4.20
   8  -1  -3  213.68    9.50
  -8   1   3  198.18    9.40
  -8   1   3  202.08   10.90
  -8   1   3  197.48    8.50
  -8   1   3  210.48   10.00
  -8   1   3  209.98   10.00
  -8   1   3  210.28    9.50
  -8   1   3  195.28    9.20
  -8   2   3  314.97   13.10
  -8   2   3  317.67   12.60
  -8   2   3  318.07   13.30
  -8   2   3  305.87   14.50
  -8   2   3  317.77   13.40
  -8   2   3  312.97   14.10
  -8   2   3  316.77   11.90
  -8   3   3   53.59    4.60
  -8   3   3   55.49    4.10
  -8   3   3   54.99    4.20
  -8   3   3   52.49    3.60
  -8   3   3   51.29    3.30
  -8   4   3  378.06   15.50
  -8   4   3  371.96   14.50
  -8   4   3  389.96   13.40
  -8   4   3  370.46   13.60
  -8   4   3  409.16   14.80
   9   3  -3   54.79    3.30
  -9  -3   3   44.60    4.20
  -9  -3   3   49.90    2.80
   9   2  -3  597.24   20.20
   9   2  -3  575.64   20.00
  -9  -2   3  600.34   19.90
  -9  -2   3  548.25   19.90
   9   1  -3   27.80    2.60
   9   1  -3   29.70    2.60
  -9  -1   3   35.30    2.90
  -9  -1   3   33.40    2.80
   9   0  -3 1404.56   44.00
   9   0  -3 1337.47   44.20
  -9   0   3 1384.56   44.20
  -9   0   3 1368.06   44.40
   9  -1  -3   22.40    3.40
   9  -1  -3   32.80    2.70
  -9   1   3   29.70    2.80
  -9   1   3   32.20    2.30
  -9   1   3   32.50    2.70
   9  -2  -3  630.64   21.00
  -9   2   3  608.24   21.00
  -9   2   3  621.94   20.30
  -9   2   3  605.34   20.80
  -9   2   3  600.44   21.30
  -9   2   3  636.84   24.00
   9  -3  -3   50.29    3.80
  -9   3   3   54.29    3.30
  -9   3   3   42.90    3.00
  -9   3   3   53.49    2.80
  -8   1  -4  228.98    8.50
  -8   1  -4  240.88    8.50
   8  -1   4  223.88    8.10
  -8   0  -4  131.29    5.70
   8   0   4  139.79    5.40
  -8  -1  -4  208.48    8.00
   8   1   4  222.58    7.80
  -7   4  -4  342.07   12.20
  -7   4  -4  355.66   12.90
  -7   4  -4  360.26   12.40
  -7   4  -4  364.26   12.50
  -7   3  -4   36.60    2.70
  -7   3  -4   34.20    2.50
  -7   3  -4   33.00    2.90
  -7   3  -4   32.30    2.60
  -7   3  -4   30.10    3.40
   7  -3   4   31.60    3.40
  -7   2  -4  658.83   22.60
  -7   2  -4  674.83   23.10
  -7   2  -4  663.93   25.20
  -7   2  -4  634.84   22.30
   7  -2   4  636.34   24.90
  -7   1  -4   87.09    5.00
  -7   1  -4   94.89    6.80
  -7   1  -4   90.19    5.00
   7  -1   4   77.69    5.40
   7  -1   4   81.19    4.50
   7  -1   4   79.59    6.20
  -7   0  -4  580.24   19.80
  -7   0  -4  560.24   21.90
  -7   0  -4  536.55   19.60
   7   0   4  555.84   19.30
   7   0   4  545.35   21.00
   7   0   4  557.14   21.80
  -7  -1  -4   81.29    4.90
   7   1   4   89.09    4.60
   7   1   4   89.69    5.70
  -7  -2  -4  649.43   22.20
   7   2   4  631.94   23.10
   7   2   4  677.23   22.20
   7   2   4  628.04   21.50
  -7  -3  -4   25.50    2.20
  -7  -3  -4   27.60    2.30
   7   3   4   31.40    2.40
   7   3   4   30.90    2.10
  -7  -4  -4  372.06   12.60
   7   4   4  361.76   12.70
  -6   5  -4  314.17   11.30
  -6   5  -4  302.07   11.30
  -6   5  -4  305.37   11.20
  -6   5  -4  295.07   11.70
  -6   4  -4  636.64   25.10
  -6   4  -4  658.33   22.90
  -6   4  -4  652.63   23.10
  -6   4  -4  698.43   24.40
  -6   4  -4  676.13   23.20
   6  -4   4  695.73   25.20
  -6   3  -4  126.29    6.70
  -6   3  -4  130.39    7.60
  -6   3  -4  140.59    6.90
  -6   3  -4  129.29    8.80
  -6   3  -4  129.49    8.10
  -6   3  -4  122.39    6.50
   6  -3   4  134.49    8.80
  -6   2  -4 1014.20   37.60
  -6   2  -4 1037.30   33.90
  -6   2  -4  947.51   33.80
  -6   2  -4  949.01   34.70
   6  -2   4 1041.30   37.70
  -6   1  -4   89.39    7.10
  -6   1  -4   88.99    5.10
  -6   1  -4   87.59    5.50
  -6   1  -4   99.39    7.80
  -6   1  -4   88.29    5.40
   6  -1   4   82.49    6.20
   6  -1   4   86.39    7.30
   6  -1   4   78.59    4.90
  -6   0  -4 1431.96   46.10
  -6   0  -4 1391.26   50.09
  -6   0  -4 1386.66   46.30
  -6   0  -4 1362.86   46.60
  -6   0  -4 1467.25   46.80
   6   0   4 1427.36   46.00
   6   0   4 1449.46   48.70
   6   0   4 1443.66   49.99
  -6  -1  -4   81.79    5.20
  -6  -1  -4   85.79    5.50
  -6  -1  -4   84.89    6.70
   6   1   4   93.59    6.60
   6   1   4   88.89    5.20
   6   1   4  101.99   10.40
  -6  -2  -4  987.80   32.90
  -6  -2  -4 1002.70   32.70
   6   2   4  979.30   32.00
   6   2   4  961.90   32.90
   6   2   4  905.01   33.90
  -6  -3  -4  132.79    6.80
  -6  -3  -4  132.59    6.70
   6   3   4  131.39    6.90
   6   3   4  129.09    7.30
   6   3   4  136.69    6.10
  -6  -4  -4  657.93   22.20
  -6  -4  -4  656.73   22.10
   6   4   4  613.04   22.90
   6   4   4  651.73   22.30
   6   4   4  633.34   21.20
  -6  -5  -4  265.57   10.00
  -6  -5  -4  267.87   10.00
   6   5   4  283.87   10.30
  -5   6  -4  157.88    7.00
  -5   6  -4  159.68    6.80
  -5   6  -4  168.38    7.00
  -5   6  -4  158.38    6.80
  -5   5  -4  151.48    8.10
  -5   5  -4  155.98    7.40
  -5   5  -4  159.48    7.50
  -5   5  -4  154.98    7.50
  -5   4  -4  179.88    8.70
  -5   4  -4  173.98    8.40
  -5   4  -4  183.48    8.70
  -5   4  -4  163.18   12.30
  -5   4  -4  187.48    8.80
  -5   4  -4  181.58   10.40
  -5   4  -4  190.38    9.80
   5  -4   4  152.28    9.80
  -5   3  -4  606.24   24.10
  -5   3  -4  580.34   21.80
  -5   3  -4  556.14   21.30
  -5   3  -4  596.34   23.10
  -5   3  -4  603.84   24.70
  -5   3  -4  601.34   21.80
  -5   3  -4  572.84   21.80
   5  -3   4  610.34   24.80
  -5   2  -4  445.76   17.70
  -5   2  -4  487.95   19.60
  -5   2  -4  463.95   17.70
  -5   2  -4  481.25   20.90
  -5   2  -4  444.96   17.80
  -5   2  -4  455.95   18.70
   5  -2   4  439.36   20.40
  -5   1  -4 1268.07   41.20
  -5   1  -4 1226.48   43.80
  -5   1  -4 1141.69   43.10
  -5   1  -4 1240.28   44.30
  -5   1  -4 1212.28   46.10
   5  -1   4 1199.68   42.00
   5  -1   4 1270.17   44.50
   5  -1   4 1158.68   56.59
  -5   0  -4  198.78   12.00
   5   0   4  218.48   12.30
   5   0   4  207.48   10.90
   5   0   4  207.18   19.60
  -5  -1  -4 1181.18   38.70
  -5  -1  -4 1269.57   40.00
  -5  -1  -4 1148.59   41.80
  -5  -1  -4 1016.00   40.50
   5   1   4 1187.88   41.00
   5   1   4 1168.68   56.89
   5   1   4 1190.98   42.00
   5   1   4 1136.39   38.50
  -5  -2  -4  414.76   16.90
  -5  -2  -4  396.76   16.70
   5   2   4  486.45   18.90
   5   2   4  456.05   17.40
   5   2   4  449.66   16.40
  -5  -3  -4  588.74   21.50
  -5  -3  -4  583.74   21.50
   5   3   4  588.74   21.80
   5   3   4  589.44   20.70
   5   3   4  598.14   22.80
  -5  -4  -4  140.39    7.80
  -5  -4  -4  143.09    7.80
   5   4   4  177.48    7.40
   5   4   4  182.48    8.20
   5   4   4  185.38    8.50
   5   4   4  174.58    8.80
  -5  -5  -4  165.18    7.30
  -5  -5  -4  147.09    7.20
   5   5   4  156.58    7.40
   5   5   4  147.79    7.10
   5   5   4  157.08    7.40
  -5  -6  -4  168.78    6.80
   5   6   4  158.68    6.80
   5   6   4  158.28    6.80
  -4   7  -4  166.78    6.80
  -4   7  -4  166.98    6.80
  -4   7  -4  174.28    7.00
  -4   6  -4   24.60    2.50
  -4   6  -4   24.30    2.60
  -4   6  -4   25.10    2.60
  -4   6  -4   25.20    2.60
  -4   5  -4  143.29    7.50
  -4   5  -4  137.19    7.60
  -4   5  -4  145.89    7.60
  -4   5  -4  137.49    7.30
  -4   5  -4  134.39    8.00
  -4   5  -4  143.49    9.10
  -4   4  -4  350.86   15.60
  -4   4  -4  335.77   14.30
  -4   4  -4  355.06   16.70
  -4   4  -4  344.07   14.80
  -4   4  -4  380.26   14.80
  -4   4  -4  359.46   14.60
  -4   3  -4  669.03   34.60
  -4   3  -4  683.93   26.50
  -4   3  -4  684.13   26.90
   4  -3   4  654.03   26.60
   4  -3   4  676.23   38.80
  -4   2  -4  896.41   34.50
  -4   2  -4  899.51   41.00
  -4   2  -4  886.21   32.80
   4  -2   4  921.21   46.00
   4  -2   4  934.51   34.80
  -4   1  -4  793.12   36.10
   4  -1   4  850.31   42.20
   4  -1   4  800.22   29.10
   4   0   4 1222.08   43.80
   4   0   4 1371.36   59.39
   4   1   4  836.82   30.70
   4   1   4  859.21   44.20
   4   2   4  912.81   33.20
   4   2   4  955.60   49.00
  -4  -3  -4  649.83   32.30
   4   3   4  710.83   41.70
   4   3   4  711.73   26.00
  -4  -4  -4  358.16   14.40
  -4  -4  -4  338.37   13.80
   4   4   4  336.57   14.60
   4   4   4  333.27   14.00
   4   4   4  351.46   14.90
   4   4   4  330.97   12.90
   4   4   4  345.07   14.10
   4   5   4  137.49    7.70
   4   5   4  141.59    7.40
   4   5   4  131.09    7.40
   4   5   4  146.29    7.50
  -4  -6  -4   30.60    2.80
  -4  -6  -4   29.60    2.90
   4   6   4   23.90    2.50
   4   6   4   25.70    2.70
   4   6   4   26.70    2.80
   4   6   4   24.00    2.50
  -4  -7  -4  139.09    6.30
  -4  -7  -4  173.68    6.50
   4   7   4  146.59    6.20
   4   7   4  161.58    6.60
   4   7   4  168.98    6.70
   4   7   4  155.48    6.30
  -3   7  -4  294.47   11.50
  -3   7  -4  304.57   11.70
  -3   7  -4  284.27   11.50
  -3   7  -4  311.07   11.40
  -3   6  -4  155.28    7.90
  -3   6  -4  157.18    7.80
  -3   6  -4  162.78    8.20
  -3   6  -4  168.88    8.20
  -3   6  -4  150.08    9.10
   3  -6   4  167.48    9.30
  -3   5  -4  815.92   29.60
  -3   5  -4  808.02   29.30
  -3   5  -4  849.41   29.50
  -3   5  -4  826.72   31.90
  -3   5  -4  843.12   29.20
  -3   5  -4  823.92   30.20
   3  -5   4  876.91   31.70
  -3   4  -4  111.89   12.40
  -3   4  -4  117.89    8.30
   3  -4   4  128.99   15.50
  -3   3  -4  659.83   32.80
  -3   3  -4  644.74   25.40
   3  -3   4  661.53   37.70
  -3   2  -4   15.40    4.00
  -3   2  -4   17.50    2.70
   3  -2   4   21.20    5.60
  -3   1  -4  862.11   37.80
   3  -1   4  983.80   37.80
   3  -1   4  927.11   43.50
   3   0   4  107.09    9.30
   3   0   4  105.89   11.60
   3   1   4  898.11   37.90
   3   1   4  929.61   44.40
  -3  -2  -4   13.10    4.10
   3   2   4   21.30    5.90
   3   2   4   16.70    4.10
  -3  -3  -4  603.74   30.00
   3   3   4  634.34   31.40
   3   3   4  663.83   24.10
   3   3   4  663.53   38.40
  -3  -4  -4  124.39   11.80
   3   4   4  103.89   11.40
   3   4   4  113.79   15.20
   3   4   4  122.29    7.40
  -3  -5  -4  848.92   28.80
   3   5   4  771.32   28.90
   3   5   4  812.62   29.60
   3   5   4  819.42   28.60
   3   5   4  833.12   28.80
  -3  -6  -4  152.08    7.80
   3   6   4  161.88    7.90
   3   6   4  158.68    8.60
   3   6   4  159.78    7.80
   3   6   4  158.48    8.60
   3   6   4  160.48    8.30
   3   6   4  170.28    7.30
  -3  -7  -4  317.77   11.70
   3   7   4  304.17   12.30
   3   7   4  307.97   12.30
   3   7   4  288.17   11.50
   3   7   4  308.37   12.00
   3   7   4  299.87   11.50
   3   7   4  313.97   10.90
  -2   8  -4    1.80    0.70
  -2   8  -4    1.90    0.70
  -2   8  -4    1.40    0.60
  -2   7  -4  259.17   11.10
  -2   7  -4  262.97   11.00
  -2   7  -4  270.07   11.80
  -2   7  -4  260.97   11.10
  -2   7  -4  272.87   10.80
  -2   6  -4    4.20    1.80
  -2   6  -4    2.20    1.20
  -2   6  -4    3.40    1.40
  -2   6  -4    2.50    1.30
  -2   6  -4    3.60    1.40
  -2   6  -4    4.00    1.80
   2  -6   4    5.20    2.10
  -2   5  -4  726.83   26.40
  -2   5  -4  751.42   26.70
  -2   5  -4  756.32   26.90
  -2   5  -4  736.13   27.80
  -2   5  -4  750.12   27.00
  -2   5  -4  747.93   29.10
   2  -5   4  761.82   28.80
  -2   4  -4    3.80    3.50
  -2   4  -4    2.50    2.20
  -2   4  -4    2.50    1.60
   2  -4   4    2.20    2.70
   2  -4   4    0.90    1.60
  -2   3  -4 1765.82   57.79
  -2   3  -4 1621.54   64.69
   2  -3   4 1789.12   64.99
   2  -3   4 1776.22   71.89
  -2   2  -4  103.39    9.50
  -2   2  -4  104.79    6.40
   2  -2   4  101.29    9.20
   2  -2   4   98.29   11.30
  -2   1  -4 4013.20  127.69
   2  -1   4 3983.60  127.49
   2  -1   4 3749.62  140.49
  -2   0  -4  218.38   12.30
   2   0   4  201.68   12.90
   2   0   4  200.88   15.30
   2   1   4 4188.48  142.09
   2   1   4 4181.98  151.98
  -2  -2  -4  104.39    8.70
   2   2   4  102.19    9.60
   2   2   4   94.89   11.40
  -2  -3  -4 1829.72   64.29
   2   3   4 1742.73   72.69
   2   3   4 1658.13   65.29
  -2  -4  -4    1.10    1.60
  -2  -4  -4    0.50    0.90
   2   4   4    1.60    2.50
   2   4   4    1.60    1.30
   2   4   4    0.70    1.00
   2   4   4    3.60    2.80
   2   5   4  751.82   28.10
   2   5   4  763.82   28.00
   2   5   4  733.53   27.30
   2   5   4  742.63   26.80
   2   5   4  751.12   26.60
   2   5   4  730.43   26.70
   2   5   4  755.42   25.80
   2   5   4  830.32   30.40
  -2  -6  -4    3.00    1.30
   2   6   4    4.60    1.70
   2   6   4    2.30    1.40
   2   6   4    3.90    1.20
   2   6   4    3.50    1.40
   2   6   4    4.90    2.40
   2   6   4    3.30    1.40
   2   6   4    3.60    1.30
   2   6   4    2.40    1.40
  -2  -7  -4  275.17   10.90
   2   7   4  281.67   11.90
   2   7   4  258.97   11.30
   2   7   4  276.77   11.20
   2   7   4  269.17   10.80
   2   7   4  279.77   11.00
   2   7   4  272.27   10.50
   2   7   4  266.67   12.10
   2   8   4    1.60    0.60
   2   8   4    1.30    0.60
   2   8   4    1.90    0.80
   2   8   4    1.70    0.70
  -1   8  -4  155.78    6.60
  -1   8  -4  149.59    7.10
  -1   8  -4  146.39    6.50
  -1   8  -4  147.39    6.50
  -1   8  -4  146.09    6.20
  -1   7  -4  517.75   19.20
  -1   7  -4  545.75   19.80
  -1   7  -4  568.84   20.30
  -1   7  -4  552.04   21.20
  -1   7  -4  562.24   20.20
  -1   7  -4  561.44   20.10
  -1   6  -4  284.97   12.30
  -1   6  -4  276.07   12.00
  -1   6  -4  264.17   11.20
  -1   6  -4  279.47   13.20
  -1   6  -4  276.37   12.30
  -1   6  -4  284.07   12.20
  -1   6  -4  264.97   13.50
   1  -6   4  282.67   13.70
  -1   5  -4 1943.31   81.99
  -1   5  -4 1936.41   65.49
   1  -5   4 1925.41   73.69
   1  -5   4 2073.99   83.59
   1  -5   4 1942.91   65.29
  -1   4  -4  398.16   23.10
  -1   4  -4  426.46   27.60
  -1   4  -4  442.46   18.00
   1  -4   4  417.56   17.50
   1  -4   4  385.46   22.30
   1  -4   4  400.66   27.10
  -1   3  -4  505.05   20.20
  -1   3  -4  538.25   29.70
  -1   3  -4  509.25   25.90
   1  -3   4  497.45   24.70
   1  -3   4  526.65   29.30
  -1   2  -4  112.29   11.40
  -1   2  -4  103.59    9.10
   1  -2   4   97.99   10.50
   1  -2   4  109.39    9.20
  -1   1  -4 1134.59   42.90
   1  -1   4 1228.38   44.10
   1  -1   4 1155.58   47.30
  -1   0  -4   10.70    2.50
   1   0   4    8.50    3.10
   1   0   4   13.20    3.10
  -1  -1  -4 1119.09   41.10
   1   1   4 1183.98   44.10
   1   1   4 1166.18   47.00
  -1  -2  -4  110.59    8.60
   1   2   4  102.89    9.40
   1   2   4   98.99   10.70
   1   2   4  113.79    8.90
   1   2   4  110.79    6.20
  -1  -3  -4  508.35   24.50
   1   3   4  481.85   19.80
   1   3   4  506.85   25.70
   1   3   4  487.65   19.80
   1   3   4  527.35   29.80
  -1  -4  -4  401.26   17.80
  -1  -4  -4  410.36   22.60
   1   4   4  416.56   18.00
   1   4   4  403.06   18.10
   1   4   4  430.76   24.00
   1   4   4  379.86   26.80
  -1  -5  -4 1951.80   71.79
  -1  -5  -4 1887.61   63.59
   1   5   4 1801.32   63.49
   1   5   4 1833.62   72.49
   1   5   4 1843.52   63.89
   1   6   4  282.57   12.90
   1   6   4  284.97   15.10
   1   6   4  277.57   13.40
   1   6   4  287.87   11.50
   1   6   4  276.07   11.80
   1   6   4  280.77   12.70
   1   6   4  276.77   12.10
   1   6   4  284.37   12.40
   1   7   4  565.84   20.10
   1   7   4  546.25   19.40
   1   7   4  563.94   21.00
   1   7   4  569.74   20.60
   1   7   4  562.34   21.70
   1   7   4  545.95   20.30
   1   7   4  549.85   23.30
   1   8   4  160.88    6.90
   1   8   4  153.58    7.10
   1   8   4  154.48    6.80
   1   8   4  158.98    6.40
   1   8   4  160.58    7.40
   0   8  -4    4.20    1.10
   0   8  -4    3.60    1.00
   0   8  -4    4.50    1.20
   0   8  -4    5.20    1.50
   0   8  -4    2.80    1.00
   0   7  -4  110.79    6.30
   0   7  -4  120.09    6.60
   0   7  -4  113.89    6.30
   0   7  -4  115.19    5.90
   0   7  -4  115.99    7.10
   0   7  -4  108.29    6.30
   0   6  -4  208.38   11.60
   0   6  -4  208.38    9.60
   0   6  -4  226.28   11.40
   0   6  -4  221.68   10.30
   0   6  -4  219.88   10.30
   0   6  -4  224.48   10.60
   0   6  -4  213.18   10.10
   0  -6   4  255.57   12.00
   0   5  -4  191.08   10.20
   0   5  -4  186.78   17.40
   0  -5   4  164.88    9.80
   0  -5   4  161.18   16.80
   0  -5   4  156.18   13.50
   0   4  -4  462.85   19.30
   0   4  -4  421.26   26.80
   0   4  -4  440.06   24.70
   0  -4   4  503.45   19.50
   0  -4   4  523.95   29.70
   0  -4   4  535.35   25.40
   0   3  -4  829.52   35.30
   0   3  -4  791.12   37.20
   0   3  -4  856.81   29.50
   0  -3   4  838.72   34.50
   0  -3   4  827.32   38.60
   0  -3   4  837.62   29.30
   0   2  -4 2145.99   76.19
   0   2  -4 2133.29   73.49
   0  -2   4 2108.79   72.89
   0  -2   4 2124.49   76.29
   0   1  -4 1589.24   52.39
   0  -1   4 1508.05   53.29
   0  -1   4 1379.16   54.79
   0   0  -4 4572.04  147.99
   0   0   4 4267.87  166.08
   0   0   4 4591.64  160.68
   0  -1  -4 1526.55   51.79
   0  -1  -4 1391.86   52.09
   0   1   4 1472.25   56.29
   0   1   4 1670.83   53.29
   0   1   4 1608.34   55.39
   0   1   4 1610.74   49.60
   0  -2  -4 2238.98   75.29
   0   2   4 2184.28   71.09
   0   2   4 2197.78   77.09
   0   2   4 2301.57   75.69
   0  -3  -4  872.21   35.70
   0   3   4  815.32   30.70
   0   3   4  863.51   31.10
   0   3   4  861.61   36.60
   0   3   4  888.31   36.10
   0  -4  -4  517.15   25.30
   0   4   4  473.35   25.20
   0   4   4  422.76   19.70
   0   4   4  473.35   20.10
   0   4   4  455.45   24.90
   0  -5  -4  156.68   13.80
   0  -5  -4  160.18   10.40
   0   5   4  188.48   11.30
   0   5   4  179.28   15.00
   0   6   4  219.38   11.60
   0   6   4  220.08   10.70
   0   6   4  225.08    9.60
   0   6   4  215.08   10.40
   0   6   4  220.68   10.70
   0   6   4  220.18   13.10
   0   6   4  224.08   10.40
   0   7   4  108.39    8.30
   0   7   4  109.89    5.70
   0   7   4  117.29    7.40
   0   7   4  111.49    6.60
   0   7   4  107.29    6.20
   0   7   4  119.09    6.60
   0   7   4  115.39    6.60
   0   8   4    3.80    1.20
   0   8   4    5.00    1.30
   0   8   4    4.20    1.30
   0   8   4    5.00    1.10
   0   8   4    3.70    1.10
   1   8  -4  314.07   11.50
   1   8  -4  316.47   12.50
   1   8  -4  318.97   11.90
   1   8  -4  308.37   11.90
   1   8  -4  316.17   11.80
   1   7  -4   73.09    4.50
   1   7  -4   71.99    5.00
   1   7  -4   70.39    4.80
   1   7  -4   69.19    4.70
   1   7  -4   73.59    5.40
   1   7  -4   71.09    5.00
   1   7  -4   75.39    4.90
   1   6  -4  272.27   11.90
   1   6  -4  287.17   12.20
   1   6  -4  256.47   12.20
   1   6  -4  274.37   12.30
   1   6  -4  294.37   11.60
   1   6  -4  270.97   12.90
   1   6  -4  268.37   11.90
   1   5  -4  179.18   16.90
  -1  -5   4  189.28   14.50
  -1  -5   4  180.88   16.90
  -1  -5   4  175.68    9.90
   1   4  -4  160.98   14.30
   1   4  -4  150.58    9.30
   1   4  -4  153.08   12.30
   1   4  -4  165.58    9.00
  -1  -4   4  146.19   11.70
  -1  -4   4  145.49    8.40
   1   3  -4  669.33   30.10
   1   3  -4  684.93   31.70
   1   3  -4  671.03   24.80
  -1  -3   4  668.33   31.60
  -1  -3   4  679.83   29.10
  -1  -3   4  702.13   24.90
   1   2  -4  409.66   19.10
   1   2  -4  427.56   20.00
  -1  -2   4  348.97   17.80
  -1  -2   4  326.97   19.00
   1   1  -4  389.86   19.20
  -1  -1   4  408.56   19.90
  -1  -1   4  480.05   20.30
  -1  -1   4  444.16   15.60
   1   0  -4  452.35   19.70
  -1   0   4  452.65   19.70
  -1   0   4  436.26   16.30
  -1   1   4  349.37   16.60
  -1   1   4  336.57   17.10
  -1   1   4  358.16   13.70
  -1   2   4  461.75   21.40
  -1   2   4  452.05   17.50
  -1   2   4  434.26   21.00
  -1   3   4  693.53   25.70
  -1   3   4  651.53   29.30
  -1   3   4  662.43   25.50
  -1   3   4  673.43   30.10
   1  -4  -4  167.88   13.20
  -1   4   4  174.48   10.40
  -1   4   4  169.08   13.10
  -1   4   4  167.48   10.30
  -1   4   4  199.08   14.50
   1  -5  -4  186.98   15.00
  -1   5   4  181.88   10.00
  -1   5   4  171.88   14.60
  -1   5   4  189.38   15.60
  -1   5   4  186.78   11.50
  -1   5   4  187.38   11.60
  -1   6   4  286.47   13.70
  -1   6   4  276.27   11.20
  -1   6   4  270.87   12.20
  -1   6   4  263.17   12.20
  -1   6   4  281.67   12.60
  -1   6   4  279.37   15.30
  -1   7   4   68.49    6.60
  -1   7   4   76.89    5.10
  -1   7   4   75.09    5.70
  -1   7   4   78.69    5.30
  -1   7   4   70.59    4.30
  -1   8   4  323.47   12.00
  -1   8   4  314.17   12.50
  -1   8   4  310.37   11.80
  -1   8   4  310.17   11.20
   2   8  -4  203.48    8.30
   2   8  -4  198.78    8.60
   2   8  -4  193.08    8.30
   2   8  -4  203.18    8.00
   2   8  -4  196.38    8.10
   2   8  -4  200.88    7.90
  -2  -8   4  216.08    8.40
   2   7  -4  286.17   12.10
   2   7  -4  243.18   14.20
   2   7  -4  275.47   11.20
   2   7  -4  264.87   11.20
   2   7  -4  283.77   11.80
   2   7  -4  265.77   11.30
   2   7  -4  288.47   11.00
   2   7  -4  282.67   12.20
  -2  -7   4  252.27   11.10
   2   6  -4  194.28    9.80
   2   6  -4  196.18    9.50
   2   6  -4  195.68    9.70
   2   6  -4  197.98   12.50
   2   6  -4  202.58    9.40
   2   6  -4  202.38    8.90
   2   6  -4  191.88    9.20
   2   6  -4  189.88    9.90
   2   5  -4  530.85   32.30
   2   5  -4  526.75   23.00
  -2  -5   4  498.75   26.40
  -2  -5   4  493.95   20.70
   2   4  -4 1326.07   45.70
  -2  -4   4 1199.08   43.40
  -2  -4   4 1290.97   49.40
   2   3  -4  625.14   27.50
   2   3  -4  619.14   23.70
  -2  -3   4  635.14   22.10
  -2  -3   4  558.34   22.40
  -2  -3   4  578.74   26.10
   2   2  -4 1995.50   68.69
  -2  -2   4 2020.90   62.59
  -2  -2   4 1875.81   66.59
   2   1  -4  362.06   18.00
  -2  -1   4  361.06   17.20
  -2  -1   4  362.16   14.00
   2   0  -4 3060.29  104.69
  -2   0   4 2971.50   96.39
  -2   0   4 2732.13   93.69
  -2   0   4 2875.51   91.09
   2  -1  -4  358.86   16.80
  -2   1   4  359.66   17.50
  -2   1   4  370.66   14.50
   2  -2  -4 2175.98   69.69
  -2   2   4 2024.80   67.19
  -2   2   4 2048.59   72.79
  -2   3   4  636.94   24.70
  -2   3   4  659.63   30.30
  -2   3   4  632.84   25.00
  -2   4   4 1251.77   46.20
  -2   4   4 1357.16   53.59
  -2   4   4 1319.27   46.60
   2  -5  -4  493.25   27.80
  -2   5   4  542.05   23.60
  -2   5   4  517.75   23.20
  -2   5   4  533.45   29.20
  -2   5   4  563.14   21.30
  -2   6   4  196.78    9.90
  -2   6   4  199.58   12.40
  -2   6   4  197.98   10.70
  -2   6   4  192.48    9.60
  -2   6   4  193.48    9.80
  -2   7   4  280.97   12.60
  -2   7   4  287.27   11.80
  -2   7   4  289.17   12.00
  -2   7   4  238.18   13.50
  -2   8   4  190.58    8.30
  -2   8   4  196.58    7.70
   3   8  -4  189.18    7.30
   3   8  -4  194.18    8.00
   3   8  -4  183.58    7.50
   3   8  -4  194.68    7.80
  -3  -8   4  205.48    7.80
   3   7  -4  147.69    7.70
   3   7  -4  150.48    7.30
   3   7  -4  150.98    6.80
   3   7  -4  140.09    7.00
   3   7  -4  144.89    7.50
  -3  -7   4  159.78    7.80
  -3  -7   4  174.78    7.40
   3   6  -4  482.25   22.30
   3   6  -4  484.15   20.80
   3   6  -4  482.25   17.40
   3   6  -4  475.15   18.30
   3   6  -4  500.95   18.90
   3   6  -4  465.15   18.10
   3   6  -4  479.05   18.60
  -3  -6   4  479.05   18.40
   3   5  -4  196.38   11.40
   3   5  -4  207.38   12.70
   3   5  -4  203.88   10.30
  -3  -5   4  206.28   11.90
   3   4  -4  779.62   29.60
  -3  -4   4  734.73   27.20
  -3  -4   4  667.83   27.20
   3   3  -4  185.58   13.00
   3   3  -4  193.88   10.60
  -3  -3   4  179.08    9.80
  -3  -3   4  184.98    9.50
   3   2  -4 3534.65  109.99
   3   2  -4 3377.66  114.99
  -3  -2   4 3457.55  109.09
  -3  -2   4 3503.35  111.09
   3   1  -4  474.85   22.60
  -3  -1   4  502.05   20.70
  -3  -1   4  482.25   18.60
   3   0  -4 1710.23   59.49
  -3   0   4 1689.03   58.69
  -3   0   4 1721.43   55.79
   3  -1  -4  481.95   21.80
  -3   1   4  495.95   19.30
  -3   1   4  486.15   22.30
   3  -2  -4 3618.84  119.49
   3  -2  -4 3463.95  111.69
  -3   2   4 3591.34  111.89
  -3   2   4 3539.45  111.79
  -3   2   4 3478.75  117.79
  -3   3   4  202.58   11.00
  -3   3   4  193.58   10.70
  -3   3   4  194.88   14.90
  -3   4   4  776.02   30.20
  -3   4   4  749.82   29.50
  -3   4   4  766.02   36.70
  -3   4   4  721.63   27.10
   3  -5  -4  213.88   16.40
  -3   5   4  192.08   12.10
  -3   5   4  208.68   12.30
  -3   5   4  211.78   14.90
  -3   5   4  202.08   12.40
  -3   5   4  222.28   10.90
  -3   5   4  209.68   17.00
  -3   6   4  456.35   18.30
  -3   6   4  487.95   19.20
  -3   6   4  452.65   20.80
  -3   6   4  475.65   18.10
  -3   7   4  146.39    8.10
   4   7  -4   21.70    1.90
   4   7  -4   23.40    2.30
   4   7  -4   23.40    2.80
   4   7  -4   19.20    2.30
   4   7  -4   19.00    2.30
  -4  -7   4   22.30    2.40
   4   6  -4  584.44   25.70
   4   6  -4  623.44   24.10
   4   6  -4  612.14   21.70
   4   6  -4  607.94   22.40
   4   6  -4  616.74   22.00
   4   6  -4  614.34   22.40
  -4  -6   4  601.34   22.30
  -4  -6   4  612.04   21.90
   4   5  -4   99.29    6.20
   4   5  -4  101.69    6.20
   4   5  -4  105.49    7.40
   4   5  -4  101.79    6.40
   4   5  -4  109.19    8.60
  -4  -5   4   89.89    6.20
  -4  -5   4   91.49    6.00
   4   4  -4 1107.29   40.70
  -4  -4   4 1074.99   38.60
  -4  -4   4 1081.69   39.00
   4   3  -4  594.64   24.00
  -4  -3   4  575.44   22.90
  -4  -3   4  583.94   23.00
   4   2  -4  362.56   16.10
   4   2  -4  348.97   19.70
  -4  -2   4  345.87   15.30
  -4  -2   4  350.76   15.30
   4   1  -4  532.35   25.60
   4   1  -4  539.55   21.70
  -4  -1   4  583.84   21.70
  -4  -1   4  558.14   21.60
  -4  -1   4  545.15   24.20
   4   0  -4 1756.22   63.49
   4   0  -4 1718.13   58.99
  -4   0   4 1859.71   59.69
  -4   0   4 1806.12   63.49
  -4   0   4 1833.22   58.89
   4  -1  -4  571.14   22.40
   4  -1  -4  559.14   25.90
  -4   1   4  545.05   22.20
  -4   1   4  598.14   23.00
  -4   1   4  587.84   27.00
  -4   1   4  587.54   22.10
   4  -2  -4  336.47   15.50
   4  -2  -4  342.47   18.50
  -4   2   4  347.07   20.10
  -4   2   4  347.17   15.60
  -4   2   4  374.26   16.40
   4  -3  -4  549.74   22.60
   4  -3  -4  554.74   25.90
  -4   3   4  566.44   22.80
  -4   3   4  588.44   30.10
  -4   3   4  556.54   23.60
  -4   3   4  533.15   21.00
  -4   4   4 1057.49   38.40
  -4   4   4 1099.09   48.60
  -4   4   4 1090.49   37.10
  -4   4   4 1022.90   40.00
  -4   5   4   98.49    6.50
  -4   5   4  103.99    6.30
  -4   5   4  111.29    7.00
  -4   5   4  105.69    5.60
  -4   6   4  595.04   22.10
  -4   6   4  607.04   21.70
   5   7  -4  115.49    5.50
   5   7  -4  106.79    5.20
   5   7  -4  110.19    6.10
  -5  -7   4  112.29    5.50
   5   6  -4  274.67   11.40
   5   6  -4  237.08   14.70
   5   6  -4  265.37   12.50
   5   6  -4  272.97   11.10
  -5  -6   4  260.17   11.40
  -5  -6   4  270.37   10.80
   5   5  -4  319.07   13.70
   5   5  -4  345.07   15.50
   5   5  -4  334.57   14.20
   5   5  -4  331.97   16.80
  -5  -5   4  358.36   14.00
  -5  -5   4  350.56   14.40
   5   4  -4  244.38   11.00
   5   4  -4  247.18   11.50
   5   4  -4  260.37   12.70
   5   4  -4  267.47   14.20
  -5  -4   4  241.88   11.50
  -5  -4   4  248.88   11.30
   5   3  -4  284.77   14.80
  -5  -3   4  285.77   13.60
  -5  -3   4  286.77   14.20
   5   2  -4 1937.41   65.89
  -5  -2   4 2055.19   66.29
  -5  -2   4 1926.61   65.09
   5   1  -4  584.84   28.70
   5   1  -4  607.44   24.10
  -5  -1   4  624.24   24.50
  -5  -1   4  597.44   27.90
  -5  -1   4  648.24   24.10
   5   0  -4 1892.21   67.69
   5   0  -4 1747.03   61.19
  -5   0   4 1905.71   62.79
  -5   0   4 1920.01   61.79
  -5   0   4 1778.22   66.99
   5  -1  -4  655.03   30.00
  -5   1   4  647.44   25.90
  -5   1   4  641.84   25.00
  -5   1   4  628.64   30.70
   5  -2  -4 1947.51   70.49
  -5   2   4 1977.30   65.99
  -5   2   4 1922.51   62.79
  -5   2   4 1926.51   72.99
  -5   2   4 1938.81   64.39
   5  -3  -4  297.67   17.90
  -5   3   4  273.77   20.10
  -5   3   4  272.97   12.60
  -5   3   4  257.97   14.60
  -5   3   4  283.47   13.90
  -5   4   4  245.08   11.80
  -5   4   4  274.67   12.40
  -5   4   4  259.37   10.70
  -5   4   4  247.98   11.90
  -5   4   4  263.27   11.60
  -5   4   4  281.17   13.70
  -5   5   4  346.57   13.90
  -5   5   4  344.47   15.70
  -5   5   4  334.47   14.30
  -5   5   4  333.77   14.60
  -5   5   4  345.87   13.00
   6   6  -4  155.38    8.10
  -6  -6   4  163.38    7.00
  -6  -6   4  164.78    7.60
   6   5  -4  303.87   14.70
   6   5  -4  303.07   13.60
   6   5  -4  293.37   12.40
  -6  -5   4  291.47   12.60
  -6  -5   4  299.67   12.30
   6   4  -4  323.27   13.70
   6   4  -4  325.57   14.70
   6   4  -4  329.37   14.30
   6   4  -4  346.77   16.10
  -6  -4   4  301.27   13.70
  -6  -4   4  307.07   13.40
   6   3  -4  152.38    8.80
   6   3  -4  174.18   10.40
   6   3  -4  166.78    9.50
  -6  -3   4  165.48    8.60
  -6  -3   4  172.58    9.80
  -6  -3   4  142.79    8.50
   6   2  -4  119.09    9.10
   6   2  -4  123.69    8.60
  -6  -2   4  108.79    8.60
  -6  -2   4  116.29    8.00
  -6  -2   4  102.19   10.20
  -6  -2   4  123.09    9.00
  -6  -2   4  125.69    8.80
   6   1  -4  306.57   19.60
  -6  -1   4  327.97   15.00
  -6  -1   4  300.47   15.60
  -6  -1   4  288.57   18.70
   6   0  -4  270.17   17.80
  -6   0   4  277.77   14.60
  -6   0   4  267.77   18.20
  -6   0   4  265.17   13.50
   6  -1  -4  303.97   19.80
  -6   1   4  342.47   21.70
  -6   1   4  323.27   13.90
  -6   1   4  341.77   15.10
  -6   1   4  318.67   16.20
  -6   1   4  342.67   15.90
   6  -2  -4  121.49   11.50
  -6   2   4  123.79    8.30
  -6   2   4  125.99    7.30
  -6   2   4  130.29   12.90
  -6   2   4  114.19    8.10
  -6   2   4  117.69    8.10
  -6   2   4  128.09    8.00
  -6   3   4  167.18    8.30
  -6   3   4  178.38   10.20
  -6   3   4  158.68    8.80
  -6   3   4  162.58    7.40
  -6   3   4  152.68    8.40
  -6   3   4  160.28    8.80
  -6   3   4  154.78    9.80
  -6   4   4  355.46   14.10
  -6   4   4  336.97   14.20
  -6   4   4  352.86   13.20
  -6   4   4  341.57   14.80
  -6   4   4  349.27   16.10
  -6   4   4  344.57   14.70
  -6   5   4  323.07   13.60
  -6   5   4  310.27   12.50
  -6   5   4  306.07   14.40
  -6   5   4  320.47   11.90
   7   5  -4  438.56   17.20
   7   5  -4  481.35   18.10
  -7  -5   4  505.95   16.90
  -7  -5   4  491.85   17.30
   7   4  -4  175.68    9.20
   7   4  -4  176.68    9.00
  -7  -4   4  193.38    8.60
  -7  -4   4  189.68    8.80
   7   3  -4 1069.69   37.00
   7   3  -4 1023.90   37.00
  -7  -3   4 1054.59   36.50
  -7  -3   4 1149.19   36.60
   7   2  -4  198.18   10.50
   7   2  -4  214.38   10.60
  -7  -2   4  214.38   11.20
  -7  -2   4  217.08   10.40
  -7  -2   4  210.48   10.10
   7   1  -4 1857.01   60.89
  -7  -1   4 1880.71   60.69
  -7  -1   4 1840.92   59.89
  -7  -1   4 1895.81   62.59
  -7  -1   4 1822.32   60.49
   7   0  -4    4.40    1.80
  -7   0   4    3.90    1.50
  -7   0   4    3.20    1.50
  -7   0   4    6.30    2.30
  -7   0   4    4.80    1.60
  -7   0   4    3.40    1.60
  -7   1   4 1848.02   60.19
  -7   1   4 1790.82   60.89
  -7   1   4 1793.72   58.79
  -7   1   4 1827.92   59.09
  -7   1   4 1754.02   59.09
  -7   1   4 1753.22   58.59
  -7   1   4 1811.82   56.89
  -7   1   4 1831.42   58.29
  -7   2   4  203.98   10.10
  -7   2   4  198.08    8.50
  -7   2   4  196.68    9.60
  -7   2   4  203.48   10.10
  -7   2   4  192.58   11.30
  -7   2   4  199.18    9.40
  -7   2   4  193.78   10.80
  -7   3   4 1161.58   36.50
  -7   3   4 1126.29   38.40
  -7   3   4 1168.88   38.40
  -7   3   4 1061.99   37.40
  -7   3   4 1022.10   39.70
  -7   3   4 1119.29   39.80
  -7   3   4 1150.98   37.40
  -7   4   4  191.78    8.00
  -7   4   4  201.38    9.50
  -7   4   4  186.78    8.60
  -7   4   4  197.98    9.50
  -7   4   4  177.58   10.10
  -7   5   4  491.85   18.60
  -7   5   4  461.15   17.20
  -7   5   4  490.85   16.20
  -7   5   4  468.75   16.50
  -7   5   4  447.46   17.30
   8   4  -4   76.09    4.70
   8   4  -4   83.29    4.70
  -8  -4   4   83.49    4.30
  -8  -4   4   83.89    4.50
   8   3  -4  783.12   25.90
   8   3  -4  718.73   26.00
  -8  -3   4  720.73   25.50
  -8  -3   4  750.72   25.50
   8   2  -4   21.30    2.70
  -8  -2   4   21.50    2.60
   8   1  -4  218.98   10.10
   8   1  -4  222.18   10.60
  -8  -1   4  231.88   10.20
  -8  -1   4  241.68   10.60
  -8  -1   4  229.98   11.40
  -8  -1   4  230.78   10.50
   8   0  -4   10.30    2.30
  -8   0   4   15.30    3.20
  -8   0   4   10.70    2.20
  -8   0   4   12.00    2.40
  -8   0   4   12.50    2.50
   8  -1  -4  234.58   10.20
  -8   1   4  217.58    8.90
  -8   1   4  222.78   10.10
  -8   1   4  222.18   10.10
  -8   1   4  218.58   10.30
  -8   1   4  237.18   10.40
  -8   1   4  221.78    9.90
  -8   1   4  208.58   11.50
   8  -2  -4   26.70    2.70
  -8   2   4   21.60    2.50
  -8   2   4   24.90    2.90
  -8   2   4   21.80    2.20
  -8   2   4   22.00    3.10
  -8   2   4   25.20    2.80
  -8   2   4   16.30    3.70
  -8   2   4   25.20    2.70
  -8   3   4  807.62   27.40
  -8   3   4  779.72   25.80
  -8   3   4  798.62   27.40
  -8   3   4  772.92   28.30
  -8   3   4  760.02   26.50
  -8   4   4   83.69    4.10
  -8   4   4   90.69    5.00
  -8   4   4   83.39    5.40
  -8   4   4   82.79    4.40
   9   3  -4  326.87   13.50
   9   2  -4  483.85   17.50
  -9  -2   4  514.35   17.30
   9   1  -4  445.16   16.30
   9   1  -4  422.66   15.90
  -9  -1   4  479.35   16.20
  -9  -1   4  466.75   16.40
   9   0  -4  307.87   11.90
   9   0  -4  302.67   11.80
  -9   0   4  306.77   12.10
  -9   0   4  333.17   12.10
   9  -1  -4  476.55   16.30
   9  -1  -4  472.55   16.50
  -9   1   4  436.56   16.30
  -9   1   4  457.65   15.40
  -9   1   4  434.26   16.10
  -9   1   4  463.75   16.10
  -9   1   4  474.45   16.40
   9  -2  -4  499.45   17.40
  -9   2   4  506.25   17.60
  -9   2   4  514.05   16.80
  -9   2   4  505.25   17.50
  -7   3  -5  235.58    8.50
  -7   2  -5  289.97   12.40
  -7   2  -5  302.97   10.70
  -7   2  -5  298.17   10.90
   7  -2   5  307.77   12.40
  -7   1  -5  249.38    9.30
   7  -1   5  230.58   10.70
   7  -1   5  240.68    8.70
  -7   0  -5  447.96   15.40
   7   0   5  444.26   14.80
   7   0   5  428.86   16.00
   7   0   5  421.36   16.60
  -7  -1  -5  215.88    8.60
  -7  -1  -5  217.28    8.70
   7   1   5  237.38    8.40
   7   1   5  231.38    9.60
  -7  -2  -5  277.87   10.30
  -7  -2  -5  303.67   10.60
   7   2   5  292.27   10.20
   7   3   5  208.88    7.90
  -6   4  -5  125.59    5.80
  -6   4  -5  134.19    5.70
  -6   4  -5  135.19    5.90
  -6   4  -5  135.19    6.40
  -6   3  -5  354.06   13.70
  -6   3  -5  330.47   14.70
  -6   3  -5  342.57   12.70
  -6   3  -5  347.27   12.90
  -6   3  -5  337.07   12.70
   6  -3   5  320.17   14.40
  -6   2  -5  175.48   10.10
  -6   2  -5  182.18    8.60
  -6   2  -5  181.08    8.00
  -6   2  -5  177.28    8.00
  -6   2  -5  173.38    7.80
   6  -2   5  169.68    9.90
  -6   1  -5  874.31   32.40
  -6   1  -5  837.12   29.10
  -6   1  -5  853.31   29.10
   6  -1   5  858.01   28.30
   6  -1   5  920.81   30.40
   6  -1   5  834.02   32.00
  -6   0  -5   23.10    2.50
  -6   0  -5   23.90    3.40
  -6   0  -5   25.00    2.60
   6   0   5   26.70    3.10
   6   0   5   24.60    3.40
   6   0   5   27.90    2.40
  -6  -1  -5  857.11   28.60
  -6  -1  -5  826.62   28.30
   6   1   5  799.72   30.20
   6   1   5  858.41   27.90
   6   1   5  857.01   29.90
  -6  -2  -5  156.78    7.40
  -6  -2  -5  162.48    7.50
   6   2   5  168.48    7.00
   6   2   5  165.78    8.30
  -6  -3  -5  321.77   12.10
  -6  -3  -5  314.57   12.20
   6   3   5  321.57   11.70
   6   3   5  345.87   12.30
   6   3   5  318.27   12.90
  -6  -4  -5  133.99    5.80
  -6  -4  -5  136.19    5.60
   6   4   5  126.29    5.20
   6   4   5  128.59    5.70
  -5   5  -5   85.19    4.40
  -5   5  -5   90.09    4.60
  -5   5  -5   82.19    4.50
  -5   5  -5   88.19    5.00
  -5   5  -5   83.19    4.50
  -5   4  -5  363.56   14.00
  -5   4  -5  368.56   13.90
  -5   4  -5  359.36   13.80
  -5   4  -5  357.76   14.80
  -5   4  -5  355.16   13.60
  -5   3  -5  205.78   10.70
  -5   3  -5  182.38    8.70
  -5   3  -5  191.98    8.60
  -5   3  -5  197.98    9.10
  -5   3  -5  188.58   11.00
  -5   3  -5  191.18    9.90
  -5   3  -5  186.18    8.80
   5  -3   5  196.68   11.00
  -5   2  -5  369.36   14.40
  -5   2  -5  347.37   15.40
  -5   2  -5  377.76   17.70
  -5   2  -5  334.27   14.10
  -5   2  -5  360.96   14.50
   5  -2   5  378.46   17.50
  -5   1  -5   17.10    2.70
  -5   1  -5   19.40    4.10
  -5   1  -5   17.10    2.80
   5  -1   5   19.00    4.00
   5  -1   5   16.70    3.70
  -5   0  -5 1081.49   37.00
  -5   0  -5 1105.39   37.10
  -5   0  -5 1106.09   40.60
   5   0   5 1070.19   38.60
   5   0   5 1175.18   40.80
   5   0   5 1115.29   36.40
  -5  -1  -5   17.70    3.70
  -5  -1  -5   14.60    2.50
  -5  -1  -5   15.10    2.40
   5   1   5   13.70    2.20
   5   1   5   13.50    3.20
   5   1   5   11.50    2.60
  -5  -2  -5  351.66   13.90
  -5  -2  -5  366.66   14.30
   5   2   5  355.66   13.50
   5   2   5  340.27   15.10
  -5  -3  -5  183.58    8.30
  -5  -3  -5  197.58    8.70
   5   3   5  184.68    7.80
   5   3   5  180.28    9.20
   5   3   5  167.58    8.30
  -5  -4  -5  379.06   13.90
   5   4   5  349.27   13.70
   5   4   5  345.47   14.20
   5   4   5  359.66   13.00
  -5  -5  -5   75.09    4.20
   5   5   5   81.99    4.30
  -4   6  -5  381.56   13.40
  -4   6  -5  361.96   13.40
  -4   6  -5  379.76   13.50
  -4   6  -5  363.56   13.50
   4  -6   5  379.56   13.70
  -4   5  -5   58.09    4.40
  -4   5  -5   56.39    3.90
  -4   5  -5   58.89    4.20
  -4   5  -5   53.79    4.90
  -4   5  -5   58.79    4.10
  -4   5  -5   57.39    4.00
   4  -5   5   64.29    5.10
  -4   4  -5  415.96   16.20
  -4   4  -5  433.16   16.80
  -4   4  -5  433.56   18.70
  -4   4  -5  433.36   17.70
  -4   4  -5  428.86   16.50
  -4   4  -5  411.06   16.30
   4  -4   5  437.86   18.40
  -4   3  -5  157.18    8.00
  -4   3  -5  164.88    8.20
  -4   3  -5  170.68   10.60
  -4   3  -5  178.28    9.70
  -4   3  -5  173.28   10.10
  -4   3  -5  159.18    8.20
  -4   3  -5  173.38    8.60
   4  -3   5  175.28   10.50
  -4   2  -5  630.34   23.10
  -4   2  -5  627.64   22.70
  -4   2  -5  646.94   26.50
  -4   2  -5  612.04   24.10
   4  -2   5  642.44   26.10
  -4   1  -5  119.79    9.10
   4  -1   5  158.98   15.90
  -4   0  -5  536.45   23.00
   4   0   5  567.34   34.50
   4   0   5  529.45   21.20
  -4  -1  -5  140.99    8.70
   4   1   5  115.19    8.10
   4   1   5  121.59    7.60
   4   1   5  127.29   15.00
  -4  -2  -5  654.13   23.30
   4   2   5  654.43   24.50
   4   2   5  624.44   22.30
  -4  -3  -5  178.68    8.50
  -4  -3  -5  170.18    8.80
   4   3   5  169.88    9.10
   4   3   5  158.58    8.10
   4   3   5  163.48    8.50
   4   3   5  169.68    7.60
  -4  -4  -5  479.35   16.90
  -4  -4  -5  456.35   17.20
   4   4   5  407.06   16.40
   4   4   5  411.56   17.20
   4   4   5  410.36   16.80
   4   4   5  431.46   16.40
   4   4   5  422.76   15.60
  -4  -5  -5   69.89    4.60
  -4  -5  -5   77.59    4.50
   4   5   5   58.19    3.50
   4   5   5   55.29    4.00
   4   5   5   62.69    4.10
   4   5   5   59.99    4.30
  -4  -6  -5  348.47   13.30
  -4  -6  -5  365.36   13.10
   4   6   5  367.56   13.10
   4   6   5  362.66   13.10
   4   6   5  367.76   13.30
  -3   7  -5   16.00    1.60
  -3   7  -5   16.60    1.60
  -3   7  -5   15.70    1.60
  -3   7  -5   16.80    1.60
  -3   6  -5  862.61   28.40
  -3   6  -5  805.02   28.50
  -3   6  -5  868.21   28.30
  -3   6  -5  803.02   32.40
  -3   6  -5  872.11   28.50
  -3   5  -5   34.50    3.90
  -3   5  -5   42.00    3.60
  -3   5  -5   34.40    3.30
  -3   5  -5   35.30    3.70
  -3   5  -5   33.60    3.20
  -3   5  -5   35.40    4.20
  -3   5  -5   41.30    3.80
   3  -5   5   42.80    4.40
  -3   4  -5 1291.97   42.40
  -3   4  -5 1301.07   44.80
  -3   4  -5 1209.38   43.50
  -3   4  -5 1250.67   41.60
  -3   4  -5 1279.47   41.80
  -3   4  -5 1225.08   41.60
  -3   4  -5 1255.87   43.20
   3  -4   5 1242.28   44.10
  -3   3  -5   31.20    6.40
  -3   3  -5   31.20    4.00
   3  -3   5   37.50    8.20
  -3   2  -5  837.62   30.60
  -3   2  -5  790.92   37.80
   3  -2   5  862.71   43.50
  -3   1  -5   15.80    4.80
   3  -1   5   11.80    4.00
   3  -1   5   19.30    5.40
   3   0   5   86.39    9.00
   3   0   5   82.39    5.80
   3   0   5   92.99   11.60
   3   1   5   17.90    5.40
   3   1   5   13.50    4.40
   3   1   5   21.40    2.90
   3   2   5  836.82   29.90
   3   2   5  791.52   37.70
   3   2   5  870.71   44.60
   3   3   5   41.20    4.00
   3   3   5   32.00    6.40
   3   3   5   35.30    8.10
  -3  -4  -5 1276.47   42.60
  -3  -4  -5 1277.27   43.90
   3   4   5 1273.27   42.40
   3   4   5 1327.67   43.90
   3   4   5 1223.48   42.40
   3   4   5 1276.67   43.60
   3   4   5 1313.07   41.60
  -3  -5  -5   40.60    3.50
   3   5   5   35.90    3.60
   3   5   5   35.50    3.40
   3   5   5   34.20    3.70
   3   5   5   36.80    3.30
   3   5   5   39.10    3.40
   3   5   5   36.10    2.90
  -3  -6  -5  800.32   29.00
  -3  -6  -5  831.02   28.10
   3   6   5  868.11   28.50
   3   6   5  865.11   29.10
   3   6   5  837.62   28.00
   3   6   5  823.62   28.20
  -3  -7  -5   14.00    1.40
  -3  -7  -5   14.70    1.60
   3   7   5   15.20    1.50
   3   7   5   16.20    1.70
   3   7   5   15.80    1.60
   3   7   5   15.30    1.40
  -2   7  -5    1.50    0.80
  -2   7  -5    1.30    0.70
  -2   7  -5    1.50    0.80
  -2   7  -5    2.20    1.10
  -2   7  -5    1.10    0.80
  -2   6  -5  269.17   12.80
  -2   6  -5  263.67   13.00
  -2   6  -5  278.97   11.60
  -2   6  -5  278.17   11.50
  -2   6  -5  282.67   11.70
  -2   6  -5  282.37   11.90
   2  -6   5  290.47   13.20
  -2   5  -5  117.09    6.40
  -2   5  -5  102.89    6.30
  -2   5  -5  101.79    6.50
  -2   5  -5  101.79    7.30
  -2   5  -5  110.89    6.40
  -2   5  -5  110.39    7.70
   2  -5   5  125.09    7.90
  -2   4  -5 1148.49   40.70
  -2   4  -5 1113.99   50.39
   2  -4   5 1118.19   40.20
   2  -4   5 1109.29   48.80
   2  -4   5 1157.48   56.39
  -2   3  -5  428.86   24.80
  -2   3  -5  424.46   18.40
   2  -3   5  430.56   24.10
   2  -3   5  417.16   18.00
   2  -3   5  449.16   29.40
  -2   2  -5 2222.08   72.69
  -2   2  -5 2222.08   80.49
   2  -2   5 2312.17   87.29
   2  -2   5 2212.88   79.79
  -2   1  -5  622.24   29.30
   2  -1   5  687.93   34.70
   2  -1   5  676.13   30.20
   2   0   5 1461.05   55.19
   2   0   5 1472.45   59.59
   2   1   5  702.03   36.10
   2   1   5  678.03   31.30
   2   2   5 2379.46   88.89
   2   2   5 2170.88   82.19
  -2  -3  -5  431.26   22.50
   2   3   5  393.66   16.70
   2   3   5  405.86   24.80
   2   3   5  420.36   28.30
  -2  -4  -5 1055.49   44.90
   2   4   5 1004.10   47.20
   2   4   5 1095.79   37.10
   2   4   5 1076.59   53.09
  -2  -5  -5  118.69    6.50
   2   5   5  109.99    5.90
   2   5   5  106.19    7.10
   2   5   5  110.79    5.70
   2   5   5  108.09    6.20
   2   5   5  103.69    6.20
   2   5   5  104.79    6.80
   2   5   5  106.19    6.50
  -2  -6  -5  273.87   11.50
   2   6   5  268.87   11.00
   2   6   5  293.47   11.80
   2   6   5  291.57   11.70
   2   6   5  277.67   11.90
   2   6   5  278.37   12.50
   2   6   5  281.47   11.50
   2   6   5  290.17   12.80
  -2  -7  -5    2.10    0.80
  -2  -7  -5    2.20    1.00
   2   7   5    0.50    0.60
   2   7   5    1.30    0.80
   2   7   5    1.70    0.70
   2   7   5    2.30    0.90
   2   7   5    1.60    0.90
   2   7   5    1.50    0.80
   2   7   5    1.10    0.80
  -1   7  -5  589.24   20.10
  -1   7  -5  603.64   20.30
  -1   7  -5  544.85   21.10
  -1   7  -5  556.54   20.10
  -1   7  -5  575.84   20.10
  -1   6  -5  316.27   12.50
  -1   6  -5  306.17   12.60
  -1   6  -5  286.67   12.30
  -1   6  -5  291.87   11.90
  -1   6  -5  303.37   14.00
  -1   6  -5  300.47   12.60
  -1   6  -5  282.97   13.90
   1  -6   5  286.97   13.60
  -1   5  -5  229.88   10.50
  -1   5  -5  242.08   12.20
  -1   5  -5  220.38   10.00
  -1   5  -5  248.58   10.60
  -1   5  -5  236.08   10.80
  -1   5  -5  236.38   12.30
  -1   5  -5  225.28   10.30
   1  -5   5  229.58   12.20
  -1   4  -5  611.74   31.80
  -1   4  -5  616.44   24.10
  -1   4  -5  617.04   37.50
   1  -4   5  613.04   36.50
   1  -4   5  577.14   31.10
   1  -4   5  603.34   23.80
  -1   3  -5  808.62   29.20
  -1   3  -5  829.52   36.80
   1  -3   5  762.02   36.00
   1  -3   5  760.02   40.60
   1  -3   5  774.22   28.80
  -1   2  -5  383.76   20.80
  -1   2  -5  363.56   15.70
   1  -2   5  405.86   24.80
   1  -2   5  398.46   21.50
   1  -2   5  381.26   15.70
  -1   1  -5   92.99    8.20
   1  -1   5   86.59    8.30
   1  -1   5   77.39    9.40
  -1   0  -5  489.55   21.50
   1   0   5  452.25   22.70
   1   0   5  464.15   25.10
   1   1   5   94.19   10.30
  -1  -2  -5  391.26   19.20
   1   2   5  366.66   23.50
   1   2   5  368.06   21.60
  -1  -3  -5  742.73   32.60
   1   3   5  769.12   36.20
   1   3   5  710.43   26.60
  -1  -4  -5  589.24   23.70
  -1  -4  -5  614.14   29.60
   1   4   5  580.34   24.40
   1   4   5  605.54   24.10
   1   4   5  606.34   22.80
   1   4   5  532.25   30.50
   1   5   5  244.28   11.80
   1   5   5  243.98   11.10
   1   5   5  245.38   11.00
   1   5   5  236.48   11.70
   1   5   5  236.48   11.10
   1   5   5  245.18   13.70
   1   5   5  238.88   10.00
   1   5   5  238.88   10.30
   1   5   5  242.08   12.00
   1   6   5  309.37   12.10
   1   6   5  291.37   13.70
   1   6   5  310.57   13.00
   1   6   5  289.27   12.80
   1   6   5  314.57   12.70
   1   6   5  299.77   15.50
   1   6   5  316.97   13.70
   1   7   5  590.34   20.60
   1   7   5  573.24   20.40
   1   7   5  572.64   21.00
   1   7   5  583.04   20.20
   1   7   5  569.94   21.20
   1   7   5  594.64   19.80
   0   8  -5   19.40    1.70
   0   8  -5   20.10    2.00
   0   8  -5   17.50    1.60
   0   8  -5   19.80    1.70
   0   7  -5   16.70    2.10
   0   7  -5   18.20    2.20
   0   7  -5   15.20    2.20
   0   7  -5   17.40    2.60
   0   7  -5   16.90    2.20
   0   7  -5   19.30    2.30
   0   6  -5  222.78    9.80
   0   6  -5  218.38    9.90
   0   6  -5  233.08   11.50
   0   6  -5  226.88   10.20
   0   6  -5  219.08   10.10
   0  -6   5  204.38   11.20
   0   5  -5  455.05   19.10
   0   5  -5  437.96   17.60
   0   5  -5  463.25   17.50
   0   5  -5  446.96   17.60
   0   5  -5  448.36   17.40
   0   5  -5  470.35   19.80
   0   5  -5  425.36   17.10
   0  -5   5  522.15   20.00
   0   4  -5  169.88   16.90
   0   4  -5  159.08   14.00
   0   4  -5  148.79    9.10
   0  -4   5  164.58    9.50
   0  -4   5  170.68   16.70
   0  -4   5  155.18   13.60
   0   3  -5 1834.42   73.99
   0   3  -5 1926.21   68.99
   0   3  -5 1864.81   60.99
   0  -3   5 1816.02   68.89
   0  -3   5 1794.82   73.29
   0  -3   5 1905.91   61.09
   0   2  -5  201.78   13.30
   0   2  -5  199.88    9.50
   0  -2   5  190.68   15.40
   0  -2   5  182.48   13.50
   0  -2   5  201.88    9.50
   0   1  -5 3074.89  100.69
   0  -1   5 2960.50  103.89
   0  -1   5 3060.39  101.59
   0   0  -5  171.58   10.70
   0   0   5  185.58   12.20
   0   1   5 2776.12   94.39
   0  -2  -5  193.78   12.90
   0   2   5  240.08   11.10
   0   2   5  203.68   14.80
   0   2   5  202.18   13.10
   0   2   5  232.28   10.50
   0  -3  -5 1884.31   66.89
   0   3   5 1833.42   61.69
   0   3   5 1882.81   67.39
   0   3   5 1788.12   60.99
   0   3   5 1794.22   69.49
   0  -4  -5  171.08   13.50
   0   4   5  147.79    9.90
   0   4   5  168.98   10.00
   0   4   5  133.39   13.10
   0   4   5  152.48   13.10
   0   4   5  153.18    8.70
   0   5   5  445.36   17.80
   0   5   5  465.55   17.70
   0   5   5  459.25   18.90
   0   5   5  446.16   16.80
   0   5   5  435.66   18.20
   0   5   5  461.35   19.10
   0   5   5  453.45   17.90
   0   5   5  475.75   21.40
   0   6   5  230.08   13.40
   0   6   5  238.08   11.00
   0   6   5  231.98   10.00
   0   6   5  239.88   10.70
   0   6   5  224.98   11.60
   0   6   5  239.88   10.90
   0   6   5  237.48   11.20
   0   7   5   18.80    2.20
   0   7   5   19.90    2.30
   0   7   5   17.50    2.30
   0   7   5   17.00    2.20
   0   7   5   16.80    2.40
   0   7   5   14.20    2.10
   0   8   5   18.30    1.70
   0   8   5   20.30    1.90
   0   8   5   19.10    1.50
   0   8   5   20.20    1.70
   1   8  -5   47.00    3.10
   1   8  -5   46.60    2.60
   1   8  -5   47.30    2.70
   1   8  -5   46.30    2.80
   1   7  -5  465.75   17.60
   1   7  -5  524.95   18.30
   1   7  -5  508.05   17.90
   1   7  -5  495.05   17.90
   1   7  -5  501.75   19.10
   1   7  -5  503.65   17.90
  -1  -7   5  481.95   17.80
   1   6  -5   96.59    5.60
   1   6  -5   89.79    5.60
   1   6  -5   89.79    5.70
   1   6  -5   91.19    5.80
   1   6  -5   97.59    5.90
   1   6  -5   95.79    6.60
  -1  -6   5  114.99    7.30
   1   5  -5  636.14   24.50
   1   5  -5  618.74   22.90
   1   5  -5  684.83   23.00
   1   5  -5  624.94   23.00
   1   5  -5  631.54   22.80
   1   5  -5  664.13   23.20
   1   5  -5  596.34   23.50
  -1  -5   5  640.14   25.10
   1   4  -5  276.37   18.50
   1   4  -5  275.77   13.50
   1   4  -5  264.37   24.10
  -1  -4   5  285.77   13.40
  -1  -4   5  291.27   18.80
   1   3  -5 1141.19   45.60
   1   3  -5 1118.99   38.90
  -1  -3   5 1131.99   38.70
  -1  -3   5 1098.79   45.30
   1   2  -5  250.97   12.50
   1   2  -5  256.47   15.00
   1   2  -5  253.77   11.40
  -1  -2   5  233.28   15.20
   1   1  -5 1142.29   41.30
  -1  -1   5  992.00   40.80
   1   0  -5 1207.08   45.10
  -1   0   5 1247.78   40.20
  -1   0   5 1205.88   45.40
   1  -1  -5 1081.99   41.60
  -1   1   5 1131.79   43.90
  -1   1   5 1197.18   42.70
  -1   1   5 1162.88   38.40
  -1   2   5  250.87   15.20
  -1   2   5  258.97   16.50
  -1   2   5  261.17   11.90
  -1   2   5  258.97   12.30
   1  -3  -5 1131.69   44.00
  -1   3   5 1071.99   38.90
  -1   3   5 1084.89   38.40
  -1   3   5 1074.09   43.90
  -1   3   5 1026.50   44.80
   1  -4  -5  295.77   18.50
  -1   4   5  275.37   14.00
  -1   4   5  236.98   12.10
  -1   4   5  267.77   14.20
  -1   4   5  240.88   17.80
  -1   4   5  257.07   17.80
  -1   5   5  677.23   26.00
  -1   5   5  669.23   23.50
  -1   5   5  653.43   24.80
  -1   5   5  698.33   24.70
  -1   5   5  665.03   24.70
  -1   5   5  671.23   26.20
  -1   5   5  668.53   23.90
  -1   5   5  716.23   28.80
  -1   6   5   98.99    6.20
  -1   6   5  100.99    6.90
  -1   6   5   99.29    6.10
  -1   6   5   95.29    5.40
  -1   6   5   92.79    8.00
  -1   6   5   96.89    6.20
  -1   7   5  508.25   18.40
  -1   7   5  488.55   18.20
  -1   7   5  506.35   17.40
  -1   7   5  478.75   18.90
  -1   7   5  506.85   18.00
  -1   8   5   44.40    3.20
  -1   8   5   45.60    2.70
  -1   8   5   41.80    2.70
  -1   8   5   46.40    3.00
   2   8  -5   71.29    3.50
   2   8  -5   65.19    3.30
   2   7  -5  520.35   19.50
   2   7  -5  546.85   18.50
   2   7  -5  522.75   19.30
   2   7  -5  510.55   18.60
   2   7  -5  526.35   18.40
   2   7  -5  547.45   18.60
   2   7  -5  533.25   18.90
  -2  -7   5  494.55   18.50
   2   6  -5   92.89    5.80
   2   6  -5   93.49    6.30
   2   6  -5   98.49    5.90
   2   6  -5   91.89    6.20
   2   6  -5   97.89    5.60
   2   6  -5   99.59    5.60
  -2  -6   5   97.69    5.90
   2   5  -5 1682.63   53.79
   2   5  -5 1668.53   55.49
   2   5  -5 1615.04   55.19
   2   5  -5 1667.73   59.49
   2   5  -5 1702.13   54.49
   2   5  -5 1653.53   54.39
  -2  -5   5 1715.83   56.69
   2   4  -5  195.88   12.20
  -2  -4   5  206.58   15.20
  -2  -4   5  205.18   10.90
   2   3  -5 1161.78   45.10
   2   3  -5 1072.09   40.50
  -2  -3   5 1091.89   44.70
  -2  -3   5 1153.28   39.10
  -2  -2   5   30.20    3.10
  -2  -2   5   31.00    3.30
  -2  -2   5   31.00    4.90
   2   1  -5 1763.62   57.79
   2   1  -5 1690.73   62.29
  -2  -1   5 1727.73   61.39
  -2  -1   5 1798.32   57.09
  -2  -1   5 1743.33   56.69
   2   0  -5  266.07   15.60
  -2   0   5  270.67   12.00
  -2   0   5  281.17   17.20
   2  -1  -5 1775.92   64.09
   2  -1  -5 1910.11   60.29
  -2   1   5 1792.12   59.89
  -2   1   5 1795.72   59.39
  -2   1   5 1843.82   64.59
  -2   2   5   50.09    6.50
  -2   2   5   51.49    4.60
  -2   2   5   52.49    4.80
  -2   3   5 1161.58   41.00
  -2   3   5 1135.79   41.20
  -2   3   5 1163.58   47.50
   2  -4  -5  209.48   15.40
  -2   4   5  211.38   12.10
  -2   4   5  191.88   11.50
  -2   4   5  180.98   10.30
  -2   4   5  197.88   15.60
  -2   5   5 1700.83   55.49
  -2   5   5 1690.23   55.29
  -2   5   5 1675.13   59.39
  -2   5   5 1649.93   54.49
  -2   5   5 1755.52   57.59
  -2   5   5 1629.44   53.99
  -2   5   5 1725.13   56.89
  -2   5   5 1730.83   55.79
  -2   6   5   90.99    5.90
  -2   6   5   93.99    7.70
  -2   6   5  109.99    8.10
  -2   6   5   98.79    6.60
  -2   6   5   92.19    5.90
  -2   6   5   96.99    6.20
  -2   6   5   95.99    5.30
  -2   7   5  535.55   18.80
  -2   7   5  511.75   19.40
  -2   7   5  534.55   18.60
  -2   7   5  504.65   18.40
  -2   7   5  492.45   17.50
   3   7  -5  125.49    6.30
   3   7  -5  132.09    5.90
   3   7  -5  121.09    6.50
   3   7  -5  121.09    6.00
   3   7  -5  134.99    6.00
  -3  -7   5  127.69    6.20
  -3  -7   5  131.09    6.10
   3   6  -5  728.33   25.00
   3   6  -5  742.63   25.90
   3   6  -5  756.82   26.60
   3   6  -5  756.52   25.90
   3   6  -5  709.13   29.80
  -3  -6   5  698.33   25.60
   3   5  -5  563.04   21.70
   3   5  -5  544.95   20.80
   3   5  -5  552.44   20.10
   3   5  -5  575.44   21.00
   3   5  -5  570.54   25.50
  -3  -5   5  549.54   20.80
  -3  -5   5  581.44   23.00
   3   4  -5 1073.39   40.50
  -3  -4   5 1029.10   38.00
   3   3  -5 2011.60   68.19
   3   3  -5 1946.01   72.49
  -3  -3   5 2049.59   66.69
  -3  -3   5 2024.20   65.89
   3   2  -5  451.05   19.90
   3   2  -5  451.35   23.50
  -3  -2   5  478.35   19.00
  -3  -2   5  445.86   18.40
   3   1  -5 3043.90  100.49
   3   1  -5 2960.70   94.19
  -3  -1   5 2809.32   93.09
  -3  -1   5 2918.81   93.29
   3   0  -5  183.98   13.00
  -3   0   5  190.28    9.90
  -3   0   5  205.18   12.50
  -3   0   5  181.08    9.70
   3  -1  -5 3039.90  102.19
   3  -1  -5 3075.19   97.29
  -3   1   5 2952.60  102.39
  -3   1   5 3080.89   96.89
  -3   1   5 3066.19   97.09
   3  -2  -5  460.35   22.40
   3  -2  -5  461.65   19.30
  -3   2   5  416.26   23.60
  -3   2   5  457.45   19.20
  -3   2   5  470.35   19.30
   3  -3  -5 1956.20   66.69
  -3   3   5 1863.81   64.79
  -3   3   5 2079.89   67.09
  -3   3   5 1997.70   74.69
  -3   3   5 2044.80   66.99
  -3   4   5 1058.59   37.60
  -3   4   5 1017.00   39.50
  -3   4   5 1076.39   39.20
  -3   4   5 1079.99   39.50
  -3   4   5 1071.09   47.20
  -3   5   5  577.64   22.70
  -3   5   5  570.14   20.60
  -3   5   5  576.54   24.60
  -3   5   5  574.34   21.60
  -3   5   5  595.04   23.10
  -3   5   5  555.64   21.20
  -3   5   5  587.74   21.80
   3  -6  -5  733.33   29.30
  -3   6   5  759.12   25.60
  -3   6   5  768.12   26.20
  -3   6   5  721.33   29.20
  -3   6   5  724.43   27.40
  -3   6   5  781.72   26.80
  -3   6   5  751.02   26.50
  -3   6   5  767.02   27.50
  -3   7   5  130.89    6.40
  -3   7   5  120.19    6.10
  -3   7   5  137.29    7.30
  -3   7   5  127.69    6.70
   4   7  -5  319.97   11.30
   4   7  -5  322.07   12.40
   4   7  -5  344.57   12.20
  -4  -7   5  327.27   12.10
  -4  -7   5  303.07   11.70
   4   6  -5  417.86   15.90
   4   6  -5  403.56   19.20
   4   6  -5  419.76   17.10
   4   6  -5  456.95   15.00
   4   6  -5  422.76   16.30
   4   6  -5  427.26   15.90
  -4  -6   5  381.56   15.60
  -4  -6   5  380.16   15.50
   4   5  -5  247.68   11.00
   4   5  -5  236.18   14.10
   4   5  -5  222.58   12.00
   4   5  -5  251.47   11.00
   4   5  -5  263.47   11.50
  -4  -5   5  234.08   10.90
  -4  -5   5  239.88   10.90
   4   4  -5  640.84   22.90
   4   4  -5  613.34   23.00
   4   4  -5  645.24   24.80
   4   4  -5  616.54   22.60
   4   4  -5  618.84   26.90
  -4  -4   5  612.24   22.80
  -4  -4   5  591.94   23.80
  -4  -4   5  634.44   25.20
   4   3  -5  274.27   14.50
  -4  -3   5  250.97   13.20
  -4  -3   5  260.77   13.20
   4   2  -5  896.81   33.80
   4   2  -5  864.01   38.40
  -4  -2   5  894.11   32.90
  -4  -2   5  864.81   32.30
   4   1  -5  121.79    8.40
   4   1  -5  122.39   11.10
  -4  -1   5  122.29    7.90
  -4  -1   5  117.09    7.90
   4   0  -5  657.53   30.70
   4   0  -5  678.63   26.10
  -4   0   5  641.84   25.40
  -4   0   5  644.04   29.40
  -4   0   5  707.53   26.20
   4  -1  -5  113.59   10.10
   4  -1  -5  110.89    7.70
  -4   1   5  110.99    7.60
  -4   1   5  117.49    7.90
  -4   1   5  111.89   10.30
  -4   1   5  126.19    8.00
   4  -2  -5  881.01   32.50
   4  -2  -5  825.72   36.30
  -4   2   5  940.91   33.30
  -4   2   5  883.21   32.40
  -4   2   5  847.92   39.00
  -4   2   5  830.12   30.60
   4  -3  -5  245.98   13.80
  -4   3   5  286.37   14.50
  -4   3   5  291.57   20.30
  -4   3   5  308.87   15.20
  -4   3   5  300.27   13.40
  -4   3   5  275.17   14.30
   4  -4  -5  693.03   27.30
  -4   4   5  680.93   27.30
  -4   4   5  661.73   24.80
  -4   4   5  629.54   24.30
  -4   4   5  677.53   25.70
  -4   4   5  661.73   25.70
  -4   4   5  712.33   27.60
  -4   4   5  682.63   23.60
   4  -5  -5  235.68   13.80
  -4   5   5  251.67   11.40
  -4   5   5  257.37   11.70
  -4   5   5  272.87   12.70
  -4   5   5  257.17   13.40
  -4   5   5  260.87   10.70
  -4   5   5  250.97   12.20
  -4   6   5  440.36   16.50
  -4   6   5  431.16   16.50
  -4   6   5  414.66   17.10
  -4   6   5  432.96   17.00
  -4   6   5  436.66   15.60
  -4   7   5  304.87   11.40
   5   7  -5    9.00    1.70
  -5  -7   5   11.10    1.30
   5   6  -5  154.58    8.30
   5   6  -5  158.38    7.40
   5   6  -5  156.88    7.60
  -5  -6   5  161.78    7.30
  -5  -6   5  171.88    7.60
   5   5  -5   56.99    4.30
   5   5  -5   57.49    5.10
   5   5  -5   57.89    4.40
   5   5  -5   58.09    6.10
  -5  -5   5   70.59    4.70
  -5  -5   5   64.59    4.50
   5   4  -5 1103.89   37.50
   5   4  -5 1108.39   41.60
   5   4  -5 1120.49   39.40
   5   4  -5 1070.89   37.10
  -5  -4   5 1097.39   37.50
  -5  -4   5 1158.18   39.70
  -5  -4   5 1060.59   37.10
   5   3  -5  225.48   10.50
   5   3  -5  230.68   13.30
   5   3  -5  224.68   11.90
  -5  -3   5  214.78   12.00
  -5  -3   5  224.38   10.50
   5   2  -5 1372.86   50.19
   5   2  -5 1351.96   56.39
  -5  -2   5 1474.75   49.70
  -5  -2   5 1479.55   49.99
   5   1  -5  347.37   21.50
   5   1  -5  334.27   16.70
  -5  -1   5  352.16   16.50
  -5  -1   5  372.06   17.00
   5   0  -5 1821.02   64.59
   5   0  -5 1950.70   71.79
  -5   0   5 2014.30   65.39
  -5   0   5 1936.71   64.79
  -5   0   5 1855.11   70.39
   5  -1  -5  337.27   15.90
   5  -1  -5  349.77   20.40
  -5   1   5  344.57   16.30
  -5   1   5  337.57   20.70
  -5   1   5  318.17   13.90
  -5   1   5  335.47   16.10
   5  -2  -5 1496.35   50.49
   5  -2  -5 1493.95   56.89
  -5   2   5 1482.95   51.59
  -5   2   5 1347.77   48.30
  -5   2   5 1438.76   59.29
  -5   2   5 1447.86   50.39
  -5   3   5  241.08   11.60
  -5   3   5  218.08   10.80
  -5   3   5  215.98   11.30
  -5   3   5  236.78   12.80
  -5   3   5  228.18   11.40
  -5   3   5  224.28   10.50
  -5   3   5  222.88    9.60
  -5   4   5 1174.98   39.50
  -5   4   5 1137.89   39.70
  -5   4   5 1129.49   40.20
  -5   4   5 1148.89   40.50
  -5   4   5 1228.28   42.70
  -5   5   5   65.89    4.80
  -5   5   5   60.09    4.50
  -5   5   5   59.29    4.00
  -5   5   5   61.79    5.70
  -5   5   5   61.59    5.00
  -5   6   5  153.68    7.20
  -5   6   5  150.48    7.60
  -5   6   5  149.49    7.10
  -5   6   5  155.58    6.60
   6   6  -5  535.65   19.60
   6   6  -5  598.54   18.50
  -6  -6   5  515.85   18.40
  -6  -6   5  528.45   18.50
   6   5  -5    7.30    1.60
   6   5  -5    8.00    2.10
  -6  -5   5    6.60    1.70
  -6  -5   5    8.50    1.90
   6   4  -5  455.85   20.40
   6   4  -5  444.06   18.60
  -6  -4   5  436.96   17.10
  -6  -4   5  447.26   17.40
   6   3  -5    9.40    2.50
   6   3  -5   11.90    2.80
   6   3  -5   16.40    4.00
  -6  -3   5   14.40    3.40
  -6  -3   5   18.40    2.90
   6   2  -5  771.52   28.70
   6   2  -5  857.91   31.60
   6   2  -5  802.22   29.70
  -6  -2   5  749.13   28.40
  -6  -2   5  811.72   31.10
  -6  -2   5  787.12   28.60
   6   1  -5   21.20    3.00
   6   1  -5   20.20    3.60
   6   1  -5   24.10    3.80
  -6  -1   5   33.40    3.60
  -6  -1   5   23.50    3.70
  -6  -1   5   22.30    3.30
  -6  -1   5   25.70    3.90
   6   0  -5  127.99   16.60
   6   0  -5  135.09    8.30
  -6   0   5  143.19    8.10
  -6   0   5  140.29    7.70
  -6   0   5  141.89    7.90
  -6   0   5  137.99    8.40
  -6   0   5  128.09   12.70
  -6   0   5  143.19   13.40
  -6   0   5  130.69    9.20
   6  -1  -5   22.60    3.30
  -6   1   5   23.50    3.30
  -6   1   5   20.40    3.30
  -6   1   5   17.30    2.90
  -6   1   5   20.30    2.80
  -6   1   5   19.90    3.40
  -6   1   5   19.40    3.50
  -6   1   5   28.20    3.40
  -6   1   5   24.90    3.90
  -6   2   5  848.92   31.20
  -6   2   5  820.82   28.40
  -6   2   5  816.62   29.20
  -6   2   5  811.02   29.60
  -6   2   5  796.72   27.10
  -6   2   5  782.62   28.70
  -6   2   5  758.72   30.70
  -6   3   5    8.30    2.00
  -6   3   5   11.50    2.10
  -6   3   5   12.10    3.00
  -6   3   5    7.10    2.00
  -6   3   5    9.50    2.30
  -6   4   5  462.05   18.40
  -6   4   5  424.46   18.10
  -6   4   5  463.45   17.60
  -6   4   5  466.25   19.90
  -6   4   5  473.65   16.70
  -6   4   5  461.25   17.90
  -6   5   5    5.50    2.00
  -6   5   5    6.90    1.80
  -6   5   5    7.50    1.80
  -6   5   5    7.30    1.70
  -6   5   5    6.30    1.40
  -6   6   5  547.25   18.70
  -6   6   5  562.14   18.30
   7   5  -5   98.89    5.50
  -7  -5   5   89.09    4.60
  -7  -5   5   89.49    4.50
   7   4  -5  819.32   28.90
   7   4  -5  786.62   27.70
  -7  -4   5  828.12   27.70
   7   3  -5  288.07   12.60
   7   3  -5  284.87   13.20
  -7  -3   5  299.47   12.50
  -7  -3   5  309.27   13.80
   7   2  -5  866.91   30.90
   7   2  -5  875.81   31.60
  -7  -2   5  867.51   30.40
  -7  -2   5  872.21   32.30
  -7  -2   5  863.21   30.60
   7   1  -5  287.47   13.00
   7   1  -5  285.47   13.30
  -7  -1   5  306.77   13.10
  -7  -1   5  303.07   14.70
  -7  -1   5  273.27   12.40
   7   0  -5 2178.18   69.49
   7   0  -5 2135.59   69.59
  -7   0   5 2124.39   69.59
  -7   0   5 2222.38   69.29
  -7   0   5 2130.49   71.69
  -7   0   5 2163.08   68.89
  -7   0   5 2032.00   68.49
  -7   0   5 2132.59   68.19
  -7   1   5  299.37   13.40
  -7   1   5  294.67   11.60
  -7   1   5  312.47   13.30
  -7   1   5  292.57   12.60
  -7   1   5  330.07   15.20
  -7   1   5  288.27   14.90
  -7   1   5  302.47   13.30
  -7   2   5  892.21   31.30
  -7   2   5  823.72   33.00
  -7   2   5  881.81   30.50
  -7   2   5  904.11   31.10
  -7   2   5  880.01   29.30
  -7   2   5  864.51   32.50
  -7   2   5  935.11   31.70
  -7   3   5  320.47   13.10
  -7   3   5  330.47   14.00
  -7   3   5  308.47   13.70
  -7   3   5  317.97   12.20
  -7   3   5  315.07   13.30
  -7   3   5  327.77   15.00
  -7   4   5  824.12   28.80
  -7   4   5  810.62   27.90
  -7   4   5  805.42   27.10
  -7   4   5  824.32   28.10
  -7   4   5  824.72   30.20
  -7   4   5  851.21   29.00
  -7   5   5   98.19    4.50
  -7   5   5   99.69    6.00
  -7   5   5   97.89    4.80
   8   4  -5   71.39    4.10
   8   4  -5   84.19    4.60
  -8  -4   5   96.29    4.40
   8   3  -5  385.16   14.70
   8   3  -5  387.16   14.50
  -8  -3   5  368.06   14.10
   8   2  -5  386.36   15.20
   8   2  -5  429.36   15.50
  -8  -2   5  353.56   14.60
   8   1  -5  113.19    6.50
  -8  -1   5  101.49    5.90
  -8  -1   5  110.39    6.30
   8   0  -5  372.36   15.00
  -8   0   5  372.66   14.30
  -8   0   5  369.66   14.50
  -8   0   5  394.76   15.10
  -8   0   5  346.77   16.30
   8  -1  -5  111.19    6.40
  -8   1   5  129.39    6.40
  -8   1   5  110.69    6.50
  -8   1   5  118.79    6.50
   8  -2  -5  382.06   15.80
  -8   2   5  429.16   16.40
  -8   2   5  430.86   15.00
  -8   2   5  425.26   16.10
  -8   2   5  424.16   17.20
  -8   2   5  431.26   15.90
  -8   2   5  453.45   16.70
   8  -3  -5  404.16   14.80
  -8   3   5  402.06   14.80
  -8   3   5  397.46   15.40
  -8   3   5  407.06   15.40
  -8   3   5  398.26   16.20
  -8   3   5  392.26   14.70
  -8   3   5  410.96   14.10
  -8   4   5   83.39    3.90
  -8   4   5   86.79    4.60
  -8   4   5   87.39    4.30
  -9  -2   5   18.80    1.70
   9   1  -5  789.92   25.50
  -9  -1   5  739.93   25.00
   9   0  -5   92.39    4.50
   9   0  -5   94.79    4.90
  -9   0   5   97.59    4.60
  -9   0   5   91.49    4.60
   9  -1  -5  771.02   26.20
   9  -1  -5  748.43   25.90
  -9   1   5  827.12   26.20
  -9   1   5  837.32   26.10
  -9   1   5  796.52   26.20
   9  -2  -5   19.10    1.70
  -6   3  -6  346.97   12.30
  -6   3  -6  341.37   12.20
  -6   3  -6  360.36   12.80
   6  -3   6  356.96   12.70
  -6   2  -6  215.98    8.60
  -6   2  -6  204.38    8.20
  -6   2  -6  209.48    8.30
   6  -2   6  215.48    9.90
   6  -2   6  194.38    8.70
  -6   1  -6  278.17   10.60
  -6   1  -6  280.17   10.80
   6  -1   6  286.17   12.60
  -6   0  -6  200.38    8.40
  -6   0  -6  205.68    8.50
   6   0   6  204.58    7.90
   6   0   6  205.88   10.00
   6   0   6  218.28    9.10
  -6  -1  -6  279.37   10.60
  -6  -1  -6  283.37   10.40
   6   1   6  251.47   11.50
   6   1   6  284.27   11.30
   6   1   6  275.87   10.00
  -6  -2  -6  215.68    8.20
  -6  -2  -6  211.18    8.40
   6   2   6  215.48    9.20
   6   2   6  213.18    8.10
  -6  -3  -6  341.07   11.90
   6   3   6  337.37   11.50
  -5   5  -6  305.47   12.60
  -5   5  -6  300.77   10.30
   5  -5   6  265.27   11.20
  -5   4  -6   44.10    3.30
  -5   4  -6   40.50    2.90
  -5   4  -6   39.00    2.80
  -5   4  -6   42.20    2.70
   5  -4   6   38.80    3.10
  -5   3  -6  463.55   16.70
  -5   3  -6  474.75   17.00
  -5   3  -6  483.65   17.80
   5  -3   6  443.46   18.30
  -5   2  -6   72.79    5.10
  -5   2  -6   74.09    4.70
  -5   2  -6   78.49    4.60
  -5   2  -6   81.39    6.30
   5  -2   6   81.59    6.20
  -5   1  -6  344.47   16.40
  -5   1  -6  379.16   14.30
  -5   1  -6  353.26   13.80
   5  -1   6  374.26   16.50
  -5   0  -6   44.20    3.30
  -5   0  -6   42.50    3.40
   5   0   6   43.20    3.90
   5   0   6   40.60    3.00
   5   0   6   46.00    4.70
  -5  -1  -6  366.76   13.50
  -5  -1  -6  375.76   13.90
   5   1   6  338.37   13.00
   5   1   6  337.77   15.40
   5   1   6  355.66   14.70
  -5  -2  -6   80.09    4.70
   5   2   6   76.59    5.20
   5   2   6   78.89    4.30
  -5  -3  -6  433.66   16.30
   5   3   6  444.56   15.80
   5   3   6  454.35   17.30
   5   3   6  487.05   16.30
  -5  -4  -6   38.90    2.70
   5   4   6   36.90    2.30
   5   4   6   40.00    2.60
   5   4   6   32.20    3.10
  -4   5  -6  327.87   11.90
  -4   5  -6  327.37   12.60
  -4   5  -6  318.97   11.80
  -4   5  -6  325.87   12.20
  -4   5  -6  326.47   12.00
   4  -5   6  332.57   12.60
  -4   4  -6   86.89    4.90
  -4   4  -6   81.39    5.50
  -4   4  -6   91.79    4.80
  -4   4  -6   87.39    4.90
  -4   4  -6   84.99    5.10
  -4   3  -6  863.11   28.60
  -4   3  -6  816.82   29.40
  -4   3  -6  792.32   30.40
  -4   3  -6  788.52   27.90
   4  -3   6  856.51   30.50
  -4   2  -6  109.39    7.80
  -4   2  -6  104.29    6.10
  -4   2  -6  102.69    5.70
  -4   2  -6   97.39    6.50
   4  -2   6  109.79    7.70
  -4   1  -6 1221.98   43.20
  -4   1  -6 1188.58   40.60
  -4   1  -6 1150.38   39.40
  -4   1  -6 1223.68   40.00
   4  -1   6 1221.28   43.10
  -4   0  -6   78.29    5.10
   4   0   6   85.49    5.80
   4   0   6   87.19    6.90
   4   0   6   75.79    4.50
  -4  -1  -6 1198.08   38.90
  -4  -1  -6 1126.39   39.30
   4   1   6 1209.88   41.70
   4   1   6 1180.18   40.10
   4   1   6 1133.79   37.80
  -4  -2  -6  110.69    6.10
  -4  -2  -6  100.99    6.20
   4   2   6   99.59    5.30
   4   2   6   95.59    6.40
   4   2   6  106.59    7.20
  -4  -3  -6  853.81   28.80
  -4  -3  -6  862.61   28.20
   4   3   6  770.22   28.90
   4   3   6  840.72   27.20
   4   3   6  789.22   27.50
   4   3   6  776.22   28.10
  -4  -4  -6   76.29    4.70
  -4  -4  -6   75.59    4.90
   4   4   6   79.59    4.90
   4   4   6   80.49    4.60
   4   4   6   88.29    4.40
   4   4   6   79.09    5.20
  -4  -5  -6  316.67   11.80
  -4  -5  -6  315.57   12.30
   4   5   6  316.47   11.20
   4   5   6  327.97   12.00
   4   5   6  332.07   12.20
  -3   6  -6  204.98    8.30
  -3   6  -6  206.18    8.10
  -3   6  -6  200.28    8.60
  -3   6  -6  210.08    8.20
  -3   6  -6  207.98    8.10
  -3   5  -6  548.65   20.40
  -3   5  -6  563.24   19.70
  -3   5  -6  576.34   21.20
  -3   5  -6  552.74   20.10
  -3   5  -6  569.74   19.70
  -3   5  -6  563.44   19.70
   3  -5   6  534.35   26.70
   3  -5   6  579.94   20.50
  -3   4  -6  161.68    7.70
  -3   4  -6  172.08    7.90
  -3   4  -6  160.88    8.70
  -3   4  -6  154.08    7.50
  -3   4  -6  165.48    8.10
  -3   4  -6  168.88    9.10
  -3   4  -6  164.48    9.40
   3  -4   6  150.38    8.90
  -3   3  -6  199.88   10.40
  -3   3  -6  204.78    9.50
  -3   3  -6  211.58   10.40
  -3   3  -6  188.88    9.00
  -3   3  -6  203.58   10.80
  -3   2  -6  203.68   10.30
  -3   2  -6  199.48   10.30
  -3   2  -6  210.98    9.60
  -3   2  -6  210.68   11.50
  -3   2  -6  201.58    9.10
  -3   1  -6  722.03   28.00
   3  -1   6  702.13   33.30
   3  -1   6  719.83   27.90
   3  -1   6  711.43   38.30
   3   0   6   15.50    4.80
   3   0   6   14.10    2.60
   3   0   6   11.90    5.30
   3   0   6   15.80    3.50
   3   1   6  748.53   28.50
   3   1   6  748.03   35.30
   3   1   6  728.23   26.80
   3   1   6  739.73   40.20
  -3  -2  -6  207.58    9.40
  -3  -2  -6  202.18   10.10
   3   2   6  205.48   10.20
   3   2   6  205.78    8.70
   3   2   6  212.78   11.20
   3   2   6  194.38    9.70
  -3  -3  -6  156.58    9.00
  -3  -3  -6  164.88    8.50
   3   3   6  196.98    8.20
   3   3   6  205.98    9.90
   3   3   6  176.08    8.40
   3   3   6  198.08    9.40
  -3  -4  -6  159.98    7.80
  -3  -4  -6  159.18    8.50
   3   4   6  164.28    7.20
   3   4   6  156.48    7.70
   3   4   6  158.68    8.30
   3   4   6  155.18    8.40
  -3  -5  -6  559.54   20.90
  -3  -5  -6  578.24   20.10
   3   5   6  602.34   21.00
   3   5   6  556.04   20.80
   3   5   6  563.24   19.40
   3   5   6  577.94   20.20
  -3  -6  -6  197.78    7.80
  -3  -6  -6  189.48    8.40
   3   6   6  203.88    8.10
   3   6   6  210.38    8.50
   3   6   6  209.88    8.00
  -2   7  -6   53.59    3.00
  -2   7  -6   58.69    3.30
  -2   7  -6   55.89    3.00
  -2   7  -6   59.49    3.10
  -2   6  -6  106.19    5.50
  -2   6  -6  102.59    5.30
  -2   6  -6  104.79    5.30
  -2   6  -6  100.39    6.10
  -2   6  -6  108.09    5.30
  -2   5  -6   88.99    6.50
  -2   5  -6   83.49    4.90
  -2   5  -6   84.29    6.10
  -2   5  -6   86.39    5.00
  -2   5  -6   88.09    5.50
  -2   5  -6   87.79    5.30
  -2   5  -6   81.59    4.90
   2  -5   6   69.59    5.00
   2  -5   6   71.89    5.90
  -2   4  -6  763.22   28.70
  -2   4  -6  748.63   26.10
  -2   4  -6  750.92   28.40
  -2   4  -6  748.73   27.40
  -2   4  -6  783.02   26.80
  -2   4  -6  777.42   26.30
  -2   4  -6  710.73   26.10
   2  -4   6  753.92   28.40
  -2   3  -6  257.97   12.60
  -2   3  -6  260.87   11.40
  -2   3  -6  258.97   12.80
  -2   3  -6  267.17   12.40
   2  -3   6  264.37   12.70
  -2   2  -6 2407.26   73.49
  -2   2  -6 2284.97   81.79
   2  -2   6 2171.08   73.79
   2  -2   6 2194.78   72.99
   2  -2   6 2271.27   81.99
   2  -2   6 2216.68   88.09
  -2   1  -6 1126.69   44.90
   2  -1   6 1092.09   50.39
   2  -1   6 1085.59   45.50
   2   0   6 5098.99  165.98
   2   0   6 4992.70  171.48
   2   1   6 1073.39   37.60
   2   1   6 1135.69   46.70
   2   1   6 1123.19   50.99
   2   2   6 2337.47   85.19
   2   2   6 2293.17   73.89
   2   2   6 2273.67   75.29
   2   2   6 2276.77   89.69
  -2  -3  -6  262.67   12.10
  -2  -3  -6  258.67   11.20
   2   3   6  274.37   10.80
   2   3   6  254.07   10.40
   2   3   6  283.67   12.60
   2   3   6  265.47   12.20
   2   3   6  258.87   11.10
   2   3   6  259.97   11.10
  -2  -4  -6  749.53   26.30
  -2  -4  -6  756.52   27.80
   2   4   6  763.72   26.50
   2   4   6  772.82   27.70
   2   4   6  767.82   25.70
   2   4   6  762.52   25.60
   2   4   6  737.13   26.10
   2   4   6  759.92   27.80
  -2  -5  -6   76.79    4.80
  -2  -5  -6   79.59    5.70
   2   5   6   84.49    5.10
   2   5   6   82.69    4.80
   2   5   6   85.89    5.20
   2   5   6   83.99    5.60
   2   5   6   82.99    4.60
   2   5   6   92.09    4.70
   2   5   6   88.89    5.80
  -2  -6  -6  114.59    6.00
   2   6   6  104.19    5.40
   2   6   6  106.79    4.90
   2   6   6  101.89    5.80
   2   6   6  102.39    5.30
  -2  -7  -6   66.39    3.40
   2   7   6   53.29    2.90
   2   7   6   56.19    3.20
  -1   7  -6   26.60    2.10
  -1   7  -6   26.60    2.10
  -1   7  -6   27.60    2.10
  -1   7  -6   27.10    2.10
  -1   7  -6   25.90    2.50
  -1   6  -6  677.53   25.40
  -1   6  -6  719.73   24.00
  -1   6  -6  693.33   24.10
  -1   6  -6  685.23   23.70
  -1   6  -6  702.33   23.90
  -1   5  -6   18.00    2.60
  -1   5  -6   18.90    2.40
  -1   5  -6   19.30    3.10
  -1   5  -6   14.60    3.10
  -1   5  -6   17.90    2.30
  -1   5  -6   19.00    2.40
  -1   5  -6   17.50    2.90
   1  -5   6   16.60    3.30
  -1   4  -6  593.34   21.70
  -1   4  -6  603.74   22.20
  -1   4  -6  634.14   24.40
  -1   4  -6  603.04   21.80
  -1   4  -6  599.54   22.80
  -1   4  -6  614.94   24.10
   1  -4   6  610.64   24.30
   1  -4   6  613.64   22.90
  -1   3  -6  134.99   12.30
  -1   3  -6  118.19    7.70
   1  -3   6  124.99   14.50
   1  -3   6  113.49    7.60
   1  -3   6  115.99   11.80
  -1   2  -6  588.44   21.90
  -1   2  -6  614.94   28.80
   1  -2   6  538.95   21.70
   1  -2   6  549.65   31.90
   1  -2   6  546.95   28.30
   1  -1   6   61.79    7.70
   1  -1   6   60.79    8.70
   1   0   6  894.91   38.50
   1   1   6   35.70    6.00
   1   2   6  625.94   31.40
   1   2   6  600.34   22.70
   1   3   6  117.79   12.40
   1   3   6  118.49    8.10
   1   3   6  127.89    7.40
  -1  -4  -6  630.64   24.40
   1   4   6  650.83   24.30
   1   4   6  635.34   22.40
   1   4   6  628.84   23.00
   1   4   6  652.93   22.40
   1   4   6  651.13   24.40
  -1  -5  -6   19.40    2.90
   1   5   6   17.20    2.50
   1   5   6   17.30    2.60
   1   5   6   18.00    2.50
   1   5   6   17.10    2.50
   1   5   6   19.30    2.80
   1   5   6   22.40    2.60
   1   5   6   18.10    3.30
   1   5   6   19.20    2.40
   1   5   6   20.30    2.90
  -1  -6  -6  698.03   25.20
   1   6   6  706.43   24.30
   1   6   6  702.13   23.50
   1   6   6  674.63   24.90
   1   6   6  707.03   24.30
   1   6   6  705.93   24.40
   1   6   6  706.23   25.10
   1   6   6  738.13   23.80
  -1  -7  -6   24.20    2.10
   1   7   6   26.40    2.20
   1   7   6   27.20    2.30
   1   7   6   27.80    2.10
   1   7   6   27.40    1.90
   1   7   6   26.50    2.20
   1   7   6   28.70    2.10
   0   7  -6   51.99    3.30
   0   7  -6   53.69    3.20
   0   7  -6   54.19    3.30
   0   7  -6   57.19    3.90
   0   7  -6   49.60    3.00
   0   7  -6   59.19    3.40
   0  -7   6   63.89    3.50
   0   6  -6  269.37   10.80
   0   6  -6  273.97   12.50
   0   6  -6  261.87   11.00
   0   6  -6  255.27   10.80
   0   6  -6  270.27   11.10
   0   6  -6  277.87   11.20
   0  -6   6  275.17   12.60
   0   5  -6   69.99    4.70
   0   5  -6   71.49    4.90
   0   5  -6   73.49    4.80
   0   5  -6   74.59    5.90
   0   5  -6   75.19    4.90
   0   4  -6  900.71   31.50
   0   4  -6  812.12   28.40
   0   4  -6  823.32   28.90
   0   4  -6  803.32   29.50
   0   4  -6  832.02   28.70
   0   4  -6  806.22   30.50
   0  -4   6  812.22   30.60
   0  -4   6  831.42   29.70
   0   3  -6  108.09    7.20
   0   3  -6  113.39   11.00
   0  -3   6  101.59   11.00
   0  -3   6  106.69    7.10
   0   2  -6 1323.17   45.90
   0   2  -6 1373.86   52.99
   0  -2   6 1364.66   45.80
   0  -2   6 1406.26   54.39
   0   1  -6  397.96   20.70
   0  -1   6  399.36   21.60
   0   0  -6 1690.23   61.69
   0   0   6 1776.62   63.99
   0   1   6  423.56   22.80
   0  -2  -6 1336.27   45.90
   0   2   6 1306.67   45.70
   0   2   6 1292.87   44.40
   0   2   6 1402.66   54.59
   0  -3  -6   96.29    9.60
   0   3   6  109.89    6.80
   0   3   6  105.89   10.10
   0   3   6  108.39    7.70
   0   3   6   99.89   11.20
   0   4   6  847.92   28.80
   0   4   6  826.62   30.50
   0   4   6  869.71   33.10
   0   4   6  891.91   31.10
   0   4   6  848.62   29.70
   0   4   6  896.81   34.90
   0   4   6  835.62   29.40
   0   4   6  865.11   30.00
   0   4   6  825.72   30.70
   0   4   6  855.91   29.00
   0   5   6   75.19    5.70
   0   5   6   76.79    6.80
   0   5   6   84.39    5.20
   0   5   6   70.29    5.00
   0   5   6   73.09    5.50
   0   5   6   77.59    5.70
   0   5   6   74.19    5.20
   0   5   6   74.79    4.50
   0   5   6   72.89    4.60
   0  -6  -6  278.27   12.00
   0   6   6  262.87   12.00
   0   6   6  275.77   11.90
   0   6   6  279.67   10.70
   0   6   6  281.67   11.70
   0   6   6  288.17   11.50
   0   6   6  285.77   10.90
   0   6   6  261.07   12.10
   0   6   6  278.37   11.60
   0   6   6  261.37   13.60
   0  -7  -6   63.59    3.50
   0   7   6   54.99    3.30
   0   7   6   56.79    3.50
   0   7   6   50.89    3.30
   0   7   6   52.89    3.00
   0   7   6   50.29    3.60
   0   7   6   53.99    3.30
   1   7  -6  152.68    6.30
   1   7  -6  150.68    6.50
   1   7  -6  136.69    6.20
   1   7  -6  156.48    6.30
   1   7  -6  145.49    7.10
   1   7  -6  143.39    6.50
  -1  -7   6  151.48    6.50
   1   6  -6  283.17   11.00
   1   6  -6  279.97   11.30
   1   6  -6  260.17   12.20
   1   6  -6  256.37   10.90
   1   6  -6  268.87   11.10
  -1  -6   6  258.77   12.40
   1   5  -6  395.26   15.20
   1   5  -6  374.56   14.90
   1   5  -6  393.76   15.20
   1   5  -6  364.76   16.40
  -1  -5   6  388.96   17.00
   1   4  -6  711.53   33.40
   1   4  -6  581.24   30.30
   1   4  -6  597.34   25.20
  -1  -4   6  732.63   26.30
  -1  -4   6  685.53   34.50
   1   3  -6  205.78   14.90
  -1  -3   6  203.78   10.70
  -1  -3   6  194.98   15.60
   1   2  -6 1829.72   66.79
  -1  -2   6 1774.82   67.19
  -1  -2   6 1833.62   59.49
   1   1  -6  125.09   10.10
   1   1  -6  123.69    9.60
  -1  -1   6  116.09   10.10
  -1  -1   6  123.89    7.00
   1   0  -6  749.03   32.00
   1   0  -6  752.12   27.80
  -1   0   6  790.92   33.30
  -1   0   6  762.12   28.00
   1  -1  -6  120.29    7.70
  -1   1   6  133.19    7.90
  -1   1   6  135.99   11.20
   1  -2  -6 1810.82   69.69
   1  -2  -6 1858.01   59.19
  -1   2   6 1693.83   65.89
  -1   2   6 1700.23   58.59
  -1   2   6 1662.13   64.59
  -1   2   6 1787.92   58.29
   1  -3  -6  180.68   13.80
  -1   3   6  184.98    9.70
  -1   3   6  206.38   11.40
  -1   3   6  200.78   10.90
  -1   3   6  189.98   15.70
  -1   3   6  204.88   14.70
   1  -4  -6  673.83   32.80
  -1   4   6  729.33   28.00
  -1   4   6  740.13   27.50
  -1   4   6  714.23   34.10
  -1   4   6  711.43   26.10
  -1   4   6  738.53   28.60
  -1   4   6  620.44   26.30
  -1   4   6  627.74   34.50
  -1   4   6  747.73   28.50
  -1   4   6  653.23   25.50
  -1   4   6  652.53   27.00
  -1   4   6  688.73   25.90
  -1   4   6  691.93   28.20
  -1   5   6  396.96   15.10
  -1   5   6  420.36   17.50
  -1   5   6  375.96   15.90
  -1   5   6  419.36   15.40
  -1   5   6  402.36   16.20
  -1   5   6  393.96   16.90
  -1   5   6  402.86   19.10
  -1   5   6  411.96   15.90
  -1   6   6  284.37   10.90
  -1   6   6  284.77   11.70
  -1   6   6  270.07   12.30
  -1   6   6  283.37   11.80
  -1   6   6  260.87   13.80
  -1   6   6  278.07   10.80
  -1   6   6  275.47   11.40
  -1   6   6  271.57   12.30
  -1   7   6  146.79    6.10
  -1   7   6  143.89    6.50
  -1   7   6  147.29    6.70
  -1   7   6  150.88    7.20
  -1   7   6  152.28    6.50
   2   7  -6  188.48    8.00
   2   7  -6  198.18    7.80
   2   7  -6  196.88    8.40
   2   7  -6  198.08    8.10
   2   7  -6  202.58    8.10
  -2  -7   6  205.88    8.10
   2   6  -6  466.55   17.30
   2   6  -6  460.05   17.70
   2   6  -6  463.75   17.20
   2   6  -6  469.65   18.20
   2   6  -6  461.95   17.10
  -2  -6   6  485.25   17.40
  -2  -6   6  480.25   19.00
   2   5  -6  269.47   12.70
   2   5  -6  296.77   12.10
   2   5  -6  275.07   12.50
   2   5  -6  265.17   11.50
   2   5  -6  274.87   11.60
  -2  -5   6  270.47   13.50
   2   4  -6  585.84   22.50
   2   4  -6  684.63   39.20
   2   4  -6  576.64   25.30
   2   4  -6  595.04   21.60
   2   4  -6  577.64   21.40
  -2  -4   6  542.25   37.60
  -2  -4   6  599.64   23.70
   2   3  -6 1124.09   46.70
   2   3  -6 1090.79   41.10
  -2  -3   6 1170.58   39.90
  -2  -3   6 1124.79   47.50
   2   2  -6  243.48   13.00
   2   2  -6  256.67   16.30
  -2  -2   6  241.08   16.00
  -2  -2   6  255.47   12.00
   2   1  -6 1016.10   41.60
   2   1  -6 1085.89   37.00
  -2  -1   6 1038.80   35.80
  -2  -1   6  960.30   42.70
   2   0  -6  174.08    9.70
   2   0  -6  178.18   12.90
  -2   0   6  184.58    9.30
   2  -1  -6 1016.20   42.00
   2  -1  -6 1120.99   38.20
  -2   1   6 1045.60   37.30
  -2   1   6 1084.69   37.80
   2  -2  -6  264.67   12.90
  -2   2   6  221.78   10.90
  -2   2   6  232.08   15.80
  -2   2   6  245.28   12.20
  -2   2   6  244.98   12.50
   2  -3  -6 1216.68   41.50
   2  -3  -6 1058.19   45.50
  -2   3   6 1183.98   41.10
  -2   3   6 1030.10   38.60
  -2   3   6 1103.99   46.80
  -2   3   6 1165.38   41.20
  -2   3   6 1114.49   42.00
  -2   4   6  592.34   25.90
  -2   4   6  627.14   25.90
  -2   4   6  600.84   22.50
  -2   4   6  604.34   23.50
  -2   4   6  626.54   22.50
  -2   4   6  674.03   24.40
  -2   4   6  593.84   21.40
  -2   4   6  616.74   21.90
  -2   4   6  610.74   22.70
  -2   5   6  304.57   13.60
  -2   5   6  302.47   12.60
  -2   5   6  293.47   11.90
  -2   5   6  302.77   12.80
  -2   5   6  285.77   12.50
  -2   5   6  288.27   15.20
  -2   5   6  290.87   13.80
  -2   5   6  279.67   11.50
   2  -6  -6  480.45   20.40
  -2   6   6  428.96   19.90
  -2   6   6  487.95   17.80
  -2   6   6  465.65   18.50
  -2   6   6  482.05   16.60
  -2   6   6  468.15   16.80
  -2   6   6  477.45   18.60
  -2   6   6  483.15   17.50
  -2   6   6  475.05   17.60
  -2   7   6  177.98    7.10
  -2   7   6  194.38    7.90
  -2   7   6  198.08    8.60
  -2   7   6  193.78    7.80
  -2   7   6  197.58    8.10
   3   7  -6  152.78    6.20
   3   7  -6  151.18    6.70
   3   7  -6  155.78    6.50
   3   7  -6  145.39    6.40
  -3  -7   6  163.38    6.50
  -3  -7   6  158.68    6.40
   3   6  -6  131.29    6.30
   3   6  -6  136.29    6.50
   3   6  -6  119.89    6.80
   3   6  -6  125.29    6.50
  -3  -6   6  133.99    6.60
   3   5  -6  475.85   19.10
   3   5  -6  465.75   17.70
   3   5  -6  457.45   21.80
   3   5  -6  495.05   18.30
   3   5  -6  491.55   18.00
  -3  -5   6  474.35   20.10
  -3  -5   6  531.15   18.60
   3   4  -6   86.39    6.20
   3   4  -6   91.39    8.20
   3   4  -6   92.09    5.50
   3   4  -6   96.89    5.80
  -3  -4   6  106.39    6.10
  -3  -4   6  101.39    7.40
   3   3  -6 1183.68   43.30
   3   3  -6 1138.99   47.10
  -3  -3   6 1173.28   41.40
   3   2  -6  830.32   36.60
   3   2  -6  863.41   32.30
  -3  -2   6  801.82   30.40
  -3  -2   6  795.32   30.40
   3   1  -6 2256.17   73.49
   3   1  -6 2135.69   78.89
  -3  -1   6 2188.58   72.09
  -3  -1   6 2236.48   71.99
   3   0  -6  769.32   29.40
   3   0  -6  779.52   35.20
  -3   0   6  798.32   28.90
  -3   0   6  758.52   28.50
   3  -1  -6 2415.36   76.59
   3  -1  -6 2249.38   82.29
  -3   1   6 2308.67   76.19
  -3   1   6 2299.47   75.89
   3  -2  -6  862.91   32.00
  -3   2   6  777.92   29.70
  -3   2   6  800.62   37.30
  -3   2   6  856.91   31.60
  -3   2   6  878.61   32.00
   3  -3  -6 1191.78   43.10
  -3   3   6 1176.28   43.90
  -3   3   6 1122.29   49.60
  -3   3   6 1166.88   41.30
  -3   3   6 1255.27   43.40
  -3   3   6 1230.78   43.30
   3  -4  -6   99.09    7.80
  -3   4   6   95.19    5.90
  -3   4   6   97.49    6.60
  -3   4   6   92.99    7.70
  -3   4   6   95.69    5.90
  -3   4   6   87.49    5.40
  -3   4   6  104.39    7.10
  -3   4   6   98.89    8.30
  -3   4   6  100.39    6.20
   3  -5  -6  521.85   21.80
  -3   5   6  482.95   18.00
  -3   5   6  459.75   19.90
  -3   5   6  485.15   21.50
  -3   5   6  497.15   18.90
  -3   5   6  512.05   19.90
  -3   5   6  499.25   18.60
  -3   5   6  513.45   18.80
  -3   6   6  126.29    7.20
  -3   6   6  133.89    6.70
  -3   6   6  122.99    7.20
  -3   6   6  135.99    6.50
  -3   6   6  128.69    6.70
  -3   6   6  128.09    6.10
  -3   7   6  151.68    6.20
  -3   7   6  152.78    6.90
  -3   7   6  151.38    6.50
  -3   7   6  151.28    6.30
   4   7  -6  329.37   11.50
  -4  -7   6  315.37   12.30
   4   6  -6   44.80    2.90
   4   6  -6   43.80    3.30
   4   6  -6   49.00    3.30
   4   6  -6   46.10    3.50
  -4  -6   6   42.60    3.10
  -4  -6   6   40.30    3.10
   4   5  -6  244.18   14.10
   4   5  -6  271.37   11.90
   4   5  -6  289.47   11.80
   4   5  -6  270.87   11.30
   4   5  -6  245.88   11.40
   4   5  -6  276.67   16.30
  -4  -5   6  257.97   11.20
  -4  -5   6  252.07   12.70
   4   4  -6  152.88   10.80
   4   4  -6  147.89    8.80
   4   4  -6  154.58    8.40
   4   4  -6  155.18    7.90
  -4  -4   6  150.28    9.50
  -4  -4   6  163.08    8.10
   4   3  -6  397.16   15.30
   4   3  -6  386.16   16.80
   4   3  -6  381.46   18.80
   4   3  -6  374.96   15.80
  -4  -3   6  367.16   15.10
  -4  -3   6  398.16   17.80
   4   2  -6  580.44   30.00
   4   2  -6  620.74   25.80
  -4  -2   6  572.44   24.10
  -4  -2   6  619.04   24.50
   4   1  -6  851.81   38.00
   4   1  -6  858.41   32.10
  -4  -1   6  771.82   30.80
  -4  -1   6  774.12   30.50
   4   0  -6  279.97   14.10
   4   0  -6  259.87   18.00
  -4   0   6  275.17   13.30
  -4   0   6  260.97   13.50
   4  -1  -6  754.02   35.80
   4  -1  -6  739.13   29.60
  -4   1   6  824.62   36.40
   4  -2  -6  565.54   29.00
   4  -2  -6  620.74   24.60
  -4   2   6  570.04   30.50
  -4   2   6  583.44   24.60
  -4   2   6  534.85   22.10
  -4   2   6  596.24   24.20
  -4   2   6  601.74   24.40
   4  -3  -6  396.76   18.50
  -4   3   6  392.96   15.70
  -4   3   6  415.06   16.00
  -4   3   6  414.16   18.70
  -4   3   6  429.46   19.50
  -4   3   6  430.96   17.40
  -4   3   6  397.86   15.30
  -4   3   6  401.86   17.40
  -4   3   6  388.26   16.10
  -4   3   6  397.06   17.50
   4  -4  -6  166.48   10.40
  -4   4   6  156.18    8.40
  -4   4   6  158.78    9.00
  -4   4   6  166.68   10.40
  -4   4   6  161.98    8.00
  -4   4   6  172.38    9.60
  -4   4   6  162.08    8.30
  -4   4   6  157.28    7.70
  -4   4   6  169.98   10.90
   4  -5  -6  264.97   13.50
  -4   5   6  280.57   11.70
  -4   5   6  256.37   10.80
  -4   5   6  271.27   12.20
  -4   5   6  265.27   12.60
  -4   5   6  271.97   11.50
  -4   5   6  275.87   14.00
  -4   5   6  250.67   13.20
  -4   6   6   48.00    3.90
  -4   6   6   45.40    3.40
  -4   6   6   41.60    3.50
  -4   6   6   44.80    3.30
  -4   6   6   44.20    3.00
   5   6  -6    5.00    1.30
   5   6  -6    4.90    1.10
   5   6  -6    4.00    1.20
  -5  -6   6    6.60    1.30
  -5  -6   6    7.30    1.30
   5   5  -6  392.06   15.90
   5   5  -6  343.97   21.40
   5   5  -6  382.46   15.10
  -5  -5   6  431.36   15.10
   5   4  -6   16.50    2.80
   5   4  -6   18.10    2.80
   5   4  -6   19.60    4.50
  -5  -4   6   11.00    2.10
  -5  -4   6   11.20    3.00
   5   3  -6  681.13   28.50
   5   3  -6  672.53   26.00
   5   3  -6  669.33   24.60
  -5  -3   6  671.23   24.10
  -5  -3   6  655.93   26.50
   5   2  -6   50.59    4.70
   5   2  -6   52.49    5.80
   5   2  -6   48.00    4.10
  -5  -2   6   37.50    3.50
  -5  -2   6   35.70    4.50
  -5  -2   6   37.10    4.20
   5   1  -6 1537.95   54.89
   5   1  -6 1528.45   61.99
  -5  -1   6 1616.64   54.59
  -5  -1   6 1534.25   53.79
   5   0  -6  196.88   16.00
   5   0  -6  200.88   11.80
  -5   0   6  188.08   11.40
  -5   0   6  198.88   11.50
   5  -1  -6 1536.35   55.09
   5  -1  -6 1635.74   63.29
  -5   1   6 1650.93   55.79
  -5   1   6 1539.85   54.59
  -5   1   6 1585.74   63.09
  -5   1   6 1593.64   54.79
   5  -2  -6   37.30    4.60
  -5   2   6   52.19    4.70
  -5   2   6   59.19    5.90
  -5   2   6   50.69    4.20
  -5   2   6   53.69    4.10
  -5   2   6   51.09    3.70
  -5   2   6   48.70    4.50
  -5   2   6   48.60    4.90
   5  -3  -6  743.83   27.80
  -5   3   6  683.03   24.90
  -5   3   6  711.73   26.30
  -5   3   6  678.73   26.50
  -5   3   6  668.93   27.60
  -5   3   6  681.73   24.10
  -5   3   6  709.13   25.40
  -5   3   6  715.53   28.60
  -5   3   6  674.63   26.20
  -5   4   6   17.60    2.80
  -5   4   6   18.90    2.50
  -5   4   6   19.00    2.60
  -5   4   6   17.10    2.70
  -5   4   6   21.10    4.40
  -5   4   6   19.00    2.70
  -5   5   6  404.86   15.70
  -5   5   6  421.86   16.30
  -5   5   6  424.46   18.10
  -5   5   6  396.46   14.90
  -5   5   6  414.46   16.70
  -5   5   6  396.66   15.50
  -5   6   6    4.60    1.00
  -5   6   6    3.90    1.10
  -5   6   6    3.40    1.00
   6   5  -6  300.67   11.40
   6   5  -6  288.57   12.30
  -6  -5   6  297.07   11.50
   6   4  -6  237.28   11.50
   6   4  -6  260.97   10.60
   6   4  -6  223.88   13.90
  -6  -4   6  268.97   10.80
   6   3  -6  418.86   20.00
   6   3  -6  440.96   16.60
   6   3  -6  459.85   18.60
  -6  -3   6  433.96   16.70
  -6  -3   6  403.26   18.60
   6   2  -6   73.09    6.70
   6   2  -6   69.49    5.10
   6   2  -6   78.59    6.00
  -6  -2   6   70.29    6.40
  -6  -2   6   65.39    4.80
  -6  -2   6   64.89    4.90
   6   1  -6  249.18   13.80
   6   1  -6  258.47   11.60
   6   1  -6  252.47   12.50
  -6  -1   6  255.17   14.20
  -6  -1   6  253.27   12.50
  -6  -1   6  242.28   11.30
  -6  -1   6  238.98   13.40
  -6  -1   6  246.08   11.70
   6   0  -6  123.59    7.70
   6   0  -6  134.49    9.10
  -6   0   6  111.59    8.40
  -6   0   6  105.09    6.70
  -6   0   6  110.29    7.30
  -6   0   6  116.29    7.60
   6  -1  -6  242.48   12.10
  -6   1   6  260.27   12.40
  -6   1   6  258.57   12.40
  -6   1   6  229.88   12.90
  -6   1   6  248.98   10.80
  -6   1   6  250.87   11.40
  -6   1   6  257.57   13.10
  -6   2   6   75.29    5.90
  -6   2   6   71.99    4.40
  -6   2   6   76.39    5.70
  -6   2   6   62.79    5.10
  -6   2   6   80.29    6.70
  -6   2   6   66.39    4.70
  -6   2   6   69.29    5.10
  -6   3   6  441.66   19.80
  -6   3   6  456.95   18.20
  -6   3   6  436.56   17.00
  -6   3   6  450.85   18.20
  -6   3   6  457.15   17.50
  -6   3   6  458.85   18.60
  -6   3   6  434.86   16.30
  -6   4   6  261.57   10.90
  -6   4   6  261.67   11.10
  -6   4   6  259.77   10.30
  -6   4   6  269.67   11.90
  -6   4   6  254.67   11.60
  -6   4   6  253.37   13.10
  -6   4   6  253.17   11.40
  -6   5   6  300.67   11.50
  -6   5   6  287.47   13.10
  -6   5   6  297.77   12.20
  -6   5   6  289.17   10.80
  -6   5   6  298.97   11.40
   7   5  -6   87.09    4.60
  -7  -5   6   92.09    4.30
   7   4  -6  359.76   14.10
  -7  -4   6  343.87   13.00
   7   3  -6  267.57   12.00
   7   3  -6  265.87   10.90
  -7  -3   6  263.57   10.90
   7   2  -6  841.02   30.00
   7   2  -6  853.01   28.90
  -7  -2   6  783.92   28.10
  -7  -2   6  828.82   30.80
  -7  -2   6  820.82   28.50
   7   1  -6  219.38   10.20
   7   1  -6  204.58   10.60
  -7  -1   6  209.48   11.70
  -7  -1   6  224.38    9.70
  -7  -1   6  221.48   10.10
   7   0  -6  809.92   28.00
   7   0  -6  773.72   28.50
  -7   0   6  783.32   28.10
  -7   0   6  730.13   29.60
  -7   0   6  800.42   28.70
  -7   0   6  798.52   27.80
   7  -1  -6  207.68   10.20
  -7   1   6  211.28   10.30
  -7   1   6  226.18   10.10
  -7   1   6  190.98   11.00
  -7   1   6  207.48   10.30
  -7   1   6  210.08    9.30
   7  -2  -6  886.51   30.30
  -7   2   6  835.82   28.30
  -7   2   6  863.01   29.90
  -7   2   6  875.51   30.80
  -7   2   6  845.32   30.30
  -7   2   6  857.91   31.60
  -7   2   6  893.71   30.20
  -7   2   6  843.92   29.20
  -7   3   6  283.97   12.50
  -7   3   6  282.07   11.80
  -7   3   6  280.77   13.30
  -7   3   6  289.37   12.20
  -7   3   6  288.67   10.80
  -7   3   6  286.47   11.50
  -7   4   6  349.67   15.10
  -7   4   6  351.96   13.80
  -7   4   6  377.16   12.80
  -7   4   6  361.96   13.20
  -7   4   6  355.46   13.40
  -7   4   6  356.76   13.90
  -7   5   6   93.99    4.10
   8   3  -6   73.89    3.90
   8   3  -6   68.19    4.20
  -8  -3   6   80.09    4.00
   8   2  -6  242.68   10.60
   8   2  -6  251.27   10.20
  -8  -2   6  272.87   10.10
   8   1  -6  106.39    6.10
   8   1  -6  106.39    5.90
  -8  -1   6  117.19    6.00
  -8  -1   6  110.19    5.50
   8   0  -6  142.19    7.20
   8   0  -6  137.59    7.10
  -8   0   6  142.29    7.10
  -8   0   6  146.49    7.00
   8  -1  -6  111.29    5.90
  -8   1   6  106.39    6.00
  -8   1   6  110.39    5.40
  -8   1   6  111.09    5.90
   8  -2  -6  275.57   10.90
  -8   2   6  268.27   10.90
  -8   2   6  270.97   11.30
  -8   2   6  271.67    9.80
  -8   2   6  271.17   11.70
  -8   2   6  280.77   10.60
   8  -3  -6   78.99    4.10
  -8   3   6   75.29    4.00
  -8   3   6   77.99    4.10
  -8   3   6   74.39    4.40
  -8   3   6   73.39    3.50
  -6   1  -7   31.80    2.00
  -6   0  -7  244.88    8.90
  -6  -1  -7   26.60    1.80
  -5   3  -7   65.19    3.30
  -5   3  -7   65.69    3.50
  -5   3  -7   68.09    3.80
   5  -3   7   61.69    3.70
  -5   2  -7   43.20    2.80
  -5   2  -7   43.80    3.00
  -5   2  -7   48.60    3.30
   5  -2   7   45.80    3.80
   5  -2   7   45.60    3.20
  -5   1  -7  128.89    5.60
  -5   1  -7  117.29    5.80
   5  -1   7  127.69    7.20
  -5   0  -7  126.89    6.10
   5   0   7  128.39    7.40
  -5  -1  -7  121.49    5.80
   5   1   7  120.09    6.90
   5   1   7  120.19    6.20
   5   1   7  122.09    5.30
  -5  -2  -7   49.00    3.10
   5   2   7   46.20    2.80
   5   2   7   51.59    3.50
  -5  -3  -7   60.79    3.30
   5   3   7   66.59    3.10
  -4   4  -7  153.68    7.10
  -4   4  -7  156.88    6.70
  -4   4  -7  148.79    6.30
   4  -4   7  161.68    7.20
  -4   3  -7  327.67   13.00
  -4   3  -7  350.36   12.70
  -4   3  -7  348.37   13.80
   4  -3   7  343.27   13.60
   4  -3   7  356.86   14.90
  -4   2  -7  483.95   17.80
  -4   2  -7  508.05   17.40
  -4   2  -7  471.45   18.20
  -4   2  -7  482.45   18.40
   4  -2   7  490.15   19.70
   4  -2   7  513.25   18.60
  -4   1  -7  753.92   27.40
  -4   1  -7  804.22   27.00
   4  -1   7  800.02   29.50
  -4   0  -7  356.86   14.20
  -4   0  -7  358.06   13.70
   4   0   7  332.67   15.40
  -4  -1  -7  760.32   26.90
  -4  -1  -7  776.32   26.30
   4   1   7  787.42   27.30
   4   1   7  754.92   25.50
   4   1   7  768.62   28.60
  -4  -2  -7  499.15   17.60
  -4  -2  -7  492.75   18.10
   4   2   7  490.85   18.50
   4   2   7  490.15   17.00
   4   2   7  460.85   19.10
  -4  -3  -7  347.67   13.50
  -4  -3  -7  367.26   13.20
   4   3   7  344.17   12.50
   4   3   7  350.96   13.90
  -4  -4  -7  149.29    6.70
  -4  -4  -7  149.99    6.30
   4   4   7  140.79    7.30
   4   4   7  150.98    6.00
   4   4   7  154.38    6.20
  -3   5  -7  455.75   15.20
  -3   5  -7  440.66   15.20
  -3   5  -7  441.26   16.10
  -3   5  -7  467.05   15.70
  -3   5  -7  440.26   16.00
   3  -5   7  436.26   15.90
  -3   4  -7   35.70    3.00
  -3   4  -7   34.40    2.70
  -3   4  -7   34.40    3.20
  -3   4  -7   33.90    3.30
   3  -4   7   33.30    3.10
  -3   3  -7  477.65   17.30
  -3   3  -7  457.45   18.00
  -3   3  -7  467.65   18.20
   3  -3   7  450.65   17.90
  -3   2  -7   58.29    4.70
  -3   2  -7   59.19    4.70
  -3   2  -7   60.89    4.30
   3  -2   7   54.99    5.10
   3  -2   7   58.19    4.60
  -3   1  -7   95.09    6.20
  -3   1  -7  108.09    6.60
  -3   1  -7  103.59    5.90
   3  -1   7  101.39    7.40
   3  -1   7  104.19    6.30
  -3   0  -7    4.80    1.70
  -3   0  -7    3.00    1.20
   3   0   7    1.70    1.30
  -3  -1  -7  103.79    6.40
  -3  -1  -7   98.59    5.70
   3   1   7  103.39    6.40
   3   1   7   97.29    5.10
   3   1   7   98.29    7.20
  -3  -2  -7   61.09    4.70
  -3  -2  -7   57.89    4.10
   3   2   7   54.69    3.60
   3   2   7   61.09    4.70
   3   2   7   54.79    5.10
  -3  -3  -7  436.56   16.60
  -3  -3  -7  469.95   17.90
   3   3   7  463.05   17.80
   3   3   7  460.85   17.60
   3   3   7  447.56   16.10
  -3  -4  -7   30.00    3.00
  -3  -4  -7   31.10    2.60
   3   4   7   32.40    3.10
   3   4   7   29.30    2.40
   3   4   7   35.20    2.70
   3   4   7   35.10    3.10
  -3  -5  -7  427.56   15.80
  -3  -5  -7  446.06   15.00
   3   5   7  435.46   15.20
   3   5   7  461.25   15.90
   3   5   7  430.86   14.70
  -2   6  -7   15.50    1.40
  -2   6  -7   16.30    1.80
  -2   6  -7   17.70    1.80
  -2   6  -7   15.70    1.50
  -2   6  -7   15.80    1.60
  -2   5  -7  400.86   15.70
  -2   5  -7  413.26   16.40
  -2   5  -7  436.46   15.00
  -2   5  -7  419.06   15.00
  -2   5  -7  419.26   15.40
   2  -5   7  450.05   15.90
  -2   4  -7   36.10    3.90
  -2   4  -7   36.90    3.80
  -2   4  -7   39.00    3.30
  -2   4  -7   36.20    3.60
   2  -4   7   36.90    3.80
   2  -4   7   41.10    3.70
  -2   3  -7 1167.08   40.20
  -2   3  -7 1240.18   42.30
  -2   3  -7 1247.18   41.60
  -2   3  -7 1233.18   41.90
   2  -3   7 1292.27   41.70
   2  -3   7 1153.08   41.70
  -2   2  -7  102.59    6.60
  -2   2  -7  107.89    6.10
  -2   2  -7  105.99    6.90
   2  -2   7  110.99    7.40
   2  -2   7  105.39    6.60
  -2   1  -7 1317.07   45.00
  -2   1  -7 1303.37   43.50
  -2   1  -7 1282.57   44.50
   2  -1   7 1371.46   46.40
   2  -1   7 1373.46   44.70
  -2   0  -7   79.79    4.90
  -2   0  -7   74.19    5.50
   2   0   7   82.29    6.50
  -2  -1  -7 1370.06   44.10
  -2  -1  -7 1402.56   45.70
   2   1   7 1313.97   45.10
   2   1   7 1391.16   47.40
   2   1   7 1298.87   43.30
  -2  -2  -7  109.29    6.80
  -2  -2  -7  106.79    6.00
   2   2   7  110.09    5.60
   2   2   7  120.19    7.90
   2   2   7  102.49    6.50
   2   2   7   99.79    6.50
  -2  -3  -7 1215.68   38.20
  -2  -3  -7 1233.08   40.40
   2   3   7 1161.48   40.30
   2   3   7 1146.39   38.20
   2   3   7 1173.18   41.50
   2   3   7 1217.78   40.20
   2   3   7 1138.89   38.00
  -2  -4  -7   39.60    2.80
  -2  -4  -7   38.30    3.60
   2   4   7   35.60    3.00
   2   4   7   37.70    3.60
   2   4   7   35.50    2.80
   2   4   7   42.20    3.70
   2   4   7   39.30    2.80
  -2  -5  -7  432.66   15.70
  -2  -5  -7  408.66   14.20
   2   5   7  387.86   15.40
   2   5   7  391.46   15.50
   2   5   7  405.26   14.20
   2   5   7  416.36   14.80
   2   5   7  424.96   14.20
  -2  -6  -7   15.50    1.30
  -2  -6  -7   18.90    1.80
   2   6   7   15.20    1.60
   2   6   7   14.70    1.50
   2   6   7   16.50    1.30
   2   6   7   15.20    1.30
  -1   6  -7  169.18    7.00
  -1   6  -7  169.18    7.10
  -1   6  -7  177.58    6.90
  -1   6  -7  165.08    7.80
  -1   5  -7  414.76   16.10
  -1   5  -7  435.06   15.70
  -1   5  -7  422.76   15.70
  -1   5  -7  432.06   15.60
  -1   5  -7  440.86   17.20
   1  -5   7  443.86   16.10
   1  -5   7  382.26   16.90
  -1   4  -7  190.08    9.30
  -1   4  -7  193.88    8.30
  -1   4  -7  195.78   10.00
  -1   4  -7  188.48    8.60
  -1   4  -7  194.78    8.40
   1  -4   7  155.38    9.30
   1  -4   7  167.08    9.00
  -1   3  -7  731.63   26.80
  -1   3  -7  720.03   25.70
  -1   3  -7  708.93   25.10
  -1   3  -7  719.53   27.60
  -1   3  -7  716.23   27.20
   1  -3   7  757.32   27.50
   1  -3   7  802.92   27.20
  -1   2  -7  212.18   10.50
  -1   2  -7  210.78   10.30
  -1   2  -7  224.78    9.20
   1  -2   7  186.18    9.90
  -1   1  -7   31.90    5.50
   1  -1   7   35.10    6.10
   1  -1   7   32.90    4.00
   1   0   7   15.20    3.20
   1   0   7    9.80    3.80
   1   1   7   33.90    3.40
   1   1   7   32.30    6.00
  -1  -2  -7  189.08    8.60
  -1  -2  -7  186.88    9.90
   1   2   7  212.28   10.00
   1   2   7  212.18    8.70
   1   2   7  210.48   10.20
   1   2   7  215.58    8.80
   1   2   7  220.08   11.50
  -1  -3  -7  779.92   27.00
   1   3   7  718.03   28.40
   1   3   7  735.13   25.10
   1   3   7  744.43   27.10
   1   3   7  729.03   25.10
   1   3   7  744.73   26.80
  -1  -4  -7  169.28    9.30
   1   4   7  187.58    9.60
   1   4   7  196.88    8.30
   1   4   7  195.68    8.70
   1   4   7  198.98    8.30
   1   4   7  199.18    9.50
  -1  -5  -7  434.26   16.70
   1   5   7  431.06   15.80
   1   5   7  418.56   16.10
   1   5   7  428.06   16.70
   1   5   7  425.26   16.50
   1   5   7  437.06   15.20
   1   5   7  434.66   15.30
  -1  -6  -7  170.98    7.40
   1   6   7  166.78    7.40
   1   6   7  162.58    6.50
   1   6   7  174.38    6.90
   1   6   7  170.68    6.70
   1   6   7  169.38    7.00
   1   6   7  169.48    7.10
   0   6  -7  141.49    6.30
   0   6  -7  147.79    7.40
   0   6  -7  147.59    6.40
   0   6  -7  145.49    6.60
   0   6  -7  154.38    6.50
   0   5  -7  518.65   19.90
   0   5  -7  513.75   18.20
   0   5  -7  492.15   18.20
   0   5  -7  520.35   18.20
   0  -5   7  487.85   20.00
   0   4  -7  303.97   13.60
   0   4  -7  318.97   14.50
   0   4  -7  300.17   12.60
   0   4  -7  333.57   13.00
   0  -4   7  335.17   13.70
   0  -4   7  338.37   14.90
   0   3  -7   91.59    6.20
   0   3  -7   97.29    6.50
   0   3  -7   93.89    5.40
   0  -3   7   85.69    6.40
   0   2  -7  454.95   25.20
   0  -2   7  494.85   19.50
   0  -2   7  511.45   26.80
   0   1  -7  244.18   16.10
   0  -1   7  265.07   12.80
   0  -1   7  267.47   17.70
   0   0   7  255.47   17.40
   0   0   7  262.07   13.00
   0   1   7  233.68   12.20
   0   1   7  237.58   16.60
   0   2   7  489.65   20.70
   0   2   7  479.05   26.90
   0   2   7  466.95   18.70
   0  -3  -7   93.29    6.10
   0   3   7   89.19    7.20
   0   3   7   93.69    5.60
   0   3   7   96.69    5.20
   0   3   7   95.69    5.20
   0   3   7   94.49    6.00
   0   3   7   96.19    6.30
   0   3   7   95.49    7.30
   0  -4  -7  329.47   14.00
   0  -4  -7  324.17   15.70
   0   4   7  323.27   13.20
   0   4   7  307.97   13.60
   0   4   7  368.56   16.20
   0   4   7  332.07   12.70
   0   4   7  338.57   12.70
   0   4   7  329.47   14.40
   0   4   7  314.97   13.20
   0  -5  -7  475.65   20.70
   0  -5  -7  523.25   19.10
   0   5   7  522.55   19.70
   0   5   7  502.75   20.90
   0   5   7  491.35   18.40
   0   5   7  509.95   19.20
   0   5   7  516.25   18.90
   0   5   7  489.35   18.40
   0   5   7  514.55   17.90
   0   5   7  521.55   17.90
   0   5   7  511.65   18.40
   0  -6  -7  144.09    6.60
   0   6   7  144.99    6.80
   0   6   7  143.29    6.40
   0   6   7  132.69    6.40
   0   6   7  145.59    6.40
   0   6   7  128.19    6.70
   0   6   7  144.79    5.90
   0   6   7  142.59    6.50
   0   6   7  140.49    6.00
   1   7  -7   25.10    1.90
  -1  -7   7   30.20    2.10
   1   6  -7  248.28   10.00
   1   6  -7  264.27   10.30
   1   6  -7  277.57   12.00
   1   6  -7  269.77   11.20
  -1  -6   7  254.97   10.20
   1   5  -7  171.28    8.90
   1   5  -7  166.18    7.80
   1   5  -7  160.58    7.70
  -1  -5   7  164.48    9.20
   1   4  -7  361.56   16.00
   1   4  -7  404.26   15.00
   1   4  -7  380.96   14.70
  -1  -4   7  379.76   16.70
   1   3  -7  376.86   16.40
   1   3  -7  398.86   15.20
   1   3  -7  384.26   16.10
  -1  -3   7  391.36   17.00
  -1  -3   7  421.56   16.50
   1   2  -7  347.07   20.40
  -1  -2   7  337.37   20.60
  -1  -2   7  347.67   15.10
   1   1  -7 1409.86   53.19
  -1  -1   7 1283.07   52.69
   1   0  -7  634.94   29.20
  -1   0   7  644.94   30.70
   1  -1  -7 1323.17   45.90
  -1   1   7 1351.16   46.60
  -1   1   7 1328.77   45.70
  -1   1   7 1297.27   52.39
   1  -2  -7  367.76   16.60
  -1   2   7  336.67   21.50
  -1   2   7  356.06   16.30
  -1   2   7  376.66   16.90
  -1   2   7  345.17   14.80
   1  -3  -7  407.16   18.20
  -1   3   7  378.36   15.30
  -1   3   7  410.56   16.50
  -1   3   7  406.66   14.70
  -1   3   7  376.46   15.00
  -1   3   7  383.66   17.80
  -1   3   7  387.96   14.60
  -1   3   7  394.16   18.20
   1  -4  -7  401.76   18.30
  -1   4   7  396.76   18.10
  -1   4   7  375.06   15.30
  -1   4   7  387.56   16.20
  -1   4   7  402.06   18.30
  -1   4   7  398.36   15.40
  -1   4   7  387.06   15.50
  -1   4   7  404.36   16.80
  -1   4   7  398.66   14.80
  -1   4   7  407.16   14.80
   1  -5  -7  153.88    9.70
  -1   5   7  165.38   10.00
  -1   5   7  177.78    8.20
  -1   5   7  177.08    7.60
  -1   5   7  167.88    8.10
  -1   5   7  170.68    8.90
  -1   5   7  175.18    7.50
  -1   5   7  162.78    8.60
  -1   5   7  169.98    7.90
  -1   6   7  270.17   11.20
  -1   6   7  266.97   10.50
  -1   6   7  266.27   11.10
  -1   6   7  268.17   10.60
  -1   6   7  261.17    9.90
  -1   6   7  275.87   10.00
  -1   6   7  267.07   10.50
  -1   7   7   23.70    2.60
   2   6  -7  385.26   14.00
   2   6  -7  377.76   13.40
   2   6  -7  365.36   13.50
   2   6  -7  361.06   13.50
  -2  -6   7  349.47   13.40
   2   5  -7  133.79    6.50
   2   5  -7  124.59    6.40
   2   5  -7  127.99    6.80
  -2  -5   7  126.79    6.50
  -2  -5   7  125.79    7.90
   2   4  -7  488.35   19.20
   2   4  -7  498.05   18.50
   2   4  -7  512.55   18.80
  -2  -4   7  516.45   18.70
  -2  -4   7  521.25   21.10
   2   3  -7   34.30    3.10
   2   3  -7   33.70    3.40
  -2  -3   7   32.90    4.00
  -2  -3   7   27.70    3.30
   2   2  -7  689.83   32.90
   2   2  -7  725.83   28.10
  -2  -2   7  693.43   26.70
   2   1  -7  167.48    9.80
   2   1  -7  140.19   11.90
  -2  -1   7  146.39    8.50
   2   0  -7 1019.60   43.00
   2   0  -7 1092.29   38.10
   2  -1  -7  152.48    9.50
  -2   1   7  151.08    9.60
  -2   1   7  153.18    9.40
   2  -2  -7  668.03   26.80
  -2   2   7  659.23   26.20
  -2   2   7  692.53   25.20
  -2   2   7  692.63   27.40
  -2   2   7  682.03   26.80
   2  -3  -7   34.20    4.50
  -2   3   7   36.40    3.70
  -2   3   7   32.00    3.20
  -2   3   7   33.30    3.20
  -2   3   7   38.30    3.40
  -2   3   7   34.50    2.90
  -2   3   7   38.40    4.90
  -2   3   7   35.40    4.50
  -2   3   7   32.20    2.90
  -2   3   7   37.40    3.90
   2  -4  -7  524.55   22.60
  -2   4   7  551.34   21.20
  -2   4   7  551.84   23.10
  -2   4   7  508.15   19.60
  -2   4   7  553.84   19.20
  -2   4   7  533.85   20.80
  -2   4   7  534.85   19.70
  -2   4   7  526.65   19.80
  -2   4   7  517.75   18.70
  -2   4   7  534.25   22.80
   2  -5  -7  120.29    8.40
  -2   5   7  134.39    6.10
  -2   5   7  133.29    7.60
  -2   5   7  125.99    7.40
  -2   5   7  137.99    6.90
  -2   5   7  139.89    6.80
  -2   5   7  131.19    6.80
  -2   5   7  128.69    8.60
  -2   5   7  135.39    6.40
  -2   6   7  361.26   12.80
  -2   6   7  369.56   13.50
  -2   6   7  350.16   12.50
  -2   6   7  368.96   14.20
  -2   6   7  358.06   14.10
  -2   6   7  354.96   13.30
  -2   6   7  356.16   13.30
   3   6  -7  138.79    6.50
   3   6  -7  137.99    6.00
   3   6  -7  136.79    6.20
  -3  -6   7  140.29    6.20
   3   5  -7  160.98    8.00
   3   5  -7  154.28   13.50
   3   5  -7  162.98    7.60
   3   5  -7  160.48    7.30
  -3  -5   7  159.78    9.00
  -3  -5   7  156.88    7.40
   3   4  -7  703.03   29.30
   3   4  -7  717.33   25.50
   3   4  -7  734.43   26.50
   3   4  -7  715.73   25.40
  -3  -4   7  781.92   28.30
  -3  -4   7  757.12   25.70
   3   3  -7  146.49    7.40
   3   3  -7  155.18    7.50
   3   3  -7  152.68    8.20
   3   3  -7  150.68   10.10
  -3  -3   7  156.98    9.40
  -3  -3   7  161.58    8.70
   3   2  -7 1335.17   54.29
   3   2  -7 1355.26   48.80
   3   2  -7 1383.76   45.80
  -3  -2   7 1385.56   47.20
   3   1  -7   74.09    6.60
   3   1  -7   72.99    8.70
  -3  -1   7   79.09    6.10
   3   0  -7 1804.02   68.49
   3   0  -7 1875.81   62.09
  -3   0   7 1749.03   61.49
  -3   0   7 1841.72   61.09
   3  -1  -7   79.09    8.90
   3  -1  -7   78.19    6.50
  -3   1   7   68.19    6.30
  -3   1   7   79.49    6.30
   3  -2  -7 1360.56   47.80
  -3   2   7 1372.96   47.60
  -3   2   7 1335.27   47.10
  -3   2   7 1342.37   47.90
  -3   2   7 1332.37   45.20
  -3   2   7 1272.97   44.00
  -3   2   7 1360.86   45.60
   3  -3  -7  160.98   10.10
  -3   3   7  165.88   10.70
  -3   3   7  155.78    7.30
  -3   3   7  157.88    8.80
  -3   3   7  150.68    9.80
  -3   3   7  157.78    7.70
  -3   3   7  156.38    8.70
  -3   3   7  150.58    7.90
  -3   3   7  156.78    8.00
   3  -4  -7  770.52   29.70
  -3   4   7  759.82   30.00
  -3   4   7  749.73   27.40
  -3   4   7  732.73   26.40
  -3   4   7  756.52   27.60
  -3   4   7  717.53   29.20
  -3   4   7  744.53   26.10
  -3   4   7  746.63   26.30
  -3   4   7  771.12   25.70
   3  -5  -7  162.08    9.70
  -3   5   7  155.88    9.40
  -3   5   7  174.68    8.70
  -3   5   7  170.08    8.10
  -3   5   7  177.08    8.00
  -3   5   7  176.48    7.50
  -3   5   7  165.78    7.80
  -3   5   7  162.58    8.80
  -3   5   7  166.48    9.80
  -3   6   7  136.19    6.10
  -3   6   7  144.89    6.40
  -3   6   7  142.09    6.20
  -3   6   7  128.89    6.60
  -3   6   7  123.29    6.70
  -3   6   7  140.09    5.80
   4   6  -7  343.57   11.40
   4   6  -7  332.67   12.30
  -4  -6   7  321.47   11.90
   4   5  -7  141.09    6.60
   4   5  -7  122.69    6.70
   4   5  -7  137.09    6.10
  -4  -5   7  132.99    6.40
   4   4  -7  333.37   13.40
   4   4  -7  344.67   16.90
   4   4  -7  348.27   14.20
  -4  -4   7  337.37   13.40
  -4  -4   7  335.47   15.60
   4   3  -7  147.29   10.10
   4   3  -7  148.29    8.50
   4   3  -7  139.79    7.90
   4   3  -7  143.69    7.30
  -4  -3   7  150.18    7.40
  -4  -3   7  158.48    9.50
   4   2  -7  414.66   16.60
   4   2  -7  424.06   17.30
   4   2  -7  420.86   19.80
  -4  -2   7  417.76   18.50
  -4  -2   7  404.96   17.00
  -4  -2   7  404.56   17.10
   4   1  -7  186.18   11.40
   4   1  -7  154.28    8.60
   4   1  -7  168.78    9.40
  -4  -1   7  181.68    9.00
  -4  -1   7  191.08    9.80
  -4  -1   7  193.68   10.50
   4   0  -7   15.30    3.80
   4   0  -7   14.80    5.10
   4   0  -7   15.00    2.80
  -4   0   7   15.50    2.90
  -4   0   7   14.20    3.20
  -4   0   7   13.60    3.10
  -4   0   7   12.70    2.80
  -4   0   7   13.10    2.40
   4  -1  -7  176.68    8.60
   4  -1  -7  196.18   11.00
  -4   1   7  162.88    8.40
  -4   1   7  178.98    9.40
  -4   1   7  155.28    9.40
  -4   1   7  173.08   10.70
   4  -2  -7  447.16   19.60
   4  -2  -7  425.86   16.60
  -4   2   7  438.26   18.00
  -4   2   7  446.76   17.80
  -4   2   7  431.66   15.80
  -4   2   7  438.56   19.80
  -4   2   7  416.26   18.20
  -4   2   7  436.36   16.70
  -4   2   7  433.86   16.90
  -4   2   7  430.36   20.00
   4  -3  -7  159.58   10.00
  -4   3   7  145.09    7.80
  -4   3   7  135.79    8.30
  -4   3   7  149.59    7.50
  -4   3   7  142.99    7.50
  -4   3   7  160.58   10.40
  -4   3   7  161.38   10.00
  -4   3   7  151.18    7.20
  -4   3   7  164.48    8.90
   4  -4  -7  334.87   16.20
  -4   4   7  341.07   16.20
  -4   4   7  326.87   16.50
  -4   4   7  355.66   14.20
  -4   4   7  349.17   13.80
  -4   4   7  356.46   13.40
  -4   4   7  365.16   13.80
  -4   4   7  375.06   15.20
  -4   4   7  363.96   15.20
  -4   5   7  135.39    7.40
  -4   5   7  142.49    6.90
  -4   5   7  134.69    6.20
  -4   5   7  130.49    8.20
  -4   5   7  129.19    7.20
  -4   5   7  133.79    6.30
  -4   5   7  141.09    6.70
  -4   6   7  344.77   11.70
  -4   6   7  338.27   12.30
  -4   6   7  324.17   12.60
  -4   6   7  336.27   12.10
   5   5  -7  156.38    7.40
   5   5  -7  161.58    7.20
  -5  -5   7  160.98    7.00
   5   4  -7  420.16   19.30
   5   4  -7  462.05   16.90
   5   4  -7  428.86   17.10
  -5  -4   7  410.46   17.80
  -5  -4   7  462.35   16.20
   5   3  -7  451.45   18.30
   5   3  -7  428.16   20.30
   5   3  -7  395.96   17.00
  -5  -3   7  456.75   16.60
  -5  -3   7  476.55   19.20
   5   2  -7  491.45   19.50
   5   2  -7  448.36   18.20
   5   2  -7  488.75   21.80
  -5  -2   7  487.65   20.40
   5   1  -7  115.79    8.90
   5   1  -7  104.39    6.60
   5   1  -7  120.49    7.60
  -5  -1   7  133.09    7.80
  -5  -1   7  134.99    8.50
  -5  -1   7  120.29    7.60
   5   0  -7  989.80   34.20
   5   0  -7  923.91   32.50
   5   0  -7  972.90   36.40
  -5   0   7  984.80   34.20
  -5   0   7  941.11   35.00
  -5   0   7  908.91   34.00
  -5   0   7  937.01   32.70
   5  -1  -7  130.79    8.70
   5  -1  -7  119.19    6.50
  -5   1   7  101.89    6.30
  -5   1   7  121.69    7.40
  -5   1   7  109.39    7.30
  -5   1   7  106.19    6.30
  -5   1   7  108.79    8.00
   5  -2  -7  509.75   21.40
   5  -2  -7  486.85   18.20
  -5   2   7  514.75   19.40
  -5   2   7  488.35   20.20
  -5   2   7  483.85   17.50
  -5   2   7  520.85   20.00
  -5   2   7  490.85   18.70
  -5   2   7  472.65   18.00
  -5   2   7  481.25   18.30
  -5   2   7  480.15   21.40
   5  -3  -7  458.85   18.90
  -5   3   7  421.16   17.20
  -5   3   7  416.96   19.20
  -5   3   7  404.46   17.30
  -5   3   7  418.16   16.40
  -5   3   7  409.96   16.00
  -5   3   7  409.56   15.40
  -5   3   7  447.16   17.40
  -5   4   7  484.15   17.70
  -5   4   7  479.75   17.40
  -5   4   7  481.05   16.90
  -5   4   7  463.55   18.30
  -5   4   7  503.35   18.70
  -5   4   7  443.36   20.00
  -5   5   7  183.58    7.50
  -5   5   7  169.18    7.00
  -5   5   7  175.28    7.60
  -5   5   7  171.08    8.10
  -5   5   7  168.68    7.80
  -5   5   7  163.38    8.80
   6   5  -7  604.64   19.50
   6   5  -7  553.84   19.90
  -6  -5   7  605.84   19.60
   6   4  -7   46.10    3.80
   6   4  -7   52.39    3.50
  -6  -4   7   52.49    3.40
   6   3  -7  416.86   15.60
   6   3  -7  424.06   16.90
  -6  -3   7  375.26   18.70
  -6  -3   7  424.16   15.40
   6   2  -7  357.96   17.40
   6   2  -7  403.26   14.90
   6   2  -7  381.46   16.00
  -6  -2   7  374.66   14.40
  -6  -2   7  366.96   16.80
   6   1  -7  276.77   13.00
   6   1  -7  262.57   14.20
  -6  -1   7  304.47   13.30
  -6  -1   7  279.17   13.90
  -6  -1   7  280.97   12.60
   6   0  -7  384.86   16.30
   6   0  -7  363.86   17.60
  -6   0   7  401.86   16.40
  -6   0   7  390.86   15.10
  -6   0   7  354.06   16.80
  -6   0   7  398.76   16.50
   6  -1  -7  300.87   13.20
   6  -1  -7  294.87   14.50
  -6   1   7  274.57   13.10
  -6   1   7  272.07   12.00
  -6   1   7  288.17   13.90
  -6   1   7  291.87   13.20
   6  -2  -7  388.86   16.50
  -6   2   7  404.26   16.60
  -6   2   7  395.06   15.10
  -6   2   7  399.36   14.40
  -6   2   7  415.86   17.00
  -6   2   7  436.16   16.10
  -6   2   7  392.26   17.80
  -6   2   7  405.26   15.70
  -6   3   7  427.86   15.10
  -6   3   7  428.06   16.50
  -6   3   7  418.26   16.70
  -6   3   7  420.76   18.30
  -6   3   7  435.16   15.80
  -6   3   7  431.96   16.20
  -6   3   7  419.16   16.90
  -6   4   7   51.29    3.70
  -6   4   7   51.09    3.10
  -6   4   7   52.29    3.40
  -6   4   7   55.29    5.20
  -6   4   7   58.79    4.00
  -6   4   7   42.70    4.20
  -6   4   7   54.49    3.60
  -6   5   7  611.14   20.00
  -6   5   7  610.84   20.10
  -6   5   7  590.34   19.50
   7   4  -7   12.90    1.60
  -7  -4   7   12.70    1.30
   7   3  -7  622.84   22.50
  -7  -3   7  651.23   21.30
   7   2  -7   54.89    4.40
  -7  -2   7   58.29    3.60
   7   1  -7 1433.66   46.60
   7   1  -7 1397.96   47.50
  -7  -1   7 1484.45   46.50
   7   0  -7    0.80    0.80
   7   0  -7    2.30    1.10
  -7   0   7    0.60    0.80
  -7   0   7    0.40    0.80
  -7   0   7    0.90    0.90
   7  -1  -7 1387.76   46.30
   7  -1  -7 1377.56   45.70
  -7   1   7 1419.06   46.50
  -7   1   7 1428.96   45.60
  -7   1   7 1404.66   46.50
   7  -2  -7   62.29    4.30
  -7   2   7   60.89    3.60
  -7   2   7   54.89    3.90
  -7   2   7   59.09    4.70
  -7   2   7   58.79    4.00
  -7   2   7   50.89    4.20
  -7   2   7   57.49    4.20
   7  -3  -7  710.63   23.70
  -7   3   7  706.43   23.50
  -7   3   7  697.53   24.00
  -7   3   7  663.93   23.60
  -7   3   7  694.93   22.50
  -7   3   7  678.43   24.90
  -7   3   7  697.43   23.00
  -7   4   7   14.60    1.30
  -7   4   7   17.80    1.60
  -7   4   7   19.30    1.70
   8   2  -7   25.30    2.20
   8   1  -7  331.77   12.80
   8   1  -7  343.47   12.30
   8   0  -7    1.50    0.80
   8   0  -7    3.10    1.00
  -8   0   7    3.30    1.10
  -8   0   7    2.90    0.90
   8  -1  -7  332.17   12.60
   8  -1  -7  341.77   12.60
  -8   1   7  354.16   12.60
  -8   1   7  337.37   12.70
   8  -2  -7   36.00    2.40
  -8   2   7   30.10    2.30
  -8   2   7   29.80    2.40
  -8   2   7   29.30    2.10
  -5   1  -8   34.60    2.10
  -5   0  -8    4.60    0.90
  -5  -1  -8   26.20    1.80
  -4   3  -8   31.90    2.50
  -4   3  -8   31.60    2.20
   4  -3   8   38.30    2.50
  -4   2  -8  535.65   17.80
  -4   2  -8  555.74   18.30
  -4   2  -8  491.45   17.90
   4  -2   8  495.55   17.90
   4  -2   8  523.55   19.00
  -4   1  -8   71.29    4.20
  -4   1  -8   72.99    4.00
   4  -1   8   67.69    4.90
  -4   0  -8 1281.77   40.00
  -4   0  -8 1215.08   40.40
   4   0   8 1261.87   42.10
  -4  -1  -8   74.89    4.00
  -4  -1  -8   68.09    4.10
   4   1   8   66.49    4.80
   4   1   8   74.09    3.40
  -4  -2  -8  516.25   17.30
  -4  -2  -8  518.15   17.80
   4   2   8  523.75   16.90
   4   2   8  482.05   18.40
  -4  -3  -8   35.50    2.40
  -4  -3  -8   38.50    2.20
   4   3   8   29.80    1.90
  -3   4  -8  363.06   13.40
  -3   4  -8  351.56   13.20
  -3   4  -8  363.06   12.70
   3  -4   8  383.26   13.30
  -3   3  -8   34.80    3.00
  -3   3  -8   36.30    2.70
  -3   3  -8   36.90    3.10
   3  -3   8   33.00    2.90
  -3   2  -8  219.58    9.00
  -3   2  -8  220.98    9.70
  -3   2  -8  222.78    9.70
   3  -2   8  203.18    9.40
   3  -2   8  209.88   10.30
  -3   1  -8   11.80    2.30
  -3   1  -8   10.90    2.10
  -3   1  -8    8.60    1.60
   3  -1   8   11.30    2.60
   3  -1   8    7.40    1.70
  -3   0  -8   90.09    5.00
  -3   0  -8   93.79    5.70
   3   0   8   93.09    6.60
  -3  -1  -8    9.60    1.80
  -3  -1  -8    8.40    2.00
   3   1   8   14.30    1.90
   3   1   8   11.80    2.60
  -3  -2  -8  217.98    8.70
  -3  -2  -8  196.98    9.20
   3   2   8  221.18    9.50
   3   2   8  198.78   10.10
   3   2   8  211.78    8.20
  -3  -3  -8   32.20    2.80
  -3  -3  -8   42.00    2.70
   3   3   8   35.20    2.40
   3   3   8   33.40    2.90
  -3  -4  -8  379.66   13.00
   3   4   8  325.97   11.90
  -2   5  -8   71.79    3.50
  -2   5  -8   68.29    3.90
   2  -5   8   74.39    3.70
  -2   4  -8  301.57   12.20
  -2   4  -8  319.87   12.60
  -2   4  -8  314.77   11.50
   2  -4   8  302.97   12.10
  -2   3  -8  264.87   11.30
  -2   3  -8  258.97   11.30
  -2   3  -8  246.38   10.10
   2  -3   8  246.88   11.00
  -2   2  -8  448.76   17.30
  -2   2  -8  404.26   15.90
  -2   2  -8  434.76   17.20
   2  -2   8  458.25   18.20
   2  -2   8  460.45   17.40
  -2   1  -8  557.14   20.90
  -2   1  -8  563.44   21.10
  -2   1  -8  570.04   20.00
   2  -1   8  562.14   20.80
   2  -1   8  564.34   22.50
  -2   0  -8 1063.19   35.80
  -2   0  -8 1025.50   34.20
   2   0   8 1019.40   37.20
  -2  -1  -8  556.64   21.20
   2   1   8  581.94   22.90
  -2  -2  -8  434.46   16.80
   2   2   8  427.56   16.70
   2   2   8  427.76   15.20
   2   2   8  424.36   18.00
  -2  -3  -8  237.38   10.80
  -2  -3  -8  215.48    9.20
   2   3   8  266.87    9.70
   2   3   8  255.87   10.90
   2   3   8  250.57   11.50
   2   3   8  269.77    9.40
  -2  -4  -8  299.97   11.00
  -2  -4  -8  316.97   12.40
   2   4   8  312.47   11.30
   2   4   8  323.77   12.50
   2   4   8  323.77   11.10
  -2  -5  -8   79.59    4.10
  -2  -5  -8   74.79    4.10
   2   5   8   69.99    3.30
   2   5   8   75.99    3.50
   2   5   8   76.79    4.20
  -1   5  -8  287.77   11.40
  -1   5  -8  280.27   10.30
   1  -5   8  289.07   10.70
  -1   4  -8  148.99    6.50
  -1   4  -8  157.68    6.80
  -1   4  -8  158.68    8.00
  -1   4  -8  144.19    7.40
   1  -4   8  140.69    7.30
  -1   3  -8  178.58    8.90
  -1   3  -8  177.98    9.10
  -1   3  -8  174.38    7.70
   1  -3   8  176.08    8.70
  -1   2  -8  437.46   17.20
  -1   2  -8  420.56   17.10
  -1   2  -8  420.36   15.50
   1  -2   8  426.06   16.90
  -1   1  -8  194.58    9.60
  -1   1  -8  199.88    8.30
  -1   1  -8  196.58    9.70
   1  -1   8  179.68    9.30
   1  -1   8  183.88   10.40
  -1   0  -8  324.67   13.50
  -1   0  -8  309.17   11.80
   1   0   8  291.27   14.40
   1   0   8  300.67   12.90
  -1  -1  -8  176.08    9.20
  -1  -1  -8  180.28    8.10
   1   1   8  213.78   11.00
   1   1   8  190.28    8.00
  -1  -2  -8  425.16   15.10
  -1  -2  -8  413.06   16.50
   1   2   8  400.16   14.80
   1   2   8  430.86   16.60
   1   2   8  399.26   14.80
   1   2   8  404.76   18.00
  -1  -3  -8  175.18    8.70
  -1  -3  -8  174.98    7.40
   1   3   8  173.98    7.40
   1   3   8  166.88    9.50
   1   3   8  169.38    8.60
   1   3   8  170.58    7.30
  -1  -4  -8  150.98    7.60
  -1  -4  -8  148.49    6.50
   1   4   8  157.28    7.70
   1   4   8  150.18    7.40
   1   4   8  149.49    6.40
   1   4   8  147.69    6.50
   1   4   8  159.58    6.80
  -1  -5  -8  290.97   10.80
  -1  -5  -8  285.77    9.90
   1   5   8  281.07    9.80
   1   5   8  276.27   10.60
   1   5   8  267.97    9.80
   1   5   8  269.47   10.00
   1   5   8  237.58   12.70
   0   6  -8   44.90    2.80
   0   5  -8  131.09    5.80
   0   5  -8  142.09    5.90
   0   5  -8  137.39    6.80
   0  -5   8  118.99    5.60
   0  -4   8   20.00    2.80
   0  -4   8   22.70    2.60
   0   3  -8  542.75   20.60
   0   3  -8  553.24   19.00
   0   3  -8  542.15   20.30
   0  -3   8  531.45   20.20
   0  -3   8  488.25   20.40
   0   2  -8   67.29    4.20
   0   2  -8   70.29    5.10
   0   2  -8   72.69    5.20
   0  -2   8   49.30    4.50
   0   1  -8  751.52   27.00
   0   1  -8  770.22   25.40
   0  -1   8  720.13   27.90
   0   0  -8   17.20    2.60
   0   0  -8   18.40    2.10
   0   0   8   17.80    2.60
   0   0   8   14.10    3.20
   0  -1  -8  754.02   25.70
   0  -1  -8  697.63   26.90
   0   1   8  781.82   25.70
   0   1   8  813.72   29.70
   0  -2  -8   56.59    4.50
   0  -2  -8   56.49    3.80
   0   2   8   67.99    4.00
   0   2   8   68.79    4.90
   0   2   8   70.19    4.10
   0   2   8   70.59    5.90
   0  -3  -8  578.24   19.40
   0  -3  -8  520.75   20.30
   0   3   8  544.35   19.10
   0   3   8  545.35   20.40
   0   3   8  546.45   19.50
   0   3   8  565.44   22.50
   0   3   8  555.14   19.10
   0   3   8  547.65   20.80
   0   4   8   39.30    3.00
   0   4   8   39.30    3.00
   0   4   8   30.90    3.70
   0   4   8   37.50    2.80
   0   4   8   36.50    2.70
   0   4   8   42.70    3.70
   0   4   8   37.50    3.20
   0  -5  -8  127.19    6.20
   0  -5  -8  115.19    5.50
   0   5   8  129.49    6.60
   0   5   8  131.99    5.60
   0   5   8  129.29    5.90
   0   5   8  127.89    6.10
   0   5   8  139.99    6.00
   0   5   8  144.29    5.70
   0  -6  -8   44.00    2.20
   0   6   8   43.00    2.40
   0   6   8   43.60    2.20
   1   6  -8   44.20    3.10
   1   6  -8   39.70    2.40
   1   6  -8   41.30    2.40
  -1  -6   8   44.30    2.40
   1   5  -8  239.28    9.50
   1   5  -8  250.47   10.50
   1   5  -8  251.07    9.50
  -1  -5   8  240.58    9.40
   1   4  -8  131.99    6.50
   1   4  -8  128.39    7.30
  -1  -4   8  142.79    8.10
  -1  -4   8  138.29    7.00
   1   3  -8  994.20   31.10
   1   3  -8  953.90   32.60
  -1  -3   8  871.61   31.90
  -1  -3   8  884.21   33.00
   1   2  -8  257.07   10.80
   1   2  -8  258.27   11.80
  -1  -2   8  275.97   12.10
   1   1  -8 1445.26   47.10
  -1  -1   8 1492.05   48.90
   1   0  -8  367.46   14.50
   1   0  -8  372.56   14.00
  -1   0   8  378.96   15.40
  -1   0   8  364.36   16.60
  -1   0   8  376.56   14.60
   1  -1  -8 1516.65   46.90
   1  -1  -8 1440.46   47.50
  -1   1   8 1508.85   50.69
  -1   1   8 1404.36   47.20
  -1   1   8 1418.86   48.20
  -1   1   8 1480.95   46.80
   1  -2  -8  264.17   15.60
   1  -2  -8  280.47   10.80
  -1   2   8  279.37   14.00
  -1   2   8  267.47   11.90
  -1   2   8  247.68   10.30
  -1   2   8  258.97   11.10
  -1   2   8  272.07   13.40
  -1   2   8  262.17   10.50
   1  -3  -8  887.31   35.00
   1  -3  -8  948.61   31.90
  -1   3   8  999.40   35.80
  -1   3   8 1004.00   33.90
  -1   3   8  993.20   35.30
  -1   3   8  961.10   31.70
  -1   3   8  993.90   31.80
  -1   3   8  952.30   32.40
   1  -4  -8  142.69    8.50
   1  -4  -8  147.59    6.30
  -1   4   8  134.49    6.20
  -1   4   8  139.09   10.10
  -1   4   8  124.09    8.00
  -1   4   8  126.39    6.60
  -1   4   8  127.29    6.40
  -1   4   8  123.39    6.00
  -1   4   8  133.69    7.40
  -1   4   8  132.69    8.20
   1  -5  -8  264.27    9.50
  -1   5   8  248.18   10.30
  -1   5   8  260.07   10.80
  -1   5   8  233.88    9.30
  -1   5   8  247.08    9.50
  -1   5   8  251.77   10.00
  -1   5   8  248.18    9.80
  -1   5   8  262.67    9.90
   1  -6  -8   44.10    2.20
  -1   6   8   41.40    2.70
  -1   6   8   39.30    2.20
  -1   6   8   39.50    2.90
  -1   6   8   40.20    2.40
  -1   6   8   38.30    2.10
  -1   6   8   43.00    2.50
   2   6  -8    3.70    0.80
   2   6  -8    3.30    0.80
  -2  -6   8    4.10    0.80
   2   5  -8  497.75   16.60
   2   5  -8  490.35   16.60
  -2  -5   8  438.46   16.30
   2   4  -8  134.79    6.40
   2   4  -8  125.19    6.50
  -2  -4   8  124.99    7.70
   2   3  -8  753.82   27.10
   2   3  -8  811.32   26.70
  -2  -3   8  775.22   28.80
  -2  -3   8  779.22   27.70
   2   2  -8  498.65   17.60
   2   2  -8  446.26   17.90
  -2  -2   8  483.05   18.80
  -2  -2   8  480.75   19.40
   2   1  -8  308.87   12.10
   2   1  -8  306.47   14.90
   2   1  -8  311.17   12.70
  -2  -1   8  297.37   12.70
   2   0  -8  480.15   18.30
   2   0  -8  487.25   20.50
   2   0  -8  503.05   17.60
  -2   0   8  478.15   18.30
  -2   0   8  493.55   20.60
   2  -1  -8  318.87   13.00
   2  -1  -8  298.57   12.10
   2  -1  -8  293.47   14.70
  -2   1   8  312.27   12.80
  -2   1   8  332.07   15.40
  -2   1   8  319.07   13.80
  -2   1   8  323.67   12.20
   2  -2  -8  479.55   20.80
   2  -2  -8  502.65   17.50
  -2   2   8  512.65   21.40
  -2   2   8  495.25   19.00
  -2   2   8  480.05   17.30
  -2   2   8  470.75   17.20
  -2   2   8  464.55   18.10
  -2   2   8  504.55   21.00
   2  -3  -8  770.92   26.20
   2  -3  -8  782.72   30.20
  -2   3   8  778.12   28.00
  -2   3   8  803.92   27.30
  -2   3   8  755.42   29.80
  -2   3   8  797.02   30.40
  -2   3   8  787.02   26.30
  -2   3   8  831.42   28.50
  -2   3   8  778.42   26.30
   2  -4  -8  128.79    6.00
   2  -4  -8  126.89    8.30
  -2   4   8  129.29    6.30
  -2   4   8  132.09    7.40
  -2   4   8  136.79    6.00
  -2   4   8  126.69    6.50
  -2   4   8  140.09    8.60
  -2   4   8  132.79    6.50
  -2   4   8  131.19    8.30
  -2   4   8  131.39    7.20
  -2   4   8  138.59    6.30
   2  -5  -8  454.55   16.20
  -2   5   8  487.05   16.80
  -2   5   8  480.45   17.70
  -2   5   8  500.75   17.10
  -2   5   8  491.45   17.80
  -2   5   8  462.45   16.40
  -2   5   8  496.35   17.00
  -2   5   8  474.45   16.20
  -2   6   8    3.80    0.90
  -2   6   8    5.10    0.90
  -2   6   8    5.90    1.10
  -2   6   8    5.60    1.10
  -2   6   8    4.80    0.90
   3   5  -8  376.76   14.10
   3   5  -8  388.56   13.90
   3   5  -8  389.86   13.70
  -3  -5   8  405.26   13.90
   3   4  -8  218.08    9.70
   3   4  -8  241.38    9.30
   3   4  -8  225.18    9.20
  -3  -4   8  204.28    8.90
  -3  -4   8  214.88   10.90
   3   3  -8  510.65   18.50
   3   3  -8  461.15   20.50
   3   3  -8  487.55   17.50
  -3  -3   8  480.65   19.80
  -3  -3   8  473.15   18.50
   3   2  -8  231.28   10.40
   3   2  -8  230.88    9.70
   3   2  -8  234.98   12.70
  -3  -2   8  227.48   11.70
  -3  -2   8  226.58   10.90
   3   1  -8  906.41   34.40
   3   1  -8  917.81   31.40
   3   1  -8  881.21   30.20
  -3  -1   8  923.41   32.30
   3   0  -8  228.78   12.60
   3   0  -8  231.48   10.40
   3   0  -8  227.78    9.50
  -3   0   8  226.18   10.30
  -3   0   8  236.28   12.20
  -3   0   8  233.48   11.30
   3  -1  -8  881.11   33.20
   3  -1  -8  873.81   29.10
   3  -1  -8  917.31   30.40
  -3   1   8  884.11   31.50
  -3   1   8  862.81   30.90
  -3   1   8  885.51   30.30
  -3   1   8  853.51   32.90
   3  -2  -8  228.08    9.30
   3  -2  -8  242.98   12.60
  -3   2   8  229.98   11.10
  -3   2   8  220.78    9.30
  -3   2   8  242.48   12.80
  -3   2   8  231.08   10.90
  -3   2   8  236.88   10.80
  -3   2   8  226.98    9.30
  -3   2   8  227.58   10.20
   3  -3  -8  505.85   17.90
   3  -3  -8  477.95   21.10
  -3   3   8  513.45   21.70
  -3   3   8  486.55   21.20
  -3   3   8  528.95   18.80
  -3   3   8  523.15   18.50
  -3   3   8  500.25   18.10
  -3   3   8  511.95   19.40
  -3   3   8  495.25   17.70
  -3   3   8  505.25   19.60
   3  -4  -8  210.48   11.40
  -3   4   8  224.28   10.30
  -3   4   8  232.38    9.00
  -3   4   8  231.48   11.70
  -3   4   8  229.18    9.60
  -3   4   8  222.98    9.50
  -3   4   8  225.88    9.30
  -3   4   8  221.78   10.30
  -3   4   8  228.38   11.70
  -3   5   8  396.16   14.10
  -3   5   8  394.66   14.10
  -3   5   8  392.86   13.90
  -3   5   8  364.76   15.30
  -3   5   8  401.06   14.90
  -3   5   8  389.06   13.60
  -3   5   8  390.06   14.80
  -3   6   8  136.69    5.80
  -3   6   8  134.09    5.90
   4   5  -8  179.48    6.60
   4   5  -8  173.58    7.20
  -4  -5   8  160.78    6.80
   4   4  -8  301.77   10.60
   4   4  -8  274.17   11.40
  -4  -4   8  270.57   10.70
   4   3  -8  251.37   10.80
   4   3  -8  244.98   13.00
  -4  -3   8  239.88   11.90
   4   2  -8  328.37   15.70
   4   2  -8  308.07   12.80
  -4  -2   8  298.47   14.10
  -4  -2   8  296.37   13.30
   4   1  -8   21.10    3.60
   4   1  -8   24.80    3.00
  -4  -1   8   14.90    3.10
  -4  -1   8   19.50    2.70
  -4  -1   8   22.10    3.00
   4   0  -8  479.05   21.00
   4   0  -8  449.36   17.90
   4   0  -8  484.85   18.80
  -4   0   8  482.15   18.10
  -4   0   8  474.05   19.10
  -4   0   8  476.05   18.80
   4  -1  -8   23.10    2.70
   4  -1  -8   16.60    3.70
  -4   1   8   25.80    3.30
  -4   1   8   26.30    3.80
  -4   1   8   18.90    2.70
  -4   1   8   31.70    3.10
   4  -2  -8  308.37   15.00
   4  -2  -8  286.37   12.60
  -4   2   8  321.97   12.90
  -4   2   8  324.57   13.80
  -4   2   8  324.87   13.80
  -4   2   8  339.57   15.80
   4  -3  -8  241.58   12.50
   4  -3  -8  254.47   10.50
  -4   3   8  242.78    9.70
  -4   3   8  250.07   12.90
  -4   3   8  238.08   10.30
  -4   3   8  252.57   10.40
  -4   3   8  255.57   11.20
  -4   3   8  250.97   11.40
  -4   3   8  253.67   10.20
   4  -4  -8  301.97   11.40
  -4   4   8  290.37   13.60
  -4   4   8  295.97   11.60
  -4   4   8  292.67   11.40
  -4   4   8  296.37   11.00
  -4   4   8  300.27   12.30
  -4   4   8  287.07   11.30
  -4   4   8  298.67   12.40
   4  -5  -8  177.88    7.00
  -4   5   8  148.29    8.00
  -4   5   8  185.28    7.30
  -4   5   8  179.78    7.00
  -4   5   8  173.68    6.80
  -4   5   8  181.28    7.10
  -4   5   8  166.98    7.60
   5   5  -8   48.70    2.80
  -5  -5   8   39.10    3.10
   5   4  -8  452.85   16.00
  -5  -4   8  423.66   15.20
   5   3  -8   51.19    4.00
   5   3  -8   59.19    4.10
   5   2  -8  963.10   32.30
   5   2  -8  906.71   34.40
   5   2  -8  941.01   31.50
  -5  -2   8  849.32   32.70
  -5  -2   8  961.70   32.00
   5   1  -8   15.30    2.20
   5   1  -8   18.20    2.60
   5   1  -8   18.40    4.00
  -5  -1   8   21.10    3.10
  -5  -1   8   23.00    2.90
  -5  -1   8   24.30    3.00
   5   0  -8 1493.15   48.70
   5   0  -8 1407.76   47.40
   5   0  -8 1459.75   51.09
  -5   0   8 1497.05   49.00
  -5   0   8 1430.16   48.60
   5  -1  -8   24.50    2.60
   5  -1  -8   28.00    3.20
   5  -1  -8   21.90    3.50
  -5   1   8   15.60    2.50
  -5   1   8   17.70    3.10
  -5   1   8   16.50    3.30
  -5   1   8   20.70    2.40
   5  -2  -8  908.41   34.30
   5  -2  -8  895.81   31.60
  -5   2   8  942.21   31.80
  -5   2   8  973.10   33.10
  -5   2   8  989.70   33.30
  -5   2   8  984.10   32.00
  -5   2   8  974.10   34.70
   5  -3  -8   66.79    3.90
  -5   3   8   60.39    4.20
  -5   3   8   58.49    3.80
  -5   3   8   56.49    5.10
  -5   3   8   57.09    3.40
  -5   3   8   52.89    4.20
  -5   3   8   61.99    4.00
  -5   3   8   57.09    3.60
  -5   3   8   53.29    4.10
   5  -4  -8  468.75   15.40
  -5   4   8  439.66   15.80
  -5   4   8  432.06   17.60
  -5   4   8  454.85   15.20
  -5   4   8  452.05   16.30
  -5   4   8  432.46   16.50
  -5   4   8  435.06   15.50
  -5   4   8  444.56   15.80
  -5   5   8   50.09    2.70
  -5   5   8   44.50    2.50
  -5   5   8   46.70    2.40
  -5   5   8   40.90    2.80
   6   4  -8  360.56   11.30
   6   4  -8  310.17   11.50
  -6  -4   8  277.57   11.10
   6   3  -8   27.00    2.30
   6   3  -8   23.40    2.40
   6   2  -8  430.76   16.90
   6   2  -8  445.06   16.00
   6   1  -8    7.00    1.80
   6   1  -8   10.20    1.90
  -6  -1   8   13.10    2.40
   6   0  -8  547.05   18.80
   6   0  -8  530.85   20.10
  -6   0   8  517.45   19.90
  -6   0   8  525.65   20.10
   6  -1  -8   11.70    2.20
  -6   1   8    9.70    1.90
  -6   1   8    8.30    1.90
  -6   1   8    7.40    1.80
   6  -2  -8  417.16   16.40
  -6   2   8  430.46   16.70
  -6   2   8  440.26   16.70
  -6   2   8  456.45   15.90
  -6   2   8  423.66   17.50
   6  -3  -8   30.50    2.70
  -6   3   8   27.20    2.30
  -6   3   8   22.10    2.80
  -6   3   8   27.40    1.90
  -6   3   8   26.80    2.10
  -6   3   8   23.20    2.50
  -6   3   8   26.70    2.50
   6  -4  -8  344.07   13.30
  -6   4   8  382.66   12.90
  -6   4   8  374.16   13.50
  -6   4   8  393.16   13.20
  -6   4   8  387.96   12.60
   7   3  -8  319.17   11.80
   7   2  -8  607.04   21.00
   7   1  -8  815.52   27.40
  -7  -1   8  787.42   26.40
   7   0  -8  369.26   14.10
   7   0  -8  348.27   13.10
  -7   0   8  368.86   13.80
  -7   0   8  378.96   13.20
   7  -1  -8  785.22   26.00
   7  -1  -8  782.32   26.60
  -7   1   8  796.12   25.90
  -7   1   8  772.72   26.70
  -7   1   8  792.32   26.60
   7  -2  -8  639.44   21.00
   7  -2  -8  627.94   21.50
  -7   2   8  637.54   20.90
  -7   2   8  629.14   21.40
  -7   2   8  604.94   21.50
   7  -3  -8  328.17   12.10
  -7   3   8  330.27   12.40
  -3   2  -9  216.88    8.60
  -3   2  -9  223.18    8.00
   3  -2   9  217.98    8.40
  -3   1  -9   81.29    3.90
  -3   1  -9   81.29    4.40
   3  -1   9   80.69    4.90
  -3   0  -9   54.19    3.60
  -3   0  -9   61.69    3.20
   3   0   9   62.59    4.40
  -3  -1  -9   84.69    4.40
   3   1   9   72.19    4.80
  -3  -2  -9  211.88    8.60
   3   2   9  228.28    7.70
  -2   3  -9   41.50    2.90
   2  -3   9   32.20    2.60
  -2   2  -9  762.92   26.50
   2  -2   9  797.32   26.30
  -2   1  -9   50.99    3.70
   2  -1   9   48.70    3.40
   2  -1   9   47.50    4.10
  -2   0  -9  292.17   12.10
   2   0   9  318.87   13.50
  -2  -1  -9   56.09    3.90
   2   1   9   53.89    4.50
  -2  -2  -9  817.52   27.10
   2   2   9  832.92   25.70
   2   2   9  728.53   27.70
   2   2   9  830.22   29.00
  -2  -3  -9   30.10    2.50
   2   3   9   40.20    2.20
  -1   4  -9  409.46   14.30
   1  -4   9  376.66   13.80
  -1   3  -9   24.00    2.50
  -1   3  -9   18.90    1.80
   1  -3   9   23.40    2.40
  -1   2  -9  212.28    8.40
  -1   2  -9  222.18    9.80
   1  -2   9  221.38    9.60
  -1   1  -9  249.58   10.50
  -1   1  -9  232.68    9.10
   1  -1   9  223.78   11.00
   1  -1   9  224.78   10.00
  -1   0  -9  369.56   13.10
  -1   0  -9  347.37   14.30
   1   0   9  371.16   15.80
  -1  -1  -9  223.78   10.20
  -1  -1  -9  238.58    9.10
   1   1   9  238.48   11.50
  -1  -2  -9  222.98    8.80
  -1  -2  -9  237.28   10.10
   1   2   9  220.88   11.00
   1   2   9  234.58    8.70
   1   2   9  235.98    9.80
  -1  -3  -9   18.90    1.70
  -1  -3  -9   21.50    2.20
   1   3   9   20.70    1.70
   1   3   9   22.70    2.30
   1   3   9   21.50    1.80
   1   3   9   17.30    2.40
  -1  -4  -9  387.86   13.60
  -1  -4  -9  366.46   12.80
   1   4   9  395.06   12.90
   1   4   9  385.96   12.90
   0   4  -9  324.37   11.60
   0   4  -9  333.17   12.60
   0  -4   9  342.97   12.40
   0   3  -9  122.39    6.60
   0   3  -9  124.49    5.80
   0  -3   9  140.99    6.70
   0   2  -9  325.27   12.10
   0   2  -9  319.77   13.20
   0  -2   9  333.67   13.30
   0   1  -9  208.88   10.00
   0   1  -9  232.98    9.20
   0  -1   9  220.58   10.10
   0  -1   9  233.88   11.00
   0   0  -9  246.88   11.00
   0   0  -9  255.07   10.00
   0   0   9  261.57   11.10
   0   0   9  256.37   12.30
   0  -1  -9  228.78    9.10
   0  -1  -9  207.98    9.90
   0   1   9  236.98   11.60
   0  -2  -9  329.37   13.00
   0  -2  -9  329.97   12.10
   0   2   9  301.17   14.30
   0   2   9  345.57   11.80
   0   2   9  321.77   12.00
   0  -3  -9  143.29    6.00
   0  -3  -9  150.18    6.70
   0   3   9  124.19    6.70
   0   3   9  128.09    5.80
   0   3   9  127.99    7.50
   0   3   9  133.59    5.80
   0  -4  -9  362.96   12.30
   0  -4  -9  353.46   11.70
   0   4   9  334.47   11.60
   0   4   9  285.07   12.80
   0   4   9  336.27   11.70
   1   5  -9  170.28    6.30
   1   4  -9  463.15   16.60
   1   4  -9  452.45   15.90
  -1  -4   9  476.55   16.50
   1   3  -9   50.99    3.30
   1   3  -9   53.19    3.80
  -1  -3   9   44.30    3.60
   1   2  -9  563.64   20.30
   1   2  -9  548.95   19.30
  -1  -2   9  553.44   20.50
   1   1  -9   71.39    4.10
  -1  -1   9   60.29    4.60
   1   0  -9  909.11   29.20
  -1   0   9  855.61   31.90
  -1   0   9  871.31   30.40
   1  -1  -9   58.69    4.00
   1  -1  -9   59.59    3.70
  -1   1   9   65.69    5.50
  -1   1   9   63.69    4.10
   1  -2  -9  570.44   18.90
   1  -2  -9  558.04   19.20
  -1   2   9  539.35   18.60
  -1   2   9  499.15   21.40
  -1   2   9  539.25   19.10
   1  -3  -9   43.90    2.90
   1  -3  -9   41.50    3.10
  -1   3   9   46.90    3.60
  -1   3   9   51.49    4.50
  -1   3   9   48.10    3.10
  -1   3   9   50.19    3.30
  -1   3   9   51.19    3.00
   1  -4  -9  461.15   15.40
   1  -4  -9  462.25   15.10
  -1   4   9  425.16   14.90
  -1   4   9  401.26   16.70
  -1   4   9  452.45   15.40
  -1   4   9  456.25   16.20
  -1   4   9  435.06   14.90
   1  -5  -9  168.78    6.30
  -1   5   9  176.18    6.40
  -1   5   9  182.98    6.40
   2   5  -9  334.17   11.30
   2   4  -9  270.87   10.20
  -2  -4   9  282.77   12.70
   2   3  -9  349.96   13.50
   2   3  -9  383.66   13.50
  -2  -3   9  362.76   14.10
   2   2  -9  181.28    7.70
   2   2  -9  171.08    7.90
  -2  -2   9  176.48    8.60
   2   1  -9  585.24   21.00
   2   1  -9  582.14   20.40
  -2  -1   9  599.94   21.80
   2   0  -9   30.60    2.60
   2   0  -9   30.40    2.90
  -2   0   9   28.50    2.80
  -2   0   9   33.00    3.80
  -2   0   9   30.10    3.20
   2  -1  -9  572.64   19.90
   2  -1  -9  585.34   20.70
  -2   1   9  603.94   23.20
  -2   1   9  551.24   20.50
  -2   1   9  578.04   21.30
   2  -2  -9  166.98    9.40
   2  -2  -9  177.48    7.40
   2  -2  -9  184.78    8.10
  -2   2   9  178.08    9.90
  -2   2   9  171.58    7.40
  -2   2   9  171.88    8.00
   2  -3  -9  374.16   14.00
   2  -3  -9  392.36   13.40
  -2   3   9  367.56   13.30
  -2   3   9  384.46   16.20
  -2   3   9  367.96   13.90
  -2   3   9  374.76   13.20
  -2   3   9  367.96   14.40
   2  -4  -9  258.47    9.80
   2  -4  -9  251.47    9.20
  -2   4   9  258.07   10.00
  -2   4   9  259.67    9.80
  -2   4   9  254.27    9.30
  -2   4   9  257.37    9.30
  -2   4   9  261.07   10.30
  -2   4   9  237.38   11.10
   2  -5  -9  321.87   11.30
  -2   5   9  329.07   10.90
   3   4  -9  159.58    6.50
   3   4  -9  165.58    6.90
   3   3  -9  530.35   19.20
   3   3  -9  536.05   18.60
  -3  -3   9  565.64   19.60
   3   2  -9  172.28    7.80
   3   2  -9  161.28    7.10
  -3  -2   9  160.38    8.20
   3   1  -9  477.15   17.40
   3   1  -9  431.96   19.10
   3   1  -9  461.15   16.40
  -3  -1   9  480.35   18.10
   3   0  -9  125.99    6.50
   3   0  -9  122.49    5.80
   3   0  -9  104.59    7.60
  -3   0   9  131.09    6.60
  -3   0   9  125.09    7.10
   3  -1  -9  475.25   17.30
   3  -1  -9  451.25   16.30
   3  -1  -9  438.46   19.30
  -3   1   9  488.05   17.40
  -3   1   9  476.85   18.00
  -3   1   9  469.45   19.40
   3  -2  -9  145.59    9.10
   3  -2  -9  161.88    7.00
   3  -2  -9  170.88    7.80
  -3   2   9  170.18    9.60
  -3   2   9  180.08    8.00
  -3   2   9  185.58    8.30
  -3   2   9  169.98    8.40
   3  -3  -9  585.34   18.30
   3  -3  -9  545.95   19.20
  -3   3   9  522.25   21.20
  -3   3   9  552.24   19.60
  -3   3   9  521.15   19.50
  -3   3   9  550.24   18.30
  -3   3   9  551.04   19.20
   3  -4  -9  147.89    6.70
  -3   4   9  164.88    6.30
  -3   4   9  171.58    6.90
  -3   4   9  160.28    8.10
  -3   4   9  160.98    7.10
  -3   4   9  159.68    6.90
   4   4  -9    7.70    1.40
   4   3  -9  203.78    8.20
  -4  -3   9  159.08   10.00
   4   2  -9   16.20    2.00
  -4  -2   9   15.90    2.20
   4   1  -9  262.67   10.60
   4   1  -9  229.78   12.30
  -4  -1   9  259.57   11.20
   4   0  -9   30.10    3.90
   4   0  -9   30.50    3.00
   4   0  -9   40.70    3.20
  -4   0   9   36.90    3.50
  -4   0   9   30.20    3.00
   4  -1  -9  264.77   10.80
   4  -1  -9  254.17   11.10
   4  -1  -9  244.88   12.60
  -4   1   9  270.37   12.40
  -4   1   9  258.67   11.20
  -4   1   9  265.17   10.80
  -4   1   9  260.17   11.40
   4  -2  -9   18.60    2.10
  -4   2   9   15.80    2.10
  -4   2   9   16.10    2.00
  -4   2   9   11.10    2.50
  -4   2   9   15.80    2.20
  -4   3   9  216.08   10.30
  -4   3   9  218.08    7.90
  -4   3   9  215.98    9.00
  -4   3   9  200.88    9.00
  -4   3   9  202.88    8.60
   4  -4  -9    9.10    1.20
  -4   4   9   10.50    1.10
  -4   4   9    7.80    1.30
  -4   4   9    8.00    1.10
  -4   4   9   10.10    1.10
  -4   4   9    8.70    1.30
  -4   4   9    8.10    1.70
   5   3  -9  480.65   16.60
   5   2  -9  158.88    7.20
   5   2  -9  153.08    7.50
  -5  -2   9  182.18    7.50
   5   1  -9  831.62   28.50
   5   1  -9  859.91   28.10
  -5  -1   9  835.32   28.70
   5   0  -9   63.89    4.30
   5   0  -9   58.89    3.90
  -5   0   9   64.29    4.40
  -5   0   9   61.19    4.30
   5  -1  -9  806.52   29.10
   5  -1  -9  864.31   28.50
  -5   1   9  903.51   30.50
  -5   1   9  873.41   29.40
  -5   1   9  851.71   29.40
   5  -2  -9  178.68    7.30
   5  -2  -9  180.08    8.00
  -5   2   9  164.48    7.70
  -5   2   9  169.08    8.60
  -5   2   9  168.18    7.90
  -5   2   9  162.78    7.20
   5  -3  -9  490.25   17.20
   5  -3  -9  489.05   16.40
  -5   3   9  464.55   16.30
  -5   3   9  474.25   17.20
  -5   3   9  491.75   15.70
  -5   3   9  488.85   16.30
  -5   3   9  488.55   18.10
  -5   4   9   49.20    3.80
   6   2  -9   70.09    3.90
   6   2  -9   73.89    3.70
   6   1  -9  212.58    9.10
   6   1  -9  220.48    8.50
  -6  -1   9  224.48    8.90
   6   0  -9    1.00    0.70
   6   0  -9    2.30    0.90
  -6   0   9    1.10    0.70
  -6   0   9    1.40    0.80
   6  -1  -9  226.38    8.30
   6  -1  -9  211.18    9.10
  -6   1   9  210.38    9.10
  -6   1   9  222.68    9.10
   6  -2  -9   75.89    4.90
   6  -2  -9   81.59    4.30
  -6   2   9   76.49    4.10
  -6   2   9   77.69    4.30
  -6   2   9   77.19    4.00
  -2   1 -10  385.26   13.60
  -2   0 -10  175.68    7.00
  -2  -1 -10  348.97   12.70
  -1   2 -10   13.10    1.50
   1  -2  10   12.00    1.40
  -1   1 -10  176.28    6.80
  -1   1 -10  196.78    7.80
   1  -1  10  191.08    7.50
  -1   0 -10    6.40    1.30
  -1   0 -10    6.00    1.00
   1   0  10   11.40    1.80
  -1  -1 -10  192.58    7.10
  -1  -1 -10  201.78    8.00
   1   1  10  188.98    8.70
  -1  -2 -10   11.60    1.30
  -1  -2 -10   11.40    1.10
   0   3 -10  215.38    8.30
   0  -3  10  233.78    8.60
   0   2 -10  218.98    8.60
   0   2 -10  208.08    7.80
   0  -2  10  209.18    8.60
   0   1 -10   36.50    2.80
   0   1 -10   36.00    2.40
   0  -1  10   40.00    2.90
   0   0 -10  464.75   15.70
   0   0 -10  471.65   16.40
   0   0  10  473.55   17.60
   0   0  10  445.36   16.30
   0  -1 -10   41.70    2.80
   0  -1 -10   36.90    2.40
   0   1  10   33.30    3.30
   0  -2 -10  212.98    8.00
   0  -2 -10  226.88    8.50
   0   2  10  214.08    9.60
   0  -3 -10  233.78    8.20
   1   3 -10  272.07    9.40
  -1  -3  10  260.17   10.00
   1   2 -10  384.06   13.20
  -1  -2  10  374.96   14.00
   1   1 -10  351.06   12.60
  -1  -1  10  363.36   13.60
   1   0 -10  173.28    7.30
  -1   0  10  185.08    8.10
  -1   0  10  201.28    9.10
   1  -1 -10  360.46   12.50
  -1   1  10  351.16   14.50
   1  -2 -10  411.06   14.00
  -1   2  10  410.26   16.00
   1  -3 -10  269.77    9.70
  -1   3  10  289.17    9.80
   2   3 -10   82.29    3.70
  -2  -3  10   78.79    4.10
   2   2 -10  181.28    7.10
  -2  -2  10  176.98    7.80
   2   1 -10   11.00    1.40
   2   1 -10   13.10    1.50
  -2  -1  10   16.70    2.00
   2   0 -10  289.57   11.30
   2   0 -10  298.47   10.90
  -2   0  10  316.27   13.00
  -2   0  10  301.47   11.90
   2  -1 -10   16.70    1.70
  -2   1  10   13.60    2.20
  -2   1  10   11.50    1.60
  -2   1  10   11.30    1.70
   2  -2 -10  170.08    7.20
   2  -2 -10  179.98    6.90
  -2   2  10  175.68    7.20
  -2   2  10  185.98    8.80
   2  -3 -10   81.09    3.50
   2  -3 -10   80.69    3.80
  -2   3  10   70.19    5.10
  -2   3  10   82.09    3.80
   3   3 -10   69.29    3.30
  -3  -3  10   76.39    3.80
   3   2 -10  528.75   17.40
   3   2 -10  527.25   17.90
  -3  -2  10  523.05   18.40
   3   1 -10    0.80    0.60
   3   1 -10    2.00    0.70
  -3  -1  10    1.10    0.70
   3   0 -10  750.02   24.60
   3   0 -10  792.62   25.50
  -3   0  10  744.23   25.90
   3  -1 -10    1.40    0.80
   3  -1 -10    1.80    0.70
  -3   1  10    0.70    0.60
  -3   1  10    1.10    1.00
   3  -2 -10  530.15   18.00
   3  -2 -10  503.25   17.20
  -3   2  10  525.15   19.40
  -3   2  10  559.94   18.10
   3  -3 -10   71.89    3.50
  -3   3  10   69.19    3.50
   4   2 -10  110.89    4.90
  -4  -2  10  100.79    4.90
   4   1 -10   11.50    1.40
  -4  -1  10    6.90    1.40
   4   0 -10  136.29    6.00
  -4   0  10  130.69    6.30
   4  -1 -10    8.30    1.50
  -4   1  10   19.00    3.80
  -4   1  10   11.70    1.50
   4  -2 -10  103.29    4.60
   4  -2 -10   89.59    4.90
  -4   2  10   99.19    4.60
   5   1 -10  631.54   20.60
  -5  -1  10  626.54   20.90
   5   0 -10  114.29    5.00
  -5   0  10  113.69    5.30
   5  -1 -10  593.74   19.50
  -5   1  10  598.54   19.90
;
_shelx_hkl_checksum              68528
loop_
_space_group_symop_operation_xyz
'x, y, z'
'-x, y+1/2, -z'
loop_
_atom_site_label
_atom_site_type_symbol
_atom_site_fract_x
_atom_site_fract_y
_atom_site_fract_z
_atom_site_U_iso_or_equiv
_atom_site_adp_type
_atom_site_occupancy
_atom_site_site_symmetry_order
_atom_site_calc_flag
_atom_site_refinement_flags_posn
_atom_site_refinement_flags_adp
Br1 Br 0.05326(2) 0.47702(4) 0.66278(2) 0.02083(9) Uani 1 1 d . .
Cl1 Cl 0.61219(7) 0.53470(8) 0.63586(6) 0.01888(13) Uani 1 1 d . .
O1 O 0.4446(2) 0.2503(3) 0.8273(2) 0.0230(4) Uani 1 1 d . .
H1O H 0.5447 0.2223 0.8174 0.034 Uiso 1 1 calc R U
O2 O 0.2064(2) 0.6581(3) 0.1152(2) 0.0233(4) Uani 1 1 d . .
C1 C 0.4371(3) 0.4372(4) 0.8561(3) 0.0205(6) Uani 1 1 d . .
H1A H 0.5450 0.4743 0.9243 0.025 Uiso 1 1 calc R U
H1B H 0.3413 0.4607 0.9108 0.025 Uiso 1 1 calc R U
C2 C 0.4117(3) 0.5533(4) 0.7107(3) 0.0160(4) Uani 1 1 d . .
C3 C 0.2722(2) 0.4740(4) 0.5840(2) 0.0148(4) Uani 1 1 d . .
H3 H 0.3026 0.3460 0.5665 0.018 Uiso 1 1 calc R U
C4 C 0.2451(3) 0.5728(3) 0.4311(3) 0.0163(5) Uani 1 1 d . .
H4A H 0.3539 0.5710 0.3915 0.020 Uiso 1 1 calc R U
H4B H 0.2168 0.7002 0.4480 0.020 Uiso 1 1 calc R U
C5 C 0.1026(3) 0.4921(4) 0.3104(2) 0.0215(5) Uani 1 1 d . .
H5A H 0.1258 0.3621 0.2996 0.026 Uiso 1 1 calc R U
H5B H -0.0081 0.5034 0.3459 0.026 Uiso 1 1 calc R U
C6 C 0.0866(3) 0.5814(3) 0.1553(3) 0.0161(5) Uani 1 1 d . .
C7 C -0.0857(3) 0.5676(4) 0.0519(3) 0.0209(5) Uani 1 1 d . .
H7A H -0.0830 0.6324 -0.0436 0.031 Uiso 1 1 calc R U
H7B H -0.1736 0.6208 0.1027 0.031 Uiso 1 1 calc R U
H7C H -0.1132 0.4406 0.0292 0.031 Uiso 1 1 calc R U
C8 C 0.3894(4) 0.7498(4) 0.7496(3) 0.0221(5) Uani 1 1 d . .
H8A H 0.2824 0.7645 0.7886 0.033 Uiso 1 1 calc R U
H8B H 0.3846 0.8234 0.6574 0.033 Uiso 1 1 calc R U
H8C H 0.4867 0.7883 0.8279 0.033 Uiso 1 1 calc R U
loop_
_atom_site_aniso_label
_atom_site_aniso_U_11
_atom_site_aniso_U_22
_atom_site_aniso_U_33
_atom_site_aniso_U_23
_atom_site_aniso_U_13
_atom_site_aniso_U_12
Br1 0.01381(12) 0.02739(14) 0.02189(13) 0.00220(10) 0.00489(8) -0.00066(10)
Cl1 0.0124(2) 0.0248(3) 0.0194(2) 0.00087(19) 0.00276(19) 0.00018(19)
O1 0.0175(10) 0.0245(11) 0.0266(10) 0.0082(7) 0.0032(8) 0.0027(6)
O2 0.0194(9) 0.0309(10) 0.0192(9) 0.0010(7) 0.0024(7) -0.0057(8)
C1 0.0174(10) 0.0277(18) 0.0156(10) 0.0022(9) 0.0013(8) 0.0021(9)
C2 0.0117(10) 0.0201(11) 0.0161(11) 0.0007(9) 0.0021(8) -0.0001(9)
C3 0.0111(8) 0.0166(9) 0.0165(9) 0.0005(10) 0.0020(7) 0.0007(10)
C4 0.0160(10) 0.0163(12) 0.0152(11) 0.0021(9) -0.0003(8) -0.0008(9)
C5 0.0225(10) 0.0226(12) 0.0170(10) 0.0025(11) -0.0021(8) -0.0080(11)
C6 0.0151(10) 0.0160(13) 0.0162(11) -0.0029(8) 0.0002(8) 0.0002(9)
C7 0.0170(12) 0.0277(14) 0.0163(11) -0.0024(9) -0.0014(9) -0.0017(10)
C8 0.0240(13) 0.0213(13) 0.0194(12) -0.0042(9) 0.0001(10) -0.0008(10)
loop_
_atom_type_symbol
_atom_type_description
_atom_type_scat_dispersion_real
_atom_type_scat_dispersion_imag
_atom_type_scat_source
C C 0.0181 0.0091 'International Tables Vol C Tables 4.2.6.8 and 6.1.1.4'
H H 0.0000 0.0000 'International Tables Vol C Tables 4.2.6.8 and 6.1.1.4'
O O 0.0492 0.0322 'International Tables Vol C Tables 4.2.6.8 and 6.1.1.4'
Cl Cl 0.3639 0.7018 'International Tables Vol C Tables 4.2.6.8 and 6.1.1.4'
Br Br -0.6763 1.2805 'International Tables Vol C Tables 4.2.6.8 and 6.1.1.4'
loop_
_geom_angle_atom_site_label_1
_geom_angle_atom_site_label_2
_geom_angle_atom_site_label_3
_geom_angle
O1 C1 C2 113.7(2)
C8 C2 C1 110.5(2)
C8 C2 C3 115.9(2)
C1 C2 C3 111.4(2)
C8 C2 Cl1 107.46(17)
C1 C2 Cl1 106.03(16)
C3 C2 Cl1 104.91(15)
C4 C3 C2 115.5(2)
C4 C3 Br1 108.77(15)
C2 C3 Br1 106.98(14)
C3 C4 C5 113.6(2)
C6 C5 C4 113.2(2)
O2 C6 C7 121.5(2)
O2 C6 C5 122.3(2)
C7 C6 C5 116.1(2)
C1 O1 H1O 109.5
O1 C1 H1A 108.8
C2 C1 H1A 108.8
O1 C1 H1B 108.8
C2 C1 H1B 108.8
H1A C1 H1B 107.7
C4 C3 H3 108.5
C2 C3 H3 108.5
Br1 C3 H3 108.5
C3 C4 H4A 108.8
C5 C4 H4A 108.8
C3 C4 H4B 108.8
C5 C4 H4B 108.8
H4A C4 H4B 107.7
C6 C5 H5A 108.9
C4 C5 H5A 108.9
C6 C5 H5B 108.9
C4 C5 H5B 108.9
H5A C5 H5B 107.8
C6 C7 H7A 109.5
C6 C7 H7B 109.5
H7A C7 H7B 109.5
C6 C7 H7C 109.5
H7A C7 H7C 109.5
H7B C7 H7C 109.5
C2 C8 H8A 109.5
C2 C8 H8B 109.5
H8A C8 H8B 109.5
C2 C8 H8C 109.5
H8A C8 H8C 109.5
H8B C8 H8C 109.5
loop_
_geom_bond_atom_site_label_1
_geom_bond_atom_site_label_2
_geom_bond_distance
Br1 C3 1.9881(19)
Cl1 C2 1.838(2)
O1 C1 1.415(3)
O2 C6 1.216(3)
C1 C2 1.536(3)
C2 C8 1.517(4)
C2 C3 1.540(3)
C3 C4 1.524(3)
C4 C5 1.527(3)
C5 C6 1.513(3)
C6 C7 1.500(3)
O1 H1O 0.8400
C1 H1A 0.9900
C1 H1B 0.9900
C3 H3 1.0000
C4 H4A 0.9900
C4 H4B 0.9900
C5 H5A 0.9900
C5 H5B 0.9900
C7 H7A 0.9800
C7 H7B 0.9800
C7 H7C 0.9800
C8 H8A 0.9800
C8 H8B 0.9800
C8 H8C 0.9800
loop_
_geom_hbond_atom_site_label_D
_geom_hbond_atom_site_label_H
_geom_hbond_atom_site_label_A
_geom_hbond_distance_DH
_geom_hbond_distance_HA
_geom_hbond_distance_DA
_geom_hbond_angle_DHA
_geom_hbond_site_symmetry_A
O1 H1O O2 0.84 2.01 2.801(3) 157.1 2_646
loop_
_geom_torsion_atom_site_label_1
_geom_torsion_atom_site_label_2
_geom_torsion_atom_site_label_3
_geom_torsion_atom_site_label_4
_geom_torsion
O1 C1 C2 C8 175.04(19)
O1 C1 C2 C3 44.8(3)
O1 C1 C2 Cl1 -68.8(2)
C8 C2 C3 C4 56.3(3)
C1 C2 C3 C4 -176.3(2)
Cl1 C2 C3 C4 -62.0(2)
C8 C2 C3 Br1 -64.9(2)
C1 C2 C3 Br1 62.5(2)
Cl1 C2 C3 Br1 176.79(13)
C2 C3 C4 C5 -178.6(2)
Br1 C3 C4 C5 -58.3(3)
C3 C4 C5 C6 -175.2(2)
C4 C5 C6 O2 25.2(4)
C4 C5 C6 C7 -155.8(2)
