#------------------------------------------------------------------------------
#$Date: 2019-11-25 05:04:51 +0200 (Mon, 25 Nov 2019) $
#$Revision: 240071 $
#$URL: file:///home/coder/svn-repositories/cod/cif/4/12/93/4129336.cif $
#------------------------------------------------------------------------------
#
# This file is available in the Crystallography Open Database (COD),
# http://www.crystallography.net/
#
# All data on this site have been placed in the public domain by the
# contributors.
#
data_4129336
loop_
_publ_author_name
'Noda, Hidetoshi'
'Bode, Jeffrey W.'
_publ_section_title
;
 Synthesis of chemically and configurationally stable monofluoro
 acylboronates: effect of ligand structure on their formation, properties,
 and reactivities.
;
_journal_issue                   11
_journal_name_full               'Journal of the American Chemical Society'
_journal_page_first              3958
_journal_page_last               3966
_journal_paper_doi               10.1021/jacs.5b00822
_journal_volume                  137
_journal_year                    2015
_chemical_formula_moiety         'C15 H14 B F N2 O3'
_chemical_formula_sum            'C15 H14 B F N2 O3'
_chemical_formula_weight         300.09
_space_group_crystal_system      triclinic
_space_group_IT_number           2
_space_group_name_Hall           '-P 1'
_space_group_name_H-M_alt        'P -1'
_atom_sites_solution_hydrogens   geom
_atom_sites_solution_primary     direct
_audit_creation_date             2014-07-31
_audit_creation_method
;
Olex2 1.2
(compiled 2014.07.22 svn.r2960 for OlexSys, GUI svn.r4862)
;
_cell_angle_alpha                76.366(5)
_cell_angle_beta                 86.963(4)
_cell_angle_gamma                76.196(4)
_cell_formula_units_Z            2
_cell_length_a                   7.7516(6)
_cell_length_b                   9.2538(8)
_cell_length_c                   10.3760(9)
_cell_measurement_reflns_used    6563
_cell_measurement_temperature    100.0(2)
_cell_measurement_theta_max      26.31
_cell_measurement_theta_min      2.33
_cell_volume                     702.42(10)
_computing_cell_refinement       'Bruker SAINT'
_computing_data_collection       'Bruker APEX2'
_computing_data_reduction        'Bruker SAINT'
_computing_molecular_graphics    'Olex2 (Dolomanov et al., 2009)'
_computing_publication_material  'Olex2 (Dolomanov et al., 2009)'
_computing_structure_refinement  'XL (Sheldrick, 2008)'
_computing_structure_solution    'XS (Sheldrick, 2008)'
_diffrn_ambient_temperature      100.0(2)
_diffrn_detector                 'Bruker APEX2 area detector'
_diffrn_detector_area_resol_mean 8.33
_diffrn_detector_type            'CCD area detector'
_diffrn_measured_fraction_theta_full 1.000
_diffrn_measured_fraction_theta_max 0.995
_diffrn_measurement_device       'kappa-stage diffractometer'
_diffrn_measurement_device_type  'Bruker/Nonius Kappa Apex2'
_diffrn_measurement_method       '\w and \f scans'
_diffrn_radiation_monochromator  graphite
_diffrn_radiation_probe          x-ray
_diffrn_radiation_type           MoK\a
_diffrn_radiation_wavelength     0.71073
_diffrn_reflns_av_unetI/netI     0.0376
_diffrn_reflns_Laue_measured_fraction_full 1.000
_diffrn_reflns_Laue_measured_fraction_max 0.995
_diffrn_reflns_limit_h_max       10
_diffrn_reflns_limit_h_min       -9
_diffrn_reflns_limit_k_max       12
_diffrn_reflns_limit_k_min       -11
_diffrn_reflns_limit_l_max       13
_diffrn_reflns_limit_l_min       0
_diffrn_reflns_number            3235
_diffrn_reflns_point_group_measured_fraction_full 1.000
_diffrn_reflns_point_group_measured_fraction_max 0.995
_diffrn_reflns_theta_full        25.242
_diffrn_reflns_theta_max         27.604
_diffrn_reflns_theta_min         2.329
_diffrn_source                   'sealed tube'
_diffrn_standards_number         0
_exptl_absorpt_coefficient_mu    0.107
_exptl_absorpt_correction_T_max  0.8621
_exptl_absorpt_correction_T_min  0.8083
_exptl_absorpt_correction_type   multi-scan
_exptl_absorpt_process_details
;
 TWINABS-2012/1 (Bruker,2012) was used for absorption correction.
 
For component 1:
 wR2(int) was 0.0636 before and 0.0547 after correction.
 The Ratio of minimum to maximum transmission not present.
 The \l/2 correction factor is Not present
 
For component 2:
 wR2(int) was 0.0964 before and 0.0609 after correction.
 The Ratio of minimum to maximum transmission is 0.94.
 The \l/2 correction factor is Not present

Final HKLF 4 output contains 42082 reflections, Rint = 0.0522
 (18272 with I > 3sig(I), Rint = 0.0411)
;
_exptl_crystal_colour            'clear light yellow'
_exptl_crystal_colour_lustre     clear
_exptl_crystal_colour_modifier   light
_exptl_crystal_colour_primary    yellow
_exptl_crystal_density_diffrn    1.419
_exptl_crystal_description       plate
_exptl_crystal_F_000             312
_exptl_crystal_size_max          0.3
_exptl_crystal_size_mid          0.12
_exptl_crystal_size_min          0.08
_refine_diff_density_max         0.351
_refine_diff_density_min         -0.261
_refine_diff_density_rms         0.052
_refine_ls_extinction_method     none
_refine_ls_goodness_of_fit_ref   1.076
_refine_ls_hydrogen_treatment    constr
_refine_ls_matrix_type           full
_refine_ls_number_parameters     202
_refine_ls_number_reflns         3235
_refine_ls_number_restraints     0
_refine_ls_restrained_S_all      1.076
_refine_ls_R_factor_all          0.0565
_refine_ls_R_factor_gt           0.0429
_refine_ls_shift/su_max          0.000
_refine_ls_shift/su_mean         0.000
_refine_ls_structure_factor_coef Fsqd
_refine_ls_weighting_details
'w=1/[\s^2^(Fo^2^)+(0.0392P)^2^+0.1661P] where P=(Fo^2^+2Fc^2^)/3'
_refine_ls_weighting_scheme      calc
_refine_ls_wR_factor_gt          0.0903
_refine_ls_wR_factor_ref         0.0953
_reflns_Friedel_coverage         0.000
_reflns_number_gt                2627
_reflns_number_total             3235
_reflns_threshold_expression     'I > 2\s(I)'
_cod_data_source_file            ja5b00822_si_006.cif
_cod_data_source_block           jb280714_0m
_cod_database_code               4129336
_shelxl_version_number           2014-3
_shelx_space_group_comment
;
The symmetry employed for this shelxl refinement is uniquely defined
by the following loop, which should always be used as a source of
symmetry information in preference to the above space-group names.
They are only intended as comments.
;
_shelx_estimated_absorpt_t_max   0.991
_shelx_estimated_absorpt_t_min   0.969
_olex2_refinement_description
;
1. Fixed Uiso
 At 1.2 times of:
  All C(H) groups
 At 1.5 times of:
  All C(H,H,H) groups
2.a Aromatic/amide H refined with riding coordinates:
 C1(H1), C3(H3), C7(H7), C8(H8), C11(H11), C12(H12), C14(H14), C15(H15)
2.b Idealised Me refined as rotating group:
 C10(H10A,H10B,H10C), C16(H16A,H16B,H16C)
;
_shelx_res_file
;
TITL jb280714_0m in P-1
CELL 0.71073 7.7516 9.2538 10.376 76.366 86.963 76.196
ZERR 2 0.0006 0.0008 0.0009 0.005 0.004 0.004
LATT 1
 
SFAC C H N O B F
UNIT 30 28 4 6 2 2
 
L.S. 6
PLAN  -4 0 0
SIZE 0.08 0.12 0.3
TEMP -173.14
HTAB
BOND $H
CONF
MORE -1
fmap 2
acta
OMIT 0 0 1
REM <HKL>D:/SMoCC_Strukturen/jb280714/work/jb280714.hkp</HKL>
 
WGHT    0.039200    0.166100
BASF   0.37330
FVAR       1.24050
F1    6    0.614077    0.793871    0.005320    11.00000    0.02042    0.03632 =
         0.01999   -0.00755    0.00188   -0.01313
O1    4    0.151193    0.451270    0.187428    11.00000    0.02531    0.02066 =
         0.02767   -0.00087   -0.00480   -0.01136
O2    4    0.552208    0.565496    0.113949    11.00000    0.01451    0.02288 =
         0.02323   -0.00852   -0.00034   -0.00343
O3    4    0.320070    0.866935    0.255469    11.00000    0.01648    0.02956 =
         0.02321   -0.00912   -0.00026   -0.00113
N1    3    0.307802    0.774961    0.015670    11.00000    0.01553    0.01718 =
         0.01337   -0.00324   -0.00100   -0.00439
N2    3    0.426222    0.494328    0.187305    11.00000    0.01884    0.01894 =
         0.02007   -0.00069   -0.00517   -0.00449
C1    1   -0.009652    0.844469   -0.115904    11.00000    0.01642    0.02374 =
         0.01748   -0.00746   -0.00432   -0.00022
AFIX  43
H1    2   -0.118694    0.867986   -0.162603    11.00000   -1.20000
AFIX   0
C3    1    0.042749    0.707335   -0.024783    11.00000    0.01669    0.01922 =
         0.02067   -0.00825   -0.00146   -0.00412
AFIX  43
H3    2   -0.030869    0.636298   -0.006708    11.00000   -1.20000
AFIX   0
C4    1    0.203499    0.674278    0.039999    11.00000    0.01578    0.01687 =
         0.01516   -0.00678    0.00058   -0.00416
C5    1    0.466850    0.798967    0.224352    11.00000    0.01727    0.01508 =
         0.01774   -0.00030   -0.00210   -0.00555
C6    1    0.625122    0.784662    0.306658    11.00000    0.01771    0.01854 =
         0.01238    0.00014    0.00019   -0.00623
C7    1    0.616668    0.880377    0.392567    11.00000    0.01846    0.02669 =
         0.02256   -0.01020    0.00140   -0.00390
AFIX  43
H7    2    0.509533    0.953711    0.399340    11.00000   -1.20000
AFIX   0
C8    1    0.762461    0.870491    0.468706    11.00000    0.02455    0.03262 =
         0.01995   -0.01279    0.00103   -0.00863
AFIX  43
H8    2    0.754267    0.937779    0.526371    11.00000   -1.20000
AFIX   0
C9    1    0.919567    0.764086    0.461872    11.00000    0.02110    0.02417 =
         0.01479   -0.00012   -0.00135   -0.00942
C10   1    1.076956    0.751214    0.546634    11.00000    0.02530    0.03751 =
         0.02112   -0.00616   -0.00503   -0.01074
AFIX 137
H10A  2    1.068673    0.848869    0.570731    11.00000   -1.50000
H10B  2    1.186744    0.725726    0.496977    11.00000   -1.50000
H10C  2    1.077802    0.670677    0.627314    11.00000   -1.50000
AFIX   0
C11   1    0.096965    0.946778   -0.138635    11.00000    0.02425    0.01914 =
         0.01336   -0.00114   -0.00166   -0.00182
AFIX  43
H11   2    0.062182    1.042166   -0.200603    11.00000   -1.20000
AFIX   0
C12   1    0.255199    0.909335   -0.070379    11.00000    0.02400    0.02045 =
         0.01502   -0.00222    0.00088   -0.00867
AFIX  43
H12   2    0.328379    0.980633   -0.084859    11.00000   -1.20000
AFIX   0
C13   1    0.259310    0.527883    0.142436    11.00000    0.01978    0.01701 =
         0.01694   -0.00650   -0.00286   -0.00357
C14   1    0.784838    0.680050    0.297432    11.00000    0.02070    0.01529 =
         0.01728   -0.00265   -0.00137   -0.00538
AFIX  43
H14   2    0.795006    0.615551    0.237120    11.00000   -1.20000
AFIX   0
C15   1    0.929078    0.669198    0.375449    11.00000    0.01880    0.01799 =
         0.02067   -0.00123   -0.00304   -0.00229
AFIX  43
H15   2    1.036160    0.595464    0.369506    11.00000   -1.20000
AFIX   0
C16   1    0.501530    0.356793    0.284046    11.00000    0.02850    0.02494 =
         0.03013    0.00179   -0.01022    0.00149
AFIX 137
H16A  2    0.585054    0.285988    0.240364    11.00000   -1.50000
H16B  2    0.406419    0.308600    0.325515    11.00000   -1.50000
H16C  2    0.564370    0.382187    0.352100    11.00000   -1.50000
AFIX   0
B1    5    0.494999    0.730967    0.091322    11.00000    0.01338    0.02294 =
         0.01732   -0.00443   -0.00210   -0.00593
HKLF 5
 
REM  jb280714_0m in P-1
REM R1 =  0.0429 for    2627 Fo > 4sig(Fo)  and  0.0565 for all    3235 data
REM    202 parameters refined using      0 restraints
 
END  
     
WGHT      0.0392      0.1661 

REM Instructions for potential hydrogen bonds
EQIV $1 -x, -y+1, -z
HTAB C3 O1_$1
EQIV $2 -x+1, -y+2, -z
HTAB C12 F1_$2

REM Highest difference peak  0.351,  deepest hole -0.261,  1-sigma level  0.052
Q1    1   0.4750  0.7626  0.1601  11.00000  0.05    0.35
Q2    1   0.3957  0.7654  0.0572  11.00000  0.05    0.31
Q3    1   0.2362  0.5937  0.0757  11.00000  0.05    0.23
Q4    1   0.7124  0.7629  0.2800  11.00000  0.05    0.23

REM The information below was added by Olex2.
REM
REM R1 = 0.0429 for 2627 Fo > 4sig(Fo) and 0.0565 for all 3236 data
REM n/a parameters refined using n/a restraints
REM Highest difference peak 0.35, deepest hole -0.26
REM Mean Shift 0, Max Shift 0.000.

REM +++ Tabular Listing of Refinement Information +++
REM R1_all = 0.0565
REM R1_gt = 0.0429
REM wR_ref = 0.0953
REM GOOF = 1.076
REM Shift_max = 0.000
REM Shift_mean = 0
REM Reflections_all = 3236
REM Reflections_gt = 2627
REM Parameters = n/a
REM Hole = -0.26
REM Peak = 0.35
REM Flack = n/a

;
_olex2_submission_original_sample_id jb280714
_olex2_submission_special_instructions 'No special instructions were received'
loop_
_space_group_symop_operation_xyz
'x, y, z'
'-x, -y, -z'
loop_
_atom_site_label
_atom_site_type_symbol
_atom_site_fract_x
_atom_site_fract_y
_atom_site_fract_z
_atom_site_U_iso_or_equiv
_atom_site_adp_type
_atom_site_occupancy
_atom_site_site_symmetry_order
_atom_site_calc_flag
_atom_site_refinement_flags_posn
F1 F 0.61408(12) 0.79387(12) 0.00532(10) 0.0243(2) Uani 1 1 d .
O1 O 0.15119(16) 0.45127(14) 0.18743(12) 0.0241(3) Uani 1 1 d .
O2 O 0.55221(14) 0.56550(13) 0.11395(12) 0.0198(3) Uani 1 1 d .
O3 O 0.32007(15) 0.86694(14) 0.25547(12) 0.0233(3) Uani 1 1 d .
N1 N 0.30780(16) 0.77496(15) 0.01567(13) 0.0153(3) Uani 1 1 d .
N2 N 0.42622(18) 0.49433(16) 0.18731(14) 0.0197(3) Uani 1 1 d .
C1 C -0.0097(2) 0.84447(19) -0.11590(16) 0.0194(4) Uani 1 1 d .
H1 H -0.1187 0.8680 -0.1626 0.023 Uiso 1 1 calc R
C3 C 0.0427(2) 0.70734(19) -0.02478(17) 0.0182(4) Uani 1 1 d .
H3 H -0.0309 0.6363 -0.0067 0.022 Uiso 1 1 calc R
C4 C 0.2035(2) 0.67428(18) 0.04000(16) 0.0154(3) Uani 1 1 d .
C5 C 0.4669(2) 0.79897(18) 0.22435(16) 0.0169(3) Uani 1 1 d .
C6 C 0.6251(2) 0.78466(19) 0.30666(15) 0.0165(4) Uani 1 1 d .
C7 C 0.6167(2) 0.8804(2) 0.39257(17) 0.0221(4) Uani 1 1 d .
H7 H 0.5095 0.9537 0.3993 0.026 Uiso 1 1 calc R
C8 C 0.7625(2) 0.8705(2) 0.46871(17) 0.0243(4) Uani 1 1 d .
H8 H 0.7543 0.9378 0.5264 0.029 Uiso 1 1 calc R
C9 C 0.9196(2) 0.7641(2) 0.46187(17) 0.0200(4) Uani 1 1 d .
C10 C 1.0770(2) 0.7512(2) 0.54663(18) 0.0273(4) Uani 1 1 d .
H10A H 1.0687 0.8489 0.5707 0.041 Uiso 1 1 calc GR
H10B H 1.1867 0.7257 0.4970 0.041 Uiso 1 1 calc GR
H10C H 1.0778 0.6707 0.6273 0.041 Uiso 1 1 calc GR
C11 C 0.0970(2) 0.9468(2) -0.13864(16) 0.0199(4) Uani 1 1 d .
H11 H 0.0622 1.0422 -0.2006 0.024 Uiso 1 1 calc R
C12 C 0.2552(2) 0.9093(2) -0.07038(16) 0.0196(4) Uani 1 1 d .
H12 H 0.3284 0.9806 -0.0849 0.023 Uiso 1 1 calc R
C13 C 0.2593(2) 0.52788(19) 0.14244(16) 0.0175(3) Uani 1 1 d .
C14 C 0.7848(2) 0.68005(19) 0.29743(16) 0.0177(4) Uani 1 1 d .
H14 H 0.7950 0.6156 0.2371 0.021 Uiso 1 1 calc R
C15 C 0.9291(2) 0.6692(2) 0.37545(17) 0.0199(4) Uani 1 1 d .
H15 H 1.0362 0.5955 0.3695 0.024 Uiso 1 1 calc R
C16 C 0.5015(2) 0.3568(2) 0.28405(19) 0.0302(4) Uani 1 1 d .
H16A H 0.5851 0.2860 0.2404 0.045 Uiso 1 1 calc GR
H16B H 0.4064 0.3086 0.3255 0.045 Uiso 1 1 calc GR
H16C H 0.5644 0.3822 0.3521 0.045 Uiso 1 1 calc GR
B1 B 0.4950(2) 0.7310(2) 0.09132(18) 0.0175(4) Uani 1 1 d .
loop_
_atom_site_aniso_label
_atom_site_aniso_U_11
_atom_site_aniso_U_22
_atom_site_aniso_U_33
_atom_site_aniso_U_23
_atom_site_aniso_U_13
_atom_site_aniso_U_12
F1 0.0204(5) 0.0363(6) 0.0200(5) -0.0075(5) 0.0019(4) -0.0131(4)
O1 0.0253(6) 0.0207(6) 0.0277(7) -0.0009(5) -0.0048(5) -0.0114(5)
O2 0.0145(6) 0.0229(6) 0.0232(6) -0.0085(5) -0.0003(5) -0.0034(5)
O3 0.0165(6) 0.0296(7) 0.0232(7) -0.0091(6) -0.0003(5) -0.0011(5)
N1 0.0155(7) 0.0172(7) 0.0134(7) -0.0032(6) -0.0010(5) -0.0044(6)
N2 0.0188(7) 0.0189(8) 0.0201(7) -0.0007(6) -0.0052(6) -0.0045(6)
C1 0.0164(8) 0.0237(9) 0.0175(8) -0.0075(7) -0.0043(6) -0.0002(7)
C3 0.0167(8) 0.0192(9) 0.0207(9) -0.0082(7) -0.0015(7) -0.0041(7)
C4 0.0158(8) 0.0169(8) 0.0152(8) -0.0068(7) 0.0006(6) -0.0042(7)
C5 0.0173(8) 0.0151(8) 0.0177(8) -0.0003(7) -0.0021(6) -0.0055(7)
C6 0.0177(8) 0.0185(9) 0.0124(8) 0.0001(7) 0.0002(6) -0.0062(7)
C7 0.0185(8) 0.0267(10) 0.0226(9) -0.0102(8) 0.0014(7) -0.0039(7)
C8 0.0246(9) 0.0326(10) 0.0199(9) -0.0128(8) 0.0010(7) -0.0086(8)
C9 0.0211(9) 0.0242(9) 0.0148(8) -0.0001(7) -0.0014(7) -0.0094(7)
C10 0.0253(9) 0.0375(11) 0.0211(9) -0.0062(9) -0.0050(8) -0.0107(8)
C11 0.0242(9) 0.0191(9) 0.0134(8) -0.0011(7) -0.0017(6) -0.0018(7)
C12 0.0240(9) 0.0204(9) 0.0150(8) -0.0022(7) 0.0009(7) -0.0087(7)
C13 0.0198(8) 0.0170(8) 0.0169(8) -0.0065(7) -0.0029(6) -0.0036(7)
C14 0.0207(8) 0.0153(8) 0.0173(8) -0.0026(7) -0.0014(6) -0.0054(7)
C15 0.0188(8) 0.0180(9) 0.0207(9) -0.0012(7) -0.0030(7) -0.0023(7)
C16 0.0285(10) 0.0249(10) 0.0301(11) 0.0018(9) -0.0102(8) 0.0015(8)
B1 0.0134(8) 0.0229(10) 0.0173(9) -0.0044(8) -0.0021(7) -0.0059(7)
loop_
_atom_type_symbol
_atom_type_description
_atom_type_scat_dispersion_real
_atom_type_scat_dispersion_imag
_atom_type_scat_source
C C 0.0033 0.0016 'International Tables Vol C Tables 4.2.6.8 and 6.1.1.4'
H H 0.0000 0.0000 'International Tables Vol C Tables 4.2.6.8 and 6.1.1.4'
N N 0.0061 0.0033 'International Tables Vol C Tables 4.2.6.8 and 6.1.1.4'
O O 0.0106 0.0060 'International Tables Vol C Tables 4.2.6.8 and 6.1.1.4'
B B 0.0013 0.0007 'International Tables Vol C Tables 4.2.6.8 and 6.1.1.4'
F F 0.0171 0.0103 'International Tables Vol C Tables 4.2.6.8 and 6.1.1.4'
loop_
_geom_angle_atom_site_label_1
_geom_angle_atom_site_label_2
_geom_angle_atom_site_label_3
_geom_angle
N2 O2 B1 111.20(12)
C4 N1 B1 119.10(13)
C12 N1 C4 120.07(13)
C12 N1 B1 120.84(14)
O2 N2 C16 114.15(13)
C13 N2 O2 119.97(13)
C13 N2 C16 123.08(14)
C3 C1 H1 120.3
C11 C1 H1 120.3
C11 C1 C3 119.45(15)
C1 C3 H3 120.4
C1 C3 C4 119.27(15)
C4 C3 H3 120.4
N1 C4 C3 120.67(15)
N1 C4 C13 119.48(14)
C3 C4 C13 119.80(15)
O3 C5 C6 119.26(15)
O3 C5 B1 121.65(14)
C6 C5 B1 119.02(14)
C7 C6 C5 119.84(15)
C7 C6 C14 118.19(15)
C14 C6 C5 121.95(15)
C6 C7 H7 119.6
C8 C7 C6 120.87(16)
C8 C7 H7 119.6
C7 C8 H8 119.6
C9 C8 C7 120.89(16)
C9 C8 H8 119.6
C8 C9 C10 120.90(17)
C8 C9 C15 118.43(15)
C15 C9 C10 120.66(16)
C9 C10 H10A 109.5
C9 C10 H10B 109.5
C9 C10 H10C 109.5
H10A C10 H10B 109.5
H10A C10 H10C 109.5
H10B C10 H10C 109.5
C1 C11 H11 120.4
C1 C11 C12 119.12(16)
C12 C11 H11 120.4
N1 C12 C11 121.39(16)
N1 C12 H12 119.3
C11 C12 H12 119.3
O1 C13 N2 123.37(15)
O1 C13 C4 120.32(14)
N2 C13 C4 116.11(14)
C6 C14 H14 119.7
C15 C14 C6 120.57(16)
C15 C14 H14 119.7
C9 C15 C14 121.01(16)
C9 C15 H15 119.5
C14 C15 H15 119.5
N2 C16 H16A 109.5
N2 C16 H16B 109.5
N2 C16 H16C 109.5
H16A C16 H16B 109.5
H16A C16 H16C 109.5
H16B C16 H16C 109.5
F1 B1 O2 108.04(14)
F1 B1 N1 107.76(13)
F1 B1 C5 111.42(14)
O2 B1 N1 105.12(13)
O2 B1 C5 115.57(14)
N1 B1 C5 108.50(13)
loop_
_geom_bond_atom_site_label_1
_geom_bond_atom_site_label_2
_geom_bond_distance
F1 B1 1.383(2)
O1 C13 1.228(2)
O2 N2 1.3995(18)
O2 B1 1.454(2)
O3 C5 1.2287(19)
N1 C4 1.346(2)
N1 C12 1.335(2)
N1 B1 1.605(2)
N2 C13 1.338(2)
N2 C16 1.440(2)
C1 H1 0.9500
C1 C3 1.378(2)
C1 C11 1.372(2)
C3 H3 0.9500
C3 C4 1.381(2)
C4 C13 1.497(2)
C5 C6 1.494(2)
C5 B1 1.631(3)
C6 C7 1.386(2)
C6 C14 1.392(2)
C7 H7 0.9500
C7 C8 1.386(2)
C8 H8 0.9500
C8 C9 1.382(3)
C9 C10 1.507(2)
C9 C15 1.383(2)
C10 H10A 0.9800
C10 H10B 0.9800
C10 H10C 0.9800
C11 H11 0.9500
C11 C12 1.378(2)
C12 H12 0.9500
C14 H14 0.9500
C14 C15 1.385(2)
C15 H15 0.9500
C16 H16A 0.9800
C16 H16B 0.9800
C16 H16C 0.9800
loop_
_geom_torsion_atom_site_label_1
_geom_torsion_atom_site_label_2
_geom_torsion_atom_site_label_3
_geom_torsion_atom_site_label_4
_geom_torsion
O2 N2 C13 O1 166.15(15)
O2 N2 C13 C4 -19.0(2)
O3 C5 C6 C7 -17.7(2)
O3 C5 C6 C14 164.17(15)
O3 C5 B1 F1 120.57(17)
O3 C5 B1 O2 -115.63(17)
O3 C5 B1 N1 2.1(2)
N1 C4 C13 O1 163.62(15)
N1 C4 C13 N2 -11.4(2)
N2 O2 B1 F1 -172.78(12)
N2 O2 B1 N1 -57.93(15)
N2 O2 B1 C5 61.65(17)
C1 C3 C4 N1 0.6(2)
C1 C3 C4 C13 178.03(15)
C1 C11 C12 N1 1.0(3)
C3 C1 C11 C12 0.5(2)
C3 C4 C13 O1 -13.9(2)
C3 C4 C13 N2 171.09(15)
C4 N1 C12 C11 -1.8(2)
C4 N1 B1 F1 145.35(14)
C4 N1 B1 O2 30.30(19)
C4 N1 B1 C5 -93.88(17)
C5 C6 C7 C8 -179.21(16)
C5 C6 C14 C15 -179.79(16)
C6 C5 B1 F1 -56.4(2)
C6 C5 B1 O2 67.4(2)
C6 C5 B1 N1 -174.93(13)
C6 C7 C8 C9 -0.6(3)
C6 C14 C15 C9 -1.5(3)
C7 C6 C14 C15 2.0(2)
C7 C8 C9 C10 -178.78(18)
C7 C8 C9 C15 1.1(3)
C8 C9 C15 C14 0.0(3)
C10 C9 C15 C14 179.84(17)
C11 C1 C3 C4 -1.3(2)
C12 N1 C4 C3 1.0(2)
C12 N1 C4 C13 -176.51(15)
C12 N1 B1 F1 -34.7(2)
C12 N1 B1 O2 -149.70(14)
C12 N1 B1 C5 86.12(18)
C14 C6 C7 C8 -1.0(3)
C16 N2 C13 O1 6.3(3)
C16 N2 C13 C4 -178.88(16)
B1 O2 N2 C13 57.43(19)
B1 O2 N2 C16 -140.98(15)
B1 N1 C4 C3 -179.02(15)
B1 N1 C4 C13 3.5(2)
B1 N1 C12 C11 178.23(15)
B1 C5 C6 C7 159.40(15)
B1 C5 C6 C14 -18.7(2)
loop_
_refln_index_h
_refln_index_k
_refln_index_l
_refln_F_squared_meas
_refln_F_squared_sigma
_refln_scale_group_code
1 0 0 541.024 3.07622 -2
1 0 0 541.024 3.07622 1
2 0 0 605.651 3.64004 -2
2 0 0 605.651 3.64004 1
3 0 0 10.4568 0.63397 -2
3 0 0 10.4568 0.63397 1
4 0 0 37.0574 1.03366 -2
4 0 0 37.0574 1.03366 1
5 0 0 3.82385 1.31447 -2
5 0 0 3.82385 1.31447 1
6 0 0 126.156 3.58879 -2
6 0 0 126.156 3.58879 1
7 0 0 166.112 6.14339 -2
7 0 0 166.112 6.14339 1
8 0 0 5.1313 5.31143 -2
8 0 0 5.1313 5.31143 1
9 0 0 13.6995 6.49116 -2
9 0 0 13.6995 6.49116 1
-9 1 0 7.92349 4.83646 1
-8 1 0 86.2925 9.69911 1
-7 1 0 393.326 10.5349 1
-6 1 0 255.983 3.6809 1
-5 1 0 107.359 2.42477 1
-4 1 0 473.95 4.69761 1
-3 1 0 2813.93 14.2573 1
-2 1 0 623.937 4.53764 1
-1 1 0 168.334 1.67983 1
0 1 0 111.939 1.08464 1
1 1 0 20.9756 0.82629 1
2 1 0 45.4285 1.43325 1
3 1 0 178.149 2.42247 1
4 1 0 154.536 2.31142 1
5 1 0 -0.1607 0.4849 1
6 1 0 244.077 4.1947 1
7 1 0 122.191 4.83734 1
8 1 0 28.1508 3.7843 1
9 1 0 0.09258 2.88171 1
-9 2 1 120.966 13.3157 -2
-9 2 0 120.966 13.3157 1
-8 2 1 39.6894 8.65477 -2
-8 2 0 39.6894 8.65477 1
-7 2 1 70.0941 2.81833 -2
-7 2 0 70.0941 2.81833 1
-6 2 1 203.454 4.49237 -2
-6 2 0 203.454 4.49237 1
-5 2 1 195.202 3.1617 -2
-5 2 0 195.202 3.1617 1
-4 2 1 109.352 2.55862 -2
-4 2 0 109.352 2.55862 1
-3 2 1 320.719 4.7589 -2
-3 2 0 320.719 4.7589 1
-2 2 1 639.75 11.031 -2
-2 2 0 639.75 11.031 1
-1 2 0 225.291 2.75624 1
0 2 1 2244.33 42.2398 -2
0 2 0 2244.33 42.2398 1
1 2 1 261.796 3.39445 -2
1 2 0 261.796 3.39445 1
2 2 1 148.223 2.89341 -2
2 2 0 148.223 2.89341 1
3 2 1 757.263 8.71609 -2
3 2 0 757.263 8.71609 1
4 2 1 242.973 3.52187 -2
4 2 0 242.973 3.52187 1
5 2 1 70.8667 2.33512 -2
5 2 0 70.8667 2.33512 1
6 2 1 947.83 9.06012 -2
6 2 0 947.83 9.06012 1
7 2 1 1010 12.9417 -2
7 2 0 1010 12.9417 1
8 2 1 90.137 4.57018 -2
8 2 0 90.137 4.57018 1
9 2 1 9.75733 4.32698 -2
9 2 0 9.75733 4.32698 1
10 2 1 94.0226 8.73513 -2
10 2 0 94.0226 8.73513 1
-8 3 0 11.6032 3.43858 1
-7 3 0 7.34881 2.27053 1
-6 3 0 25.4201 2.41803 1
-5 3 0 0.09207 0.82487 1
-4 3 0 2.59846 0.86212 1
-3 3 0 146.852 3.34209 1
-2 3 0 139.666 2.78884 1
-1 3 0 941.367 7.778 1
0 3 0 1110.87 6.89764 1
1 3 0 1007.21 5.41962 1
2 3 0 1.57206 0.38528 1
3 3 0 967.972 9.20625 1
4 3 0 743.675 8.11508 1
5 3 0 217.386 3.64413 1
6 3 0 105.047 3.61104 1
7 3 0 1032.83 11.9089 1
8 3 0 55.648 3.33011 1
9 3 0 11.0325 2.72252 1
10 3 0 2.23747 2.86402 1
-8 4 2 66.619 9.19289 -2
-8 4 0 66.619 9.19289 1
-7 4 2 31.6091 6.38834 -2
-7 4 0 31.6091 6.38834 1
-6 4 2 102.293 6.0217 -2
-6 4 0 102.293 6.0217 1
-5 4 2 80.1492 5.19697 -2
-5 4 0 80.1492 5.19697 1
-4 4 2 4.23669 5.19117 -2
-4 4 0 4.23669 5.19117 1
-3 4 0 394.798 5.65748 1
-2 4 0 107.689 3.25845 1
-1 4 2 297.269 12.5579 -2
-1 4 0 297.269 12.5579 1
0 4 0 86.0863 2.08458 1
1 4 2 314.872 9.35855 -2
1 4 0 314.872 9.35855 1
2 4 2 248.583 4.44942 -2
2 4 0 248.583 4.44942 1
3 4 2 646.316 8.37224 -2
3 4 0 646.316 8.37224 1
4 4 2 855.245 10.8182 -2
4 4 0 855.245 10.8182 1
5 4 2 115.515 2.84191 -2
5 4 0 115.515 2.84191 1
6 4 2 938.827 13.4186 -2
6 4 0 938.827 13.4186 1
7 4 2 27.9402 3.11907 -2
7 4 0 27.9402 3.11907 1
8 4 2 25.5617 2.0607 -2
8 4 0 25.5617 2.0607 1
9 4 2 16.2845 2.57023 -2
9 4 0 16.2845 2.57023 1
-7 5 0 78.5702 8.56086 1
-6 5 0 5.43184 2.4375 1
-5 5 0 127.923 6.47703 1
-4 5 0 363.285 6.94901 1
-3 5 0 54.8535 2.95739 1
-2 5 0 31.2166 1.76626 1
-1 5 0 210.737 3.43893 1
0 5 0 117.571 2.78265 1
1 5 0 156.548 2.51068 1
2 5 0 502.95 4.43853 1
3 5 0 10.7334 1.01413 1
4 5 0 4.37873 0.70697 1
5 5 0 92.2867 2.40787 1
6 5 0 180.767 5.61539 1
7 5 0 33.6592 3.02191 1
8 5 0 1.13226 0.86737 1
9 5 0 -0.3196 1.18197 1
-7 6 3 85.4558 14.9141 -2
-7 6 0 85.4558 14.9141 1
-6 6 3 132.879 17.1013 -2
-6 6 0 132.879 17.1013 1
-5 6 0 53.2902 4.99183 1
-4 6 0 183.514 7.9439 1
-3 6 3 75.505 7.42221 -2
-3 6 0 75.505 7.42221 1
-2 6 0 65.8086 2.75802 1
-1 6 0 1.66658 0.74552 1
0 6 0 6.13925 1.02164 1
1 6 3 0.02793 3.241 -2
1 6 0 0.02793 3.241 1
2 6 3 94.7884 5.22563 -2
2 6 0 94.7884 5.22563 1
3 6 3 110.381 3.79159 -2
3 6 0 110.381 3.79159 1
4 6 3 148.381 4.99646 -2
4 6 0 148.381 4.99646 1
5 6 3 294.278 6.81585 -2
5 6 0 294.278 6.81585 1
6 6 3 123.59 4.86198 -2
6 6 0 123.59 4.86198 1
7 6 3 42.6017 2.70769 -2
7 6 0 42.6017 2.70769 1
8 6 3 66.9468 3.3614 -2
8 6 0 66.9468 3.3614 1
9 6 3 33.2528 2.37952 -2
9 6 0 33.2528 2.37952 1
-6 7 4 13.0371 12.9079 -2
-6 7 0 13.0371 12.9079 1
-5 7 0 5.067 4.89813 1
-4 7 0 35.5818 5.70505 1
-3 7 0 6.00803 3.18327 1
-2 7 0 0.41888 1.04988 1
-1 7 0 140.375 3.978 1
0 7 0 54.7314 2.63569 1
1 7 0 34.7506 1.91461 1
2 7 0 0.75153 0.78074 1
3 7 0 13.3148 1.14415 1
4 7 0 37.8099 2.47994 1
5 7 0 13.3652 2.32337 1
6 7 0 130.774 4.77612 1
7 7 0 0.30277 1.2646 1
8 7 0 31.1015 2.71889 1
9 7 0 31.4836 3.02195 1
-5 8 0 -4.7618 3.8924 1
-4 8 0 5.75704 4.10301 1
-3 8 0 49.3838 7.14682 1
-2 8 0 5.96732 3.45432 1
-1 8 0 34.3614 2.99973 1
0 8 0 9.37024 1.66933 1
1 8 0 14.6976 1.6368 1
2 8 0 -0.0097 0.99983 1
3 8 4 669.357 11.6007 -2
3 8 0 669.357 11.6007 1
4 8 0 8.09418 2.2731 1
5 8 0 179.221 9.41335 1
6 8 4 54.8823 7.54575 -2
6 8 0 54.8823 7.54575 1
7 8 4 24.0567 5.86113 -2
7 8 0 24.0567 5.86113 1
8 8 4 10.071 3.8676 -2
8 8 0 10.071 3.8676 1
-4 9 5 59.8538 11.7635 -2
-4 9 0 59.8538 11.7635 1
-3 9 5 40.5252 9.06732 -2
-3 9 0 40.5252 9.06732 1
-2 9 5 27.5123 9.89347 -2
-2 9 0 27.5123 9.89347 1
-1 9 5 87.193 11.1487 -2
-1 9 0 87.193 11.1487 1
0 9 5 265.461 14.6827 -2
0 9 0 265.461 14.6827 1
1 9 5 8.3409 9.97703 -2
1 9 0 8.3409 9.97703 1
2 9 5 284.139 18.7667 -2
2 9 0 284.139 18.7667 1
3 9 5 3.78584 3.43991 -2
3 9 0 3.78584 3.43991 1
4 9 0 2.46949 3.48964 1
5 9 0 4.38918 3.58735 1
6 9 0 0.10045 2.98299 1
7 9 0 37.6209 5.92769 1
8 9 0 13.9981 4.11663 1
-3 10 0 43.4712 7.8626 1
-2 10 0 5.64306 4.19096 1
-1 10 0 8.56577 4.3972 1
0 10 0 8.37649 2.48367 1
1 10 0 205.622 9.31454 1
2 10 0 16.0132 3.54924 1
3 10 5 -1.2873 6.83661 -2
3 10 0 -1.2873 6.83661 1
4 10 0 -0.1501 3.84066 1
5 10 0 3.07287 4.19885 1
6 10 0 77.9832 9.5205 1
7 10 0 77.8166 9.25689 1
-1 11 6 70.2479 9.33775 -2
-1 11 0 70.2479 9.33775 1
0 11 6 115.339 10.8142 -2
0 11 0 115.339 10.8142 1
1 11 6 10.7136 6.75638 -2
1 11 0 10.7136 6.75638 1
2 11 6 66.5973 11.003 -2
2 11 0 66.5973 11.003 1
3 11 6 103.403 9.11491 -2
3 11 0 103.403 9.11491 1
4 11 6 90.8689 20.1642 -2
4 11 0 90.8689 20.1642 1
5 11 6 42.0503 16.916 -2
5 11 0 42.0503 16.916 1
4 11 7 43.0281 17.4404 -2
-4 -11 1 43.0281 17.4404 1
3 11 7 54.3865 8.44398 -2
-3 -11 1 54.3865 8.44398 1
2 11 7 30.0784 9.94277 -2
-2 -11 1 30.0784 9.94277 1
1 11 7 59.8235 8.60875 -2
-1 -11 1 59.8235 8.60875 1
0 11 7 36.7067 11.2224 -2
0 -11 1 36.7067 11.2224 1
-6 -10 1 23.271 6.07788 1
-5 -10 1 1.15427 3.99273 1
-4 -10 1 6.28818 4.65037 1
3 10 6 126.62 12.0897 -2
-3 -10 1 126.62 12.0897 1
-2 -10 1 1.17348 2.41239 1
-1 -10 1 20.3254 3.63624 1
0 -10 1 45.1086 4.46715 1
1 -10 1 0.8662 3.11677 1
2 -10 1 2.52042 3.36177 1
-7 -9 1 9.12602 4.01392 1
-6 -9 1 -3.3943 3.06953 1
-5 -9 1 13.4352 4.09154 1
-4 -9 1 -3.2611 3.13827 1
3 9 6 143.663 7.0914 -2
-3 -9 1 143.663 7.0914 1
2 9 6 -3.2357 6.04922 -2
-2 -9 1 -3.2357 6.04922 1
1 9 6 83.5718 9.97465 -2
-1 -9 1 83.5718 9.97465 1
0 9 6 6.98049 5.04156 -2
0 -9 1 6.98049 5.04156 1
-1 9 6 49.9342 9.8412 -2
1 -9 1 49.9342 9.8412 1
-2 9 6 17.4993 8.88278 -2
2 -9 1 17.4993 8.88278 1
-3 9 6 13.0544 8.13948 -2
3 -9 1 13.0544 8.13948 1
-4 9 6 3.41438 9.33289 -2
4 -9 1 3.41438 9.33289 1
8 8 5 5.06121 5.70416 -2
-8 -8 1 5.06121 5.70416 1
7 8 5 1.58661 8.53081 -2
-7 -8 1 1.58661 8.53081 1
6 8 5 26.1816 9.45241 -2
-6 -8 1 26.1816 9.45241 1
-5 -8 1 -1.1716 2.57934 1
-4 -8 1 2.44963 2.25587 1
3 8 5 366.334 12.2907 -2
-3 -8 1 366.334 12.2907 1
-2 -8 1 33.2797 1.94705 1
-1 -8 1 3.95726 1.37433 1
0 -8 1 66.4962 3.79172 1
1 -8 1 4.13738 1.80323 1
2 -8 1 0.04148 2.98553 1
3 -8 1 2.39986 3.60298 1
4 -8 1 8.32691 4.47567 1
5 -8 1 -6.1042 3.91716 1
-9 -7 1 28.1282 3.58078 1
-8 -7 1 18.3526 3.08195 1
-7 -7 1 12.5344 2.28384 1
-6 -7 1 304.701 8.56186 1
-5 -7 1 118.014 6.433 1
-4 -7 1 53.5747 3.52458 1
-3 -7 1 34.6565 1.85409 1
-2 -7 1 984.863 8.54759 1
-1 -7 1 114.38 3.2515 1
0 -7 1 5.69275 1.27536 1
1 -7 1 12.5133 1.65527 1
2 -7 1 14.9964 2.24412 1
3 -7 1 0.64228 2.02942 1
4 -7 1 130.576 10.9006 1
5 -7 1 12.47 5.53533 1
6 -7 1 5.86213 5.37011 1
9 6 4 9.37655 3.42645 -2
-9 -6 1 9.37655 3.42645 1
8 6 4 31.698 3.34832 -2
-8 -6 1 31.698 3.34832 1
7 6 4 -0.7254 2.70313 -2
-7 -6 1 -0.7254 2.70313 1
6 6 4 609.258 11.0933 -2
-6 -6 1 609.258 11.0933 1
5 6 4 172.525 5.78451 -2
-5 -6 1 172.525 5.78451 1
4 6 4 4.54036 2.60137 -2
-4 -6 1 4.54036 2.60137 1
3 6 4 250.499 5.28531 -2
-3 -6 1 250.499 5.28531 1
2 6 4 41.5769 2.39287 -2
-2 -6 1 41.5769 2.39287 1
1 6 4 262.674 9.99585 -2
-1 -6 1 262.674 9.99585 1
0 -6 1 5.30657 1.02963 1
-1 6 4 30.9753 7.33979 -2
1 -6 1 30.9753 7.33979 1
2 -6 1 3.115 1.17898 1
3 -6 1 5.22899 1.23681 1
4 -6 1 5.89569 2.18254 1
5 -6 1 -1.4706 2.05114 1
6 -6 1 132.754 10.2249 1
-7 6 4 44.9622 12.9478 -2
7 -6 1 44.9622 12.9478 1
-9 -5 1 24.8073 3.28627 1
-8 -5 1 35.6896 3.03381 1
-7 -5 1 5.51331 1.47072 1
-6 -5 1 9.21017 1.6048 1
-5 -5 1 44.7753 2.22454 1
-4 -5 1 72.9585 2.48677 1
-3 -5 1 2.08952 0.63334 1
-2 -5 1 48.1329 1.39883 1
-1 -5 1 27.9071 1.44749 1
0 -5 1 84.463 2.68784 1
1 -5 1 57.3694 2.3482 1
2 -5 1 491.192 6.1402 1
3 -5 1 155.507 4.78071 1
4 -5 1 778.98 10.5736 1
5 -5 1 0.1947 1.73533 1
6 -5 1 -2.6119 2.23531 1
7 -5 1 -1.0737 3.11047 1
9 4 3 2.29268 3.14866 -2
-9 -4 1 2.29268 3.14866 1
8 4 3 109.824 4.58028 -2
-8 -4 1 109.824 4.58028 1
7 4 3 44.6757 2.73543 -2
-7 -4 1 44.6757 2.73543 1
6 4 3 532.058 7.19729 -2
-6 -4 1 532.058 7.19729 1
5 4 3 131.726 2.82813 -2
-5 -4 1 131.726 2.82813 1
4 4 3 523.503 5.96667 -2
-4 -4 1 523.503 5.96667 1
3 4 3 1085.75 11.2087 -2
-3 -4 1 1085.75 11.2087 1
2 4 3 41.036 2.14504 -2
-2 -4 1 41.036 2.14504 1
1 4 3 831.755 11.5626 -2
-1 -4 1 831.755 11.5626 1
0 4 3 810.7 16.0736 -2
0 -4 1 810.7 16.0736 1
1 -4 1 3684.44 20.9089 1
2 -4 1 -0.142 0.59685 1
3 -4 1 64.8868 2.2932 1
-4 4 3 388.913 9.32838 -2
4 -4 1 388.913 9.32838 1
-5 4 3 375.746 10.5656 -2
5 -4 1 375.746 10.5656 1
-6 4 3 44.7172 4.78288 -2
6 -4 1 44.7172 4.78288 1
-7 4 3 13.6332 6.0797 -2
7 -4 1 13.6332 6.0797 1
-8 4 3 1.80798 4.64256 -2
8 -4 1 1.80798 4.64256 1
-9 -3 1 2.97848 2.33932 1
-8 -3 1 49.025 3.80197 1
-7 -3 1 1022.17 13.5499 1
-6 -3 1 376.273 5.63749 1
-5 -3 1 113.877 2.33656 1
-4 -3 1 8.26662 0.79258 1
-3 -3 1 1168.83 8.17487 1
-2 -3 1 199.31 2.31044 1
-1 -3 1 8.965 0.7082 1
0 -3 1 0.00082 0.49439 1
1 -3 1 1175.72 8.37298 1
2 -3 1 32.396 1.44004 1
3 -3 1 34.5962 1.77156 1
4 -3 1 2.62611 0.84701 1
5 -3 1 28.1473 1.84449 1
6 -3 1 56.2585 3.21839 1
7 -3 1 66.8277 5.90444 1
8 -3 1 9.21223 3.23517 1
9 2 2 114.296 8.63883 -2
-9 -2 1 114.296 8.63883 1
8 2 2 46.8272 4.69086 -2
-8 -2 1 46.8272 4.69086 1
7 2 2 110.425 4.22857 -2
-7 -2 1 110.425 4.22857 1
6 2 2 809.796 8.59421 -2
-6 -2 1 809.796 8.59421 1
5 2 2 19.311 0.93126 -2
-5 -2 1 19.311 0.93126 1
4 2 2 237.013 2.91538 -2
-4 -2 1 237.013 2.91538 1
3 2 2 379.977 4.86775 -2
-3 -2 1 379.977 4.86775 1
2 2 2 16.7044 0.71318 -2
-2 -2 1 16.7044 0.71318 1
1 2 2 7784.48 43.0309 -2
-1 -2 1 7784.48 43.0309 1
0 2 2 3779.08 43.6857 -2
0 -2 1 3779.08 43.6857 1
-1 2 2 632.869 20.381 -2
1 -2 1 632.869 20.381 1
-2 2 2 160.177 3.64975 -2
2 -2 1 160.177 3.64975 1
-3 2 2 515.499 6.27474 -2
3 -2 1 515.499 6.27474 1
-4 2 2 104.668 2.57446 -2
4 -2 1 104.668 2.57446 1
-5 2 2 52.5721 2.24576 -2
5 -2 1 52.5721 2.24576 1
-6 2 2 495.845 6.71049 -2
6 -2 1 495.845 6.71049 1
-7 2 2 81.6281 2.93114 -2
7 -2 1 81.6281 2.93114 1
-8 2 2 122.358 11.4438 -2
8 -2 1 122.358 11.4438 1
-9 2 2 34.7398 9.50998 -2
9 -2 1 34.7398 9.50998 1
-9 -1 1 26.4602 5.30089 1
-8 -1 1 20.1119 3.64335 1
-7 -1 1 364.333 7.59064 1
-6 -1 1 8.63857 1.12045 1
-5 -1 1 32.599 1.5103 1
-4 -1 1 259.638 3.08899 1
-3 -1 1 228.639 2.34476 1
-2 -1 1 252.939 1.85229 1
-1 -1 1 3077.04 14.5263 1
0 -1 1 2743.02 15.7779 1
1 -1 1 791.65 5.35834 1
2 -1 1 186.969 2.31606 1
3 -1 1 712.168 5.26328 1
4 -1 1 277.048 3.49913 1
5 -1 1 275.448 3.4577 1
6 -1 1 3.1509 0.77434 1
7 -1 1 50.9223 4.26437 1
8 -1 1 196.183 11.4825 1
9 -1 1 7.69569 3.95775 1
9 0 1 17.7614 7.03371 -2
-9 0 1 17.7614 7.03371 1
8 0 1 66.3725 7.98532 -2
-8 0 1 66.3725 7.98532 1
7 0 1 490.891 11.0315 -2
-7 0 1 490.891 11.0315 1
6 0 1 323.634 5.65271 -2
-6 0 1 323.634 5.65271 1
5 0 1 114.224 2.20583 -2
-5 0 1 114.224 2.20583 1
4 0 1 138.797 1.91525 -2
-4 0 1 138.797 1.91525 1
3 0 1 267.313 2.61138 -2
-3 0 1 267.313 2.61138 1
2 0 1 131.898 1.38666 -2
-2 0 1 131.898 1.38666 1
1 0 1 1033.13 4.86393 -2
-1 0 1 1033.13 4.86393 1
0 0 1 19.4722 1.34519 -2
0 0 1 19.4722 1.34519 1
-1 0 1 1004.15 5.44573 -2
1 0 1 1004.15 5.44573 1
-2 0 1 130.407 1.38979 -2
2 0 1 130.407 1.38979 1
-3 0 1 360.445 2.77487 -2
3 0 1 360.445 2.77487 1
-4 0 1 214.067 2.5959 -2
4 0 1 214.067 2.5959 1
-5 0 1 202.747 3.91757 -2
5 0 1 202.747 3.91757 1
-6 0 1 510.643 7.11744 -2
6 0 1 510.643 7.11744 1
-7 0 1 285.249 7.75697 -2
7 0 1 285.249 7.75697 1
-8 0 1 49.7572 6.13211 -2
8 0 1 49.7572 6.13211 1
-9 0 1 1.77955 4.99208 -2
9 0 1 1.77955 4.99208 1
-9 1 1 0.0013 3.54077 1
-8 1 1 11.68 4.76762 1
-7 1 1 1.60291 2.0799 1
-6 1 1 1.79414 0.68569 1
-5 1 1 145.158 2.44131 1
-4 1 1 92.7877 2.07562 1
-3 1 1 679.929 4.87782 1
-2 1 1 837.031 5.27451 1
-1 1 1 3082.26 13.8938 1
0 1 1 334.449 2.3546 1
1 1 1 1874.97 10.0957 1
2 1 1 170.988 2.53992 1
3 1 1 34.9847 1.39888 1
4 1 1 -0.2813 0.4902 1
5 1 1 1.76972 0.56318 1
6 1 1 7.98206 1.19036 1
7 1 1 271.108 6.61275 1
8 1 1 1.07059 1.79201 1
9 1 1 0.49903 2.39948 1
-9 2 0 98.4685 12.1781 -2
-9 2 1 98.4685 12.1781 1
-8 2 0 53.8317 9.047 -2
-8 2 1 53.8317 9.047 1
-7 2 0 41.5549 2.8985 -2
-7 2 1 41.5549 2.8985 1
-6 2 0 217.029 4.42336 -2
-6 2 1 217.029 4.42336 1
-5 2 0 343.567 4.39818 -2
-5 2 1 343.567 4.39818 1
-4 2 0 165.341 3.33382 -2
-4 2 1 165.341 3.33382 1
-3 2 0 193.101 3.38901 -2
-3 2 1 193.101 3.38901 1
-2 2 0 544.347 8.02282 -2
-2 2 1 544.347 8.02282 1
-1 2 1 17.0422 0.96846 1
0 2 1 436.562 3.17351 1
1 2 0 409.199 3.78684 -2
1 2 1 409.199 3.78684 1
2 2 0 157.206 7.03223 -2
2 2 1 157.206 7.03223 1
3 2 0 721.629 15.3853 -2
3 2 1 721.629 15.3853 1
4 2 0 386.205 6.38256 -2
4 2 1 386.205 6.38256 1
5 2 0 84.1113 2.41253 -2
5 2 1 84.1113 2.41253 1
6 2 0 833.158 8.74181 -2
6 2 1 833.158 8.74181 1
7 2 0 588.319 9.51969 -2
7 2 1 588.319 9.51969 1
8 2 0 106.762 4.69762 -2
8 2 1 106.762 4.69762 1
9 2 0 10.6131 3.92665 -2
9 2 1 10.6131 3.92665 1
10 2 0 59.9072 6.60664 -2
10 2 1 59.9072 6.60664 1
-8 3 1 18.9545 2.81256 1
-7 3 1 15.2774 2.74008 1
-6 3 1 10.6372 1.76508 1
-5 3 1 3.36762 0.9927 1
-4 3 1 5.73646 1.01122 1
-3 3 1 119.609 2.87882 1
-2 3 1 202.018 3.02337 1
-1 3 1 620.01 5.39402 1
0 3 1 708.93 4.91125 1
1 3 1 1858.11 8.36312 1
2 3 1 64.0708 1.42377 1
3 3 1 36.8936 1.51307 1
4 3 1 34.3071 3.7762 1
5 3 1 58.517 5.32193 1
6 3 1 0.07143 0.7547 1
7 3 1 264.021 7.43644 1
8 3 1 64.334 3.5055 1
9 3 1 21.7985 2.73076 1
10 3 1 1.0002 2.42256 1
-8 4 1 25.8454 6.65296 -2
-8 4 1 25.8454 6.65296 1
-7 4 1 27.602 5.68202 -2
-7 4 1 27.602 5.68202 1
-6 4 1 12.6214 4.00381 -2
-6 4 1 12.6214 4.00381 1
-5 4 1 75.5778 5.1155 -2
-5 4 1 75.5778 5.1155 1
-4 4 1 85.5764 8.22995 -2
-4 4 1 85.5764 8.22995 1
-3 4 1 182.506 3.60863 1
-2 4 1 289.012 3.85267 1
-1 4 1 187.3 3.00559 1
0 4 1 85.1175 1.84702 1
1 4 1 566.007 17.6 -2
1 4 1 566.007 17.6 1
2 4 1 211.526 2.98538 -2
2 4 1 211.526 2.98538 1
3 4 1 351.17 9.17374 -2
3 4 1 351.17 9.17374 1
4 4 1 31.2355 1.69812 -2
4 4 1 31.2355 1.69812 1
5 4 1 88.3701 3.14837 -2
5 4 1 88.3701 3.14837 1
6 4 1 537.255 7.89155 -2
6 4 1 537.255 7.89155 1
7 4 1 36.7139 2.49513 -2
7 4 1 36.7139 2.49513 1
8 4 1 3.50046 2.10182 -2
8 4 1 3.50046 2.10182 1
9 4 1 50.2505 3.08284 -2
9 4 1 50.2505 3.08284 1
10 4 1 20.2758 3.29126 -2
10 4 1 20.2758 3.29126 1
-7 5 1 17.0113 4.77997 1
-6 5 1 65.3388 5.22793 1
-5 5 1 37.3076 3.7079 1
-4 5 1 42.4954 2.77447 1
-3 5 1 16.5133 1.49334 1
-2 5 1 508.093 6.40558 1
-1 5 1 625.791 6.23375 1
0 5 1 7.52882 0.81482 1
1 5 1 777.201 5.69921 1
2 5 1 16.1979 0.93259 1
3 5 1 75.4898 2.15055 1
4 5 1 324.206 4.12911 1
5 5 1 0.47872 0.76054 1
6 5 1 41.466 2.31031 1
7 5 1 1.94515 3.00873 1
8 5 1 206.159 26.3118 1
9 5 1 7.07219 2.34565 1
-7 6 2 25.3116 12.0934 -2
-7 6 1 25.3116 12.0934 1
-6 6 2 57.5745 13.1169 -2
-6 6 1 57.5745 13.1169 1
-5 6 1 346.256 10.4157 1
-4 6 1 113.764 6.24474 1
-3 6 1 8.50406 1.24773 1
-2 6 1 27.9205 1.88492 1
-1 6 1 527.292 5.94353 1
0 6 1 19.1964 1.35366 1
1 6 1 28.3933 1.39886 1
2 6 2 795.669 24.0962 -2
2 6 1 795.669 24.0962 1
3 6 2 209.854 17.4633 -2
3 6 1 209.854 17.4633 1
4 6 2 94.1616 4.63734 -2
4 6 1 94.1616 4.63734 1
5 6 2 15.0347 3.1808 -2
5 6 1 15.0347 3.1808 1
6 6 2 87.7517 4.1942 -2
6 6 1 87.7517 4.1942 1
7 6 2 115.849 6.73328 -2
7 6 1 115.849 6.73328 1
8 6 2 33.6589 14.5956 -2
8 6 1 33.6589 14.5956 1
9 6 2 93.0297 20.6173 -2
9 6 1 93.0297 20.6173 1
-6 7 1 0.43596 4.21734 1
-5 7 1 76.1024 10.7412 1
-4 7 1 311.146 12.7442 1
-3 7 1 45.7822 4.33541 1
-2 7 1 44.5213 2.49883 1
-1 7 1 113.477 3.80672 1
0 7 1 12.007 1.31732 1
1 7 1 -0.2081 0.68124 1
2 7 1 247.865 3.66226 1
3 7 1 44.273 1.97235 1
4 7 1 24.1917 1.85608 1
5 7 1 133.288 4.65338 1
6 7 1 7.47158 1.4843 1
7 7 1 1.62054 1.19306 1
8 7 1 97.368 3.28555 1
9 7 1 9.78893 2.58948 1
-5 8 1 -6.9738 3.79269 1
-4 8 1 43.1893 7.3343 1
-3 8 1 45.4281 6.73896 1
-2 8 1 29.8876 3.86623 1
-1 8 1 32.4653 3.01286 1
0 8 1 338.034 6.88585 1
1 8 1 306.023 5.6567 1
2 8 1 3.38476 1.11144 1
3 8 3 47.1215 2.90546 -2
3 8 1 47.1215 2.90546 1
4 8 1 3.19255 1.74663 1
5 8 1 286.452 9.19952 1
6 8 3 560.209 16.2959 -2
6 8 1 560.209 16.2959 1
7 8 3 43.3034 4.21543 -2
7 8 1 43.3034 4.21543 1
8 8 3 45.7295 4.81997 -2
8 8 1 45.7295 4.81997 1
-4 9 4 5.0464 7.83585 -2
-4 9 1 5.0464 7.83585 1
-3 9 4 0.32438 7.41112 -2
-3 9 1 0.32438 7.41112 1
-2 9 4 16.7698 9.34206 -2
-2 9 1 16.7698 9.34206 1
-1 9 4 45.1502 9.23263 -2
-1 9 1 45.1502 9.23263 1
0 9 4 71.379 9.73753 -2
0 9 1 71.379 9.73753 1
1 9 4 3.30208 9.28848 -2
1 9 1 3.30208 9.28848 1
2 9 4 963.13 34.3572 -2
2 9 1 963.13 34.3572 1
3 9 4 108.925 5.07499 -2
3 9 1 108.925 5.07499 1
4 9 1 21.0495 3.89205 1
5 9 1 11.3529 3.47677 1
6 9 1 37.6566 5.32995 1
7 9 1 -0.848 2.03 1
8 9 1 11.2923 2.78504 1
-3 10 1 55.8695 8.52716 1
-2 10 1 2.88124 3.91279 1
-1 10 1 68.856 8.35409 1
0 10 1 177.287 7.56173 1
1 10 1 47.6181 4.72445 1
2 10 1 14.7502 2.98888 1
3 10 4 25.0577 6.93673 -2
3 10 1 25.0577 6.93673 1
4 10 1 1.75781 3.80972 1
5 10 1 40.4209 7.30049 1
6 10 1 2.71551 3.49474 1
7 10 1 49.7942 7.2151 1
-1 11 5 -7.737 6.73212 -2
-1 11 1 -7.737 6.73212 1
0 11 5 60.2097 8.92881 -2
0 11 1 60.2097 8.92881 1
1 11 5 24.2887 6.80437 -2
1 11 1 24.2887 6.80437 1
2 11 5 68.3053 10.406 -2
2 11 1 68.3053 10.406 1
3 11 5 49.0121 6.53858 -2
3 11 1 49.0121 6.53858 1
4 11 5 27.1503 15.8782 -2
4 11 1 27.1503 15.8782 1
5 11 5 13.7937 14.2524 -2
5 11 1 13.7937 14.2524 1
3 11 8 27.9923 8.37599 -2
-3 -11 2 27.9923 8.37599 1
2 11 8 26.2442 10.4873 -2
-2 -11 2 26.2442 10.4873 1
1 11 8 187.596 13.4545 -2
-1 -11 2 187.596 13.4545 1
-6 -10 2 3.88517 4.54754 1
-5 -10 2 13.2816 5.82778 1
-4 -10 2 45.481 8.68903 1
3 10 7 21.2735 9.16658 -2
-3 -10 2 21.2735 9.16658 1
-2 -10 2 64.612 6.81584 1
-1 -10 2 8.284 2.99409 1
0 -10 2 23.692 5.23033 1
1 -10 2 1.67214 3.69699 1
2 -10 2 3.21151 4.3379 1
-7 -9 2 2.23685 3.72976 1
-6 -9 2 6.56304 4.16655 1
-5 -9 2 9.14415 4.70071 1
-4 -9 2 18.4316 5.84822 1
3 9 7 164.549 10.1926 -2
-3 -9 2 164.549 10.1926 1
2 9 7 56.1514 7.4305 -2
-2 -9 2 56.1514 7.4305 1
1 9 7 2.84411 5.51767 -2
-1 -9 2 2.84411 5.51767 1
0 9 7 4.82655 6.31424 -2
0 -9 2 4.82655 6.31424 1
-1 9 7 73.6931 11.7534 -2
1 -9 2 73.6931 11.7534 1
-2 9 7 24.6705 10.0906 -2
2 -9 2 24.6705 10.0906 1
-3 9 7 29.2547 8.67472 -2
3 -9 2 29.2547 8.67472 1
8 8 6 17.7044 9.04873 -2
-8 -8 2 17.7044 9.04873 1
7 8 6 38.7249 7.83479 -2
-7 -8 2 38.7249 7.83479 1
6 8 6 10.1938 10.7182 -2
-6 -8 2 10.1938 10.7182 1
-5 -8 2 43.9178 6.67626 1
4 8 6 105.183 5.88464 -2
-4 -8 2 105.183 5.88464 1
3 8 6 193.455 8.97389 -2
-3 -8 2 193.455 8.97389 1
2 8 6 43.0194 5.17428 -2
-2 -8 2 43.0194 5.17428 1
-1 -8 2 20.8572 2.47407 1
0 -8 2 0.67016 1.4732 1
1 -8 2 112.27 6.32303 1
2 -8 2 5.46549 2.85642 1
3 -8 2 184.806 13.265 1
4 -8 2 9.85462 5.96224 1
5 -8 2 55.3801 10.5606 1
-8 -7 2 -1.6056 2.38353 1
-7 -7 2 40.4636 4.93832 1
-6 -7 2 67.6072 6.28312 1
-5 -7 2 78.0766 5.93248 1
-4 -7 2 18.1511 2.34242 1
-3 -7 2 410.531 5.77667 1
-2 -7 2 1140.04 10.0388 1
-1 -7 2 66.3286 2.98249 1
0 -7 2 10.7615 1.5174 1
1 -7 2 1.56727 1.45772 1
2 -7 2 31.5879 4.02282 1
3 -7 2 3.10605 2.75815 1
4 -7 2 18.0443 5.28212 1
5 -7 2 11.8824 5.64784 1
6 -7 2 13.1829 6.11597 1
9 6 5 7.95084 5.15418 -2
-9 -6 2 7.95084 5.15418 1
8 6 5 6.36407 3.97549 -2
-8 -6 2 6.36407 3.97549 1
7 6 5 4.69612 4.31564 -2
-7 -6 2 4.69612 4.31564 1
6 6 5 546.122 11.4866 -2
-6 -6 2 546.122 11.4866 1
5 6 5 260.714 8.2415 -2
-5 -6 2 260.714 8.2415 1
4 6 5 24.9687 2.84475 -2
-4 -6 2 24.9687 2.84475 1
3 6 5 198.377 4.96607 -2
-3 -6 2 198.377 4.96607 1
2 6 5 107.329 3.63368 -2
-2 -6 2 107.329 3.63368 1
1 6 5 154.925 5.49594 -2
-1 -6 2 154.925 5.49594 1
0 6 5 337.866 19.7523 -2
0 -6 2 337.866 19.7523 1
1 -6 2 55.8949 2.85453 1
2 -6 2 34.2387 2.48106 1
3 -6 2 47.3177 4.17991 1
4 -6 2 33.5524 3.7826 1
-5 6 5 12.4298 8.10787 -2
5 -6 2 12.4298 8.10787 1
-6 6 5 13.532 10.368 -2
6 -6 2 13.532 10.368 1
-9 -5 2 28.025 4.4998 1
-8 -5 2 0.04228 1.88193 1
-7 -5 2 87.4297 4.75357 1
-6 -5 2 30.3034 2.92862 1
-5 -5 2 73.1612 3.19869 1
-4 -5 2 82.3567 3.07507 1
-3 -5 2 2.09765 0.71546 1
-2 -5 2 186.844 3.15106 1
-1 -5 2 9.42302 1.06878 1
0 -5 2 25.1765 1.51901 1
1 -5 2 17.7296 1.51029 1
2 -5 2 41.7944 2.149 1
3 -5 2 21.9418 2.11286 1
4 -5 2 820.079 13.1968 1
5 -5 2 15.9741 2.84065 1
6 -5 2 19.9642 3.94821 1
7 -5 2 1.27331 3.44213 1
9 4 4 27.1617 5.44492 -2
-9 -4 2 27.1617 5.44492 1
8 4 4 252.381 9.13498 -2
-8 -4 2 252.381 9.13498 1
7 4 4 178.029 5.68748 -2
-7 -4 2 178.029 5.68748 1
6 4 4 114.339 4.33019 -2
-6 -4 2 114.339 4.33019 1
5 4 4 35.0304 1.99178 -2
-5 -4 2 35.0304 1.99178 1
4 4 4 81.8212 2.41495 -2
-4 -4 2 81.8212 2.41495 1
3 4 4 199.48 3.00013 -2
-3 -4 2 199.48 3.00013 1
2 4 4 0.44602 1.06597 -2
-2 -4 2 0.44602 1.06597 1
1 4 4 436.785 6.51949 -2
-1 -4 2 436.785 6.51949 1
0 4 4 622.36 11.0945 -2
0 -4 2 622.36 11.0945 1
-1 4 4 302.497 13.3971 -2
1 -4 2 302.497 13.3971 1
2 -4 2 91.1529 3.0168 1
-3 4 4 48.7137 4.08761 -2
3 -4 2 48.7137 4.08761 1
-4 4 4 60.2529 3.83485 -2
4 -4 2 60.2529 3.83485 1
-5 4 4 948.19 19.3088 -2
5 -4 2 948.19 19.3088 1
-6 4 4 219.858 9.65261 -2
6 -4 2 219.858 9.65261 1
-7 4 4 59.368 7.98022 -2
7 -4 2 59.368 7.98022 1
-8 4 4 96.364 6.52103 -2
8 -4 2 96.364 6.52103 1
-9 -3 2 9.66821 3.64784 1
-8 -3 2 26.4061 3.79869 1
-7 -3 2 4.59038 1.61278 1
-6 -3 2 91.692 3.66848 1
-5 -3 2 51.9016 1.99356 1
-4 -3 2 334.662 4.33138 1
-3 -3 2 6.84566 0.58194 1
-2 -3 2 136.174 2.04215 1
-1 -3 2 52.6828 1.86369 1
0 -3 2 398.963 4.39213 1
1 -3 2 906.276 7.92147 1
2 -3 2 177.759 3.02454 1
3 -3 2 5.92141 1.0013 1
4 -3 2 46.7273 2.237 1
5 -3 2 15.71 1.63239 1
6 -3 2 29.9776 2.8895 1
7 -3 2 6.34989 2.16392 1
8 -3 2 8.39836 3.25913 1
9 2 3 106.562 8.93814 -2
-9 -2 2 106.562 8.93814 1
8 2 3 628.184 15.714 -2
-8 -2 2 628.184 15.714 1
7 2 3 43.4076 3.26629 -2
-7 -2 2 43.4076 3.26629 1
6 2 3 46.7849 2.21514 -2
-6 -2 2 46.7849 2.21514 1
5 2 3 9.30182 1.11215 -2
-5 -2 2 9.30182 1.11215 1
4 2 3 305.322 3.95458 -2
-4 -2 2 305.322 3.95458 1
3 2 3 1113.75 6.82333 -2
-3 -2 2 1113.75 6.82333 1
2 2 3 59.6223 1.27702 -2
-2 -2 2 59.6223 1.27702 1
1 2 3 6212.54 31.8193 -2
-1 -2 2 6212.54 31.8193 1
0 2 3 6060.06 31.1403 -2
0 -2 2 6060.06 31.1403 1
-1 2 3 101.684 2.38094 -2
1 -2 2 101.684 2.38094 1
-2 2 3 43.8271 2.11433 -2
2 -2 2 43.8271 2.11433 1
-3 2 3 255.746 4.19471 -2
3 -2 2 255.746 4.19471 1
-4 2 3 348.825 4.65181 -2
4 -2 2 348.825 4.65181 1
-5 2 3 78.9659 2.6544 -2
5 -2 2 78.9659 2.6544 1
-6 2 3 85.8467 2.9475 -2
6 -2 2 85.8467 2.9475 1
-7 2 3 45.6356 2.55012 -2
7 -2 2 45.6356 2.55012 1
-8 2 3 5.00569 7.31402 -2
8 -2 2 5.00569 7.31402 1
-9 2 3 3.46618 8.59537 -2
9 -2 2 3.46618 8.59537 1
-9 -1 2 10.0808 4.10155 1
-8 -1 2 88.8493 8.87228 1
-7 -1 2 158.23 6.55288 1
-6 -1 2 19.7051 1.67456 1
-5 -1 2 260.348 3.90575 1
-4 -1 2 73.1461 1.38765 1
-3 -1 2 0.38012 0.39055 1
-2 -1 2 116.164 1.54881 1
-1 -1 2 47.1248 1.30747 1
0 -1 2 1953.03 11.7778 1
1 -1 2 1208.76 7.59456 1
2 -1 2 169.487 2.27432 1
3 -1 2 101.338 1.8635 1
4 -1 2 19.677 1.16334 1
5 -1 2 154.033 2.62541 1
6 -1 2 264.309 3.88122 1
7 -1 2 58.3211 4.62016 1
8 -1 2 39.8974 5.89613 1
9 -1 2 -0.0226 3.2115 1
9 0 2 36.1667 8.0132 -2
-9 0 2 36.1667 8.0132 1
8 0 2 4.25881 5.55211 -2
-8 0 2 4.25881 5.55211 1
7 0 2 91.9163 5.02056 -2
-7 0 2 91.9163 5.02056 1
6 0 2 312.177 5.76241 -2
-6 0 2 312.177 5.76241 1
5 0 2 36.7646 1.45348 -2
-5 0 2 36.7646 1.45348 1
4 0 2 12.6526 1.01883 -2
-4 0 2 12.6526 1.01883 1
3 0 2 808.044 5.24857 -2
-3 0 2 808.044 5.24857 1
2 0 2 107.015 1.49359 -2
-2 0 2 107.015 1.49359 1
1 0 2 4503.28 22.4546 -2
-1 0 2 4503.28 22.4546 1
0 0 2 435.694 3.58012 -2
0 0 2 435.694 3.58012 1
-1 0 2 2748.53 13.6764 -2
1 0 2 2748.53 13.6764 1
-2 0 2 172.529 1.83995 -2
2 0 2 172.529 1.83995 1
-3 0 2 607.945 4.27579 -2
3 0 2 607.945 4.27579 1
-4 0 2 14.8578 0.73494 -2
4 0 2 14.8578 0.73494 1
-5 0 2 43.7751 2.12255 -2
5 0 2 43.7751 2.12255 1
-6 0 2 518.194 7.38176 -2
6 0 2 518.194 7.38176 1
-7 0 2 58.2226 4.17027 -2
7 0 2 58.2226 4.17027 1
-8 0 2 9.79628 4.72718 -2
8 0 2 9.79628 4.72718 1
-9 0 2 38.4667 6.65924 -2
9 0 2 38.4667 6.65924 1
-9 1 2 12.7915 5.34983 1
-8 1 2 -1.5297 3.13805 1
-7 1 2 15.073 1.70642 1
-6 1 2 8.00896 1.02252 1
-5 1 2 22.3221 1.29513 1
-4 1 2 6.84334 0.66591 1
-3 1 2 79.0919 1.86298 1
-2 1 2 2069.05 11.084 1
-1 1 2 4854.04 21.6337 1
0 1 2 50.1911 1.21973 1
1 1 2 12.1457 0.53918 1
2 1 2 2063.73 9.84831 1
3 1 2 2849.29 16.1329 1
4 1 2 330.211 3.82409 1
5 1 2 0.09574 0.56855 1
6 1 2 -0.2622 0.7443 1
7 1 2 4.61738 1.63179 1
8 1 2 38.8184 3.79643 1
9 1 2 52.3504 6.4683 1
9 -2 1 27.4756 9.70194 -2
-9 2 2 27.4756 9.70194 1
8 -2 1 27.7849 8.62508 -2
-8 2 2 27.7849 8.62508 1
7 -2 1 49.287 3.47521 -2
-7 2 2 49.287 3.47521 1
6 -2 1 364.975 5.97753 -2
-6 2 2 364.975 5.97753 1
5 -2 1 86.7763 2.19897 -2
-5 2 2 86.7763 2.19897 1
4 -2 1 96.1345 2.36828 -2
-4 2 2 96.1345 2.36828 1
3 -2 1 668.008 6.0573 -2
-3 2 2 668.008 6.0573 1
2 -2 1 257.099 3.87941 -2
-2 2 2 257.099 3.87941 1
1 -2 1 666.935 8.28807 -2
-1 2 2 666.935 8.28807 1
0 -2 1 6619.18 51.1607 -2
0 2 2 6619.18 51.1607 1
-1 -2 1 5101.2 23.5148 -2
1 2 2 5101.2 23.5148 1
-2 -2 1 20.2146 1.28923 -2
2 2 2 20.2146 1.28923 1
-3 -2 1 231.412 3.87234 -2
3 2 2 231.412 3.87234 1
-4 -2 1 402.279 5.35434 -2
4 2 2 402.279 5.35434 1
-5 -2 1 30.8953 1.84676 -2
5 2 2 30.8953 1.84676 1
-6 -2 1 478.061 6.40909 -2
6 2 2 478.061 6.40909 1
-7 -2 1 77.7104 3.26628 -2
7 2 2 77.7104 3.26628 1
-8 -2 1 78.9101 3.96357 -2
8 2 2 78.9101 3.96357 1
-9 -2 1 70.9497 6.06076 -2
9 2 2 70.9497 6.06076 1
-8 3 2 304.009 8.88122 1
-7 3 2 200.458 7.43093 1
-6 3 2 22.9001 1.87328 1
-5 3 2 20.4805 1.40482 1
-4 3 2 142.866 3.12822 1
-3 3 2 120.465 3.03608 1
-2 3 2 69.5037 2.09694 1
-1 3 2 86.4986 2.30027 1
0 3 2 101.093 1.91062 1
1 3 2 40.4403 1.04974 1
2 3 2 54.1614 1.04419 1
3 3 2 342.11 3.78115 1
4 3 2 189.032 4.24897 1
5 3 2 3.24354 0.9123 1
6 3 2 0.40983 1.05893 1
7 3 2 10.6304 2.42416 1
8 3 2 25.9777 2.40232 1
9 3 2 214.816 6.32013 1
10 3 2 136.258 8.98756 1
-8 4 0 34.641 7.15025 -2
-8 4 2 34.641 7.15025 1
-7 4 0 28.9627 5.75789 -2
-7 4 2 28.9627 5.75789 1
-6 4 0 79.3579 5.31017 -2
-6 4 2 79.3579 5.31017 1
-5 4 0 151.277 6.41305 -2
-5 4 2 151.277 6.41305 1
-4 4 0 8.31762 3.00121 -2
-4 4 2 8.31762 3.00121 1
-3 4 2 67.9034 2.34141 1
-2 4 2 17.8227 1.23142 1
-1 4 2 4.2754 0.7525 1
0 4 0 51.0826 6.59224 -2
0 4 2 51.0826 6.59224 1
1 4 0 312.824 12.0226 -2
1 4 2 312.824 12.0226 1
2 4 0 143.057 2.41508 -2
2 4 2 143.057 2.41508 1
3 4 0 571.582 9.02972 -2
3 4 2 571.582 9.02972 1
4 4 0 636.349 8.10083 -2
4 4 2 636.349 8.10083 1
5 4 0 80.6682 5.57092 -2
5 4 2 80.6682 5.57092 1
6 4 0 1559.35 28.3637 -2
6 4 2 1559.35 28.3637 1
7 4 0 26.709 1.93001 -2
7 4 2 26.709 1.93001 1
8 4 0 36.0002 3.01269 -2
8 4 2 36.0002 3.01269 1
9 4 0 19.4434 2.30142 -2
9 4 2 19.4434 2.30142 1
-7 5 2 10.4383 3.75636 1
-6 5 2 -1.1639 1.85914 1
-5 5 2 3.66248 1.93074 1
-4 5 2 0.94463 1.17152 1
-3 5 2 119.993 4.06305 1
-2 5 2 81.1138 3.03195 1
-1 5 2 880.246 7.707 1
0 5 2 226.15 3.14343 1
1 5 2 34.5461 1.33698 1
2 5 2 30.3766 1.1744 1
3 5 2 591.47 5.93234 1
4 5 2 -0.0783 0.73046 1
5 5 2 9.93371 1.04498 1
6 5 2 83.949 7.03673 1
7 5 2 62.2263 7.79951 1
8 5 2 1.36437 5.30346 1
9 5 2 -2.7341 5.68062 1
-7 6 1 11.3843 9.1756 -2
-7 6 2 11.3843 9.1756 1
-6 6 1 116.18 16.2254 -2
-6 6 2 116.18 16.2254 1
-5 6 2 558.943 13.1524 1
-4 6 2 212.854 8.03759 1
-3 6 2 158.672 5.00343 1
-2 6 2 23.0706 1.86505 1
-1 6 2 264.297 4.53312 1
0 6 2 189.26 3.25502 1
1 6 2 0.47055 0.55939 1
2 6 2 291.334 3.50164 1
3 6 1 290.138 20.3205 -2
3 6 2 290.138 20.3205 1
4 6 1 124.575 5.45776 -2
4 6 2 124.575 5.45776 1
5 6 1 11.8822 1.53425 -2
5 6 2 11.8822 1.53425 1
6 6 1 75.8619 7.28297 -2
6 6 2 75.8619 7.28297 1
7 6 1 57.2811 14.6573 -2
7 6 2 57.2811 14.6573 1
8 6 1 13.0945 12.2781 -2
8 6 2 13.0945 12.2781 1
9 6 1 95.5643 19.9486 -2
9 6 2 95.5643 19.9486 1
-6 7 2 62.994 17.3576 -2
-6 7 2 62.994 17.3576 1
-5 7 2 5.27435 5.13223 1
-4 7 2 227.428 12.6133 1
-3 7 2 75.8669 6.14125 1
-2 7 2 27.0632 2.19411 1
-1 7 2 321.53 5.63329 1
0 7 2 7.68102 1.1315 1
1 7 2 27.7817 1.50441 1
2 7 2 22.9619 1.47578 1
3 7 2 2.59508 0.71047 1
4 7 2 34.2897 2.20497 1
5 7 2 111.069 4.33164 1
6 7 2 18.1762 1.82108 1
7 7 2 25.1639 2.99975 1
8 7 2 6.6059 7.30197 1
9 7 2 23.5048 11.8485 1
-5 8 2 -6.4218 3.97185 1
-4 8 2 20.0687 5.45863 1
-3 8 2 38.2901 6.2736 1
-2 8 2 40.9047 4.58397 1
-1 8 2 136.447 5.30156 1
0 8 2 5.17457 1.23426 1
1 8 2 42.3873 2.20969 1
2 8 2 43.7797 2.19882 1
3 8 2 148.144 9.40676 -2
3 8 2 148.144 9.40676 1
4 8 2 11.8004 2.34527 1
5 8 2 42.6012 3.74288 1
6 8 2 1.38867 5.57112 -2
6 8 2 1.38867 5.57112 1
7 8 2 30.0472 3.20926 -2
7 8 2 30.0472 3.20926 1
8 8 2 10.8114 3.06484 -2
8 8 2 10.8114 3.06484 1
-4 9 3 111.992 11.6366 -2
-4 9 2 111.992 11.6366 1
-3 9 3 35.4279 8.28759 -2
-3 9 2 35.4279 8.28759 1
-2 9 3 -1.8235 7.7955 -2
-2 9 2 -1.8235 7.7955 1
-1 9 3 159.651 13.0941 -2
-1 9 2 159.651 13.0941 1
0 9 3 158.561 12.3635 -2
0 9 2 158.561 12.3635 1
1 9 2 193.522 5.74998 1
2 9 3 359.99 12.3751 -2
2 9 2 359.99 12.3751 1
3 9 3 112.233 4.0474 -2
3 9 2 112.233 4.0474 1
4 9 2 37.0278 4.47945 1
5 9 2 2.26123 2.48912 1
6 9 2 347.048 10.5658 1
7 9 2 0.48414 1.81721 1
8 9 2 4.59908 2.09748 1
-3 10 2 42.1902 7.87377 1
-2 10 2 52.0621 7.7147 1
-1 10 2 0.40578 3.08674 1
0 10 2 11.2316 2.50434 1
1 10 2 18.4901 2.95745 1
2 10 2 24.9984 3.08776 1
3 10 3 58.5635 4.54795 -2
3 10 2 58.5635 4.54795 1
4 10 2 -0.2629 3.0229 1
5 10 2 0.49502 2.9128 1
6 10 2 76.9347 7.66788 1
7 10 2 120.18 9.22704 1
-1 11 4 14.5778 7.65699 -2
-1 11 2 14.5778 7.65699 1
0 11 4 53.9358 7.37043 -2
0 11 2 53.9358 7.37043 1
1 11 4 38.105 6.22055 -2
1 11 2 38.105 6.22055 1
2 11 4 116.734 12.0947 -2
2 11 2 116.734 12.0947 1
3 11 4 26.1414 3.87282 -2
3 11 2 26.1414 3.87282 1
4 11 4 42.8387 15.6079 -2
4 11 2 42.8387 15.6079 1
5 11 4 23.724 13.7559 -2
5 11 2 23.724 13.7559 1
6 11 4 37.2655 14.5906 -2
6 11 2 37.2655 14.5906 1
-5 -10 3 7.72899 5.34287 1
-4 -10 3 -3.8728 4.17964 1
-3 -10 3 -1.6548 2.98588 1
-2 -10 3 17.6145 5.02135 1
-1 -10 3 51.3346 7.11604 1
0 -10 3 36.3272 8.61443 1
1 -10 3 0.97157 3.89933 1
-6 -9 3 16.408 5.67035 1
-5 -9 3 8.99341 5.10814 1
-4 -9 3 144.028 14.3178 1
3 9 8 103.214 9.36964 -2
-3 -9 3 103.214 9.36964 1
2 9 8 7.69588 7.79745 -2
-2 -9 3 7.69588 7.79745 1
1 9 8 28.0384 9.47906 -2
-1 -9 3 28.0384 9.47906 1
0 9 8 14.2759 6.59587 -2
0 -9 3 14.2759 6.59587 1
-1 9 8 39.8294 16.4005 -2
1 -9 3 39.8294 16.4005 1
-2 9 8 96.5451 13.5031 -2
2 -9 3 96.5451 13.5031 1
-3 9 8 101.489 11.7561 -2
3 -9 3 101.489 11.7561 1
7 8 7 68.767 9.72476 -2
-7 -8 3 68.767 9.72476 1
6 8 7 104.144 16.2748 -2
-6 -8 3 104.144 16.2748 1
5 8 7 4.11594 11.3768 -2
-5 -8 3 4.11594 11.3768 1
4 8 7 36.6064 14.1562 -2
-4 -8 3 36.6064 14.1562 1
3 8 7 68.4574 6.76845 -2
-3 -8 3 68.4574 6.76845 1
2 8 7 41.5509 6.29006 -2
-2 -8 3 41.5509 6.29006 1
-1 -8 3 3.18322 1.60434 1
0 -8 3 -0.2023 1.77641 1
-1 8 7 31.3941 12.3818 -2
1 -8 3 31.3941 12.3818 1
-2 8 7 46.7584 13.4752 -2
2 -8 3 46.7584 13.4752 1
3 -8 3 21.1209 5.37699 1
4 -8 3 0.89646 4.17472 1
-8 -7 3 0.66773 3.09126 1
-7 -7 3 0.82023 3.2558 1
-6 -7 3 12.2372 4.1484 1
-5 -7 3 8.057 3.07762 1
-4 -7 3 12.3714 1.88203 1
-3 -7 3 5.43145 1.32231 1
-2 -7 3 285.019 5.22844 1
-1 -7 3 26.8535 2.12016 1
0 -7 3 66.7577 3.83686 1
1 -7 3 124.21 5.78703 1
2 -7 3 7.77933 2.7616 1
3 -7 3 33.8915 6.02725 1
4 -7 3 28.7046 7.04037 1
5 -7 3 -3.9445 3.85967 1
8 6 6 6.03518 5.8258 -2
-8 -6 3 6.03518 5.8258 1
7 6 6 153.127 14.5169 -2
-7 -6 3 153.127 14.5169 1
6 6 6 327.019 11.8556 -2
-6 -6 3 327.019 11.8556 1
5 6 6 91.4996 5.67064 -2
-5 -6 3 91.4996 5.67064 1
4 6 6 668.404 9.96418 -2
-4 -6 3 668.404 9.96418 1
3 6 6 1164.37 13.2924 -2
-3 -6 3 1164.37 13.2924 1
2 6 6 207.628 4.69899 -2
-2 -6 3 207.628 4.69899 1
1 6 6 10.5324 2.52566 -2
-1 -6 3 10.5324 2.52566 1
0 6 6 426.883 12.5751 -2
0 -6 3 426.883 12.5751 1
-1 6 6 46.0372 8.05344 -2
1 -6 3 46.0372 8.05344 1
-2 6 6 56.1213 12.5602 -2
2 -6 3 56.1213 12.5602 1
3 -6 3 4.48995 2.32523 1
4 -6 3 18.8991 3.35903 1
-5 6 6 20.7321 8.5216 -2
5 -6 3 20.7321 8.5216 1
-6 6 6 15.6884 11.5792 -2
6 -6 3 15.6884 11.5792 1
-9 -5 3 55.777 7.26152 1
-8 -5 3 261.542 12.1754 1
-7 -5 3 0.14258 2.06476 1
-6 -5 3 110.26 6.6992 1
-5 -5 3 0.41274 1.17756 1
-4 -5 3 18.6159 1.50576 1
-3 -5 3 117.299 2.99179 1
-2 -5 3 60.1798 2.34334 1
-1 -5 3 5.06313 0.99519 1
0 -5 3 -0.1121 0.64923 1
1 -5 3 246.25 4.90408 1
2 -5 3 4.39224 1.17544 1
3 -5 3 1.54863 1.13193 1
4 -5 3 245.963 8.65146 1
5 -5 3 18.1527 3.14716 1
6 -5 3 60.3038 6.13828 1
7 -5 3 12.5314 3.60483 1
9 4 5 110.92 8.89153 -2
-9 -4 3 110.92 8.89153 1
8 4 5 34.2517 6.11504 -2
-8 -4 3 34.2517 6.11504 1
7 4 5 13.9269 3.9921 -2
-7 -4 3 13.9269 3.9921 1
6 4 5 117.46 4.72091 -2
-6 -4 3 117.46 4.72091 1
5 4 5 13.6203 2.07699 -2
-5 -4 3 13.6203 2.07699 1
4 4 5 44.4198 1.82588 -2
-4 -4 3 44.4198 1.82588 1
3 4 5 3.91804 1.27647 -2
-3 -4 3 3.91804 1.27647 1
2 4 5 2273.42 16.2298 -2
-2 -4 3 2273.42 16.2298 1
1 4 5 114.094 3.58865 -2
-1 -4 3 114.094 3.58865 1
0 4 5 54.6997 2.86489 -2
0 -4 3 54.6997 2.86489 1
-1 4 5 162.793 6.61828 -2
1 -4 3 162.793 6.61828 1
-2 4 5 194.138 6.79493 -2
2 -4 3 194.138 6.79493 1
-3 4 5 405.308 7.70775 -2
3 -4 3 405.308 7.70775 1
-4 4 5 21.9185 3.46465 -2
4 -4 3 21.9185 3.46465 1
-5 4 5 108.88 7.21697 -2
5 -4 3 108.88 7.21697 1
-6 4 5 118.435 7.99492 -2
6 -4 3 118.435 7.99492 1
-7 4 5 133.724 9.13633 -2
7 -4 3 133.724 9.13633 1
-9 -3 3 62.7543 7.97172 1
-8 -3 3 50.5589 6.62331 1
-7 -3 3 -0.3518 1.92469 1
-6 -3 3 1.02715 1.20039 1
-5 -3 3 66.4825 2.69569 1
-4 -3 3 88.0326 2.08154 1
-3 -3 3 19.4161 1.2497 1
-2 -3 3 577.573 5.7564 1
-1 -3 3 1898.62 13.4715 1
0 -3 3 633.874 6.58533 1
1 -3 3 19.0323 1.39531 1
2 -3 3 71.9426 2.57503 1
3 -3 3 107.944 3.12562 1
4 -3 3 1669.43 12.5121 1
5 -3 3 0.74685 1.05113 1
6 -3 3 0.75186 1.4241 1
7 -3 3 5.18012 2.19251 1
8 -3 3 0.47713 2.68239 1
9 2 4 58.208 7.5804 -2
-9 -2 3 58.208 7.5804 1
8 2 4 74.9913 8.02009 -2
-8 -2 3 74.9913 8.02009 1
7 2 4 17.4667 3.79704 -2
-7 -2 3 17.4667 3.79704 1
6 2 4 92.5147 3.23913 -2
-6 -2 3 92.5147 3.23913 1
5 2 4 140.569 3.17492 -2
-5 -2 3 140.569 3.17492 1
4 2 4 1953.62 12.4333 -2
-4 -2 3 1953.62 12.4333 1
3 2 4 492.666 4.79744 -2
-3 -2 3 492.666 4.79744 1
2 2 4 1510.38 9.9406 -2
-2 -2 3 1510.38 9.9406 1
1 2 4 375.166 4.50926 -2
-1 -2 3 375.166 4.50926 1
0 2 4 3227.67 19.4333 -2
0 -2 3 3227.67 19.4333 1
-1 2 4 372.533 4.02585 -2
1 -2 3 372.533 4.02585 1
-2 2 4 191.988 3.45211 -2
2 -2 3 191.988 3.45211 1
-3 2 4 139.538 2.6806 -2
3 -2 3 139.538 2.6806 1
-4 2 4 58.9525 2.09344 -2
4 -2 3 58.9525 2.09344 1
-5 2 4 701.393 7.87929 -2
5 -2 3 701.393 7.87929 1
-6 2 4 246.271 4.77138 -2
6 -2 3 246.271 4.77138 1
-7 2 4 13.1643 2.18128 -2
7 -2 3 13.1643 2.18128 1
-8 2 4 11.2277 7.77628 -2
8 -2 3 11.2277 7.77628 1
-9 -1 3 0.13962 3.23721 1
-8 -1 3 24.2173 5.40663 1
-7 -1 3 885.658 16.2107 1
-6 -1 3 115.655 4.19435 1
-5 -1 3 202.174 2.69718 1
-4 -1 3 77.685 1.84255 1
-3 -1 3 186.318 2.27339 1
-2 -1 3 84.8588 1.90945 1
-1 -1 3 1003.95 7.55068 1
0 -1 3 142.048 2.55842 1
1 -1 3 35.7889 1.32155 1
2 -1 3 908.654 7.1651 1
3 -1 3 145.862 2.45112 1
4 -1 3 36.0161 1.37387 1
5 -1 3 0.38186 0.60731 1
6 -1 3 114.755 2.52633 1
7 -1 3 0.64828 1.9006 1
8 -1 3 55.9891 7.031 1
9 -1 3 19.377 4.74901 1
9 0 3 92.3183 10.6966 -2
-9 0 3 92.3183 10.6966 1
8 0 3 6.13489 6.31212 -2
-8 0 3 6.13489 6.31212 1
7 0 3 199.397 7.80272 -2
-7 0 3 199.397 7.80272 1
6 0 3 230.804 3.511 -2
-6 0 3 230.804 3.511 1
5 0 3 225.148 3.24397 -2
-5 0 3 225.148 3.24397 1
4 0 3 228.778 3.32343 -2
-4 0 3 228.778 3.32343 1
3 0 3 1921.42 10.2707 -2
-3 0 3 1921.42 10.2707 1
2 0 3 115.206 1.87537 -2
-2 0 3 115.206 1.87537 1
1 0 3 2381.36 13.6059 -2
-1 0 3 2381.36 13.6059 1
0 0 3 -0.1388 0.78541 -2
0 0 3 -0.1388 0.78541 1
-1 0 3 1529.38 9.51302 -2
1 0 3 1529.38 9.51302 1
-2 0 3 178.088 2.27542 -2
2 0 3 178.088 2.27542 1
-3 0 3 3168.52 15.4436 -2
3 0 3 3168.52 15.4436 1
-4 0 3 147.495 2.06356 -2
4 0 3 147.495 2.06356 1
-5 0 3 375.41 5.09027 -2
5 0 3 375.41 5.09027 1
-6 0 3 141.611 4.00131 -2
6 0 3 141.611 4.00131 1
-7 0 3 187.812 6.66384 -2
7 0 3 187.812 6.66384 1
-8 0 3 12.5148 4.91113 -2
8 0 3 12.5148 4.91113 1
-9 0 3 116.104 9.18072 -2
9 0 3 116.104 9.18072 1
-9 1 3 36.7566 7.98341 1
-8 1 3 12.4355 4.9221 1
-7 1 3 0.3023 1.12917 1
-6 1 3 1.8764 0.85287 1
-5 1 3 0.72479 0.66944 1
-4 1 3 681.883 5.66342 1
-3 1 3 270.609 3.23476 1
-2 1 3 157.347 2.28113 1
-1 1 3 3952.26 18.394 1
0 1 3 96.9643 1.73456 1
1 1 3 416.439 3.71531 1
2 1 3 154.044 1.81945 1
3 1 3 3046.75 14.9091 1
4 1 3 38.7676 1.54973 1
5 1 3 51.6802 2.0696 1
6 1 3 54.1296 2.46531 1
7 1 3 143.959 5.85203 1
8 1 3 0.92843 1.97996 1
9 1 3 91.5969 8.40958 1
9 -2 2 -3.4882 8.88276 -2
-9 2 3 -3.4882 8.88276 1
8 -2 2 8.15265 8.26971 -2
-8 2 3 8.15265 8.26971 1
7 -2 2 36.5572 3.67102 -2
-7 2 3 36.5572 3.67102 1
6 -2 2 50.9452 3.15815 -2
-6 2 3 50.9452 3.15815 1
5 -2 2 46.0812 2.05329 -2
-5 2 3 46.0812 2.05329 1
4 -2 2 215.86 3.3953 -2
-4 2 3 215.86 3.3953 1
3 -2 2 420.072 5.29002 -2
-3 2 3 420.072 5.29002 1
2 -2 2 31.5271 1.55464 -2
-2 2 3 31.5271 1.55464 1
1 -2 2 167.067 2.77648 -2
-1 2 3 167.067 2.77648 1
0 -2 2 9999.99 45.8228 -2
0 2 3 9999.99 45.8228 1
-1 -2 2 4445.2 20.6547 -2
1 2 3 4445.2 20.6547 1
-2 -2 2 58.6242 1.08848 -2
2 2 3 58.6242 1.08848 1
-3 -2 2 1442.26 10.5833 -2
3 2 3 1442.26 10.5833 1
-4 -2 2 186.749 2.65949 -2
4 2 3 186.749 2.65949 1
-5 -2 2 10.6204 1.20967 -2
5 2 3 10.6204 1.20967 1
-6 -2 2 53.7283 2.4361 -2
6 2 3 53.7283 2.4361 1
-7 -2 2 59.134 3.18485 -2
7 2 3 59.134 3.18485 1
-8 -2 2 367.988 10.0295 -2
8 2 3 367.988 10.0295 1
-9 -2 2 65.9933 6.16217 -2
9 2 3 65.9933 6.16217 1
-8 3 3 65.1794 6.84201 1
-7 3 3 43.6637 4.93526 1
-6 3 3 81.7587 3.42189 1
-5 3 3 129.662 3.55621 1
-4 3 3 325.226 4.82596 1
-3 3 3 970.894 9.03393 1
-2 3 3 194.046 3.23066 1
-1 3 3 191.383 3.16248 1
0 3 3 1607.63 9.83523 1
1 3 3 8.00409 0.6306 1
2 3 3 571.831 3.8523 1
3 3 3 275.767 3.33707 1
4 3 3 142.373 3.09994 1
5 3 3 93.4473 2.8207 1
6 3 3 2.47714 1.43802 1
7 3 3 13.741 1.65968 1
8 3 3 -0.9293 1.15945 1
9 3 3 137.723 6.48193 1
8 -4 1 18.7143 6.93306 -2
-8 4 3 18.7143 6.93306 1
7 -4 1 12.2974 5.61212 -2
-7 4 3 12.2974 5.61212 1
6 -4 1 29.7102 3.96569 -2
-6 4 3 29.7102 3.96569 1
5 -4 1 217.941 6.52564 -2
-5 4 3 217.941 6.52564 1
4 -4 1 287.419 6.70615 -2
-4 4 3 287.419 6.70615 1
3 -4 1 70.5765 6.4985 -2
-3 4 3 70.5765 6.4985 1
2 -4 1 -4.4295 3.74435 -2
-2 4 3 -4.4295 3.74435 1
-1 4 3 111.82 2.43251 1
0 4 3 298.142 3.87206 1
-1 -4 1 882.349 13.4537 -2
1 4 3 882.349 13.4537 1
-2 -4 1 27.9303 1.26682 -2
2 4 3 27.9303 1.26682 1
-3 -4 1 1100.42 10.0379 -2
3 4 3 1100.42 10.0379 1
-4 -4 1 320.605 5.48111 -2
4 4 3 320.605 5.48111 1
-5 -4 1 156.646 3.83498 -2
5 4 3 156.646 3.83498 1
-6 -4 1 915.36 13.9682 -2
6 4 3 915.36 13.9682 1
-7 -4 1 61.4417 3.64058 -2
7 4 3 61.4417 3.64058 1
-8 -4 1 91.4238 3.4815 -2
8 4 3 91.4238 3.4815 1
-9 -4 1 2.93357 1.97492 -2
9 4 3 2.93357 1.97492 1
-7 5 3 1.54818 3.0374 1
-6 5 3 120.478 6.42905 1
-5 5 3 2.26571 1.79621 1
-4 5 3 46.5112 2.70033 1
-3 5 3 16.4779 1.4483 1
-2 5 3 62.3226 2.73882 1
-1 5 3 258.695 3.88567 1
0 5 3 245.548 3.45111 1
1 5 3 952.903 6.80606 1
2 5 3 12.8075 0.83542 1
3 5 3 330.15 4.36634 1
4 5 3 352.296 4.31698 1
5 5 3 1.89205 0.84521 1
6 5 3 10.628 1.66813 1
7 5 3 690.762 37.8642 1
8 5 3 5.2223 7.7071 1
9 5 3 2.93016 7.2305 1
-7 6 0 98.4737 10.7081 -2
-7 6 3 98.4737 10.7081 1
-6 6 0 148.799 20.6472 -2
-6 6 3 148.799 20.6472 1
-5 6 0 36.1007 10.8581 -2
-5 6 3 36.1007 10.8581 1
-4 6 3 50.6513 4.3902 1
-3 6 3 119.396 4.36452 1
-2 6 3 13.6883 1.47583 1
-1 6 3 895.813 8.22893 1
0 6 3 1.17754 0.68306 1
1 6 3 0.70934 0.57724 1
2 6 0 96.5175 3.9979 -2
2 6 3 96.5175 3.9979 1
3 6 0 185.657 11.3524 -2
3 6 3 185.657 11.3524 1
4 6 0 199.779 6.68722 -2
4 6 3 199.779 6.68722 1
5 6 0 258.523 5.51115 -2
5 6 3 258.523 5.51115 1
6 6 0 94.4811 5.95307 -2
6 6 3 94.4811 5.95307 1
7 6 0 43.4517 14.5835 -2
7 6 3 43.4517 14.5835 1
8 6 0 66.2433 17.0733 -2
8 6 3 66.2433 17.0733 1
9 6 0 28.6559 16.6639 -2
9 6 3 28.6559 16.6639 1
-6 7 1 47.0573 11.4406 -2
-6 7 3 47.0573 11.4406 1
-5 7 3 19.3941 6.05787 1
-4 7 3 12.3582 4.22887 1
-3 7 3 10.1156 2.92468 1
-2 7 3 5.85691 1.49971 1
-1 7 3 70.0161 3.26355 1
0 7 3 85.2725 2.86258 1
1 7 3 120.509 2.93614 1
2 7 3 45.4522 1.96506 1
3 7 3 -0.0659 0.85548 1
4 7 3 11.62 1.80252 1
5 7 3 278.272 5.83183 1
6 7 3 59.971 3.17349 1
7 7 3 121.125 5.33526 1
8 7 3 13.2493 10.3759 1
9 7 3 15.4241 10.6785 1
-5 8 3 27.0804 6.98596 1
-4 8 3 17.2853 5.19729 1
-3 8 3 25.4338 4.16165 1
-2 8 3 44.5596 4.5272 1
-1 8 3 281.305 6.69943 1
0 8 3 136.466 4.65319 1
1 8 3 13.2906 1.43042 1
2 8 3 50.8354 2.34226 1
3 8 1 90.5341 5.11317 -2
3 8 3 90.5341 5.11317 1
4 8 3 21.2913 2.80369 1
5 8 3 35.9717 3.5155 1
6 8 1 804.963 42.4387 -2
6 8 3 804.963 42.4387 1
7 8 1 30.0622 3.63614 -2
7 8 3 30.0622 3.63614 1
8 8 1 56.8399 17.438 -2
8 8 3 56.8399 17.438 1
-4 9 2 77.3055 10.516 -2
-4 9 3 77.3055 10.516 1
-3 9 2 35.3615 8.44479 -2
-3 9 3 35.3615 8.44479 1
-2 9 2 4.41844 8.32574 -2
-2 9 3 4.41844 8.32574 1
-1 9 2 160.579 10.0666 -2
-1 9 3 160.579 10.0666 1
0 9 2 212.618 10.6186 -2
0 9 3 212.618 10.6186 1
1 9 3 21.734 2.21408 1
2 9 2 247.222 11.4478 -2
2 9 3 247.222 11.4478 1
3 9 2 103.645 4.2907 -2
3 9 3 103.645 4.2907 1
4 9 3 3.15325 2.32914 1
5 9 3 3.03499 2.70342 1
6 9 3 41.078 4.44148 1
7 9 3 44.3813 4.21352 1
8 9 3 37.8383 3.44197 1
-3 10 3 125.323 12.006 1
-2 10 3 4.48346 3.79511 1
-1 10 3 69.0573 8.27186 1
0 10 3 153.403 6.42994 1
1 10 3 157.769 6.92958 1
2 10 3 5.76973 1.9999 1
3 10 2 54.0975 4.65822 -2
3 10 3 54.0975 4.65822 1
4 10 3 47.2816 6.36402 1
5 10 3 130.773 10.0544 1
6 10 3 166.09 10.8455 1
7 10 3 3.64784 2.94722 1
-1 11 3 35.2631 8.30884 -2
-1 11 3 35.2631 8.30884 1
0 11 3 62.6896 7.65209 -2
0 11 3 62.6896 7.65209 1
1 11 3 7.2377 5.00754 -2
1 11 3 7.2377 5.00754 1
2 11 3 133.905 12.2161 -2
2 11 3 133.905 12.2161 1
3 11 3 8.92587 14.1161 -2
3 11 3 8.92587 14.1161 1
4 11 3 4.58469 8.09818 -2
4 11 3 4.58469 8.09818 1
5 11 3 15.8868 9.5084 -2
5 11 3 15.8868 9.5084 1
6 11 3 59.0584 11.3391 -2
6 11 3 59.0584 11.3391 1
2 12 3 2.26565 2.91238 1
3 12 3 56.4635 9.87229 1
4 10 9 5.28682 4.35578 -2
-4 -10 4 5.28682 4.35578 1
-3 -10 4 9.80821 4.4062 1
-2 -10 4 90.0052 9.85674 1
-1 -10 4 10.4874 5.69458 1
0 -10 4 5.12146 5.69168 1
-6 -9 4 34.8218 7.83314 1
-5 -9 4 -2.5603 3.89335 1
4 9 9 30.0181 4.89184 -2
-4 -9 4 30.0181 4.89184 1
3 9 9 15.0318 10.1482 -2
-3 -9 4 15.0318 10.1482 1
2 9 9 117.648 16.1727 -2
-2 -9 4 117.648 16.1727 1
1 9 9 44.2522 15.3035 -2
-1 -9 4 44.2522 15.3035 1
0 9 9 45.096 15.8615 -2
0 -9 4 45.096 15.8615 1
-1 9 9 13.5717 15.5526 -2
1 -9 4 13.5717 15.5526 1
-2 9 9 19.5648 18.6145 -2
2 -9 4 19.5648 18.6145 1
7 8 8 -6.9941 8.37783 -2
-7 -8 4 -6.9941 8.37783 1
6 8 8 144.146 13.3246 -2
-6 -8 4 144.146 13.3246 1
5 8 8 -3.845 12.6842 -2
-5 -8 4 -3.845 12.6842 1
4 8 8 33.3787 4.74147 -2
-4 -8 4 33.3787 4.74147 1
3 8 8 11.8228 4.95467 -2
-3 -8 4 11.8228 4.95467 1
2 8 8 40.9725 4.67604 -2
-2 -8 4 40.9725 4.67604 1
1 8 8 168.132 19.869 -2
-1 -8 4 168.132 19.869 1
0 8 8 73.2476 15.7017 -2
0 -8 4 73.2476 15.7017 1
-1 8 8 19.1447 12.5889 -2
1 -8 4 19.1447 12.5889 1
-2 8 8 24.9331 14.0297 -2
2 -8 4 24.9331 14.0297 1
3 -8 4 16.115 5.45884 1
4 -8 4 63.6434 10.5586 1
-8 -7 4 31.8318 6.28961 1
-7 -7 4 1.49601 3.53901 1
-6 -7 4 2.77792 3.76454 1
-5 -7 4 5.09043 4.11926 1
-4 -7 4 27.3871 2.39814 1
-3 -7 4 90.485 4.91304 1
-2 -7 4 26.6553 2.6353 1
-1 -7 4 51.9327 3.72561 1
0 -7 4 210.188 7.67218 1
1 -7 4 52.5983 6.1679 1
2 -7 4 9.33051 4.48483 1
3 -7 4 24.3738 5.72011 1
4 -7 4 43.2981 8.81283 1
5 -7 4 137.783 14.5204 1
8 6 7 29.2388 7.62258 -2
-8 -6 4 29.2388 7.62258 1
7 6 7 34.0642 9.94819 -2
-7 -6 4 34.0642 9.94819 1
6 6 7 19.9863 7.06938 -2
-6 -6 4 19.9863 7.06938 1
5 6 7 21.3889 4.442 -2
-5 -6 4 21.3889 4.442 1
4 6 7 5.36693 2.15106 -2
-4 -6 4 5.36693 2.15106 1
3 6 7 2116.2 19.576 -2
-3 -6 4 2116.2 19.576 1
2 6 7 69.8603 3.9781 -2
-2 -6 4 69.8603 3.9781 1
1 6 7 377.338 8.51667 -2
-1 -6 4 377.338 8.51667 1
0 6 7 198.033 6.02351 -2
0 -6 4 198.033 6.02351 1
-1 6 7 35.2901 8.68563 -2
1 -6 4 35.2901 8.68563 1
2 -6 4 2.99376 2.52001 1
3 -6 4 1.18756 2.58087 1
-4 6 7 62.5843 13.8805 -2
4 -6 4 62.5843 13.8805 1
-5 6 7 6.98948 11.1031 -2
5 -6 4 6.98948 11.1031 1
-6 6 7 156.7 19.2979 -2
6 -6 4 156.7 19.2979 1
-8 -5 4 26.009 5.50693 1
-7 -5 4 0.45591 2.8456 1
-6 -5 4 162.533 12.0968 1
-5 -5 4 109.736 5.40168 1
-4 -5 4 54.7398 2.41138 1
-3 -5 4 -0.4279 0.60166 1
-2 -5 4 17.5057 1.5176 1
-1 -5 4 49.8576 2.62587 1
0 -5 4 -0.5014 0.79117 1
1 -5 4 0.20268 0.92302 1
2 -5 4 26.1805 2.32616 1
3 -5 4 143.854 5.5196 1
4 -5 4 12.4492 2.56317 1
5 -5 4 38.4303 4.34871 1
6 -5 4 4.96272 2.79071 1
9 4 6 127.465 10.3887 -2
-9 -4 4 127.465 10.3887 1
8 4 6 14.6267 5.69368 -2
-8 -4 4 14.6267 5.69368 1
7 4 6 -0.9112 4.52448 -2
-7 -4 4 -0.9112 4.52448 1
6 4 6 69.6078 5.36304 -2
-6 -4 4 69.6078 5.36304 1
5 4 6 66.0071 3.7804 -2
-5 -4 4 66.0071 3.7804 1
4 4 6 373.58 4.98938 -2
-4 -4 4 373.58 4.98938 1
3 4 6 188.657 3.1491 -2
-3 -4 4 188.657 3.1491 1
2 4 6 574.278 6.64588 -2
-2 -4 4 574.278 6.64588 1
1 4 6 65.5346 2.76671 -2
-1 -4 4 65.5346 2.76671 1
0 4 6 861.143 9.40132 -2
0 -4 4 861.143 9.40132 1
-1 4 6 72.6537 3.36693 -2
1 -4 4 72.6537 3.36693 1
-2 4 6 42.6746 2.99183 -2
2 -4 4 42.6746 2.99183 1
-3 4 6 202.18 6.5528 -2
3 -4 4 202.18 6.5528 1
-4 4 6 653.174 11.7663 -2
4 -4 4 653.174 11.7663 1
-5 4 6 27.4106 4.78784 -2
5 -4 4 27.4106 4.78784 1
-6 4 6 158.578 8.1026 -2
6 -4 4 158.578 8.1026 1
-7 4 6 110.491 8.92912 -2
7 -4 4 110.491 8.92912 1
-9 -3 4 3.39518 3.48189 1
-8 -3 4 138.933 11.6444 1
-7 -3 4 7.21636 3.34547 1
-6 -3 4 2.30852 1.57112 1
-5 -3 4 21.07 1.35215 1
-4 -3 4 0.11 0.65146 1
-3 -3 4 521.849 5.11615 1
-2 -3 4 664.74 6.6549 1
-1 -3 4 1.50359 0.82227 1
0 -3 4 7.22793 1.06717 1
1 -3 4 55.0375 2.4315 1
2 -3 4 154.262 3.92363 1
3 -3 4 251.533 4.45049 1
4 -3 4 1028.04 11.3867 1
5 -3 4 220.72 5.79231 1
6 -3 4 7.00101 1.85945 1
7 -3 4 3.51314 2.2621 1
8 -3 4 86.7224 12.2049 1
9 2 5 97.9847 9.80798 -2
-9 -2 4 97.9847 9.80798 1
8 2 5 35.126 6.58915 -2
-8 -2 4 35.126 6.58915 1
7 2 5 37.2753 6.28518 -2
-7 -2 4 37.2753 6.28518 1
6 2 5 66.4127 3.74715 -2
-6 -2 4 66.4127 3.74715 1
5 2 5 87.1387 2.24121 -2
-5 -2 4 87.1387 2.24121 1
4 2 5 331.537 4.30289 -2
-4 -2 4 331.537 4.30289 1
3 2 5 1227.04 8.56725 -2
-3 -2 4 1227.04 8.56725 1
2 2 5 945.273 8.10482 -2
-2 -2 4 945.273 8.10482 1
1 2 5 24.706 1.66732 -2
-1 -2 4 24.706 1.66732 1
0 2 5 896.846 8.27938 -2
0 -2 4 896.846 8.27938 1
-1 2 5 795.235 7.48883 -2
1 -2 4 795.235 7.48883 1
-2 2 5 101.191 2.71611 -2
2 -2 4 101.191 2.71611 1
-3 2 5 161.533 3.4277 -2
3 -2 4 161.533 3.4277 1
-4 2 5 9.87372 1.47651 -2
4 -2 4 9.87372 1.47651 1
-5 2 5 378.764 5.66746 -2
5 -2 4 378.764 5.66746 1
-6 2 5 78.4404 3.38108 -2
6 -2 4 78.4404 3.38108 1
-7 2 5 31.7985 2.821 -2
7 -2 4 31.7985 2.821 1
-8 2 5 1.38309 7.5373 -2
8 -2 4 1.38309 7.5373 1
-9 -1 4 5.1553 4.09314 1
-8 -1 4 -0.8786 3.05217 1
-7 -1 4 458.501 13.3003 1
-6 -1 4 260.9 4.58732 1
-5 -1 4 11.6368 1.04816 1
-4 -1 4 255.031 3.61004 1
-3 -1 4 340.971 3.98965 1
-2 -1 4 25.9118 1.37687 1
-1 -1 4 39.8701 1.68202 1
0 -1 4 7.45239 0.98258 1
1 -1 4 1198.79 8.58379 1
2 -1 4 7.47719 0.88265 1
3 -1 4 86.0172 2.3543 1
4 -1 4 83.4292 2.27779 1
5 -1 4 154.09 3.05434 1
6 -1 4 4.00462 0.90697 1
7 -1 4 74.0804 6.68096 1
8 -1 4 21.6919 5.15851 1
9 -1 4 7.92716 5.26525 1
9 0 4 121.05 12.3178 -2
-9 0 4 121.05 12.3178 1
8 0 4 131.153 11.6845 -2
-8 0 4 131.153 11.6845 1
7 0 4 52.3357 6.70904 -2
-7 0 4 52.3357 6.70904 1
6 0 4 91.4702 3.14309 -2
-6 0 4 91.4702 3.14309 1
5 0 4 1.76292 1.27449 -2
-5 0 4 1.76292 1.27449 1
4 0 4 439.915 4.45694 -2
-4 0 4 439.915 4.45694 1
3 0 4 131.824 2.34481 -2
-3 0 4 131.824 2.34481 1
2 0 4 777.087 6.47443 -2
-2 0 4 777.087 6.47443 1
1 0 4 614.672 5.49849 -2
-1 0 4 614.672 5.49849 1
0 0 4 477.494 5.32177 -2
0 0 4 477.494 5.32177 1
-1 0 4 393.542 4.30841 -2
1 0 4 393.542 4.30841 1
-2 0 4 1210.48 8.87384 -2
2 0 4 1210.48 8.87384 1
-3 0 4 158.354 2.47953 -2
3 0 4 158.354 2.47953 1
-4 0 4 573.109 4.94078 -2
4 0 4 573.109 4.94078 1
-5 0 4 0.00804 0.76583 -2
5 0 4 0.00804 0.76583 1
-6 0 4 63.0249 3.11051 -2
6 0 4 63.0249 3.11051 1
-7 0 4 49.8248 4.61897 -2
7 0 4 49.8248 4.61897 1
-8 0 4 80.6237 7.51243 -2
8 0 4 80.6237 7.51243 1
-9 0 4 127.34 9.66813 -2
9 0 4 127.34 9.66813 1
-9 1 4 16.1602 5.67324 1
-8 1 4 8.61643 4.56071 1
-7 1 4 202.275 7.04807 1
-6 1 4 9.56501 1.4815 1
-5 1 4 8.05882 0.92172 1
-4 1 4 400.251 4.71952 1
-3 1 4 75.8952 2.32083 1
-2 1 4 160.467 2.87602 1
-1 1 4 177.619 2.65441 1
0 1 4 582.192 5.14968 1
1 1 4 594.746 5.47534 1
2 1 4 670.396 5.13037 1
3 1 4 79.51 1.72717 1
4 1 4 161.9 2.21589 1
5 1 4 7.20938 1.00735 1
6 1 4 14.189 1.67741 1
7 1 4 174.471 7.05804 1
8 1 4 85.5915 7.83291 1
9 1 4 1.35895 3.08507 1
8 -2 3 2.79506 4.17729 -2
-8 2 4 2.79506 4.17729 1
7 -2 3 17.4147 3.45878 -2
-7 2 4 17.4147 3.45878 1
6 -2 3 371.895 6.57935 -2
-6 2 4 371.895 6.57935 1
5 -2 3 406.655 5.18062 -2
-5 2 4 406.655 5.18062 1
4 -2 3 80.8366 2.46376 -2
-4 2 4 80.8366 2.46376 1
3 -2 3 164.815 2.88877 -2
-3 2 4 164.815 2.88877 1
2 -2 3 327.008 3.91842 -2
-2 2 4 327.008 3.91842 1
1 -2 3 279.41 3.90872 -2
-1 2 4 279.41 3.90872 1
0 -2 3 5007.89 25.6797 -2
0 2 4 5007.89 25.6797 1
-1 -2 3 614.873 5.68307 -2
1 2 4 614.873 5.68307 1
-2 -2 3 1035.29 6.53863 -2
2 2 4 1035.29 6.53863 1
-3 -2 3 286.079 2.94104 -2
3 2 4 286.079 2.94104 1
-4 -2 3 1179.18 9.63173 -2
4 2 4 1179.18 9.63173 1
-5 -2 3 175.177 2.99783 -2
5 2 4 175.177 2.99783 1
-6 -2 3 55.0675 2.83761 -2
6 2 4 55.0675 2.83761 1
-7 -2 3 31.7512 2.79926 -2
7 2 4 31.7512 2.79926 1
-8 -2 3 54.2494 4.64581 -2
8 2 4 54.2494 4.64581 1
-9 -2 3 72.411 6.98834 -2
9 2 4 72.411 6.98834 1
-8 3 4 3.64673 3.33482 1
-7 3 4 62.1225 5.79406 1
-6 3 4 1.87377 1.20895 1
-5 3 4 173.874 4.35481 1
-4 3 4 11.8602 1.30029 1
-3 3 4 204.495 3.67712 1
-2 3 4 643.316 6.0161 1
-1 3 4 853.832 7.32368 1
0 3 4 315.669 3.77669 1
1 3 4 173.816 2.46444 1
2 3 4 6.25052 0.66313 1
3 3 4 149.397 2.89895 1
4 3 4 81.2355 2.11861 1
5 3 4 42.9703 1.64284 1
6 3 4 183.59 4.39385 1
7 3 4 126.508 4.41915 1
8 3 4 16.0174 2.40893 1
9 3 4 16.5379 3.23287 1
8 -4 2 149.055 10.8217 -2
-8 4 4 149.055 10.8217 1
7 -4 2 38.788 7.12873 -2
-7 4 4 38.788 7.12873 1
6 -4 2 341.387 8.29395 -2
-6 4 4 341.387 8.29395 1
5 -4 2 659.75 11.0553 -2
-5 4 4 659.75 11.0553 1
4 -4 2 41.9249 3.17343 -2
-4 4 4 41.9249 3.17343 1
3 -4 2 30.7805 2.93644 -2
-3 4 4 30.7805 2.93644 1
2 -4 2 378.225 7.69191 -2
-2 4 4 378.225 7.69191 1
1 -4 2 186.087 6.16708 -2
-1 4 4 186.087 6.16708 1
0 -4 2 366.084 5.75794 -2
0 4 4 366.084 5.75794 1
-1 -4 2 548.915 5.91739 -2
1 4 4 548.915 5.91739 1
-2 -4 2 0.88294 1.03743 -2
2 4 4 0.88294 1.03743 1
-3 -4 2 169.099 3.51337 -2
3 4 4 169.099 3.51337 1
-4 -4 2 110.374 2.33609 -2
4 4 4 110.374 2.33609 1
-5 -4 2 26.004 2.49026 -2
5 4 4 26.004 2.49026 1
-6 -4 2 173.833 6.69525 -2
6 4 4 173.833 6.69525 1
-7 -4 2 217.067 4.72648 -2
7 4 4 217.067 4.72648 1
-8 -4 2 161.107 4.75041 -2
8 4 4 161.107 4.75041 1
-9 -4 2 52.5494 3.94967 -2
9 4 4 52.5494 3.94967 1
-7 5 4 8.70645 3.89837 1
-6 5 4 2.11012 1.97777 1
-5 5 4 3.05759 1.73315 1
-4 5 4 5.33935 1.47859 1
-3 5 4 0.6928 0.9609 1
-2 5 4 290.127 5.09546 1
-1 5 4 14.9632 1.22109 1
0 5 4 592.281 5.77897 1
1 5 4 887.29 6.65669 1
2 5 4 -0.0044 0.48557 1
3 5 4 9.35698 1.01574 1
4 5 4 768.057 7.43142 1
5 5 4 119.064 2.91384 1
6 5 4 2.50894 1.34884 1
7 5 4 27.4764 2.93681 1
8 5 4 45.3573 3.69338 1
9 5 4 64.5939 4.4833 1
7 -6 1 43.227 10.9644 -2
-7 6 4 43.227 10.9644 1
6 -6 1 64.2378 9.02867 -2
-6 6 4 64.2378 9.02867 1
5 -6 1 -0.0024 7.59831 -2
-5 6 4 -0.0024 7.59831 1
4 -6 1 19.1208 10.1165 -2
-4 6 4 19.1208 10.1165 1
-3 6 4 128.874 4.67742 1
-2 6 4 95.4066 3.10462 1
-1 6 4 31.4523 1.8663 1
0 -6 1 -3.2298 5.69859 -2
0 6 4 -3.2298 5.69859 1
-1 -6 1 424.646 14.4472 -2
1 6 4 424.646 14.4472 1
-2 -6 1 20.8962 3.19163 -2
2 6 4 20.8962 3.19163 1
-3 -6 1 169.261 6.47546 -2
3 6 4 169.261 6.47546 1
-4 -6 1 5.69563 2.09 -2
4 6 4 5.69563 2.09 1
-5 -6 1 314.121 7.2898 -2
5 6 4 314.121 7.2898 1
-6 -6 1 494.401 8.6853 -2
6 6 4 494.401 8.6853 1
-7 -6 1 3.64854 2.16722 -2
7 6 4 3.64854 2.16722 1
-8 -6 1 23.2456 13.5907 -2
8 6 4 23.2456 13.5907 1
-9 -6 1 -1.1463 13.9628 -2
9 6 4 -1.1463 13.9628 1
-6 7 0 43.0499 10.6449 -2
-6 7 4 43.0499 10.6449 1
-5 7 0 2.67483 13.0741 -2
-5 7 4 2.67483 13.0741 1
-4 7 4 19.3864 4.27671 1
-3 7 4 23.9455 3.6124 1
-2 7 4 1069.59 11.7078 1
-1 7 4 566.13 7.01745 1
0 7 4 1.33878 0.8035 1
1 7 4 90.4529 2.58392 1
2 7 4 5.26903 0.95408 1
3 7 4 3.28089 0.74986 1
4 7 4 0.17429 1.11635 1
5 7 4 42.5791 3.07107 1
6 7 4 56.0437 3.34596 1
7 7 4 85.7608 3.07742 1
8 7 4 12.6354 9.82721 1
9 7 4 7.12332 7.79021 1
-5 8 4 177.183 16.9163 1
-4 8 4 36.0573 6.52423 1
-3 8 4 0.82117 2.64143 1
-2 8 4 52.2787 4.76889 1
-1 8 4 22.4256 2.24643 1
0 8 4 4.39397 1.14633 1
1 8 4 30.0371 1.94143 1
2 8 4 22.0235 1.75724 1
3 8 0 431.502 15.5394 -2
3 8 4 431.502 15.5394 1
4 8 4 36.7885 3.76639 1
5 8 4 375.844 9.13865 1
6 8 0 25.206 13.7329 -2
6 8 4 25.206 13.7329 1
7 8 0 24.6021 3.42022 -2
7 8 4 24.6021 3.42022 1
8 8 0 14.6798 4.83877 -2
8 8 4 14.6798 4.83877 1
-4 9 1 9.35517 8.0682 -2
-4 9 4 9.35517 8.0682 1
-3 9 1 -2.4946 7.08611 -2
-3 9 4 -2.4946 7.08611 1
-2 9 1 9.22056 5.73095 -2
-2 9 4 9.22056 5.73095 1
-1 9 1 23.9347 6.50755 -2
-1 9 4 23.9347 6.50755 1
0 9 1 64.6895 6.15464 -2
0 9 4 64.6895 6.15464 1
1 9 1 9.0246 4.62489 -2
1 9 4 9.0246 4.62489 1
2 9 1 556.95 23.6772 -2
2 9 4 556.95 23.6772 1
3 9 1 55.7592 7.45007 -2
3 9 4 55.7592 7.45007 1
4 9 4 2.41337 2.41963 1
5 9 4 428.346 14.1753 1
6 9 4 54.5539 5.07723 1
7 9 4 -1.6674 1.78914 1
8 9 4 15.5269 2.55566 1
-3 10 4 1.24919 4.08157 1
-2 10 4 47.6926 7.5669 1
-1 10 4 70.3946 7.07729 1
0 10 4 152.594 6.47651 1
1 10 4 124.84 6.12724 1
2 10 4 29.9935 3.33408 1
3 10 4 29.2 5.1974 1
4 10 4 46.8342 6.52752 1
5 10 4 256.409 12.4214 1
6 10 4 10.5417 3.67093 1
7 10 4 3.33904 2.85322 1
-1 11 2 14.8501 7.44534 -2
-1 11 4 14.8501 7.44534 1
0 11 2 82.3132 8.42201 -2
0 11 4 82.3132 8.42201 1
1 11 2 21.333 6.32457 -2
1 11 4 21.333 6.32457 1
2 11 2 163.759 8.73699 -2
2 11 4 163.759 8.73699 1
3 11 2 24.8983 15.101 -2
3 11 4 24.8983 15.101 1
4 11 2 20.2616 8.9939 -2
4 11 4 20.2616 8.9939 1
5 11 2 13.8747 7.04053 -2
5 11 4 13.8747 7.04053 1
6 11 2 29.0787 9.86672 -2
6 11 4 29.0787 9.86672 1
2 12 4 8.06416 4.14024 1
-5 -9 5 21.6531 7.08032 1
4 9 10 177.417 14.2838 -2
-4 -9 5 177.417 14.2838 1
3 9 10 32.2447 11.6734 -2
-3 -9 5 32.2447 11.6734 1
2 9 10 41.263 14.0581 -2
-2 -9 5 41.263 14.0581 1
1 9 10 37.7931 15.5618 -2
-1 -9 5 37.7931 15.5618 1
0 9 10 -17.434 14.0406 -2
0 -9 5 -17.434 14.0406 1
-1 9 10 8.97204 16.1289 -2
1 -9 5 8.97204 16.1289 1
6 8 9 37.5602 10.6018 -2
-6 -8 5 37.5602 10.6018 1
5 8 9 28.951 16.1897 -2
-5 -8 5 28.951 16.1897 1
4 8 9 85.6896 9.37211 -2
-4 -8 5 85.6896 9.37211 1
3 8 9 18.1285 7.35633 -2
-3 -8 5 18.1285 7.35633 1
2 8 9 44.511 9.74852 -2
-2 -8 5 44.511 9.74852 1
1 8 9 88.227 10.913 -2
-1 -8 5 88.227 10.913 1
0 8 9 98.544 18.394 -2
0 -8 5 98.544 18.394 1
-1 8 9 19.7842 14.0353 -2
1 -8 5 19.7842 14.0353 1
2 -8 5 0.23813 5.16512 1
3 -8 5 4.21417 4.57181 1
-7 -7 5 11.6717 5.49582 1
-6 -7 5 1.67573 3.84528 1
-5 -7 5 5.58599 4.43442 1
4 7 9 68.3091 10.3018 -2
-4 -7 5 68.3091 10.3018 1
-3 -7 5 -0.2233 1.57815 1
-2 -7 5 140.104 5.82567 1
-1 -7 5 32.7919 3.43379 1
0 7 9 42.6875 14.3449 -2
0 -7 5 42.6875 14.3449 1
1 -7 5 21.1722 6.74171 1
2 -7 5 4.93627 3.80597 1
3 -7 5 53.1928 7.98247 1
4 -7 5 13.6669 6.12064 1
8 6 8 19.5151 7.96166 -2
-8 -6 5 19.5151 7.96166 1
7 6 8 9.79838 7.17246 -2
-7 -6 5 9.79838 7.17246 1
6 6 8 23.6093 10.7768 -2
-6 -6 5 23.6093 10.7768 1
5 6 8 17.0742 7.92891 -2
-5 -6 5 17.0742 7.92891 1
4 6 8 29.7531 3.3412 -2
-4 -6 5 29.7531 3.3412 1
3 6 8 199.497 5.06707 -2
-3 -6 5 199.497 5.06707 1
2 6 8 51.7829 3.89546 -2
-2 -6 5 51.7829 3.89546 1
1 6 8 29.5501 4.14624 -2
-1 -6 5 29.5501 4.14624 1
0 6 8 10.5764 4.7714 -2
0 -6 5 10.5764 4.7714 1
-1 6 8 230.361 22.2177 -2
1 -6 5 230.361 22.2177 1
2 -6 5 7.19178 3.54128 1
-3 6 8 9.59669 11.0358 -2
3 -6 5 9.59669 11.0358 1
-4 6 8 39.7451 13.3586 -2
4 -6 5 39.7451 13.3586 1
-5 6 8 61.2496 15.1577 -2
5 -6 5 61.2496 15.1577 1
-8 -5 5 10.8635 4.92541 1
-7 -5 5 1.40967 3.54144 1
-6 -5 5 15.0314 4.87181 1
-5 -5 5 135.734 4.6973 1
-4 -5 5 268.321 5.17971 1
-3 -5 5 26.1695 2.10443 1
-2 -5 5 866.297 10.1548 1
-1 -5 5 25.7934 2.16333 1
0 -5 5 30.3203 2.02908 1
1 -5 5 33.394 2.61188 1
2 -5 5 12.1885 2.1427 1
3 -5 5 -0.6246 1.45536 1
4 -5 5 86.8822 6.75818 1
5 -5 5 34.6251 4.1536 1
6 -5 5 40.6656 5.38769 1
8 4 7 46.3497 7.86492 -2
-8 -4 5 46.3497 7.86492 1
7 4 7 3.18278 5.67397 -2
-7 -4 5 3.18278 5.67397 1
6 4 7 111.036 8.31253 -2
-6 -4 5 111.036 8.31253 1
5 4 7 96.9319 2.52369 -2
-5 -4 5 96.9319 2.52369 1
4 4 7 23.0208 2.3222 -2
-4 -4 5 23.0208 2.3222 1
3 4 7 480.195 5.77692 -2
-3 -4 5 480.195 5.77692 1
2 4 7 160.799 3.69641 -2
-2 -4 5 160.799 3.69641 1
1 4 7 79.5259 3.25596 -2
-1 -4 5 79.5259 3.25596 1
0 4 7 286.798 5.28592 -2
0 -4 5 286.798 5.28592 1
-1 4 7 20.7519 2.56907 -2
1 -4 5 20.7519 2.56907 1
-2 4 7 157.025 4.86384 -2
2 -4 5 157.025 4.86384 1
-3 4 7 933.63 14.2876 -2
3 -4 5 933.63 14.2876 1
-4 4 7 301.186 8.41138 -2
4 -4 5 301.186 8.41138 1
-5 4 7 32.7099 4.72486 -2
5 -4 5 32.7099 4.72486 1
-6 4 7 126.205 8.392 -2
6 -4 5 126.205 8.392 1
-7 4 7 124.83 9.46519 -2
7 -4 5 124.83 9.46519 1
-9 -3 5 -2.6826 3.23731 1
-8 -3 5 5.19319 4.01847 1
-7 -3 5 34.2718 6.00542 1
-6 -3 5 -2.565 1.61304 1
-5 -3 5 57.0381 2.47861 1
-4 -3 5 7.91179 1.26526 1
-3 -3 5 61.4742 2.36382 1
-2 -3 5 62.0643 2.5149 1
-1 -3 5 11.231 1.34509 1
0 -3 5 96.3987 3.2566 1
1 -3 5 148.958 4.17231 1
2 -3 5 41.2642 2.29256 1
3 -3 5 45.4079 2.55364 1
4 -3 5 379.556 6.62256 1
5 -3 5 69.8967 4.04462 1
6 -3 5 25.1889 2.88294 1
7 -3 5 60.539 5.64129 1
9 2 6 12.5854 6.64109 -2
-9 -2 5 12.5854 6.64109 1
8 2 6 27.3587 6.62341 -2
-8 -2 5 27.3587 6.62341 1
7 2 6 18.4887 5.89453 -2
-7 -2 5 18.4887 5.89453 1
6 2 6 40.3986 2.37133 -2
-6 -2 5 40.3986 2.37133 1
5 2 6 168.776 3.70643 -2
-5 -2 5 168.776 3.70643 1
4 2 6 105.964 2.42459 -2
-4 -2 5 105.964 2.42459 1
3 2 6 355.566 4.65567 -2
-3 -2 5 355.566 4.65567 1
2 2 6 623.541 6.83071 -2
-2 -2 5 623.541 6.83071 1
1 2 6 65.8462 2.26797 -2
-1 -2 5 65.8462 2.26797 1
0 2 6 349.968 4.88378 -2
0 -2 5 349.968 4.88378 1
-1 2 6 243.202 4.18972 -2
1 -2 5 243.202 4.18972 1
-2 2 6 598.826 7.11797 -2
2 -2 5 598.826 7.11797 1
-3 2 6 776.29 8.13816 -2
3 -2 5 776.29 8.13816 1
-4 2 6 234.108 4.78745 -2
4 -2 5 234.108 4.78745 1
-5 2 6 120.439 4.40551 -2
5 -2 5 120.439 4.40551 1
-6 2 6 11.2479 3.06983 -2
6 -2 5 11.2479 3.06983 1
-7 2 6 76.415 3.8086 -2
7 -2 5 76.415 3.8086 1
-8 2 6 74.0014 11.3431 -2
8 -2 5 74.0014 11.3431 1
-9 -1 5 38.6606 7.69582 1
-8 -1 5 1.07355 3.72263 1
-7 -1 5 18.5923 4.99171 1
-6 -1 5 113.405 4.02793 1
-5 -1 5 6.74564 1.16854 1
-4 -1 5 67.4996 2.10646 1
-3 -1 5 16.4125 1.24564 1
-2 -1 5 287.186 4.57744 1
-1 -1 5 5.16761 0.89826 1
0 -1 5 385.62 5.11242 1
1 -1 5 645.626 6.61983 1
2 -1 5 234.498 3.77816 1
3 -1 5 8.7017 1.04116 1
4 -1 5 5.93929 0.98714 1
5 -1 5 22.9017 1.55746 1
6 -1 5 0.09014 0.92776 1
7 -1 5 173.192 12.223 1
8 -1 5 20.8701 4.90678 1
9 0 5 120.478 13.1531 -2
-9 0 5 120.478 13.1531 1
8 0 5 157.453 12.5823 -2
-8 0 5 157.453 12.5823 1
7 0 5 220.703 7.27284 -2
-7 0 5 220.703 7.27284 1
6 0 5 52.1775 2.99791 -2
-6 0 5 52.1775 2.99791 1
5 0 5 154.67 3.78261 -2
-5 0 5 154.67 3.78261 1
4 0 5 755.69 7.10212 -2
-4 0 5 755.69 7.10212 1
3 0 5 157.62 2.88253 -2
-3 0 5 157.62 2.88253 1
2 0 5 245.218 3.68761 -2
-2 0 5 245.218 3.68761 1
1 0 5 17.0954 1.33412 -2
-1 0 5 17.0954 1.33412 1
0 0 5 51.243 1.93776 -2
0 0 5 51.243 1.93776 1
-1 0 5 21.3395 1.45839 -2
1 0 5 21.3395 1.45839 1
-2 0 5 287.433 3.95608 -2
2 0 5 287.433 3.95608 1
-3 0 5 118.297 2.57238 -2
3 0 5 118.297 2.57238 1
-4 0 5 748.395 6.53153 -2
4 0 5 748.395 6.53153 1
-5 0 5 233.431 3.5129 -2
5 0 5 233.431 3.5129 1
-6 0 5 34.3856 1.92038 -2
6 0 5 34.3856 1.92038 1
-7 0 5 127.769 7.40294 -2
7 0 5 127.769 7.40294 1
-8 0 5 87.7319 8.31401 -2
8 0 5 87.7319 8.31401 1
-9 0 5 90.5898 9.06522 -2
9 0 5 90.5898 9.06522 1
-8 1 5 10.7354 5.09007 1
-7 1 5 129.279 6.50527 1
-6 1 5 16.0937 1.8052 1
-5 1 5 192.441 4.00329 1
-4 1 5 57.8389 2.21873 1
-3 1 5 71.8386 2.50695 1
-2 1 5 90.895 2.48971 1
-1 1 5 588.743 6.25911 1
0 1 5 60.006 2.16079 1
1 1 5 827.249 7.3747 1
2 1 5 3.16697 0.66543 1
3 1 5 219.256 2.94477 1
4 1 5 1.01827 0.50772 1
5 1 5 110.174 3.26868 1
6 1 5 89.7665 3.88953 1
7 1 5 12.4205 2.96731 1
8 1 5 29.8463 4.94893 1
9 1 5 49.4898 7.03829 1
8 -2 4 -3.5474 4.88082 -2
-8 2 5 -3.5474 4.88082 1
7 -2 4 47.2438 5.47306 -2
-7 2 5 47.2438 5.47306 1
6 -2 4 143.905 3.78432 -2
-6 2 5 143.905 3.78432 1
5 -2 4 239.743 4.80281 -2
-5 2 5 239.743 4.80281 1
4 -2 4 12.2948 1.69211 -2
-4 2 5 12.2948 1.69211 1
3 -2 4 265.296 4.15843 -2
-3 2 5 265.296 4.15843 1
2 -2 4 116.517 2.80445 -2
-2 2 5 116.517 2.80445 1
1 -2 4 472.954 5.52471 -2
-1 2 5 472.954 5.52471 1
0 -2 4 806.358 7.01425 -2
0 2 5 806.358 7.01425 1
-1 -2 4 38.9317 1.77889 -2
1 2 5 38.9317 1.77889 1
-2 -2 4 683.1 5.85865 -2
2 2 5 683.1 5.85865 1
-3 -2 4 1156.77 8.08231 -2
3 2 5 1156.77 8.08231 1
-4 -2 4 201.044 3.35919 -2
4 2 5 201.044 3.35919 1
-5 -2 4 125.215 3.0352 -2
5 2 5 125.215 3.0352 1
-6 -2 4 44.6732 2.6523 -2
6 2 5 44.6732 2.6523 1
-7 -2 4 36.6936 4.04342 -2
7 2 5 36.6936 4.04342 1
-8 -2 4 51.869 5.84627 -2
8 2 5 51.869 5.84627 1
-9 -2 4 75.774 7.1043 -2
9 2 5 75.774 7.1043 1
-8 3 5 0.01714 3.21557 1
-7 3 5 59.0856 6.07 1
-6 3 5 31.1089 2.44619 1
-5 3 5 2.90263 1.15738 1
-4 3 5 11.3571 1.30267 1
-3 3 5 92.9235 2.5085 1
-2 3 5 429.271 5.35468 1
-1 3 5 3244.87 18.6432 1
0 3 5 181.258 3.21303 1
1 3 5 151.027 2.67031 1
2 3 5 337.671 3.23263 1
3 3 5 385.142 3.59335 1
4 3 5 16.4279 1.22051 1
5 3 5 6.61546 0.93491 1
6 3 5 11.0872 1.59258 1
7 3 5 33.6108 3.11421 1
8 3 5 41.3527 4.35291 1
9 3 5 24.2239 4.43139 1
7 -4 3 95.51 9.50145 -2
-7 4 5 95.51 9.50145 1
6 -4 3 125.192 6.16621 -2
-6 4 5 125.192 6.16621 1
5 -4 3 118.457 4.86609 -2
-5 4 5 118.457 4.86609 1
4 -4 3 19.7017 2.98271 -2
-4 4 5 19.7017 2.98271 1
3 -4 3 294.217 6.15614 -2
-3 4 5 294.217 6.15614 1
2 -4 3 215.755 4.95177 -2
-2 4 5 215.755 4.95177 1
1 -4 3 271.035 5.04464 -2
-1 4 5 271.035 5.04464 1
0 -4 3 51.7359 2.3521 -2
0 4 5 51.7359 2.3521 1
-1 -4 3 92.0979 2.28742 -2
1 4 5 92.0979 2.28742 1
-2 -4 3 1334.14 9.64999 -2
2 4 5 1334.14 9.64999 1
-3 -4 3 1.57883 0.83293 -2
3 4 5 1.57883 0.83293 1
-4 -4 3 73.2367 2.62155 -2
4 4 5 73.2367 2.62155 1
-5 -4 3 18.1376 2.17843 -2
5 4 5 18.1376 2.17843 1
-6 -4 3 107.08 3.91055 -2
6 4 5 107.08 3.91055 1
-7 -4 3 22.3772 2.69676 -2
7 4 5 22.3772 2.69676 1
-8 -4 3 24.7405 3.0694 -2
8 4 5 24.7405 3.0694 1
-9 -4 3 63.6903 4.84375 -2
9 4 5 63.6903 4.84375 1
-7 5 5 33.3118 5.43617 1
-6 5 5 -0.75 2.07823 1
-5 5 5 10.6393 2.20251 1
-4 5 5 77.8926 4.5192 1
-3 5 5 233.784 5.31111 1
-2 5 5 25.8318 2.11094 1
-1 5 5 34.8701 1.70031 1
0 5 5 37.0033 1.91916 1
1 5 5 58.2376 1.98136 1
2 5 5 110.22 2.51497 1
3 5 5 4.88959 0.79189 1
4 5 5 46.3438 2.36895 1
5 5 5 286.577 5.52608 1
6 5 5 30.7335 2.5153 1
7 5 5 1.18754 1.12733 1
8 5 5 0.80233 1.2314 1
9 5 5 203.696 5.79208 1
6 -6 2 14.8682 8.31549 -2
-6 6 5 14.8682 8.31549 1
5 -6 2 22.3024 6.88774 -2
-5 6 5 22.3024 6.88774 1
4 -6 2 17.2792 6.0174 -2
-4 6 5 17.2792 6.0174 1
3 -6 2 35.1164 7.60708 -2
-3 6 5 35.1164 7.60708 1
2 -6 2 506.451 18.1954 -2
-2 6 5 506.451 18.1954 1
1 -6 2 30.2971 9.42408 -2
-1 6 5 30.2971 9.42408 1
0 -6 2 262.048 8.48988 -2
0 6 5 262.048 8.48988 1
-1 -6 2 117.509 5.38188 -2
1 6 5 117.509 5.38188 1
-2 -6 2 72.3611 3.11773 -2
2 6 5 72.3611 3.11773 1
-3 -6 2 150.723 4.04868 -2
3 6 5 150.723 4.04868 1
-4 -6 2 37.7681 2.67865 -2
4 6 5 37.7681 2.67865 1
-5 -6 2 313.194 7.50876 -2
5 6 5 313.194 7.50876 1
-6 -6 2 884.397 14.7499 -2
6 6 5 884.397 14.7499 1
-7 -6 2 5.25504 1.92589 -2
7 6 5 5.25504 1.92589 1
-8 -6 2 2.18281 1.98449 -2
8 6 5 2.18281 1.98449 1
-9 -6 2 -1.1416 2.15223 -2
9 6 5 -1.1416 2.15223 1
6 -7 1 22.8917 9.96479 -2
-6 7 5 22.8917 9.96479 1
-5 7 5 -3.6513 3.48768 1
-4 7 5 6.12907 2.58334 1
-3 7 5 12.9145 3.54272 1
-2 7 5 30.294 2.77576 1
-1 7 5 150.712 4.19389 1
0 7 5 70.7649 2.61459 1
1 7 5 142.432 3.12771 1
2 7 5 0.8882 0.80806 1
3 7 5 96.5991 2.42831 1
4 7 5 137.807 4.86777 1
5 7 5 81.3582 4.47132 1
6 7 5 103.427 4.96062 1
7 7 5 5.16471 1.50737 1
8 7 5 0.4511 1.12182 1
-5 8 5 38.7928 8.31507 1
-4 8 5 20.7581 4.82729 1
-3 8 5 14.8233 3.37912 1
-2 8 5 127.099 7.45857 1
1 -8 1 72.8828 12.911 -2
-1 8 5 72.8828 12.911 1
0 8 5 3.25722 1.17465 1
1 8 5 -0.915 0.80347 1
2 8 5 27.1643 1.85102 1
-3 -8 1 376.629 8.95328 -2
3 8 5 376.629 8.95328 1
-4 -8 1 1.704 8.86183 -2
4 8 5 1.704 8.86183 1
-5 -8 1 258.467 10.8589 -2
5 8 5 258.467 10.8589 1
-6 -8 1 39.1251 4.74835 -2
6 8 5 39.1251 4.74835 1
-7 -8 1 5.53083 3.42176 -2
7 8 5 5.53083 3.42176 1
-8 -8 1 3.50769 3.78633 -2
8 8 5 3.50769 3.78633 1
-4 9 0 74.4263 10.1789 -2
-4 9 5 74.4263 10.1789 1
-3 9 0 78.984 10.3038 -2
-3 9 5 78.984 10.3038 1
-2 9 0 25.2512 5.88434 -2
-2 9 5 25.2512 5.88434 1
-1 9 0 109.147 7.2664 -2
-1 9 5 109.147 7.2664 1
0 9 0 176.916 10.6628 -2
0 9 5 176.916 10.6628 1
1 9 0 7.07682 3.54181 -2
1 9 5 7.07682 3.54181 1
2 9 0 160.356 9.75656 -2
2 9 5 160.356 9.75656 1
3 9 0 -1.4629 4.4715 -2
3 9 5 -1.4629 4.4715 1
4 9 5 3.9752 3.28226 1
5 9 5 74.2629 7.26907 1
6 9 5 49.7791 5.65337 1
7 9 5 112.227 6.28886 1
-3 10 5 23.0863 6.35151 1
-2 10 5 11.2342 4.69773 1
-1 10 5 127.522 9.3544 1
0 10 5 231.98 7.71672 1
1 10 5 9.37709 2.69059 1
2 10 5 3.33986 2.04508 1
3 10 5 2.93251 3.0954 1
4 10 5 27.9805 5.3071 1
5 10 5 21.987 4.62328 1
6 10 0 52.4479 10.6306 -2
6 10 5 52.4479 10.6306 1
7 10 0 37.7505 8.79882 -2
7 10 5 37.7505 8.79882 1
-1 11 1 14.6369 7.71959 -2
-1 11 5 14.6369 7.71959 1
0 11 1 50.4246 7.50609 -2
0 11 5 50.4246 7.50609 1
1 11 1 53.1015 7.23536 -2
1 11 5 53.1015 7.23536 1
2 11 1 39.0649 5.87783 -2
2 11 5 39.0649 5.87783 1
3 11 1 62.6843 10.9194 -2
3 11 5 62.6843 10.9194 1
4 11 1 30.6072 7.55407 -2
4 11 5 30.6072 7.55407 1
5 11 1 9.52515 6.66037 -2
5 11 5 9.52515 6.66037 1
-3 -9 6 41.447 7.17772 1
2 9 11 58.1602 16.1807 -2
-2 -9 6 58.1602 16.1807 1
1 9 11 98.6672 20.5655 -2
-1 -9 6 98.6672 20.5655 1
0 -9 6 1.11089 7.91252 1
5 8 10 16.3497 17.1667 -2
-5 -8 6 16.3497 17.1667 1
4 8 10 200.907 14.0345 -2
-4 -8 6 200.907 14.0345 1
3 8 10 36.5546 9.93982 -2
-3 -8 6 36.5546 9.93982 1
2 8 10 71.3088 15.4859 -2
-2 -8 6 71.3088 15.4859 1
1 8 10 38.9202 14.9316 -2
-1 -8 6 38.9202 14.9316 1
0 -8 6 24.5018 7.59096 1
1 -8 6 18.6577 6.95901 1
2 -8 6 13.4778 7.00275 1
-6 -7 6 -2.4703 3.99958 1
-5 -7 6 45.9045 8.91715 1
4 7 10 91.2719 12.9143 -2
-4 -7 6 91.2719 12.9143 1
-3 -7 6 199.091 8.9492 1
-2 -7 6 -0.8662 1.67719 1
-1 -7 6 7.99283 2.56905 1
0 -7 6 87.0159 11.5066 1
1 -7 6 16.4483 5.04083 1
2 -7 6 62.7889 10.547 1
3 -7 6 12.8778 6.23629 1
4 -7 6 5.30201 5.76939 1
7 6 9 81.0285 11.3144 -2
-7 -6 6 81.0285 11.3144 1
6 6 9 85.5572 15.4754 -2
-6 -6 6 85.5572 15.4754 1
5 6 9 89.9239 4.30754 -2
-5 -6 6 89.9239 4.30754 1
4 6 9 132.505 6.88044 -2
-4 -6 6 132.505 6.88044 1
3 6 9 168.999 5.45412 -2
-3 -6 6 168.999 5.45412 1
2 6 9 8.9657 3.26702 -2
-2 -6 6 8.9657 3.26702 1
1 6 9 5.41952 3.72318 -2
-1 -6 6 5.41952 3.72318 1
0 6 9 179.329 10.9579 -2
0 -6 6 179.329 10.9579 1
-1 6 9 27.9529 8.93314 -2
1 -6 6 27.9529 8.93314 1
-2 6 9 53.1692 10.6356 -2
2 -6 6 53.1692 10.6356 1
-3 6 9 303.648 25.785 -2
3 -6 6 303.648 25.785 1
-4 6 9 16.548 8.78304 -2
4 -6 6 16.548 8.78304 1
-5 6 9 191.011 15.9805 -2
5 -6 6 191.011 15.9805 1
-8 -5 6 15.8084 5.48883 1
-7 -5 6 6.66796 4.62197 1
-6 -5 6 5.01481 4.18187 1
-5 -5 6 62.3797 3.92369 1
-4 -5 6 86.1208 4.68554 1
-3 -5 6 50.1646 3.16317 1
-2 -5 6 9.8962 1.71327 1
-1 -5 6 3.49845 1.63575 1
0 -5 6 254.53 7.76655 1
1 -5 6 128.95 9.07036 1
2 -5 6 77.2048 7.49192 1
3 -5 6 -0.7273 2.23075 1
4 -5 6 151.021 8.44218 1
5 -5 6 9.5466 3.31508 1
6 -5 6 104.852 8.95712 1
8 4 8 7.28862 6.35759 -2
-8 -4 6 7.28862 6.35759 1
7 4 8 12.1613 6.4809 -2
-7 -4 6 12.1613 6.4809 1
6 4 8 57.9123 7.44818 -2
-6 -4 6 57.9123 7.44818 1
5 4 8 51.5533 3.57341 -2
-5 -4 6 51.5533 3.57341 1
4 4 8 61.2208 3.4785 -2
-4 -4 6 61.2208 3.4785 1
3 4 8 1786.44 15.6907 -2
-3 -4 6 1786.44 15.6907 1
2 4 8 230.424 5.2164 -2
-2 -4 6 230.424 5.2164 1
1 4 8 73.696 3.37571 -2
-1 -4 6 73.696 3.37571 1
0 4 8 100.625 3.81338 -2
0 -4 6 100.625 3.81338 1
-1 4 8 144.559 4.59461 -2
1 -4 6 144.559 4.59461 1
-2 4 8 58.0676 4.44512 -2
2 -4 6 58.0676 4.44512 1
-3 4 8 157.906 6.34206 -2
3 -4 6 157.906 6.34206 1
-4 4 8 146.247 6.02915 -2
4 -4 6 146.247 6.02915 1
-5 4 8 81.0254 6.29395 -2
5 -4 6 81.0254 6.29395 1
-6 4 8 16.9786 5.99614 -2
6 -4 6 16.9786 5.99614 1
-8 -3 6 110.12 11.7969 1
-7 -3 6 4.20743 3.0657 1
-6 -3 6 123.991 6.06587 1
-5 -3 6 53.3923 2.83838 1
-4 -3 6 0.74903 0.80186 1
-3 -3 6 3.10778 0.97942 1
-2 -3 6 78.9694 3.0636 1
-1 -3 6 4.8434 1.18026 1
0 -3 6 1.35745 0.99516 1
1 -3 6 15.5307 1.70845 1
2 -3 6 2.36189 1.06093 1
3 -3 6 -0.1603 1.03454 1
4 -3 6 200.84 6.20516 1
5 -3 6 0.95564 1.52725 1
6 -3 6 36.8322 4.39447 1
7 -3 6 138.645 8.8021 1
8 2 7 49.2911 8.70345 -2
-8 -2 6 49.2911 8.70345 1
7 2 7 21.0548 6.59563 -2
-7 -2 6 21.0548 6.59563 1
6 2 7 26.1163 2.36404 -2
-6 -2 6 26.1163 2.36404 1
5 2 7 344.244 5.993 -2
-5 -2 6 344.244 5.993 1
4 2 7 151.16 3.46406 -2
-4 -2 6 151.16 3.46406 1
3 2 7 727.556 7.49887 -2
-3 -2 6 727.556 7.49887 1
2 2 7 223.543 4.63477 -2
-2 -2 6 223.543 4.63477 1
1 2 7 186.038 3.96436 -2
-1 -2 6 186.038 3.96436 1
0 2 7 68.5182 2.72971 -2
0 -2 6 68.5182 2.72971 1
-1 2 7 662.519 7.56554 -2
1 -2 6 662.519 7.56554 1
-2 2 7 170.418 3.61121 -2
2 -2 6 170.418 3.61121 1
-3 2 7 687.412 8.93141 -2
3 -2 6 687.412 8.93141 1
-4 2 7 212.318 5.09089 -2
4 -2 6 212.318 5.09089 1
-5 2 7 16.514 3.12047 -2
5 -2 6 16.514 3.12047 1
-6 2 7 13.5442 3.61878 -2
6 -2 6 13.5442 3.61878 1
-7 2 7 66.7019 4.81758 -2
7 -2 6 66.7019 4.81758 1
-8 -1 6 1.58462 3.623 1
-7 -1 6 20.7302 6.01286 1
-6 -1 6 43.843 3.41216 1
-5 -1 6 38.5032 2.54459 1
-4 -1 6 216.47 3.70677 1
-3 -1 6 163.73 3.55137 1
-2 -1 6 174.306 4.07351 1
-1 -1 6 197.609 3.96611 1
0 -1 6 308.808 4.94575 1
1 -1 6 188.018 3.98339 1
2 -1 6 290.335 4.55331 1
3 -1 6 29.5222 1.89982 1
4 -1 6 311.808 4.98089 1
5 -1 6 3.10241 1.11659 1
6 -1 6 9.87454 1.66894 1
7 -1 6 16.8745 4.71312 1
8 -1 6 2.76362 3.51621 1
8 0 6 183.473 14.5718 -2
-8 0 6 183.473 14.5718 1
7 0 6 16.4017 3.89415 -2
-7 0 6 16.4017 3.89415 1
6 0 6 141.998 5.91851 -2
-6 0 6 141.998 5.91851 1
5 0 6 162.315 3.69795 -2
-5 0 6 162.315 3.69795 1
4 0 6 664.22 7.08598 -2
-4 0 6 664.22 7.08598 1
3 0 6 134.058 3.1202 -2
-3 0 6 134.058 3.1202 1
2 0 6 80.4516 2.37376 -2
-2 0 6 80.4516 2.37376 1
1 0 6 764.005 7.38816 -2
-1 0 6 764.005 7.38816 1
0 0 6 182.862 3.41852 -2
0 0 6 182.862 3.41852 1
-1 0 6 530.745 5.90938 -2
1 0 6 530.745 5.90938 1
-2 0 6 132.433 3.1996 -2
2 0 6 132.433 3.1996 1
-3 0 6 94.0829 2.53211 -2
3 0 6 94.0829 2.53211 1
-4 0 6 413.362 5.36893 -2
4 0 6 413.362 5.36893 1
-5 0 6 117.266 3.10563 -2
5 0 6 117.266 3.10563 1
-6 0 6 94.5254 3.34672 -2
6 0 6 94.5254 3.34672 1
-7 0 6 13.081 5.32017 -2
7 0 6 13.081 5.32017 1
-8 0 6 195.524 11.4236 -2
8 0 6 195.524 11.4236 1
-8 1 6 31.6444 7.70471 1
-7 1 6 148.449 7.38437 1
-6 1 6 30.9082 3.12531 1
-5 1 6 17.1829 1.7773 1
-4 1 6 43.6154 2.2926 1
-3 1 6 7.3847 1.10385 1
-2 1 6 193.438 3.46217 1
-1 1 6 38.9825 2.14099 1
0 1 6 93.9195 3.14117 1
1 1 6 24.4562 1.62453 1
2 1 6 317.263 4.41076 1
3 1 6 2.02976 0.64043 1
4 1 6 126.794 2.97005 1
5 1 6 15.6133 1.27692 1
6 1 6 0.44936 1.25398 1
7 1 6 12.9512 4.06724 1
8 1 6 13.9091 4.49683 1
8 -2 5 57.8647 7.25292 -2
-8 2 6 57.8647 7.25292 1
7 -2 5 111.04 7.78183 -2
-7 2 6 111.04 7.78183 1
6 -2 5 4.18079 3.32021 -2
-6 2 6 4.18079 3.32021 1
5 -2 5 78.4214 3.86855 -2
-5 2 6 78.4214 3.86855 1
4 -2 5 143.342 3.76115 -2
-4 2 6 143.342 3.76115 1
3 -2 5 475.769 6.20074 -2
-3 2 6 475.769 6.20074 1
2 -2 5 394.732 5.51263 -2
-2 2 6 394.732 5.51263 1
1 -2 5 165.341 3.11774 -2
-1 2 6 165.341 3.11774 1
0 -2 5 239.637 3.96182 -2
0 2 6 239.637 3.96182 1
-1 -2 5 44.3608 2.0499 -2
1 2 6 44.3608 2.0499 1
-2 -2 5 806.806 7.04785 -2
2 2 6 806.806 7.04785 1
-3 -2 5 545.791 5.43883 -2
3 2 6 545.791 5.43883 1
-4 -2 5 82.1029 1.84684 -2
4 2 6 82.1029 1.84684 1
-5 -2 5 110.872 3.18334 -2
5 2 6 110.872 3.18334 1
-6 -2 5 46.1361 3.55077 -2
6 2 6 46.1361 3.55077 1
-7 -2 5 44.2856 5.32924 -2
7 2 6 44.2856 5.32924 1
-8 -2 5 30.4354 5.31195 -2
8 2 6 30.4354 5.31195 1
-9 -2 5 8.8563 4.89416 -2
9 2 6 8.8563 4.89416 1
-8 3 6 1.59466 3.40734 1
-7 3 6 22.6346 4.26083 1
-6 3 6 31.5629 2.74063 1
-5 3 6 35.1927 3.0493 1
-4 3 6 7.54961 1.34946 1
-3 3 6 247.136 4.33989 1
-2 3 6 291.525 4.54122 1
-1 3 6 497.469 5.88644 1
0 3 6 147.154 3.17154 1
1 3 6 110.618 2.92814 1
2 3 6 4.90387 0.76489 1
3 3 6 1680.04 11.2779 1
4 3 6 49.8919 2.10667 1
5 3 6 22.6332 1.64751 1
6 3 6 22.0992 2.68142 1
7 3 6 126.523 7.69852 1
8 3 6 1.27769 2.63663 1
9 3 6 15.9818 4.45458 1
7 -4 4 70.1516 9.44822 -2
-7 4 6 70.1516 9.44822 1
6 -4 4 164.192 9.04993 -2
-6 4 6 164.192 9.04993 1
5 -4 4 14.1743 3.6623 -2
-5 4 6 14.1743 3.6623 1
4 -4 4 415.265 8.75816 -2
-4 4 6 415.265 8.75816 1
3 -4 4 147.294 3.93004 -2
-3 4 6 147.294 3.93004 1
2 -4 4 74.7881 3.59051 -2
-2 4 6 74.7881 3.59051 1
1 -4 4 53.5393 2.61893 -2
-1 4 6 53.5393 2.61893 1
0 -4 4 1302.82 11.2046 -2
0 4 6 1302.82 11.2046 1
-1 -4 4 102.196 2.59578 -2
1 4 6 102.196 2.59578 1
-2 -4 4 356.176 4.10799 -2
2 4 6 356.176 4.10799 1
-3 -4 4 111.753 2.28083 -2
3 4 6 111.753 2.28083 1
-4 -4 4 629.387 9.14283 -2
4 4 6 629.387 9.14283 1
-5 -4 4 75.1752 3.69287 -2
5 4 6 75.1752 3.69287 1
-6 -4 4 39.6758 3.34489 -2
6 4 6 39.6758 3.34489 1
-7 -4 4 6.6014 3.12231 -2
7 4 6 6.6014 3.12231 1
-8 -4 4 8.55317 3.62937 -2
8 4 6 8.55317 3.62937 1
-9 -4 4 112.37 7.80677 -2
9 4 6 112.37 7.80677 1
-7 5 6 19.4656 4.61238 1
-6 5 6 3.07381 2.77422 1
-5 5 6 12.0879 2.36037 1
-4 5 6 36.1735 3.50075 1
-3 5 6 503.351 7.76376 1
-2 5 6 255.213 4.48496 1
-1 5 6 35.2937 2.11374 1
0 5 6 62.0107 2.58542 1
1 5 6 12.4449 1.14511 1
2 5 6 292.366 3.59096 1
3 5 6 -0.234 0.50857 1
4 5 6 188.499 4.42412 1
5 5 6 24.5277 2.30584 1
6 5 6 10.1427 1.89229 1
7 5 6 28.7663 2.90293 1
8 5 6 2.89221 1.87306 1
9 5 6 108.994 6.4722 1
6 -6 3 15.8279 9.6568 -2
-6 6 6 15.8279 9.6568 1
5 -6 3 14.0352 7.4451 -2
-5 6 6 14.0352 7.4451 1
4 -6 3 26.9427 6.06792 -2
-4 6 6 26.9427 6.06792 1
3 -6 3 199.503 11.036 -2
-3 6 6 199.503 11.036 1
2 -6 3 78.8699 5.60207 -2
-2 6 6 78.8699 5.60207 1
1 -6 3 94.5849 5.97962 -2
-1 6 6 94.5849 5.97962 1
0 -6 3 592.873 10.3787 -2
0 6 6 592.873 10.3787 1
-1 -6 3 20.3093 2.11834 -2
1 6 6 20.3093 2.11834 1
-2 -6 3 221.856 4.27633 -2
2 6 6 221.856 4.27633 1
-3 -6 3 728.44 6.98778 -2
3 6 6 728.44 6.98778 1
-4 -6 3 1145.41 15.2697 -2
4 6 6 1145.41 15.2697 1
-5 -6 3 67.6283 4.51194 -2
5 6 6 67.6283 4.51194 1
-6 -6 3 502.74 10.5556 -2
6 6 6 502.74 10.5556 1
-7 -6 3 141.273 5.25094 -2
7 6 6 141.273 5.25094 1
-8 -6 3 6.82647 3.28111 -2
8 6 6 6.82647 3.28111 1
9 6 6 41.1313 7.1812 1
5 -7 2 23.2162 14.2013 -2
-5 7 6 23.2162 14.2013 1
-4 7 6 6.03048 2.93698 1
-3 7 6 79.569 7.00653 1
-2 7 6 6.95354 2.24341 1
-1 7 6 123.123 4.58537 1
0 7 6 135.256 3.79321 1
1 7 6 263.294 4.57326 1
2 7 6 7.26174 1.17778 1
-3 -7 2 304.821 9.79659 -2
3 7 6 304.821 9.79659 1
4 7 6 458.471 8.43984 1
5 7 6 3.99552 1.79638 1
6 7 6 0.73373 1.44711 1
7 7 6 14.5885 2.39919 1
8 7 6 2.87883 1.95454 1
-5 8 6 20.8472 5.9678 1
4 -8 2 140.271 20.9786 -2
-4 8 6 140.271 20.9786 1
-3 8 6 24.8529 4.11796 1
-2 8 6 0.90566 2.69041 1
1 -8 2 91.9467 14.5337 -2
-1 8 6 91.9467 14.5337 1
0 8 6 19.8865 2.16936 1
-1 -8 2 69.6008 13.4153 -2
1 8 6 69.6008 13.4153 1
-2 -8 2 25.9066 11.0067 -2
2 8 6 25.9066 11.0067 1
-3 -8 2 133.74 3.82789 -2
3 8 6 133.74 3.82789 1
-4 -8 2 173.988 11.661 -2
4 8 6 173.988 11.661 1
-5 -8 2 27.3256 5.05445 -2
5 8 6 27.3256 5.05445 1
-6 -8 2 30.9627 5.65797 -2
6 8 6 30.9627 5.65797 1
-7 -8 2 86.4334 5.92745 -2
7 8 6 86.4334 5.92745 1
-8 -8 2 10.0218 3.92326 -2
8 8 6 10.0218 3.92326 1
4 -9 1 -4.9614 8.22051 -2
-4 9 6 -4.9614 8.22051 1
3 -9 1 15.266 6.22747 -2
-3 9 6 15.266 6.22747 1
2 -9 1 27.7246 5.83209 -2
-2 9 6 27.7246 5.83209 1
1 -9 1 51.5799 5.78612 -2
-1 9 6 51.5799 5.78612 1
0 -9 1 8.59651 4.51577 -2
0 9 6 8.59651 4.51577 1
-1 -9 1 54.984 5.21136 -2
1 9 6 54.984 5.21136 1
-2 -9 1 4.47141 4.49594 -2
2 9 6 4.47141 4.49594 1
-3 -9 1 96.2298 3.59402 -2
3 9 6 96.2298 3.59402 1
4 9 6 0.45786 2.6328 1
5 9 6 -0.0199 2.34055 1
-6 -9 1 32.3729 14.5679 -2
6 9 6 32.3729 14.5679 1
7 9 6 232.605 10.4831 1
-2 10 6 -1.9347 3.81292 1
-1 10 6 7.25782 3.74802 1
0 10 6 12.2464 2.74401 1
1 10 6 1.8451 2.23483 1
2 10 6 55.1391 4.11516 1
-3 -10 1 174.314 10.4917 -2
3 10 6 174.314 10.4917 1
4 10 6 1.55293 2.66158 1
-5 -10 1 19.9263 9.92627 -2
5 10 6 19.9263 9.92627 1
-6 -10 1 49.9356 11.9172 -2
6 10 6 49.9356 11.9172 1
-1 11 0 111.583 11.1873 -2
-1 11 6 111.583 11.1873 1
0 11 0 103.015 9.1013 -2
0 11 6 103.015 9.1013 1
1 11 0 12.9805 6.20533 -2
1 11 6 12.9805 6.20533 1
2 11 0 42.7051 6.29087 -2
2 11 6 42.7051 6.29087 1
3 11 0 107.078 13.1917 -2
3 11 6 107.078 13.1917 1
4 11 0 78.2105 8.72598 -2
4 11 6 78.2105 8.72598 1
5 11 0 42.397 8.24258 -2
5 11 6 42.397 8.24258 1
4 8 11 24.286 19.6293 -2
-4 -8 7 24.286 19.6293 1
3 8 11 82.6322 13.3143 -2
-3 -8 7 82.6322 13.3143 1
2 8 11 111.062 19.1708 -2
-2 -8 7 111.062 19.1708 1
1 8 11 18.7249 15.5228 -2
-1 -8 7 18.7249 15.5228 1
0 8 11 13.9132 17.5124 -2
0 -8 7 13.9132 17.5124 1
-1 8 11 43.7232 18.9262 -2
1 -8 7 43.7232 18.9262 1
5 7 11 12.2875 7.57262 -2
-5 -7 7 12.2875 7.57262 1
-4 -7 7 4.10933 3.76674 1
3 7 11 114.294 17.4917 -2
-3 -7 7 114.294 17.4917 1
2 7 11 58.3584 15.1582 -2
-2 -7 7 58.3584 15.1582 1
-1 -7 7 22.6541 4.98526 1
0 -7 7 11.7722 5.96092 1
1 -7 7 15.7567 5.4501 1
2 -7 7 0.77049 4.11673 1
3 -7 7 5.36714 6.08716 1
6 6 10 44.1451 14.7695 -2
-6 -6 7 44.1451 14.7695 1
5 6 10 65.5496 7.34682 -2
-5 -6 7 65.5496 7.34682 1
4 6 10 402.62 13.4056 -2
-4 -6 7 402.62 13.4056 1
3 6 10 15.9528 5.47941 -2
-3 -6 7 15.9528 5.47941 1
2 6 10 12.2984 4.23603 -2
-2 -6 7 12.2984 4.23603 1
1 6 10 19.5431 5.39252 -2
-1 -6 7 19.5431 5.39252 1
0 6 10 130.252 10.8191 -2
0 -6 7 130.252 10.8191 1
-1 6 10 9.95216 7.26777 -2
1 -6 7 9.95216 7.26777 1
-2 6 10 225.208 14.0339 -2
2 -6 7 225.208 14.0339 1
-3 6 10 105.227 13.274 -2
3 -6 7 105.227 13.274 1
-4 6 10 120.908 13.9649 -2
4 -6 7 120.908 13.9649 1
-7 -5 7 28.9255 7.45331 1
-6 -5 7 25.391 6.68503 1
-5 -5 7 74.7883 6.05083 1
-4 -5 7 62.8016 4.74496 1
-3 -5 7 204.191 6.57917 1
-2 -5 7 95.1225 5.31663 1
-1 -5 7 2.26559 1.65688 1
0 -5 7 91.7703 6.42485 1
1 -5 7 18.0385 4.68884 1
2 -5 7 22.484 5.45593 1
3 -5 7 11.6453 4.61867 1
4 -5 7 12.8992 5.58966 1
5 -5 7 17.3748 5.24388 1
7 4 9 43.5329 9.0409 -2
-7 -4 7 43.5329 9.0409 1
6 4 9 152.82 13.0298 -2
-6 -4 7 152.82 13.0298 1
5 4 9 7.68215 3.72807 -2
-5 -4 7 7.68215 3.72807 1
4 4 9 24.0861 2.54427 -2
-4 -4 7 24.0861 2.54427 1
3 4 9 974.53 13.2823 -2
-3 -4 7 974.53 13.2823 1
2 4 9 123.889 5.07997 -2
-2 -4 7 123.889 5.07997 1
1 4 9 68.0953 4.29382 -2
-1 -4 7 68.0953 4.29382 1
0 4 9 5.12924 3.2364 -2
0 -4 7 5.12924 3.2364 1
-1 4 9 104.834 7.0516 -2
1 -4 7 104.834 7.0516 1
-2 4 9 13.7963 4.61309 -2
2 -4 7 13.7963 4.61309 1
-3 4 9 207.85 8.60112 -2
3 -4 7 207.85 8.60112 1
-4 4 9 13.4163 4.17679 -2
4 -4 7 13.4163 4.17679 1
-5 4 9 0.83419 5.44195 -2
5 -4 7 0.83419 5.44195 1
-6 4 9 22.8122 6.39637 -2
6 -4 7 22.8122 6.39637 1
-8 -3 7 108.251 12.7807 1
-7 -3 7 -1.2683 3.03106 1
-6 -3 7 46.7327 4.53644 1
-5 -3 7 10.5487 1.97377 1
-4 -3 7 15.406 1.79649 1
-3 -3 7 29.4652 2.16356 1
-2 -3 7 0.37361 1.11078 1
-1 -3 7 1.37707 1.10868 1
0 -3 7 82.1777 3.80845 1
1 -3 7 172.129 5.60126 1
2 -3 7 2.20872 1.50412 1
3 -3 7 102.676 5.60721 1
4 -3 7 38.149 3.5741 1
5 -3 7 6.44394 2.3182 1
6 -3 7 7.30429 3.38352 1
8 2 8 53.326 10.0314 -2
-8 -2 7 53.326 10.0314 1
7 2 8 -3.5576 6.03398 -2
-7 -2 7 -3.5576 6.03398 1
6 2 8 10.0458 2.91596 -2
-6 -2 7 10.0458 2.91596 1
5 2 8 76.9651 3.60853 -2
-5 -2 7 76.9651 3.60853 1
4 2 8 130.413 3.83053 -2
-4 -2 7 130.413 3.83053 1
3 2 8 66.8913 2.81178 -2
-3 -2 7 66.8913 2.81178 1
2 2 8 143.439 3.99106 -2
-2 -2 7 143.439 3.99106 1
1 2 8 15.8061 2.08259 -2
-1 -2 7 15.8061 2.08259 1
0 2 8 208.914 4.72248 -2
0 -2 7 208.914 4.72248 1
-1 2 8 144.481 3.95383 -2
1 -2 7 144.481 3.95383 1
-2 2 8 69.9211 2.93787 -2
2 -2 7 69.9211 2.93787 1
-3 2 8 394.875 7.90661 -2
3 -2 7 394.875 7.90661 1
-4 2 8 102.213 5.14181 -2
4 -2 7 102.213 5.14181 1
-5 2 8 99.7797 5.45639 -2
5 -2 7 99.7797 5.45639 1
-6 2 8 34.6173 4.51506 -2
6 -2 7 34.6173 4.51506 1
-7 2 8 65.4496 5.24115 -2
7 -2 7 65.4496 5.24115 1
-8 -1 7 13.7466 5.50514 1
-7 -1 7 1.48923 2.1196 1
-6 -1 7 6.43284 2.10497 1
-5 -1 7 108.779 3.64063 1
-4 -1 7 24.9686 1.82686 1
-3 -1 7 41.5738 2.11546 1
-2 -1 7 727.567 8.90641 1
-1 -1 7 180.669 4.18622 1
0 -1 7 0.33041 0.93687 1
1 -1 7 290.129 5.17433 1
2 -1 7 33.125 2.08823 1
3 -1 7 42.2222 2.4262 1
4 -1 7 991.587 11.2766 1
5 -1 7 14.8516 2.19093 1
6 -1 7 6.19679 1.85876 1
7 -1 7 0.83262 3.30272 1
8 0 7 9.70983 7.8867 -2
-8 0 7 9.70983 7.8867 1
7 0 7 17.2506 4.7636 -2
-7 0 7 17.2506 4.7636 1
6 0 7 78.4323 5.38664 -2
-6 0 7 78.4323 5.38664 1
5 0 7 6.96721 1.97928 -2
-5 0 7 6.96721 1.97928 1
4 0 7 498.778 7.15276 -2
-4 0 7 498.778 7.15276 1
3 0 7 233.108 4.57278 -2
-3 0 7 233.108 4.57278 1
2 0 7 10.9697 1.4475 -2
-2 0 7 10.9697 1.4475 1
1 0 7 6.46234 1.33802 -2
-1 0 7 6.46234 1.33802 1
0 0 7 450.75 5.85923 -2
0 0 7 450.75 5.85923 1
-1 0 7 5.93357 1.43772 -2
1 0 7 5.93357 1.43772 1
-2 0 7 8.40563 1.43874 -2
2 0 7 8.40563 1.43874 1
-3 0 7 164.287 3.55243 -2
3 0 7 164.287 3.55243 1
-4 0 7 388.381 6.13846 -2
4 0 7 388.381 6.13846 1
-5 0 7 12.905 1.87609 -2
5 0 7 12.905 1.87609 1
-6 0 7 62.5143 2.84755 -2
6 0 7 62.5143 2.84755 1
-7 0 7 20.8044 6.14889 -2
7 0 7 20.8044 6.14889 1
-8 0 7 21.3958 6.56647 -2
8 0 7 21.3958 6.56647 1
-8 1 7 1.29313 2.73973 1
-7 1 7 70.517 5.46567 1
-6 1 7 76.8841 4.98002 1
-5 1 7 18.1941 2.19275 1
-4 1 7 273.022 5.36106 1
-3 1 7 4.33358 1.16825 1
-2 1 7 179.042 3.8653 1
-1 1 7 1.94597 0.99557 1
0 1 7 -0.0871 0.80368 1
1 1 7 333.096 5.22803 1
2 1 7 14.1275 1.35612 1
3 1 7 55.3702 2.26185 1
4 1 7 38.3448 2.22662 1
5 1 7 186.085 3.81365 1
6 1 7 97.1746 7.7506 1
7 1 7 64.1485 7.71871 1
8 1 7 5.98591 3.76913 1
7 -2 6 37.175 7.21611 -2
-7 2 7 37.175 7.21611 1
6 -2 6 6.98589 3.58808 -2
-6 2 7 6.98589 3.58808 1
5 -2 6 12.7518 2.82541 -2
-5 2 7 12.7518 2.82541 1
4 -2 6 180.581 5.10499 -2
-4 2 7 180.581 5.10499 1
3 -2 6 475.291 6.81608 -2
-3 2 7 475.291 6.81608 1
2 -2 6 174.036 3.9288 -2
-2 2 7 174.036 3.9288 1
1 -2 6 737.389 7.97111 -2
-1 2 7 737.389 7.97111 1
0 -2 6 47.8605 2.30935 -2
0 2 7 47.8605 2.30935 1
-1 -2 6 128.788 3.26906 -2
1 2 7 128.788 3.26906 1
-2 -2 6 333.279 4.65928 -2
2 2 7 333.279 4.65928 1
-3 -2 6 1194.81 9.35153 -2
3 2 7 1194.81 9.35153 1
-4 -2 6 246.033 4.13313 -2
4 2 7 246.033 4.13313 1
-5 -2 6 338.819 5.44032 -2
5 2 7 338.819 5.44032 1
-6 -2 6 33.2268 3.80554 -2
6 2 7 33.2268 3.80554 1
-7 -2 6 28.4942 5.12565 -2
7 2 7 28.4942 5.12565 1
-8 -2 6 30.601 5.62824 -2
8 2 7 30.601 5.62824 1
-7 3 7 -1.7691 2.74021 1
-6 3 7 4.2742 2.39466 1
-5 3 7 -0.0814 1.55633 1
-4 3 7 518.111 8.26336 1
-3 3 7 598.241 7.4638 1
-2 3 7 114.649 3.73226 1
-1 3 7 153.226 4.01034 1
0 3 7 390.476 5.29557 1
1 3 7 86.3886 2.8732 1
2 3 7 51.3319 2.0447 1
3 3 7 7.86352 1.05036 1
4 3 7 17.4247 1.14077 1
5 3 7 78.4062 4.2148 1
6 3 7 2.7346 1.89472 1
7 3 7 104.393 8.79815 1
8 3 7 30.7427 5.42485 1
7 -4 5 107.174 10.8266 -2
-7 4 7 107.174 10.8266 1
6 -4 5 203.554 9.7445 -2
-6 4 7 203.554 9.7445 1
5 -4 5 18.0245 3.93568 -2
-5 4 7 18.0245 3.93568 1
4 -4 5 186.06 6.46282 -2
-4 4 7 186.06 6.46282 1
3 -4 5 1258.83 13.6177 -2
-3 4 7 1258.83 13.6177 1
2 -4 5 255.609 5.79767 -2
-2 4 7 255.609 5.79767 1
1 -4 5 30.2164 2.39076 -2
-1 4 7 30.2164 2.39076 1
0 -4 5 221.843 4.43544 -2
0 4 7 221.843 4.43544 1
-1 -4 5 90.0062 2.65014 -2
1 4 7 90.0062 2.65014 1
-2 -4 5 230.678 3.5196 -2
2 4 7 230.678 3.5196 1
-3 -4 5 736.396 7.77015 -2
3 4 7 736.396 7.77015 1
-4 -4 5 14.1511 1.43896 -2
4 4 7 14.1511 1.43896 1
-5 -4 5 72.801 4.54997 -2
5 4 7 72.801 4.54997 1
-6 -4 5 75.6049 5.06361 -2
6 4 7 75.6049 5.06361 1
-7 -4 5 3.92374 3.69952 -2
7 4 7 3.92374 3.69952 1
-8 -4 5 75.2443 7.10964 -2
8 4 7 75.2443 7.10964 1
-6 5 7 29.2793 4.88383 1
-5 5 7 6.95336 2.54818 1
-4 5 7 114.815 6.50758 1
-3 5 7 91.4891 4.93027 1
-2 5 7 46.7685 2.95597 1
-1 5 7 216.669 5.21918 1
0 5 7 1.16031 1.01526 1
1 5 7 12.9493 1.31829 1
2 5 7 2.13547 0.72449 1
3 5 7 749.094 7.39372 1
4 5 7 457.13 7.4674 1
5 5 7 56.6001 4.08834 1
6 5 7 8.1939 2.21489 1
7 5 7 117.874 6.6606 1
8 5 7 1.97148 2.46923 1
6 -6 4 167.959 15.5359 -2
-6 6 7 167.959 15.5359 1
5 -6 4 8.62274 5.93228 -2
-5 6 7 8.62274 5.93228 1
4 -6 4 34.3302 6.69099 -2
-4 6 7 34.3302 6.69099 1
3 -6 4 113.028 8.31738 -2
-3 6 7 113.028 8.31738 1
2 -6 4 3.24734 4.52793 -2
-2 6 7 3.24734 4.52793 1
1 -6 4 30.5613 4.0129 -2
-1 6 7 30.5613 4.0129 1
0 -6 4 325.894 7.13385 -2
0 6 7 325.894 7.13385 1
-1 -6 4 300.697 5.61548 -2
1 6 7 300.697 5.61548 1
-2 -6 4 40.2083 2.15395 -2
2 6 7 40.2083 2.15395 1
-3 -6 4 1263.27 10.5878 -2
3 6 7 1263.27 10.5878 1
-4 -6 4 2.59089 2.77548 -2
4 6 7 2.59089 2.77548 1
-5 -6 4 22.3877 3.76264 -2
5 6 7 22.3877 3.76264 1
-6 -6 4 4.29729 3.96863 -2
6 6 7 4.29729 3.96863 1
-7 -6 4 41.7228 4.52561 -2
7 6 7 41.7228 4.52561 1
-8 -6 4 40.7572 5.81092 -2
8 6 7 40.7572 5.81092 1
5 -7 3 -10.029 7.65219 -2
-5 7 7 -10.029 7.65219 1
4 -7 3 40.694 14.9483 -2
-4 7 7 40.694 14.9483 1
3 -7 3 34.649 13.8527 -2
-3 7 7 34.649 13.8527 1
-2 7 7 27.0312 4.21976 1
-1 7 7 2.63525 1.50696 1
0 7 7 10.9836 1.58776 1
1 7 7 60.9307 2.87312 1
2 7 7 30.1941 2.19031 1
-3 -7 3 26.9262 4.72887 -2
3 7 7 26.9262 4.72887 1
4 7 7 375.345 8.5303 1
5 7 7 195.947 8.01996 1
6 7 7 2.53287 1.95918 1
7 7 7 0.37566 2.40456 1
8 7 7 5.46316 2.72852 1
4 -8 3 11.0156 13.4573 -2
-4 8 7 11.0156 13.4573 1
3 -8 3 14.0627 13.1364 -2
-3 8 7 14.0627 13.1364 1
2 -8 3 18.2973 12.7592 -2
-2 8 7 18.2973 12.7592 1
1 -8 3 30.3638 7.20442 -2
-1 8 7 30.3638 7.20442 1
0 -8 3 32.2417 5.81843 -2
0 8 7 32.2417 5.81843 1
-1 -8 3 145.967 7.37728 -2
1 8 7 145.967 7.37728 1
-2 -8 3 52.9749 5.94471 -2
2 8 7 52.9749 5.94471 1
-3 -8 3 43.2939 3.23531 -2
3 8 7 43.2939 3.23531 1
-4 -8 3 34.1402 5.74555 -2
4 8 7 34.1402 5.74555 1
-5 -8 3 -1.4563 4.7468 -2
5 8 7 -1.4563 4.7468 1
-6 -8 3 74.1614 7.26373 -2
6 8 7 74.1614 7.26373 1
-7 -8 3 62.4638 7.05524 -2
7 8 7 62.4638 7.05524 1
3 -9 2 37.877 7.03481 -2
-3 9 7 37.877 7.03481 1
2 -9 2 66.8222 9.35141 -2
-2 9 7 66.8222 9.35141 1
1 -9 2 117.26 9.02255 -2
-1 9 7 117.26 9.02255 1
0 -9 2 2.39964 4.35191 -2
0 9 7 2.39964 4.35191 1
-1 -9 2 1.16325 4.63388 -2
1 9 7 1.16325 4.63388 1
-2 -9 2 32.4055 4.92866 -2
2 9 7 32.4055 4.92866 1
-3 -9 2 87.5704 4.23998 -2
3 9 7 87.5704 4.23998 1
-4 -9 2 17.439 13.3144 -2
4 9 7 17.439 13.3144 1
5 9 7 42.1948 6.04357 1
6 9 7 0.98301 2.71468 1
7 9 7 78.9994 7.72909 1
-2 10 7 49.3402 6.7278 1
-1 10 7 15.6381 4.97401 1
0 10 7 2.35883 2.63605 1
1 10 7 0.9848 2.47863 1
2 10 7 19.6726 2.90018 1
-3 -10 2 -6.5894 5.44632 -2
3 10 7 -6.5894 5.44632 1
4 10 7 -0.0635 3.0058 1
-5 -10 2 35.4632 12.3253 -2
5 10 7 35.4632 12.3253 1
-6 -10 2 9.1666 11.9425 -2
6 10 7 9.1666 11.9425 1
0 -11 1 47.3671 10.4716 -2
0 11 7 47.3671 10.4716 1
-1 -11 1 41.7539 7.0842 -2
1 11 7 41.7539 7.0842 1
-2 -11 1 15.8922 5.52267 -2
2 11 7 15.8922 5.52267 1
-3 -11 1 76.6779 12.1496 -2
3 11 7 76.6779 12.1496 1
-4 -11 1 10.8129 7.42649 -2
4 11 7 10.8129 7.42649 1
-4 -7 8 73.3154 8.24361 1
3 7 12 43.0282 15.6712 -2
-3 -7 8 43.0282 15.6712 1
2 7 12 63.5315 17.1825 -2
-2 -7 8 63.5315 17.1825 1
-1 -7 8 0.63769 4.8375 1
0 7 12 9.17179 17.1594 -2
0 -7 8 9.17179 17.1594 1
1 -7 8 33.2844 7.27722 1
5 6 11 25.3575 7.51701 -2
-5 -6 8 25.3575 7.51701 1
4 6 11 13.3585 7.42374 -2
-4 -6 8 13.3585 7.42374 1
3 6 11 16.8727 6.6162 -2
-3 -6 8 16.8727 6.6162 1
2 6 11 40.6596 5.52612 -2
-2 -6 8 40.6596 5.52612 1
1 6 11 30.9435 10.063 -2
-1 -6 8 30.9435 10.063 1
0 6 11 21.2118 8.17364 -2
0 -6 8 21.2118 8.17364 1
-1 6 11 101.622 10.7818 -2
1 -6 8 101.622 10.7818 1
-2 6 11 17.0575 8.90234 -2
2 -6 8 17.0575 8.90234 1
-3 6 11 241.732 17.8002 -2
3 -6 8 241.732 17.8002 1
-6 -5 8 -2.2886 4.59672 1
-5 -5 8 1.96376 3.09355 1
-4 -5 8 42.3046 5.51616 1
-3 -5 8 0.83949 1.89521 1
-2 -5 8 92.5023 5.84894 1
-1 -5 8 2.22822 2.3728 1
0 -5 8 59.7655 7.77575 1
1 -5 8 14.1477 4.72614 1
2 -5 8 13.0859 4.87323 1
3 -5 8 110.967 13.3016 1
4 -5 8 17.9472 6.46753 1
7 4 10 -5.9292 6.89928 -2
-7 -4 8 -5.9292 6.89928 1
6 4 10 81.3507 6.40552 -2
-6 -4 8 81.3507 6.40552 1
5 4 10 40.2748 5.59847 -2
-5 -4 8 40.2748 5.59847 1
4 4 10 36.35 4.85224 -2
-4 -4 8 36.35 4.85224 1
3 4 10 205.602 7.21654 -2
-3 -4 8 205.602 7.21654 1
2 4 10 256.574 8.36172 -2
-2 -4 8 256.574 8.36172 1
1 4 10 4.28558 3.68738 -2
-1 -4 8 4.28558 3.68738 1
0 4 10 66.7422 8.18604 -2
0 -4 8 66.7422 8.18604 1
-1 4 10 62.3024 8.35386 -2
1 -4 8 62.3024 8.35386 1
-2 4 10 1.38253 6.31946 -2
2 -4 8 1.38253 6.31946 1
-3 4 10 20.1068 8.12244 -2
3 -4 8 20.1068 8.12244 1
-4 4 10 37.5019 7.47542 -2
4 -4 8 37.5019 7.47542 1
-5 4 10 65.1108 10.3573 -2
5 -4 8 65.1108 10.3573 1
-7 -3 8 4.03461 3.9843 1
-6 -3 8 19.5616 3.7062 1
-5 -3 8 110.748 6.51551 1
-4 -3 8 162.814 5.48785 1
-3 -3 8 3.63089 1.58504 1
-2 -3 8 15.9521 2.24599 1
-1 -3 8 0.52896 1.60033 1
0 -3 8 14.8159 2.84546 1
1 -3 8 94.6282 7.08864 1
2 -3 8 3.22754 2.15342 1
3 -3 8 91.1425 5.99102 1
4 -3 8 33.5105 3.48138 1
5 -3 8 40.9367 5.09246 1
6 -3 8 40.3257 5.53047 1
7 2 9 5.3486 7.31954 -2
-7 -2 8 5.3486 7.31954 1
6 2 9 138.677 7.85377 -2
-6 -2 8 138.677 7.85377 1
5 2 9 26.8648 3.12952 -2
-5 -2 8 26.8648 3.12952 1
4 2 9 18.3309 2.51465 -2
-4 -2 8 18.3309 2.51465 1
3 2 9 50.6136 3.22937 -2
-3 -2 8 50.6136 3.22937 1
2 2 9 435.669 8.82133 -2
-2 -2 8 435.669 8.82133 1
1 2 9 51.509 3.07158 -2
-1 -2 8 51.509 3.07158 1
0 2 9 107.052 4.36644 -2
0 -2 8 107.052 4.36644 1
-1 2 9 101.333 4.31715 -2
1 -2 8 101.333 4.31715 1
-2 2 9 8.37958 2.26326 -2
2 -2 8 8.37958 2.26326 1
-3 2 9 112.037 5.61943 -2
3 -2 8 112.037 5.61943 1
-4 2 9 254.918 8.41189 -2
4 -2 8 254.918 8.41189 1
-5 2 9 49.0921 4.97492 -2
5 -2 8 49.0921 4.97492 1
-6 2 9 40.9879 5.22855 -2
6 -2 8 40.9879 5.22855 1
-7 -1 8 25.9639 4.11516 1
-6 -1 8 2.56756 2.25479 1
-5 -1 8 106.925 4.50493 1
-4 -1 8 16.4181 2.01503 1
-3 -1 8 378.892 6.51593 1
-2 -1 8 229.006 5.45912 1
-1 -1 8 0.61605 1.09812 1
0 -1 8 68.1717 3.29852 1
1 -1 8 4.0631 1.27523 1
2 -1 8 191.159 5.05253 1
3 -1 8 1.65807 1.29015 1
4 -1 8 39.6614 3.14026 1
5 -1 8 -0.9076 1.51084 1
6 -1 8 66.9004 5.40321 1
7 -1 8 29.1842 6.51475 1
7 0 8 10.6516 5.17633 -2
-7 0 8 10.6516 5.17633 1
6 0 8 26.493 5.03068 -2
-6 0 8 26.493 5.03068 1
5 0 8 31.1895 3.03573 -2
-5 0 8 31.1895 3.03573 1
4 0 8 15.4059 2.36009 -2
-4 0 8 15.4059 2.36009 1
3 0 8 352.108 6.42366 -2
-3 0 8 352.108 6.42366 1
2 0 8 118.974 3.71646 -2
-2 0 8 118.974 3.71646 1
1 0 8 112.249 3.71642 -2
-1 0 8 112.249 3.71642 1
0 0 8 163.134 4.15877 -2
0 0 8 163.134 4.15877 1
-1 0 8 159.935 4.37979 -2
1 0 8 159.935 4.37979 1
-2 0 8 83.4863 3.22617 -2
2 0 8 83.4863 3.22617 1
-3 0 8 528.789 7.70984 -2
3 0 8 528.789 7.70984 1
-4 0 8 16.7605 2.16149 -2
4 0 8 16.7605 2.16149 1
-5 0 8 57.586 3.5035 -2
5 0 8 57.586 3.5035 1
-6 0 8 40.3001 3.06948 -2
6 0 8 40.3001 3.06948 1
-7 0 8 12.3587 6.13877 -2
7 0 8 12.3587 6.13877 1
-7 1 8 1.1869 2.74656 1
-6 1 8 89.7048 5.80218 1
-5 1 8 185.353 5.92318 1
-4 1 8 214.635 6.65944 1
-3 1 8 99.3773 3.72637 1
-2 1 8 114.67 3.82998 1
-1 1 8 10.0538 1.58692 1
0 1 8 76.233 3.12624 1
1 1 8 51.2285 2.68677 1
2 1 8 263.858 4.76368 1
3 1 8 59.3066 2.89498 1
4 1 8 242.971 4.92895 1
5 1 8 60.3922 3.02951 1
6 1 8 7.41482 3.67632 1
7 1 8 80.9045 9.19621 1
8 1 8 19.1611 5.49091 1
7 -2 7 63.0972 7.10041 -2
-7 2 8 63.0972 7.10041 1
6 -2 7 42.1991 5.74243 -2
-6 2 8 42.1991 5.74243 1
5 -2 7 56.7099 4.43881 -2
-5 2 8 56.7099 4.43881 1
4 -2 7 131.952 5.27507 -2
-4 2 8 131.952 5.27507 1
3 -2 7 222.051 6.20425 -2
-3 2 8 222.051 6.20425 1
2 -2 7 48.0784 2.89161 -2
-2 2 8 48.0784 2.89161 1
1 -2 7 98.5765 3.43602 -2
-1 2 8 98.5765 3.43602 1
0 -2 7 141.876 3.99833 -2
0 2 8 141.876 3.99833 1
-1 -2 7 22.5577 2.09636 -2
1 2 8 22.5577 2.09636 1
-2 -2 7 229.29 4.39357 -2
2 2 8 229.29 4.39357 1
-3 -2 7 81.7199 2.77762 -2
3 2 8 81.7199 2.77762 1
-4 -2 7 222.549 4.64065 -2
4 2 8 222.549 4.64065 1
-5 -2 7 104.211 2.7456 -2
5 2 8 104.211 2.7456 1
-6 -2 7 18.5841 4.18436 -2
6 2 8 18.5841 4.18436 1
-7 -2 7 7.1193 4.8314 -2
7 2 8 7.1193 4.8314 1
-8 -2 7 52.144 6.93828 -2
8 2 8 52.144 6.93828 1
-7 3 8 -2.5557 3.05907 1
-6 3 8 2.79653 2.6553 1
-5 3 8 11.7765 2.45758 1
-4 3 8 109.296 5.44074 1
-3 3 8 15.1697 2.03054 1
-2 3 8 -1.0199 1.05427 1
-1 3 8 3.07379 1.06097 1
0 3 8 44.3707 2.5852 1
1 3 8 143.794 4.09641 1
2 3 8 552.548 6.24101 1
3 3 8 61.8445 2.30378 1
4 3 8 28.2952 1.8117 1
5 3 8 37.2026 3.84045 1
6 3 8 22.7618 4.00722 1
7 3 8 18.852 4.76312 1
8 3 8 -1.6377 2.97827 1
6 -4 6 23.241 7.70185 -2
-6 4 8 23.241 7.70185 1
5 -4 6 40.6031 5.57201 -2
-5 4 8 40.6031 5.57201 1
4 -4 6 246.319 8.42536 -2
-4 4 8 246.319 8.42536 1
3 -4 6 211.993 8.22548 -2
-3 4 8 211.993 8.22548 1
2 -4 6 72.8348 3.83111 -2
-2 4 8 72.8348 3.83111 1
1 -4 6 87.3596 3.56019 -2
-1 4 8 87.3596 3.56019 1
0 -4 6 112.228 3.95453 -2
0 4 8 112.228 3.95453 1
-1 -4 6 104.848 3.14619 -2
1 4 8 104.848 3.14619 1
-2 -4 6 331.735 4.96823 -2
2 4 8 331.735 4.96823 1
-3 -4 6 1132.2 10.2249 -2
3 4 8 1132.2 10.2249 1
-4 -4 6 36.3889 1.97818 -2
4 4 8 36.3889 1.97818 1
-5 -4 6 64.7374 5.23702 -2
5 4 8 64.7374 5.23702 1
-6 -4 6 15.985 4.46825 -2
6 4 8 15.985 4.46825 1
-7 -4 6 0.93665 4.77376 -2
7 4 8 0.93665 4.77376 1
-8 -4 6 22.6547 5.79415 -2
8 4 8 22.6547 5.79415 1
6 -5 5 44.7647 15.5708 -2
-6 5 8 44.7647 15.5708 1
-5 5 8 10.7499 4.39488 1
-4 5 8 49.7319 5.98998 1
-3 5 8 -0.0615 2.54205 1
-2 5 8 126.53 7.06121 1
-1 5 8 219.9 6.09639 1
0 5 8 18.9105 1.97051 1
1 5 8 12.3804 1.62792 1
2 5 8 -0.6634 0.75363 1
3 5 8 22.3141 1.72536 1
4 5 8 10.2283 1.75856 1
5 5 8 -0.5148 1.6003 1
6 5 8 16.2086 3.72035 1
7 5 8 1.53569 2.40038 1
8 5 8 7.03342 3.78008 1
5 -6 5 50.7744 9.11622 -2
-5 6 8 50.7744 9.11622 1
4 -6 5 13.7385 6.60008 -2
-4 6 8 13.7385 6.60008 1
3 -6 5 14.1928 6.14396 -2
-3 6 8 14.1928 6.14396 1
2 -6 5 0.29434 5.38458 -2
-2 6 8 0.29434 5.38458 1
1 -6 5 198.097 8.04423 -2
-1 6 8 198.097 8.04423 1
0 -6 5 2.87191 2.79684 -2
0 6 8 2.87191 2.79684 1
-1 -6 5 37.7171 3.0753 -2
1 6 8 37.7171 3.0753 1
-2 -6 5 28.3682 2.30697 -2
2 6 8 28.3682 2.30697 1
-3 -6 5 325.198 5.2644 -2
3 6 8 325.198 5.2644 1
-4 -6 5 56.6105 4.50432 -2
4 6 8 56.6105 4.50432 1
-5 -6 5 34.7375 4.73304 -2
5 6 8 34.7375 4.73304 1
-6 -6 5 12.5373 4.69179 -2
6 6 8 12.5373 4.69179 1
-7 -6 5 0.77786 4.35206 -2
7 6 8 0.77786 4.35206 1
-8 -6 5 6.80942 5.35032 -2
8 6 8 6.80942 5.35032 1
5 -7 4 141.105 12.8661 -2
-5 7 8 141.105 12.8661 1
4 -7 4 42.2115 9.29348 -2
-4 7 8 42.2115 9.29348 1
3 -7 4 37.8388 15.4207 -2
-3 7 8 37.8388 15.4207 1
-2 7 8 61.2086 5.97821 1
-1 7 8 29.9952 3.13002 1
0 7 8 60.1755 3.81837 1
1 7 8 3.28109 1.32758 1
2 7 8 29.2471 1.73306 1
-3 -7 4 59.7777 8.75471 -2
3 7 8 59.7777 8.75471 1
4 7 8 196.772 7.81436 1
5 7 8 86.9641 6.63647 1
6 7 8 1.07542 2.43302 1
7 7 8 21.5263 4.2121 1
4 -8 4 27.4132 12.3607 -2
-4 8 8 27.4132 12.3607 1
3 -8 4 16.8484 17.0937 -2
-3 8 8 16.8484 17.0937 1
2 -8 4 25.1488 15.7409 -2
-2 8 8 25.1488 15.7409 1
1 -8 4 37.3564 9.707 -2
-1 8 8 37.3564 9.707 1
0 -8 4 118.864 6.91799 -2
0 8 8 118.864 6.91799 1
-1 -8 4 92.631 5.86673 -2
1 8 8 92.631 5.86673 1
-2 -8 4 84.688 4.69763 -2
2 8 8 84.688 4.69763 1
-3 -8 4 12.8056 2.85292 -2
3 8 8 12.8056 2.85292 1
-4 -8 4 34.4218 6.27413 -2
4 8 8 34.4218 6.27413 1
-5 -8 4 12.9349 5.67759 -2
5 8 8 12.9349 5.67759 1
-6 -8 4 224.97 10.6757 -2
6 8 8 224.97 10.6757 1
-7 -8 4 4.71799 5.55438 -2
7 8 8 4.71799 5.55438 1
3 -9 3 96.1531 9.93455 -2
-3 9 8 96.1531 9.93455 1
2 -9 3 123.478 11.6137 -2
-2 9 8 123.478 11.6137 1
1 -9 3 82.4365 9.70465 -2
-1 9 8 82.4365 9.70465 1
0 -9 3 9.92738 5.58092 -2
0 9 8 9.92738 5.58092 1
-1 -9 3 47.1268 5.20674 -2
1 9 8 47.1268 5.20674 1
-2 -9 3 9.15002 5.3008 -2
2 9 8 9.15002 5.3008 1
-3 -9 3 85.3231 4.64424 -2
3 9 8 85.3231 4.64424 1
-4 -9 3 101.675 17.3762 -2
4 9 8 101.675 17.3762 1
-5 -9 3 62.8672 13.2156 -2
5 9 8 62.8672 13.2156 1
6 9 8 31.1155 5.75685 1
1 -10 3 37.4868 18.3034 -2
-1 10 8 37.4868 18.3034 1
0 10 8 0.54512 2.64718 1
1 10 8 1.07567 2.6049 1
2 10 8 3.45034 2.3522 1
-3 -10 3 24.0858 4.32611 -2
3 10 8 24.0858 4.32611 1
-4 -10 3 2.73692 11.8788 -2
4 10 8 2.73692 11.8788 1
5 10 8 -0.3656 3.50272 1
-1 -11 2 94.2919 9.21378 -2
1 11 8 94.2919 9.21378 1
-2 -11 2 17.7075 5.47453 -2
2 11 8 17.7075 5.47453 1
-3 -11 2 23.2677 9.77683 -2
3 11 8 23.2677 9.77683 1
4 6 12 5.42917 8.79291 -2
-4 -6 9 5.42917 8.79291 1
3 6 12 8.75388 7.05462 -2
-3 -6 9 8.75388 7.05462 1
2 6 12 13.9763 9.45144 -2
-2 -6 9 13.9763 9.45144 1
1 6 12 12.0846 10.5956 -2
-1 -6 9 12.0846 10.5956 1
0 6 12 10.9318 10.4883 -2
0 -6 9 10.9318 10.4883 1
-1 6 12 26.4741 9.54679 -2
1 -6 9 26.4741 9.54679 1
-5 -5 9 4.21942 3.58796 1
-4 -5 9 6.31522 3.97782 1
-3 -5 9 30.3621 5.65601 1
-2 -5 9 5.71931 3.0372 1
-1 -5 9 51.1641 9.2535 1
0 -5 9 166.758 13.21 1
1 -5 9 9.05155 4.64639 1
2 -5 9 24.1819 6.3568 1
3 -5 9 18.6466 7.61354 1
6 4 11 14.4698 5.65272 -2
-6 -4 9 14.4698 5.65272 1
5 4 11 78.562 8.73895 -2
-5 -4 9 78.562 8.73895 1
4 4 11 24.6905 6.20251 -2
-4 -4 9 24.6905 6.20251 1
3 4 11 10.0683 4.1063 -2
-3 -4 9 10.0683 4.1063 1
2 4 11 12.4157 5.23022 -2
-2 -4 9 12.4157 5.23022 1
1 4 11 6.83728 6.31076 -2
-1 -4 9 6.83728 6.31076 1
0 4 11 293.625 14.6613 -2
0 -4 9 293.625 14.6613 1
-1 4 11 52.7415 8.44917 -2
1 -4 9 52.7415 8.44917 1
-2 4 11 23.4513 7.29379 -2
2 -4 9 23.4513 7.29379 1
-3 4 11 15.8487 8.54768 -2
3 -4 9 15.8487 8.54768 1
-4 4 11 9.23827 8.28826 -2
4 -4 9 9.23827 8.28826 1
-6 -3 9 22.6888 4.45533 1
-5 -3 9 114.363 9.98882 1
-4 -3 9 420.947 12.591 1
-3 -3 9 12.0782 2.24319 1
-2 -3 9 -0.1382 1.7651 1
-1 -3 9 3.3644 2.86936 1
0 -3 9 323.032 14.3991 1
1 -3 9 34.1984 6.38026 1
2 -3 9 17.3756 4.78315 1
3 -3 9 10.1262 4.94338 1
4 -3 9 9.44957 2.76657 1
5 -3 9 10.011 3.47336 1
6 2 10 109.317 9.02492 -2
-6 -2 9 109.317 9.02492 1
5 2 10 108.058 6.41463 -2
-5 -2 9 108.058 6.41463 1
4 2 10 96 5.0095 -2
-4 -2 9 96 5.0095 1
3 2 10 39.2852 3.88542 -2
-3 -2 9 39.2852 3.88542 1
2 2 10 150.099 6.16193 -2
-2 -2 9 150.099 6.16193 1
1 2 10 69.3679 5.76554 -2
-1 -2 9 69.3679 5.76554 1
0 2 10 181.8 10.64 -2
0 -2 9 181.8 10.64 1
-1 2 10 114.521 8.04445 -2
1 -2 9 114.521 8.04445 1
-2 2 10 36.1637 5.0942 -2
2 -2 9 36.1637 5.0942 1
-3 2 10 62.8927 5.77603 -2
3 -2 9 62.8927 5.77603 1
-4 2 10 47.1499 4.92489 -2
4 -2 9 47.1499 4.92489 1
-5 2 10 67.1222 6.25874 -2
5 -2 9 67.1222 6.25874 1
-6 2 10 11.18 4.7827 -2
6 -2 9 11.18 4.7827 1
-7 -1 9 20.5191 4.48472 1
-6 -1 9 7.94957 3.30515 1
-5 -1 9 13.6908 3.18934 1
-4 -1 9 11.4338 2.40642 1
-3 -1 9 11.11 2.07743 1
-2 -1 9 66.7254 4.33212 1
-1 -1 9 18.1498 2.65698 1
0 -1 9 4.21697 1.90166 1
1 -1 9 8.05834 2.05458 1
2 -1 9 135.094 6.06097 1
3 -1 9 101.136 5.93289 1
4 -1 9 1.37631 1.66656 1
5 -1 9 40.1042 4.64761 1
6 -1 9 81.4886 6.20079 1
7 0 9 21.9776 6.23875 -2
-7 0 9 21.9776 6.23875 1
6 0 9 9.58748 5.71511 -2
-6 0 9 9.58748 5.71511 1
5 0 9 46.8935 4.90693 -2
-5 0 9 46.8935 4.90693 1
4 0 9 -4.6473 2.61298 -2
-4 0 9 -4.6473 2.61298 1
3 0 9 487.338 9.74509 -2
-3 0 9 487.338 9.74509 1
2 0 9 341.861 7.88308 -2
-2 0 9 341.861 7.88308 1
1 0 9 37.2408 3.14843 -2
-1 0 9 37.2408 3.14843 1
0 0 9 57.4795 3.34929 -2
0 0 9 57.4795 3.34929 1
-1 0 9 58.9768 3.91487 -2
1 0 9 58.9768 3.91487 1
-2 0 9 556.282 9.73381 -2
2 0 9 556.282 9.73381 1
-3 0 9 616.127 9.96776 -2
3 0 9 616.127 9.96776 1
-4 0 9 1.86162 2.02507 -2
4 0 9 1.86162 2.02507 1
-5 0 9 39.5929 3.69286 -2
5 0 9 39.5929 3.69286 1
-6 0 9 3.78949 3.06953 -2
6 0 9 3.78949 3.06953 1
-7 0 9 19.9928 7.1166 -2
7 0 9 19.9928 7.1166 1
-7 1 9 11.7357 3.89722 1
-6 1 9 3.60643 2.99911 1
-5 1 9 61.6631 4.38009 1
-4 1 9 3.22694 1.81904 1
-3 1 9 25.573 2.94878 1
-2 1 9 271.59 6.59715 1
-1 1 9 52.9606 3.00854 1
0 1 9 70.637 3.50314 1
1 1 9 0.20092 1.24164 1
2 1 9 1.25777 1.25376 1
3 1 9 27.6853 2.49359 1
4 1 9 35.4423 2.40668 1
5 1 9 1.2523 1.66662 1
6 1 9 0.60348 2.10362 1
7 1 9 2.19439 3.66163 1
6 -2 8 43.9118 6.17269 -2
-6 2 9 43.9118 6.17269 1
5 -2 8 59.043 5.0542 -2
-5 2 9 59.043 5.0542 1
4 -2 8 406.472 9.47678 -2
-4 2 9 406.472 9.47678 1
3 -2 8 79.4119 5.09165 -2
-3 2 9 79.4119 5.09165 1
2 -2 8 4.27721 2.85616 -2
-2 2 9 4.27721 2.85616 1
1 -2 8 82.3336 3.64459 -2
-1 2 9 82.3336 3.64459 1
0 -2 8 126.441 4.24723 -2
0 2 9 126.441 4.24723 1
-1 -2 8 30.2295 2.59855 -2
1 2 9 30.2295 2.59855 1
-2 -2 8 477.469 7.46824 -2
2 2 9 477.469 7.46824 1
-3 -2 8 43.1191 2.86687 -2
3 2 9 43.1191 2.86687 1
-4 -2 8 36.9998 2.84906 -2
4 2 9 36.9998 2.84906 1
-5 -2 8 49.3593 2.85656 -2
5 2 9 49.3593 2.85656 1
-6 -2 8 89.3537 6.78742 -2
6 2 9 89.3537 6.78742 1
-7 -2 8 11.6043 5.66614 -2
7 2 9 11.6043 5.66614 1
-6 3 9 11.9959 3.70868 1
-5 3 9 69.3494 5.23248 1
-4 3 9 111.97 7.07884 1
-3 3 9 39.9621 3.56993 1
-2 3 9 14.5951 2.69329 1
-1 3 9 -1.298 1.13165 1
0 3 9 4.08721 1.38114 1
1 3 9 24.5479 2.10993 1
2 3 9 134.509 4.20091 1
3 3 9 23.5428 2.04189 1
4 3 9 202.703 4.85634 1
5 3 9 78.3158 4.41575 1
6 3 9 28.7397 4.92993 1
7 3 9 5.30037 3.34592 1
6 -4 7 13.3451 7.45503 -2
-6 4 9 13.3451 7.45503 1
5 -4 7 7.02258 6.69428 -2
-5 4 9 7.02258 6.69428 1
4 -4 7 30.6789 6.93056 -2
-4 4 9 30.6789 6.93056 1
3 -4 7 229.874 10.8203 -2
-3 4 9 229.874 10.8203 1
2 -4 7 12.2278 4.35522 -2
-2 4 9 12.2278 4.35522 1
1 -4 7 129.044 5.24461 -2
-1 4 9 129.044 5.24461 1
0 -4 7 3.46167 2.49692 -2
0 4 9 3.46167 2.49692 1
-1 -4 7 51.2725 2.74784 -2
1 4 9 51.2725 2.74784 1
-2 -4 7 80.05 3.31357 -2
2 4 9 80.05 3.31357 1
-3 -4 7 877.348 11.3645 -2
3 4 9 877.348 11.3645 1
-4 -4 7 16.6507 2.14974 -2
4 4 9 16.6507 2.14974 1
-5 -4 7 5.92643 4.32973 -2
5 4 9 5.92643 4.32973 1
-6 -4 7 84.4968 6.97015 -2
6 4 9 84.4968 6.97015 1
-7 -4 7 97.0208 8.99043 -2
7 4 9 97.0208 8.99043 1
5 -5 6 81.618 17.845 -2
-5 5 9 81.618 17.845 1
-4 5 9 9.5635 3.58732 1
-3 5 9 155.493 10.3981 1
-2 5 9 52.3204 5.10796 1
-1 5 9 82.0612 4.82915 1
0 5 9 181.159 6.06603 1
1 5 9 7.68723 1.63231 1
2 5 9 6.31794 1.42681 1
3 5 9 132.042 4.36678 1
4 5 9 1.37947 0.90384 1
5 5 9 16.0137 3.13818 1
6 5 9 16.6414 3.60165 1
7 5 9 62.888 6.77139 1
5 -6 6 99.2397 11.0792 -2
-5 6 9 99.2397 11.0792 1
4 -6 6 4.13103 7.74582 -2
-4 6 9 4.13103 7.74582 1
3 -6 6 216.139 11.6549 -2
-3 6 9 216.139 11.6549 1
2 -6 6 139.403 9.52976 -2
-2 6 9 139.403 9.52976 1
1 -6 6 33.1132 5.61127 -2
-1 6 9 33.1132 5.61127 1
0 -6 6 213.037 7.70342 -2
0 6 9 213.037 7.70342 1
-1 -6 6 4.32344 2.72015 -2
1 6 9 4.32344 2.72015 1
-2 -6 6 1.84321 2.25979 -2
2 6 9 1.84321 2.25979 1
-3 -6 6 98.4543 4.41624 -2
3 6 9 98.4543 4.41624 1
-4 -6 6 91.806 4.45197 -2
4 6 9 91.806 4.45197 1
-5 -6 6 129.913 8.3199 -2
5 6 9 129.913 8.3199 1
-6 -6 6 48.2351 6.33031 -2
6 6 9 48.2351 6.33031 1
-7 -6 6 136.667 8.61307 -2
7 6 9 136.667 8.61307 1
4 -7 5 62.7399 12.5919 -2
-4 7 9 62.7399 12.5919 1
3 -7 5 35.0992 12.6664 -2
-3 7 9 35.0992 12.6664 1
2 -7 5 6.67955 9.54757 -2
-2 7 9 6.67955 9.54757 1
1 -7 5 21.9055 14.1095 -2
-1 7 9 21.9055 14.1095 1
0 -7 5 15.7027 13.4011 -2
0 7 9 15.7027 13.4011 1
1 7 9 3.25322 1.55076 1
2 7 9 122.985 5.48808 1
-3 -7 5 264.049 16.0166 -2
3 7 9 264.049 16.0166 1
4 7 9 55.3567 6.38373 1
5 7 9 33.4083 5.18944 1
6 7 9 1.57922 2.52711 1
7 7 9 17.0558 4.20329 1
3 -8 5 22.3763 13.5322 -2
-3 8 9 22.3763 13.5322 1
2 -8 5 30.1246 11.2899 -2
-2 8 9 30.1246 11.2899 1
1 -8 5 34.9901 8.38709 -2
-1 8 9 34.9901 8.38709 1
0 -8 5 223.334 9.07872 -2
0 8 9 223.334 9.07872 1
-1 -8 5 103.036 6.7275 -2
1 8 9 103.036 6.7275 1
-2 -8 5 46.3569 4.93512 -2
2 8 9 46.3569 4.93512 1
-3 -8 5 20.1219 4.1609 -2
3 8 9 20.1219 4.1609 1
-4 -8 5 178.434 10.4418 -2
4 8 9 178.434 10.4418 1
-5 -8 5 68.3815 7.80368 -2
5 8 9 68.3815 7.80368 1
-6 -8 5 77.5862 8.07183 -2
6 8 9 77.5862 8.07183 1
2 -9 4 18.7537 8.70521 -2
-2 9 9 18.7537 8.70521 1
1 -9 4 1.51288 7.28402 -2
-1 9 9 1.51288 7.28402 1
0 -9 4 49.4619 6.81255 -2
0 9 9 49.4619 6.81255 1
-1 -9 4 54.3851 6.14123 -2
1 9 9 54.3851 6.14123 1
-2 -9 4 60.6319 6.2205 -2
2 9 9 60.6319 6.2205 1
-3 -9 4 27.6982 4.12747 -2
3 9 9 27.6982 4.12747 1
-4 -9 4 21.8344 7.47795 -2
4 9 9 21.8344 7.47795 1
-5 -9 4 44.9627 8.37408 -2
5 9 9 44.9627 8.37408 1
-6 -9 4 71.0141 18.1151 -2
6 9 9 71.0141 18.1151 1
0 -10 4 29.0326 16.5499 -2
0 10 9 29.0326 16.5499 1
1 10 9 11.3337 3.28388 1
-2 -10 4 76.4658 17.2993 -2
2 10 9 76.4658 17.2993 1
3 10 9 16.9851 2.30599 1
-4 -10 4 17.3344 16.9537 -2
4 10 9 17.3344 16.9537 1
-3 -5 10 3.34892 5.17588 1
-2 -5 10 11.3248 6.39202 1
-1 -5 10 29.3637 7.95315 1
0 -5 10 6.27202 4.33657 1
1 -5 10 0.61563 4.18711 1
4 4 12 23.6728 6.81853 -2
-4 -4 10 23.6728 6.81853 1
3 4 12 103.569 10.3375 -2
-3 -4 10 103.569 10.3375 1
2 4 12 12.4305 8.73229 -2
-2 -4 10 12.4305 8.73229 1
1 4 12 98.9532 12.7248 -2
-1 -4 10 98.9532 12.7248 1
0 4 12 129.818 11.3794 -2
0 -4 10 129.818 11.3794 1
-1 4 12 40.9323 8.75727 -2
1 -4 10 40.9323 8.75727 1
-2 4 12 62.8101 10.9544 -2
2 -4 10 62.8101 10.9544 1
-3 4 12 7.41005 8.32114 -2
3 -4 10 7.41005 8.32114 1
-5 -3 10 92.6937 8.41301 1
-4 -3 10 2.78839 3.13002 1
-3 -3 10 24.9126 3.88672 1
-2 -3 10 77.9832 15.2916 1
-1 -3 10 12.4235 4.40185 1
0 -3 10 19.9383 5.35801 1
1 -3 10 0.30557 3.77882 1
2 -3 10 9.2214 5.17329 1
3 -3 10 -2.054 3.76674 1
4 -3 10 50.3468 7.47153 1
6 2 11 22.3773 6.5058 -2
-6 -2 10 22.3773 6.5058 1
5 2 11 37.5864 6.90519 -2
-5 -2 10 37.5864 6.90519 1
4 2 11 31.2273 5.82082 -2
-4 -2 10 31.2273 5.82082 1
3 2 11 353.203 10.8474 -2
-3 -2 10 353.203 10.8474 1
2 2 11 94.2361 10.9678 -2
-2 -2 10 94.2361 10.9678 1
1 2 11 23.0846 6.31387 -2
-1 -2 10 23.0846 6.31387 1
0 2 11 9.59091 5.7906 -2
0 -2 10 9.59091 5.7906 1
-1 2 11 100.245 9.06133 -2
1 -2 10 100.245 9.06133 1
-2 2 11 3.3584 6.50309 -2
2 -2 10 3.3584 6.50309 1
-3 2 11 10.9113 6.74285 -2
3 -2 10 10.9113 6.74285 1
-4 2 11 2.83696 5.09336 -2
4 -2 10 2.83696 5.09336 1
-5 2 11 52.9845 6.16415 -2
5 -2 10 52.9845 6.16415 1
-6 -1 10 119.956 10.8636 1
-5 -1 10 107.478 9.12432 1
-4 -1 10 2.13329 2.09592 1
-3 -1 10 21.107 3.28924 1
-2 -1 10 23.6958 4.57454 1
-1 -1 10 23.711 5.23962 1
0 -1 10 26.1406 5.26148 1
1 -1 10 322.464 12.7282 1
2 -1 10 3.0457 3.02681 1
3 -1 10 145.84 7.38134 1
4 -1 10 21.9923 3.33836 1
5 -1 10 1.94761 2.56602 1
6 0 10 52.0922 7.80584 -2
-6 0 10 52.0922 7.80584 1
5 0 10 215.512 11.1928 -2
-5 0 10 215.512 11.1928 1
4 0 10 29.126 4.23059 -2
-4 0 10 29.126 4.23059 1
3 0 10 122.989 6.77926 -2
-3 0 10 122.989 6.77926 1
2 0 10 114.059 9.13227 -2
-2 0 10 114.059 9.13227 1
1 0 10 279.967 13.0584 -2
-1 0 10 279.967 13.0584 1
0 0 10 74.3076 7.50599 -2
0 0 10 74.3076 7.50599 1
-1 0 10 411.824 11.9687 -2
1 0 10 411.824 11.9687 1
-2 0 10 88.1396 4.96639 -2
2 0 10 88.1396 4.96639 1
-3 0 10 99.6809 5.30891 -2
3 0 10 99.6809 5.30891 1
-4 0 10 58.3758 4.56262 -2
4 0 10 58.3758 4.56262 1
-5 0 10 145.717 6.69685 -2
5 0 10 145.717 6.69685 1
-6 0 10 52.2731 4.81364 -2
6 0 10 52.2731 4.81364 1
-6 1 10 43.8493 6.25007 1
-5 1 10 24.7713 4.3179 1
-4 1 10 62.0097 4.72462 1
-3 1 10 41.8441 3.9447 1
-2 1 10 232.973 11.1406 1
-1 1 10 8.8712 2.88075 1
0 1 10 26.3836 3.64085 1
1 1 10 684.704 12.5731 1
2 1 10 2.0034 1.73696 1
3 1 10 26.3713 2.78623 1
4 1 10 80.2192 4.89845 1
5 1 10 -0.5309 1.91319 1
6 1 10 5.27942 1.89232 1
6 -2 9 17.9628 7.24359 -2
-6 2 10 17.9628 7.24359 1
5 -2 9 105.945 9.94675 -2
-5 2 10 105.945 9.94675 1
4 -2 9 45.3956 7.35562 -2
-4 2 10 45.3956 7.35562 1
3 -2 9 44.1816 6.39122 -2
-3 2 10 44.1816 6.39122 1
2 -2 9 28.4236 5.48452 -2
-2 2 10 28.4236 5.48452 1
1 -2 9 76.4742 6.00017 -2
-1 2 10 76.4742 6.00017 1
0 -2 9 163.793 6.3106 -2
0 2 10 163.793 6.3106 1
-1 -2 9 126.568 5.48724 -2
1 2 10 126.568 5.48724 1
-2 -2 9 215.103 6.27334 -2
2 2 10 215.103 6.27334 1
-3 -2 9 26.7146 2.89171 -2
3 2 10 26.7146 2.89171 1
-4 -2 9 167.084 5.64722 -2
4 2 10 167.084 5.64722 1
-5 -2 9 85.7242 4.66431 -2
5 2 10 85.7242 4.66431 1
-6 -2 9 145.01 10.946 -2
6 2 10 145.01 10.946 1
-5 3 10 80.3449 9.29412 1
-4 3 10 94.8282 9.74843 1
-3 3 10 8.48796 3.58322 1
-2 3 10 2.20304 2.84309 1
-1 3 10 49.6505 4.65573 1
0 3 10 7.12459 1.88797 1
1 3 10 3.7362 1.77127 1
2 3 10 5.94037 1.84145 1
3 3 10 132.708 5.15494 1
4 3 10 236.217 6.65508 1
5 3 10 48.2126 2.88627 1
6 3 10 43.912 6.14263 1
7 3 10 30.7878 6.05361 1
5 -4 8 34.643 8.35857 -2
-5 4 10 34.643 8.35857 1
4 -4 8 53.8153 8.88128 -2
-4 4 10 53.8153 8.88128 1
3 -4 8 42.6547 6.66424 -2
-3 4 10 42.6547 6.66424 1
2 -4 8 15.8487 5.49268 -2
-2 4 10 15.8487 5.49268 1
1 -4 8 85.4427 6.49714 -2
-1 4 10 85.4427 6.49714 1
0 -4 8 75.1945 4.50445 -2
0 4 10 75.1945 4.50445 1
-1 -4 8 5.65026 3.23158 -2
1 4 10 5.65026 3.23158 1
-2 -4 8 406.751 8.44353 -2
2 4 10 406.751 8.44353 1
-3 -4 8 187.683 6.1686 -2
3 4 10 187.683 6.1686 1
-4 -4 8 31.9462 3.32647 -2
4 4 10 31.9462 3.32647 1
-5 -4 8 38.5695 5.93035 -2
5 4 10 38.5695 5.93035 1
-6 -4 8 130.46 8.80664 -2
6 4 10 130.46 8.80664 1
-7 -4 8 5.55694 5.96136 -2
7 4 10 5.55694 5.96136 1
5 -5 7 48.1752 18.9497 -2
-5 5 10 48.1752 18.9497 1
-4 5 10 -0.7035 3.49989 1
-3 5 10 280.417 14.3592 1
-2 5 10 19.3936 4.44144 1
-1 5 10 28.7329 4.12905 1
0 5 10 193.935 7.11467 1
1 5 10 3.8433 1.7586 1
2 5 10 126.932 4.98508 1
3 5 10 0.55298 1.45231 1
4 5 10 1.55689 1.22481 1
5 5 10 -1.6837 2.19386 1
6 5 10 55.4231 6.66692 1
7 5 10 11.963 3.69143 1
4 -6 7 86.2643 10.7768 -2
-4 6 10 86.2643 10.7768 1
3 -6 7 150.212 10.5502 -2
-3 6 10 150.212 10.5502 1
2 -6 7 186.016 10.8267 -2
-2 6 10 186.016 10.8267 1
1 -6 7 30.7997 6.98339 -2
-1 6 10 30.7997 6.98339 1
0 -6 7 117.243 6.77078 -2
0 6 10 117.243 6.77078 1
-1 -6 7 38.5696 4.076 -2
1 6 10 38.5696 4.076 1
-2 -6 7 17.3759 3.72444 -2
2 6 10 17.3759 3.72444 1
-3 -6 7 9.91717 3.47434 -2
3 6 10 9.91717 3.47434 1
-4 -6 7 244.142 5.2683 -2
4 6 10 244.142 5.2683 1
-5 -6 7 23.8299 5.96283 -2
5 6 10 23.8299 5.96283 1
-6 -6 7 72.3053 7.49554 -2
6 6 10 72.3053 7.49554 1
3 -7 6 175.493 11.8822 -2
-3 7 10 175.493 11.8822 1
2 -7 6 53.4163 10.0984 -2
-2 7 10 53.4163 10.0984 1
1 -7 6 25.9848 9.85491 -2
-1 7 10 25.9848 9.85491 1
0 -7 6 52.7438 9.97717 -2
0 7 10 52.7438 9.97717 1
1 7 10 8.55681 2.11564 1
2 7 10 1.10888 1.75515 1
3 7 10 52.1884 3.99923 1
-4 -7 6 173.765 22.1286 -2
4 7 10 173.765 22.1286 1
5 7 10 3.53039 3.10586 1
6 7 10 24.3703 5.03564 1
2 -8 6 39.3851 9.68021 -2
-2 8 10 39.3851 9.68021 1
1 -8 6 36.9773 8.91782 -2
-1 8 10 36.9773 8.91782 1
0 -8 6 244.002 13.7968 -2
0 8 10 244.002 13.7968 1
-1 -8 6 37.6442 5.64324 -2
1 8 10 37.6442 5.64324 1
-2 -8 6 22.1271 4.99616 -2
2 8 10 22.1271 4.99616 1
-3 -8 6 33.2253 4.77247 -2
3 8 10 33.2253 4.77247 1
-4 -8 6 252.878 12.4891 -2
4 8 10 252.878 12.4891 1
-5 -8 6 4.31241 6.27241 -2
5 8 10 4.31241 6.27241 1
1 -9 5 12.093 7.90127 -2
-1 9 10 12.093 7.90127 1
0 -9 5 1.00209 7.40605 -2
0 9 10 1.00209 7.40605 1
-1 -9 5 20.727 5.5747 -2
1 9 10 20.727 5.5747 1
-2 -9 5 23.3341 5.27403 -2
2 9 10 23.3341 5.27403 1
-3 -9 5 16.8219 4.39256 -2
3 9 10 16.8219 4.39256 1
-4 -9 5 309.899 14.2208 -2
4 9 10 309.899 14.2208 1
2 4 13 4.19112 8.75123 -2
-2 -4 11 4.19112 8.75123 1
1 4 13 1.53136 9.16221 -2
-1 -4 11 1.53136 9.16221 1
0 4 13 1.84041 7.91197 -2
0 -4 11 1.84041 7.91197 1
-1 4 13 62.0263 10.4052 -2
1 -4 11 62.0263 10.4052 1
-4 -3 11 8.61306 5.92848 1
-3 -3 11 11.9953 6.42913 1
-2 -3 11 32.1825 8.50387 1
-1 -3 11 6.16282 4.64953 1
0 -3 11 1.66281 3.52239 1
1 -3 11 -3.538 3.63438 1
2 -3 11 101.515 12.8599 1
4 2 12 34.2585 8.94583 -2
-4 -2 11 34.2585 8.94583 1
3 2 12 72.033 10.766 -2
-3 -2 11 72.033 10.766 1
2 2 12 59.6505 10.4795 -2
-2 -2 11 59.6505 10.4795 1
1 2 12 191.894 12.4468 -2
-1 -2 11 191.894 12.4468 1
0 2 12 41.8342 7.75385 -2
0 -2 11 41.8342 7.75385 1
-1 2 12 52.4859 8.19763 -2
1 -2 11 52.4859 8.19763 1
-2 2 12 2.4986 7.29018 -2
2 -2 11 2.4986 7.29018 1
-3 2 12 100.93 11.5208 -2
3 -2 11 100.93 11.5208 1
-4 2 12 3.80124 9.64593 -2
4 -2 11 3.80124 9.64593 1
-5 -1 11 9.25547 4.67731 1
-4 -1 11 93.6354 12.5075 1
-3 -1 11 0.69143 4.78403 1
-2 -1 11 2.45165 3.94857 1
-1 -1 11 -3.0894 3.29231 1
0 -1 11 142.635 11.804 1
1 -1 11 35.8151 6.35514 1
2 -1 11 -4.8072 2.95473 1
3 -1 11 74.4126 7.69424 1
4 -1 11 9.81245 3.23795 1
5 0 11 50.7113 9.71614 -2
-5 0 11 50.7113 9.71614 1
4 0 11 8.59813 7.52642 -2
-4 0 11 8.59813 7.52642 1
3 0 11 60.6234 7.79918 -2
-3 0 11 60.6234 7.79918 1
2 0 11 63.4548 7.95275 -2
-2 0 11 63.4548 7.95275 1
1 0 11 44.4342 6.9094 -2
-1 0 11 44.4342 6.9094 1
0 0 11 90.8218 8.67523 -2
0 0 11 90.8218 8.67523 1
-1 0 11 41.8421 6.72193 -2
1 0 11 41.8421 6.72193 1
-2 0 11 35.6599 5.45158 -2
2 0 11 35.6599 5.45158 1
-3 0 11 55.57 5.00742 -2
3 0 11 55.57 5.00742 1
-4 0 11 9.92609 3.86852 -2
4 0 11 9.92609 3.86852 1
-5 0 11 21.6878 4.60125 -2
5 0 11 21.6878 4.60125 1
-5 1 11 166.466 13.7502 1
-4 1 11 7.5817 4.3961 1
-3 1 11 14.0695 4.28089 1
-2 1 11 68.231 7.1777 1
-1 1 11 2.80169 3.20511 1
0 1 11 26.7712 4.60778 1
1 1 11 62.3607 5.56115 1
2 1 11 399.33 10.2068 1
3 1 11 -1.3614 1.98549 1
4 1 11 33.9161 4.29569 1
5 1 11 52.8798 4.9514 1
5 -2 10 78.0549 9.82477 -2
-5 2 11 78.0549 9.82477 1
4 -2 10 -0.6625 6.1416 -2
-4 2 11 -0.6625 6.1416 1
3 -2 10 8.89258 6.51698 -2
-3 2 11 8.89258 6.51698 1
2 -2 10 12.6785 5.23468 -2
-2 2 11 12.6785 5.23468 1
1 -2 10 84.663 7.68535 -2
-1 2 11 84.663 7.68535 1
0 -2 10 8.99422 5.03963 -2
0 2 11 8.99422 5.03963 1
-1 -2 10 38.9609 5.22858 -2
1 2 11 38.9609 5.22858 1
-2 -2 10 73.757 4.71141 -2
2 2 11 73.757 4.71141 1
-3 -2 10 272.593 8.30499 -2
3 2 11 272.593 8.30499 1
-4 -2 10 18.0598 4.11044 -2
4 2 11 18.0598 4.11044 1
-5 -2 10 44.6903 4.25562 -2
5 2 11 44.6903 4.25562 1
-6 -2 10 20.6813 7.56707 -2
6 2 11 20.6813 7.56707 1
-5 3 11 24.6255 5.75051 1
-4 3 11 56.5045 8.31909 1
-3 3 11 32.508 5.70125 1
-2 3 11 27.9657 5.02072 1
-1 3 11 5.56387 3.31187 1
0 3 11 24.6737 3.62155 1
1 3 11 53.6188 4.57781 1
2 3 11 76.4743 4.97138 1
3 3 11 3.53111 2.00043 1
4 3 11 64.7582 4.52432 1
5 3 11 7.56979 2.09404 1
6 3 11 -0.0308 3.37337 1
4 -4 9 10.7009 7.90129 -2
-4 4 11 10.7009 7.90129 1
3 -4 9 14.4771 6.45604 -2
-3 4 11 14.4771 6.45604 1
2 -4 9 12.6695 6.08505 -2
-2 4 11 12.6695 6.08505 1
1 -4 9 100.047 8.50453 -2
-1 4 11 100.047 8.50453 1
0 -4 9 199.908 11.7992 -2
0 4 11 199.908 11.7992 1
-1 -4 9 12.3523 3.74153 -2
1 4 11 12.3523 3.74153 1
-2 -4 9 6.56911 3.31864 -2
2 4 11 6.56911 3.31864 1
-3 -4 9 9.35764 3.56729 -2
3 4 11 9.35764 3.56729 1
-4 -4 9 38.0409 4.28101 -2
4 4 11 38.0409 4.28101 1
-5 -4 9 68.8182 7.47739 -2
5 4 11 68.8182 7.47739 1
-6 -4 9 19.2539 5.81875 -2
6 4 11 19.2539 5.81875 1
4 -5 8 25.3974 18.4976 -2
-4 5 11 25.3974 18.4976 1
3 -5 8 128.876 15.1156 -2
-3 5 11 128.876 15.1156 1
-2 5 11 1.1447 3.01647 1
-1 5 11 19.319 4.5531 1
0 5 11 19.9732 3.95339 1
1 5 11 18.2459 3.10507 1
2 5 11 12.6919 2.80664 1
3 5 11 67.9619 4.94535 1
4 5 11 37.1674 3.81187 1
5 5 11 2.9973 3.05567 1
6 5 11 20.9435 4.75731 1
3 -6 8 435.164 16.9718 -2
-3 6 11 435.164 16.9718 1
2 -6 8 14.8869 6.82103 -2
-2 6 11 14.8869 6.82103 1
1 -6 8 63.9675 8.9178 -2
-1 6 11 63.9675 8.9178 1
0 -6 8 7.65123 6.42691 -2
0 6 11 7.65123 6.42691 1
-1 -6 8 45.2226 5.37985 -2
1 6 11 45.2226 5.37985 1
-2 -6 8 68.1496 6.43433 -2
2 6 11 68.1496 6.43433 1
-3 -6 8 11.7648 4.25529 -2
3 6 11 11.7648 4.25529 1
-4 -6 8 14.5114 3.0531 -2
4 6 11 14.5114 3.0531 1
-5 -6 8 19.1733 6.41376 -2
5 6 11 19.1733 6.41376 1
2 -7 7 -0.8277 8.12266 -2
-2 7 11 -0.8277 8.12266 1
1 -7 7 19.0974 8.34077 -2
-1 7 11 19.0974 8.34077 1
0 -7 7 18.0856 7.94714 -2
0 7 11 18.0856 7.94714 1
-1 -7 7 22.9963 6.85592 -2
1 7 11 22.9963 6.85592 1
-2 -7 7 34.6737 10.7996 -2
2 7 11 34.6737 10.7996 1
3 7 11 173.041 7.96402 1
-4 -7 7 24.6015 15.9497 -2
4 7 11 24.6015 15.9497 1
5 7 11 1.74547 3.17378 1
1 -8 7 56.7992 10.0178 -2
-1 8 11 56.7992 10.0178 1
0 -8 7 2.90188 7.90333 -2
0 8 11 2.90188 7.90333 1
-1 -8 7 19.8033 6.24894 -2
1 8 11 19.8033 6.24894 1
-2 -8 7 70.9672 6.53807 -2
2 8 11 70.9672 6.53807 1
-3 -8 7 164.099 7.62198 -2
3 8 11 164.099 7.62198 1
-4 -8 7 15.5203 6.96372 -2
4 8 11 15.5203 6.96372 1
-1 -9 6 194.357 11.5168 -2
1 9 11 194.357 11.5168 1
-2 -9 6 52.8102 6.34169 -2
2 9 11 52.8102 6.34169 1
2 2 13 63.2899 11.1037 -2
-2 -2 12 63.2899 11.1037 1
1 2 13 93.0352 10.4521 -2
-1 -2 12 93.0352 10.4521 1
0 2 13 6.92082 7.03137 -2
0 -2 12 6.92082 7.03137 1
-1 2 13 41.968 9.85298 -2
1 -2 12 41.968 9.85298 1
-2 2 13 131.22 13.3298 -2
2 -2 12 131.22 13.3298 1
-3 -1 12 13.9768 6.95514 1
-2 -1 12 -1.0402 4.80587 1
-1 -1 12 37.1846 7.34907 1
0 -1 12 68.6731 8.81037 1
1 -1 12 44.3247 7.23521 1
2 -1 12 7.99042 4.76073 1
3 -1 12 11.87 4.64804 1
-4 0 12 19.3264 8.01517 1
3 0 12 12.3803 8.08735 -2
-3 0 12 12.3803 8.08735 1
2 0 12 32.663 8.57444 -2
-2 0 12 32.663 8.57444 1
1 0 12 189.068 12.5602 -2
-1 0 12 189.068 12.5602 1
0 0 12 146.018 11.1032 -2
0 0 12 146.018 11.1032 1
-1 0 12 262.139 17.0071 -2
1 0 12 262.139 17.0071 1
-2 0 12 31.2641 6.7347 -2
2 0 12 31.2641 6.7347 1
-3 0 12 31.9535 6.39814 -2
3 0 12 31.9535 6.39814 1
-4 1 12 0.96341 4.36633 1
-3 1 12 0.16823 4.12863 1
-2 1 12 57.6298 7.0903 1
-1 1 12 15.917 4.73717 1
0 1 12 1.56036 2.88191 1
1 1 12 46.4709 7.17391 1
2 1 12 37.1712 6.5988 1
3 1 12 -2.6173 2.44978 1
4 1 12 2.1034 2.61565 1
-4 2 12 8.00938 5.01139 1
3 -2 11 140.372 11.6673 -2
-3 2 12 140.372 11.6673 1
2 -2 11 7.82899 6.03781 -2
-2 2 12 7.82899 6.03781 1
1 -2 11 60.9463 7.62867 -2
-1 2 12 60.9463 7.62867 1
0 -2 11 54.5716 8.08251 -2
0 2 12 54.5716 8.08251 1
-1 -2 11 288.607 14.3448 -2
1 2 12 288.607 14.3448 1
-2 -2 11 86.0086 5.60494 -2
2 2 12 86.0086 5.60494 1
-3 -2 11 188.919 8.92569 -2
3 2 12 188.919 8.92569 1
-4 -2 11 36.5332 5.04651 -2
4 2 12 36.5332 5.04651 1
-3 3 12 3.02375 4.08067 1
-2 3 12 155.106 11.2109 1
-1 3 12 6.55322 3.44725 1
0 3 12 11.8769 4.70627 1
1 3 12 55.4902 6.44008 1
2 3 12 6.1274 2.74056 1
3 3 12 14.8424 3.23262 1
4 3 12 2.62421 2.43874 1
5 3 12 2.67716 2.20618 1
3 -4 10 8.9086 6.91498 -2
-3 4 12 8.9086 6.91498 1
2 -4 10 28.1115 7.3778 -2
-2 4 12 28.1115 7.3778 1
1 -4 10 37.0132 8.12955 -2
-1 4 12 37.0132 8.12955 1
0 -4 10 98.9649 9.9398 -2
0 4 12 98.9649 9.9398 1
-1 -4 10 86.2593 9.22745 -2
1 4 12 86.2593 9.22745 1
-2 -4 10 9.14665 5.38712 -2
2 4 12 9.14665 5.38712 1
-3 -4 10 136.435 7.90185 -2
3 4 12 136.435 7.90185 1
-4 -4 10 41.4724 5.17589 -2
4 4 12 41.4724 5.17589 1
5 4 12 69.373 8.00301 1
3 -5 9 13.0917 11.6413 -2
-3 5 12 13.0917 11.6413 1
-2 5 12 14.998 4.57281 1
-1 5 12 0.6759 3.71484 1
0 5 12 40.2516 6.83704 1
-1 -5 9 44.3814 15.3487 -2
1 5 12 44.3814 15.3487 1
2 5 12 49.2545 5.47919 1
3 5 12 7.13178 2.68383 1
4 5 12 122.467 6.93867 1
-2 6 12 34.3613 8.20413 1
1 -6 9 58.1193 9.19647 -2
-1 6 12 58.1193 9.19647 1
0 -6 9 6.62543 6.99114 -2
0 6 12 6.62543 6.99114 1
-1 -6 9 25.444 6.13277 -2
1 6 12 25.444 6.13277 1
-2 -6 9 -0.7067 4.86093 -2
2 6 12 -0.7067 4.86093 1
-3 -6 9 6.77995 4.79347 -2
3 6 12 6.77995 4.79347 1
-4 -6 9 12.9663 3.97709 -2
4 6 12 12.9663 3.97709 1
1 -7 8 32.296 9.68987 -2
-1 7 12 32.296 9.68987 1
0 -7 8 22.7031 8.69945 -2
0 7 12 22.7031 8.69945 1
-1 -7 8 15.087 9.85059 -2
1 7 12 15.087 9.85059 1
-2 -7 8 23.1267 10.5467 -2
2 7 12 23.1267 10.5467 1
-3 -7 8 58.4205 19.9792 -2
3 7 12 58.4205 19.9792 1
1 0 13 31.8353 7.78656 -2
-1 0 13 31.8353 7.78656 1
0 0 13 96.7554 12.3174 -2
0 0 13 96.7554 12.3174 1
-1 0 13 31.5345 7.07007 -2
1 0 13 31.5345 7.07007 1
-2 1 13 -5.5553 3.98213 1
-1 1 13 3.56147 3.70894 1
0 1 13 157.564 13.6197 1
1 1 13 272.878 17.3864 1
2 1 13 0.26646 4.08356 1
2 -2 12 207.287 14.4409 -2
-2 2 13 207.287 14.4409 1
1 -2 12 44.9783 7.68304 -2
-1 2 13 44.9783 7.68304 1
0 -2 12 3.85768 6.82329 -2
0 2 13 3.85768 6.82329 1
-1 -2 12 103.437 10.1611 -2
1 2 13 103.437 10.1611 1
-2 -2 12 62.9326 8.41579 -2
2 2 13 62.9326 8.41579 1
3 2 13 -0.3249 6.5542 1
-2 3 13 32.7805 5.77243 1
-1 3 13 13.5869 4.59566 1
0 3 13 5.03757 4.31747 1
1 3 13 61.9184 8.5991 1
2 3 13 3.06625 4.10437 1
3 3 13 13.88 3.73532 1
1 -4 11 27.9238 8.68519 -2
-1 4 13 27.9238 8.68519 1
0 -4 11 11.6307 7.68957 -2
0 4 13 11.6307 7.68957 1
-1 -4 11 5.63471 6.92362 -2
1 4 13 5.63471 6.92362 1
-2 -4 11 21.3031 7.16783 -2
2 4 13 21.3031 7.16783 1
3 4 13 16.3671 3.72982 1
0 -5 10 38.6348 16.7067 -2
0 5 13 38.6348 16.7067 1
-1 -5 10 104.014 19.4338 -2
1 5 13 104.014 19.4338 1
-2 -5 10 66.4989 16.4032 -2
2 5 13 66.4989 16.4032 1
