#------------------------------------------------------------------------------
#$Date: 2019-11-22 02:20:11 +0200 (Fri, 22 Nov 2019) $
#$Revision: 231173 $
#$URL: file:///home/coder/svn-repositories/cod/cif/4/12/92/4129210.cif $
#------------------------------------------------------------------------------
#
# This file is available in the Crystallography Open Database (COD),
# http://www.crystallography.net/
#
# All data on this site have been placed in the public domain by the
# contributors.
#
data_4129210
loop_
_publ_author_name
'Mao, Lingling'
'Teicher, Samuel M. L.'
'Stoumpos, Constantinos C.'
'Kennard, Rhys M.'
'DeCrescent, Ryan A.'
'Wu, Guang'
'Schuller, Jon A.'
'Chabinyc, Michael L.'
'Cheetham, Anthony K.'
'Seshadri, Ram'
_publ_section_title
;
 Chemical and Structural Diversity of Hybrid Layered Double Perovskite
 Halides.
;
_journal_name_full               'Journal of the American Chemical Society'
_journal_paper_doi               10.1021/jacs.9b09945
_journal_year                    2019
_chemical_formula_moiety         '0.5(Ag2 Bi1.04 Br14 Cs2 In0.96), C6 H20 N2'
_chemical_formula_sum            'C6 H20 Ag Bi0.52 Br7 Cs In0.48 N2'
_chemical_formula_weight         1084.17
_space_group_crystal_system      monoclinic
_space_group_IT_number           11
_space_group_name_Hall           '-P 2yb'
_space_group_name_H-M_alt        'P 1 21/m 1'
_atom_sites_solution_hydrogens   geom
_audit_creation_date             2019-08-20
_audit_creation_method
;
Olex2 1.2
(compiled 2018.05.29 svn.r3508 for OlexSys, GUI svn.r5506)
;
_cell_angle_alpha                90
_cell_angle_beta                 102.60(3)
_cell_angle_gamma                90
_cell_formula_units_Z            2
_cell_length_a                   8.008(10)
_cell_length_b                   7.877(9)
_cell_length_c                   18.31(2)
_cell_measurement_reflns_used    474
_cell_measurement_temperature    293(2)
_cell_measurement_theta_max      23.72
_cell_measurement_theta_min      2.28
_cell_volume                     1127(2)
_computing_molecular_graphics    'Olex2 (Dolomanov et al., 2009)'
_computing_publication_material  'Olex2 (Dolomanov et al., 2009)'
_computing_structure_refinement  'XL (Sheldrick, 2008)'
_diffrn_ambient_temperature      293
_diffrn_measured_fraction_theta_full 0.984
_diffrn_measured_fraction_theta_max 0.984
_diffrn_measurement_device_type  'Bruker APEX-II CCD'
_diffrn_measurement_method       '\f and \w scans'
_diffrn_radiation_type           MoK\a
_diffrn_radiation_wavelength     0.71073
_diffrn_reflns_av_R_equivalents  0.0740
_diffrn_reflns_av_unetI/netI     0.1142
_diffrn_reflns_Laue_measured_fraction_full 0.984
_diffrn_reflns_Laue_measured_fraction_max 0.984
_diffrn_reflns_limit_h_max       9
_diffrn_reflns_limit_h_min       -9
_diffrn_reflns_limit_k_max       9
_diffrn_reflns_limit_k_min       -7
_diffrn_reflns_limit_l_max       21
_diffrn_reflns_limit_l_min       -19
_diffrn_reflns_number            4216
_diffrn_reflns_point_group_measured_fraction_full 0.984
_diffrn_reflns_point_group_measured_fraction_max 0.984
_diffrn_reflns_theta_full        24.868
_diffrn_reflns_theta_max         24.868
_diffrn_reflns_theta_min         2.279
_exptl_absorpt_coefficient_mu    19.398
_exptl_absorpt_correction_type   none
_exptl_crystal_colour            yellow
_exptl_crystal_density_diffrn    3.194
_exptl_crystal_description       plate
_exptl_crystal_F_000             967
_refine_diff_density_max         3.264
_refine_diff_density_min         -4.436
_refine_diff_density_rms         0.419
_refine_ls_extinction_method     none
_refine_ls_goodness_of_fit_ref   1.160
_refine_ls_hydrogen_treatment    constr
_refine_ls_matrix_type           full
_refine_ls_number_parameters     77
_refine_ls_number_reflns         2092
_refine_ls_number_restraints     13
_refine_ls_restrained_S_all      1.157
_refine_ls_R_factor_all          0.1908
_refine_ls_R_factor_gt           0.1313
_refine_ls_shift/su_max          0.274
_refine_ls_shift/su_mean         0.016
_refine_ls_structure_factor_coef Fsqd
_refine_ls_weighting_details
'w=1/[\s^2^(Fo^2^)+231.3979P] where P=(Fo^2^+2Fc^2^)/3'
_refine_ls_weighting_scheme      calc
_refine_ls_wR_factor_gt          0.2581
_refine_ls_wR_factor_ref         0.2802
_reflns_Friedel_coverage         0.000
_reflns_number_gt                1305
_reflns_number_total             2092
_reflns_threshold_expression     'I > 2\s(I)'
_cod_data_source_file            ja9b09945_si_005.cif
_cod_data_source_block           p21m
_cod_database_code               4129210
_shelx_shelxl_version_number     2014/7
_shelx_space_group_comment
;
The symmetry employed for this shelxl refinement is uniquely defined
by the following loop, which should always be used as a source of
symmetry information in preference to the above space-group names.
They are only intended as comments.
;
_olex2_refinement_description
;
1. Fixed Uiso
 At 1.2 times of:
  All C(H,H) groups, All N(H,H,H) groups
 At 1.5 times of:
  All C(H,H,H) groups
2. Shared sites
{Bi1, In1}
3. Restrained distances
 N0AA-C1 = C1-C2
 1.5 with sigma of 0.02
 C1-C2 = C2-C3
 1.5 with sigma of 0.02
 N2-C4
 1.5 with sigma of 0.02
 N2-C4 = C4-C5
 1.5 with sigma of 0.02
 C4-C5 = C5-C6
 1.5 with sigma of 0.02
 N0AA-C2
 2.457 with sigma of 0.04
 C1-C3
 2.457 with sigma of 0.04
 N2-C5
 2.298 with sigma of 0.04
 C4-C6
 2.457 with sigma of 0.04
4. Uiso/Uaniso restraints and constraints
Uiso(N0AA) = Uiso(C1) = Uiso(C2) = Uiso(C3)
Uiso(N0AA) = Uiso(N2) = Uiso(C4)
Uiso(N2) = Uiso(C4) = Uiso(C6)
Uiso(N2) = Uiso(C4) = Uiso(C5) = Uiso(C6)
Uanis(Bi1) = Uanis(In1)
5. Others
 Sof(In1)=0.5*(1-FVAR(2))
 Sof(Bi1)=0.5*FVAR(2)
 Fixed Sof: H(0.5) HA(0.5) HB(0.5) HC(0.5) HD(0.5) HE(0.5) HF(0.5) HG(0.5)
 HH(0.5) HI(0.5) H4A(0.5) H4B(0.5) H2C(0.5) H2B(0.5) H2A(0.5) H6A(0.5) H6C(0.5)
 H6B(0.5) H5B(0.5) H5A(0.5)
6.a Secondary CH2 refined with riding coordinates:
 C2(HC,HD), C1(HH,HI), C4(H4A,H4B), C5(H5B,H5A)
6.b Idealised Me refined as rotating group:
 N0AA(H,HA,HB), C3(HE,HF,HG), N2(H2C,H2B,H2A), C6(H6A,H6C,H6B)
;
_shelx_res_file
;
    p21m.res created by SHELXL-2014/7

TITL p21m in P21/m #11
REM reset to P21/m #11
CELL 0.71073 8.0077 7.8766 18.314 90 102.6029 90
ZERR 2 0.0098 0.0089 0.0232 0 0.0259 0
LATT 1
SYMM -X,0.5+Y,-Z
SFAC C H Ag Bi Br Cs In N
UNIT 12 40 2 1.04 14 2 0.96 4
DFIX 1.5 N0AA C1 C1 C2
DFIX 1.5 C1 C2 C2 C3
DFIX 1.5 N2 C4
DFIX 1.5 N2 C4 C4 C5
DFIX 1.5 C4 C5 C5 C6
DANG 2.457 N0AA C2
DANG 2.457 C1 C3
DANG 2.298 N2 C5
DANG 2.457 C4 C6
EADP N0AA C1 C2 C3
EADP N0AA N2 C4
EADP N2 C4 C6
EADP N2 C4 C5 C6
EADP Bi1 In1
EXYZ Bi1 In1

L.S. 99
PLAN  99
TEMP 23
fmap 2 53
acta
REM <olex2.extras>
REM <HklSrc "%.\\p21m.hkl">
REM </olex2.extras>

WGHT    0.000000  231.397903
FVAR       0.05027   0.51968
BI1   4    0.320016    0.250000    0.150425    20.50000    0.03213    0.01831 =
         0.04763    0.00000    0.01627    0.00000
IN1   7    0.320016    0.250000    0.150425   -20.50000    0.03213    0.01831 =
         0.04763    0.00000    0.01627    0.00000
AG2   3    0.166734    0.250000   -0.164987    10.50000    0.01347    0.03515 =
         0.07402    0.00000    0.00991    0.00000
BR4   5    0.577012    0.500028    0.162590    11.00000    0.04954    0.05458 =
         0.09415    0.00077    0.02188   -0.01456
BR5   5    0.068396    0.499465    0.137308    11.00000    0.04665    0.03834 =
         0.08072   -0.00155    0.02290    0.01331
BR6   5    0.283116    0.250000   -0.002397    10.50000    0.03279    0.06650 =
         0.03840    0.00000    0.01013    0.00000
BR1   5    0.347962    0.250000    0.305375    10.50000    0.04987    0.12210 =
         0.05912    0.00000    0.00277    0.00000
CS1   6    0.741880    0.250000    0.000417    10.50000    0.05601    0.05220 =
         0.05968    0.00000    0.01369    0.00000
BR0A  5    0.043380    0.250000   -0.312112    10.50000    0.05060    0.14445 =
         0.07949    0.00000    0.01223    0.00000
N0AA  8    0.890142    0.250000    0.275387    10.50000    0.17702
PART -1
AFIX 137
H     2    0.976157    0.282813    0.253217    10.50000   -1.20000
HA    2    0.800885    0.323543    0.262640    10.50000   -1.20000
HB    2    0.854959    0.143644    0.259733    10.50000   -1.20000
AFIX   0
PART 0
C2    1    0.809154    0.250000    0.398434    10.50000    0.17702
AFIX  23
HC    2    0.736965    0.148120    0.384244    10.50000   -1.20000
HD    2    0.736965    0.351880    0.384244    10.50000   -1.20000
AFIX   0
C3    1    0.881770    0.250000    0.481338    10.50000    0.17702
PART -1
AFIX 137
HE    2    0.789502    0.268854    0.507856    10.50000   -1.50000
HF    2    0.966821    0.340840    0.493914    10.50000   -1.50000
HG    2    0.936344    0.140306    0.496311    10.50000   -1.50000
AFIX   0
PART 0
C1    1    0.953268    0.250000    0.358467    10.50000    0.17702
AFIX  23
HH    2    1.025329    0.351634    0.373465    10.50000   -1.20000
HI    2    1.025328    0.148366    0.373464    10.50000   -1.20000
AFIX   0
C4    1    0.513163    0.750000    0.329709    10.50000    0.17702
AFIX  23
H4A   2    0.582256    0.647508    0.325820    10.50000   -1.20000
H4B   2    0.582257    0.852492    0.325820    10.50000   -1.20000
AFIX   0
N2    8    0.349561    0.750000    0.271580    10.50000    0.17702
PART -1
AFIX 137
H2C   2    0.262640    0.786700    0.292342    10.50000   -1.20000
H2B   2    0.326632    0.642834    0.253616    10.50000   -1.20000
H2A   2    0.359960    0.820466    0.233447    10.50000   -1.20000
AFIX   0
PART 0
C6    1    0.598364    0.750000    0.466325    10.50000    0.17702
PART -1
AFIX 137
H6A   2    0.625165    0.633041    0.483105    10.50000   -1.50000
H6C   2    0.569500    0.816262    0.507155    10.50000   -1.50000
H6B   2    0.697920    0.800697    0.451671    10.50000   -1.50000
AFIX   0
PART 0
C5    1    0.449212    0.750000    0.400606    10.50000    0.17702
AFIX  23
H5B   2    0.377751    0.648163    0.402392    10.50000   -1.20000
H5A   2    0.377751    0.851837    0.402392    10.50000   -1.20000
AFIX   0
HKLF 4

REM  p21m in P21/m #11
REM R1 =  0.1313 for    1305 Fo > 4sig(Fo)  and  0.1908 for all    2092 data
REM     77 parameters refined using     13 restraints

END

WGHT      0.0000    231.0334

REM Highest difference peak  3.264,  deepest hole -4.436,  1-sigma level  0.419
Q1    1   0.1240  0.2500 -0.2151  10.50000  0.05    3.26
Q2    1   0.4806  0.7500  0.5419  10.50000  0.05    2.59
Q3    1   0.9658  0.2500  0.5790  10.50000  0.05    2.36
Q4    1   0.8368  0.2500  0.1438  10.50000  0.05    2.33
Q5    1   0.3591  0.7500  0.2014  10.50000  0.05    2.11
Q6    1   0.8419  0.2500  0.3367  10.50000  0.05    2.09
Q7    1   0.7313 -0.0055  0.3250  11.00000  0.05    2.06
Q8    1   0.2133  0.2500 -0.0588  10.50000  0.05    1.94
Q9    1   0.1768  0.2500 -0.1452  10.50000  0.05    1.93
Q10   1   0.0924  0.2500 -0.3617  10.50000  0.05    1.90
Q11   1   0.3717  0.2500  0.2535  10.50000  0.05    1.87
Q12   1   0.1391  0.1961 -0.1563  11.00000  0.05    1.86
Q13   1   0.2047  0.1802 -0.1538  11.00000  0.05    1.85
Q14   1   0.1975  0.2500  0.0667  10.50000  0.05    1.70
Q15   1   0.6529  0.2500 -0.0972  10.50000  0.05    1.68
Q16   1   0.0734  0.5071  0.0244  11.00000  0.05    1.66
Q17   1   0.9316  0.2500  0.2842  10.50000  0.05    1.66
Q18   1   0.1400  0.5087  0.2437  11.00000  0.05    1.63
Q19   1   0.3477  0.2500  0.2067  10.50000  0.05    1.60
Q20   1   0.4804  0.7500  0.3412  10.50000  0.05    1.57
Q21   1   0.1164  0.9612  0.3227  11.00000  0.05    1.57
Q22   1   0.4399  0.2500  0.1442  10.50000  0.05    1.53
Q23   1   0.9775  0.3035  0.4820  11.00000  0.05    1.43
Q24   1   0.1107  0.4982  0.0391  11.00000  0.05    1.40
Q25   1   0.8778  0.7500  0.4670  10.50000  0.05    1.35
Q26   1   0.2259  1.0037  0.3771  11.00000  0.05    1.30
Q27   1   0.4889  0.2500  0.3011  10.50000  0.05    1.24
Q28   1   0.4491  0.4781  0.0514  11.00000  0.05    1.17
Q29   1   0.7429  0.2500  0.0565  10.50000  0.05    1.16
Q30   1   0.3972  0.3343  0.1618  11.00000  0.05    1.15
Q31   1   0.1384  0.2500  0.0971  10.50000  0.05    1.15
Q32   1   0.2389  0.1577  0.1446  11.00000  0.05    1.13
Q33   1   0.1745  0.2500  0.1659  10.50000  0.05    1.09
Q34   1   0.4000  0.7500  0.2607  10.50000  0.05    1.08
Q35   1   0.7458  0.2500 -0.0644  10.50000  0.05    1.07
Q36   1  -0.0067  0.2500 -0.0598  10.50000  0.05    1.05
Q37   1   0.1554  0.4444  0.0601  11.00000  0.05    1.05
Q38   1   0.5121  0.7500  0.4440  10.50000  0.05    1.02
Q39   1   0.2819  0.2500  0.0457  10.50000  0.05    1.02
Q40   1   0.9340  0.1745  0.4234  11.00000  0.05    1.01
Q41   1   1.0216  0.2500  0.1551  10.50000  0.05    0.99
Q42   1   0.4743  0.8287  0.4192  11.00000  0.05    0.97
Q43   1   0.4926  0.2500  0.1987  10.50000  0.05    0.96
Q44   1   0.6932  0.1875  0.3432  11.00000  0.05    0.93
Q45   1   0.7415  0.4412  0.5210  11.00000  0.05    0.92
Q46   1   0.5587  0.8094  0.5938  11.00000  0.05    0.92
Q47   1   0.2245  0.1009 -0.0051  11.00000  0.05    0.90
Q48   1   0.4913  0.2500  0.0643  10.50000  0.05    0.89
Q49   1   0.0905  0.1780 -0.0583  11.00000  0.05    0.89
Q50   1   0.7808  0.7500  0.3606  10.50000  0.05    0.89
Q51   1   0.6024  0.6404  0.4633  11.00000  0.05    0.88
Q52   1   0.7846  0.0071  0.4321  11.00000  0.05    0.87
Q53   1   0.6868  0.5021  0.4958  11.00000  0.05    0.87
Q54   1   0.7129 -0.0004 -0.0555  11.00000  0.05    0.86
Q55   1   0.1609  0.3728 -0.3614  11.00000  0.05    0.85
Q56   1   0.3882  0.5144  0.1072  11.00000  0.05    0.83
Q57   1   0.8840  0.5620  0.3814  11.00000  0.05    0.83
Q58   1   0.2173  0.5198  0.1807  11.00000  0.05    0.83
Q59   1   0.2617  0.3183  0.2191  11.00000  0.05    0.83
Q60   1   0.3759  0.7500  0.4638  10.50000  0.05    0.81
Q61   1   0.6369  0.4788  0.2600  11.00000  0.05    0.81
Q62   1   0.0883  0.0704 -0.3211  11.00000  0.05    0.81
Q63   1   0.1717  0.2500  0.2559  10.50000  0.05    0.80
Q64   1   0.4852  0.7500  0.2375  10.50000  0.05    0.80
Q65   1   0.9018  0.3686  0.4009  11.00000  0.05    0.79
Q66   1   0.3740  0.3054 -0.0023  11.00000  0.05    0.78
Q67   1   0.4801  0.9381  0.2224  11.00000  0.05    0.78
Q68   1   0.5869  0.2500  0.2334  10.50000  0.05    0.78
Q69   1   0.7191  0.8128  0.5810  11.00000  0.05    0.77
Q70   1   0.6019  0.3661  0.1098  11.00000  0.05    0.75
Q71   1   0.3080  0.8055  0.3319  11.00000  0.05    0.74
Q72   1   0.3592  0.2500 -0.0121  10.50000  0.05    0.73
Q73   1   0.8809  0.2500  0.0536  10.50000  0.05    0.73
Q74   1   0.3604  0.3990 -0.0438  11.00000  0.05    0.72
Q75   1  -0.0485  0.2500 -0.3675  10.50000  0.05    0.72
Q76   1   0.7598  0.1087 -0.0082  11.00000  0.05    0.71
Q77   1   1.1131  0.2500  0.4026  10.50000  0.05    0.70
Q78   1   0.5615  0.0788  0.3830  11.00000  0.05    0.70
Q79   1   0.6567  0.5912  0.1762  11.00000  0.05    0.70
Q80   1   0.3580  0.0912  0.1203  11.00000  0.05    0.69
Q81   1   0.6556  0.4773 -0.0065  11.00000  0.05    0.69
Q82   1   0.8729  0.2500 -0.0547  10.50000  0.05    0.69
Q83   1   0.7588  0.5824  0.5373  11.00000  0.05    0.69
Q84   1   0.4562  0.4282  0.2799  11.00000  0.05    0.68
Q85   1   0.6412  0.2737  0.3771  11.00000  0.05    0.68
Q86   1   0.2196  0.7500  0.2188  10.50000  0.05    0.68
Q87   1   0.3165  0.2500 -0.2183  10.50000  0.05    0.68
Q88   1   0.4804  0.0988  0.2989  11.00000  0.05    0.67
Q89   1   0.5811  0.2500  0.0183  10.50000  0.05    0.66
Q90   1   0.8160  0.4452  0.5399  11.00000  0.05    0.66
Q91   1   0.7323  0.6244  0.2551  11.00000  0.05    0.66
Q92   1   0.2949  0.2500  0.0943  10.50000  0.05    0.64
Q93   1  -0.0386  0.6037  0.1203  11.00000  0.05    0.64
Q94   1   0.9151  0.0620  0.4241  11.00000  0.05    0.64
Q95   1   0.8252  0.3582  0.0818  11.00000  0.05    0.63
Q96   1  -0.0121  0.4420  0.0630  11.00000  0.05    0.62
Q97   1   0.4088  0.0571  0.2963  11.00000  0.05    0.61
Q98   1   0.5941  0.5316  0.4370  11.00000  0.05    0.61
Q99   1   0.5615  0.5479  0.4237  11.00000  0.05    0.61
;
_shelx_res_checksum              726
_shelx_hkl_file
;
   1   0   0    0.63    0.22
   1   0   0    0.67    0.19
  -1   0   0    0.47    0.23
  -1   0   0    0.74    0.19
  -2   0   0   10.76    0.88
  -2   0   0   12.88    0.74
   2   0   0   15.03    0.79
   3   0   0   45.30    1.77
  -3   0   0   47.77    1.90
   4   0   0    3.48    0.73
  -4   0   0    5.87    0.82
   5   0   0   10.85    0.95
  -5   0   0   10.45    1.10
  -6   0   0    0.56    0.97
   6   0   0    0.58    0.83
  -7   0   0    1.76    1.29
   7   0   0    0.92    1.02
  -8   0   0   20.12    2.05
   0  -1   0   -0.26    0.21
   0  -1   0   -0.21    0.16
   0   1   0   -0.22    0.19
  -1  -1   0   86.92    2.87
  -1  -1   0   81.69    2.88
   1  -1   0   86.51    2.86
   1   1   0   85.09    2.89
   1   1   0   85.53    2.85
  -1   1   0   89.40    2.87
  -2  -1   0   10.83    0.77
  -2   1   0   11.72    0.80
   2   1   0   12.06    0.80
  -3  -1   0    4.95    0.71
  -3   1   0    4.72    0.69
   3   1   0    4.00    0.65
  -4  -1   0   17.50    1.33
   4   1   0   18.16    1.25
  -4   1   0   18.37    1.31
  -5  -1   0   29.75    1.77
  -5   1   0   29.14    1.81
   5   1   0   30.98    1.65
  -6  -1   0    2.28    1.08
   6   1   0   -0.33    0.88
  -6   1   0    0.08    0.96
  -7  -1   0   34.57    2.49
   7   1   0   34.56    2.10
  -7   1   0   34.00    2.46
  -8  -1   0    1.78    1.47
   8   1   0    0.12    1.16
   0  -2   0  218.03    6.95
   0  -2   0  199.69    6.95
   0   2   0  225.61    6.96
  -1  -2   0    0.74    0.34
   1  -2   0    0.37    0.35
   1   2   0   -0.56    0.47
  -2  -2   0  245.06    8.10
   2   2   0  252.15    8.14
  -3  -2   0   23.22    1.34
  -3   2   0   24.82    1.30
   3   2   0   22.02    1.31
  -4  -2   0    5.59    0.87
   4   2   0    6.63    0.89
  -4   2   0    6.33    0.87
  -5  -2   0   13.52    1.22
  -5   2   0   10.54    1.15
   5   2   0   13.43    1.19
  -6  -2   0   52.24    2.62
   6   2   0   48.90    2.48
  -7  -2   0    2.08    1.27
   7   2   0    1.87    1.18
  -8  -2   0   -0.28    1.38
   8   2   0    2.11    1.29
  -9  -2   0    1.45    1.66
   9   2   0   -0.31    1.45
   0  -3   0    0.42    0.45
   0   3   0    0.65    0.51
  -1  -3   0   59.83    2.09
   1   3   0   58.30    2.13
   1   3   0   61.65    2.25
  -2  -3   0    5.82    0.64
   2   3   0    7.30    0.83
  -3  -3   0    3.30    0.71
   3   3   0    2.77    0.78
  -4  -3   0   13.57    1.13
   4   3   0   13.96    1.17
  -5  -3   0   31.88    1.96
   5   3   0   28.83    1.91
  -6  -3   0    0.19    1.08
   6   3   0    0.58    1.14
  -7  -3   0   20.34    1.85
   7   3   0   20.31    1.86
  -8  -3   0   -0.82    1.44
   8   3   0    0.64    1.35
   0  -4   0  556.73   18.10
   0   4   0  574.09   18.19
  -1  -4   0    0.13    0.39
   1   4   0    0.11    0.65
   1   4   0    0.67    0.68
  -2  -4   0    9.90    0.77
   2   4   0   11.79    1.03
  -3  -4   0   17.22    1.29
   3   4   0   17.00    1.35
  -4  -4   0    2.29    0.83
   4   4   0    4.71    0.97
  -5  -4   0    2.89    1.01
   5   4   0    8.24    1.30
  -6  -4   0   -0.62    1.09
   6   4   0    1.83    1.30
  -7  -4   0    2.08    1.31
   7   4   0    1.22    1.47
  -8  -4   0   12.96    1.79
   8   4   0   13.17    1.90
   0   5   0   -0.41    0.69
   1  -5   0   19.71    1.51
   1   5   0   23.26    1.46
  -2  -5   0    2.77    0.59
   2   5   0    2.20    0.88
  -3  -5   0    2.02    0.70
   3   5   0    0.84    0.91
  -4  -5   0    6.95    0.97
   4   5   0    4.25    1.20
  -5  -5   0   10.69    1.26
   5   5   0   13.23    1.60
  -6  -5   0    2.17    1.14
   6   5   0    0.77    1.43
  -7  -5   0   19.29    2.79
   7   5   0   20.48    2.19
   0   6   0   20.07    1.40
   1  -6   0    1.74    0.83
  -1   6   0    0.39    0.79
   1   6   0    0.58    0.92
   2   6   0   63.12    2.78
   3   6   0    5.28    1.20
   4   6   0    0.73    1.27
   5   6   0    4.28    1.48
   6   6   0   23.06    2.35
   7   6   0    0.21    1.76
   0   7   0    0.91    1.02
  -1   7   0   14.53    1.30
   1   7   0   15.39    1.47
   2   7   0    3.40    1.20
   3   7   0   -0.06    1.25
   4   7   0    4.15    1.49
   5   7   0   16.47    1.95
   6   7   0    1.35    1.82
   0   8   0   66.50    3.00
   1   8   0   -0.42    1.14
   2   8   0    3.56    1.35
   3   8   0    2.86    1.42
   4   8   0    1.34    1.51
   1   9   0    5.09    1.48
   2   9   0    1.40    1.43
  -9   0   1    1.22    1.61
  -8   0   1   34.24    2.90
  -7   0   1    8.37    1.43
   7   0  -1    7.99    1.12
  -6   0   1    7.02    1.15
   6   0  -1    6.30    0.92
  -5   0   1   21.94    1.58
   5   0  -1   26.15    1.38
   4   0  -1  178.12    6.04
  -4   0   1  187.43    6.24
  -3   0   1    0.05    0.56
   3   0  -1    0.56    0.44
   2   0  -1  182.34    5.92
  -2   0   1  177.47    6.01
  -2   0   1  186.03    5.91
   1   0  -1    1.63    0.25
  -1   0   1    1.47    0.18
  -1   0   1    0.90    0.25
   1   0  -1    1.79    0.19
   1   0   1    7.25    0.53
  -1   0  -1    9.66    0.54
   1   0   1    8.28    0.60
   2   0   1    7.29    0.66
  -2   0  -1    5.27    0.52
  -2   0  -1    5.21    0.61
   3   0   1   18.55    1.11
  -3   0  -1   21.20    1.25
  -4   0  -1   77.40    2.92
   4   0   1   73.47    2.78
  -5   0  -1    0.89    0.80
   5   0   1   -0.44    0.71
   6   0   1    2.71    0.97
  -6   0  -1    5.53    1.14
   7   0   1    0.34    1.13
  -7   0  -1    0.08    1.25
  -9  -1   1   13.00    2.03
  -8  -1   1    1.24    1.46
  -8   1   1    1.29    1.50
   8   1  -1    0.52    1.13
  -7  -1   1   20.81    1.82
  -7   1   1   17.62    1.81
   7   1  -1   19.04    1.53
  -6  -1   1    9.41    1.27
   6   1  -1   11.23    1.15
  -6   1   1    8.05    1.24
  -5  -1   1    1.63    0.85
  -5   1   1    1.27    0.80
   5   1  -1    0.45    0.77
  -4  -1   1    6.73    0.89
   4   1  -1    6.40    0.78
  -4   1   1    6.22    0.84
  -3  -1   1   54.90    2.17
  -3   1   1   54.89    2.14
   3   1  -1   51.38    2.06
  -2  -1   1   17.24    1.12
  -2   1   1   18.19    0.96
   2   1  -1   21.17    1.10
   1  -1  -1   88.06    2.79
  -1  -1   1   82.53    2.81
  -1  -1   1   81.86    2.82
   1   1  -1   79.27    2.81
   1   1  -1   84.28    2.80
  -1   1   1   85.86    2.79
   0  -1   1    3.33    0.40
   0  -1  -1    2.35    0.25
   0   1  -1    2.90    0.24
   0   1   1    2.42    0.26
  -1  -1  -1    9.26    0.64
  -1  -1  -1    7.38    0.54
   1   1   1    8.97    0.66
   1   1   1    8.71    0.54
  -2  -1  -1   13.60    0.87
   2   1   1   12.75    0.88
  -3  -1  -1   59.52    2.27
  -3   1  -1   58.46    2.27
   3   1   1   57.43    2.22
  -4  -1  -1    2.85    0.77
   4   1   1    3.13    0.76
  -4   1  -1    3.74    0.77
  -5  -1  -1   48.81    2.33
   5   1   1   45.27    2.12
  -5   1  -1   48.98    2.24
  -6  -1  -1   -0.31    1.05
   6   1   1    0.70    0.95
  -7  -1  -1    5.84    1.44
   7   1   1    2.31    1.16
   8   1   1    0.67    1.25
  -9  -2   1    3.02    1.70
   9   2  -1   -0.69    1.39
  -8  -2   1    1.40    1.42
   8   2  -1    1.68    1.27
  -7  -2   1    7.38    1.46
  -7   2   1    8.77    1.53
   7   2  -1    7.24    1.31
  -6  -2   1    3.39    1.12
  -6   2   1    2.64    1.10
   6   2  -1    3.40    1.07
  -5  -2   1   21.04    1.66
   5   2  -1   21.10    1.53
  -5   2   1   23.62    1.64
  -4  -2   1   14.33    1.12
   4   2  -1   13.07    1.05
  -4   2   1   11.74    1.06
  -3  -2   1    0.77    0.62
   3   2  -1    0.66    0.65
  -3   2   1    0.93    0.63
  -2  -2   1  946.52   31.10
   2   2  -1  971.47   31.10
  -2   2   1 1000.00   31.10
  -1  -2   1    0.77    0.38
   1  -2  -1   -0.06    0.33
   1   2  -1    0.83    0.36
   1   2  -1   -0.01    0.45
   0  -2   1    7.19    0.51
   0  -2   1    8.69    0.72
   0  -2  -1    5.50    0.50
   0   2  -1    6.83    0.51
   0   2   1    5.83    0.55
  -1  -2  -1   15.67    0.74
   1   2   1   17.73    0.93
   1   2   1   16.21    0.72
  -2  -2  -1    9.92    0.70
   2   2   1   10.90    0.85
  -3  -2  -1    7.95    0.77
   3   2   1    7.63    0.85
  -4  -2  -1   14.82    1.29
   4   2   1   15.62    1.26
  -5  -2  -1    0.37    0.83
   5   2   1    0.59    0.87
  -6  -2  -1   24.43    2.02
   6   2   1   24.50    1.89
  -7  -2  -1    9.88    1.53
   7   2   1    7.07    1.37
  -8  -2  -1    6.41    1.60
   8   2   1    2.17    1.33
  -8  -3   1   -1.57    1.40
   8   3  -1    1.43    1.40
  -7  -3   1   10.94    1.59
   7   3  -1   11.22    1.60
  -6  -3   1    7.07    1.30
   6   3  -1    6.24    1.27
  -5  -3   1    1.32    0.95
   5   3  -1    1.06    0.95
  -4  -3   1    2.80    0.84
   4   3  -1    4.24    0.90
  -3  -3   1   28.95    1.55
   3   3  -1   29.13    1.57
  -2  -3   1    6.01    0.68
   2   3  -1    6.30    0.78
   1  -3  -1   58.77    2.01
  -1  -3   1   55.97    2.04
   1   3  -1   56.51    2.15
   1   3  -1   57.03    2.15
   0  -3   1    2.81    0.65
   0   3   1    2.41    0.60
   0   3  -1    2.84    0.55
   1   3   1    9.85    0.83
  -2  -3  -1   10.65    0.75
   2   3   1   12.99    0.98
   2   3   1   11.75    1.02
  -3  -3  -1   36.50    1.67
   3   3   1   33.94    1.72
  -4  -3  -1    0.00    0.73
   4   3   1    2.22    0.85
  -5  -3  -1   48.83    2.41
   5   3   1   46.43    2.36
  -6  -3  -1    1.00    1.10
   6   3   1    1.59    1.23
  -7  -3  -1    3.68    1.37
   7   3   1    3.65    1.40
  -8  -3  -1    4.53    1.53
   8   3   1    0.83    1.44
  -8  -4   1   18.65    1.97
   8   4  -1   16.38    2.08
  -7  -4   1    6.66    1.44
   7   4  -1    6.36    1.52
  -6  -4   1    0.33    1.13
   6   4  -1    2.16    1.35
  -5  -4   1   10.49    1.27
   5   4  -1   13.90    1.43
  -4  -4   1   98.04    3.72
   4   4  -1   96.65    3.70
  -3  -4   1    2.70    0.73
   3   4  -1   -0.25    0.76
  -2  -4   1   40.22    1.68
   2   4  -1   35.40    1.75
   1  -4  -1    1.14    0.44
  -1  -4   1    1.70    0.48
   1   4  -1    2.23    0.84
   1   4  -1    1.83    0.69
   0  -4   1  176.38    5.60
   0   4  -1  169.70    5.61
   0   4   1  158.00    5.64
   1   4   1    5.76    0.83
  -1   4  -1    5.57    0.64
  -2  -4  -1    3.98    0.54
   2   4   1    3.11    0.55
   2   4   1    3.92    0.82
  -3  -4  -1    8.45    0.84
   3   4   1   11.59    1.10
  -4  -4  -1   45.24    2.09
   4   4   1   46.83    2.30
  -5  -4  -1    0.87    0.95
   5   4   1    2.46    1.14
  -6  -4  -1    2.93    1.18
   6   4   1    4.12    1.43
  -7  -4  -1    1.19    1.28
   7   4   1    0.49    1.42
  -8  -4  -1    2.55    1.52
   8   4   1    1.29    1.63
  -7  -5   1    7.64    1.48
   7   5  -1   14.57    1.91
  -6  -5   1    5.19    1.27
   6   5  -1    2.97    1.50
  -5  -5   1    1.65    1.03
   5   5  -1   -0.54    1.19
  -4  -5   1    1.10    0.89
   4   5  -1    2.10    1.05
  -3  -5   1   24.89    1.52
   3   5  -1   22.33    1.64
  -2  -5   1    2.12    0.63
   2   5  -1    0.55    0.83
   1  -5  -1   23.84    1.10
   1  -5  -1   15.16    1.35
  -1  -5   1   23.12    1.15
   1   5  -1   23.84    1.41
   0  -5   1    2.86    0.59
   0   5  -1    2.10    0.69
   0   5   1    2.46    0.76
   1  -5   1    4.22    0.96
   1   5   1    2.62    0.84
   2   5   1    6.28    0.98
   2   5   1    4.84    0.63
  -3  -5  -1   26.80    1.47
   3   5   1   27.29    1.81
  -4  -5  -1    0.46    0.80
   4   5   1    0.96    1.11
  -5  -5  -1   15.45    1.39
   5   5   1   18.13    1.77
  -6  -5  -1    1.25    1.21
   6   5   1   -0.18    1.49
   7   5   1    6.70    1.76
   7   6  -1    6.95    1.97
   6   6  -1    3.43    1.68
   5   6  -1    8.28    1.58
   4   6  -1    4.79    1.25
   3   6  -1    1.78    1.11
   2   6  -1  165.61    5.84
  -1  -6   1    0.27    0.57
   1   6  -1    1.07    0.89
   0  -6   1    7.36    0.73
   0   6   1    4.97    0.97
   0   6  -1    8.51    1.04
   1  -6   1    6.92    1.08
  -1   6  -1    5.66    0.89
   1   6   1    5.62    1.04
   2   6   1    2.56    1.08
   3   6   1    2.42    1.18
   4   6   1    2.50    1.31
   5   6   1    1.44    1.42
   6   6   1   12.01    2.00
   6   7  -1    4.77    1.82
   5   7  -1    1.59    1.51
   4   7  -1    1.77    1.39
   3   7  -1    4.30    1.29
   2   7  -1   -0.04    1.14
   1   7  -1   14.69    1.45
  -1   7   1   13.33    1.30
   0   7  -1    3.13    1.11
   0   7   1    1.99    1.09
   1   7   1    1.18    1.11
  -1   7  -1    1.28    0.96
   2   7   1    3.04    1.26
   3   7   1    7.20    1.50
   4   7   1    2.29    1.46
   5   7   1   17.17    2.06
   4   8  -1   22.86    2.11
   3   8  -1    1.76    1.34
   2   8  -1    4.06    1.31
   1   8  -1    1.52    1.18
   0   8   1   28.23    2.13
   0   8  -1   32.49    2.12
   1   8   1    1.40    1.25
   2   8   1    4.15    1.39
   3   8   1    4.46    1.50
   4   8   1   14.78    1.93
   2   9  -1    0.11    1.43
   1   9  -1    3.13    1.42
   1   9   1    2.14    1.38
   2   9   1    1.77    1.53
  -9   0   2    4.79    1.79
  -8   0   2    4.36    1.56
   7   0  -2    8.91    1.12
  -7   0   2   10.22    1.47
  -6   0   2    7.49    1.15
   6   0  -2    6.68    0.90
  -5   0   2    1.38    0.84
   5   0  -2    0.58    0.65
  -4   0   2  456.02   15.05
   4   0  -2  467.65   14.88
   3   0  -2    2.79    0.48
  -3   0   2    3.40    0.63
  -2   0   2    9.04    0.69
   2   0  -2    9.56    0.62
  -2   0   2    6.87    0.56
  -1   0   2    5.27    0.47
   1   0  -2    5.31    0.43
   0   0   2   20.04    0.92
   0   0  -2   21.92    0.90
   0   0  -2   22.68    0.96
   0   0   2   21.47    0.98
  -1   0  -2    5.78    0.69
   1   0   2    6.38    0.77
   2   0   2  145.37    4.87
   3   0   2    1.28    0.68
  -4   0  -2   40.55    1.94
   4   0   2   44.54    1.92
   5   0   2   25.09    1.62
   6   0   2   15.41    1.43
   7   0   2    0.76    1.25
  -9  -1   2    9.12    1.89
  -9   1   2    6.71    1.81
  -8  -1   2    3.21    1.42
   8   1  -2    3.60    1.17
  -8   1   2    1.79    1.53
  -7  -1   2    2.59    1.29
   7   1  -2    2.51    1.11
  -7   1   2    4.47    1.33
  -6  -1   2    1.82    1.09
   6   1  -2    3.49    0.91
  -6   1   2    0.40    0.96
  -5  -1   2   15.38    1.30
  -5   1   2   15.88    1.26
   5   1  -2   16.37    1.16
  -4  -1   2   12.23    1.09
  -4   1   2   11.32    1.03
   4   1  -2   14.19    1.00
  -3  -1   2   47.00    2.00
   3   1  -2   48.67    1.90
  -3   1   2   48.74    1.96
  -2  -1   2    5.12    0.65
  -2   1   2    6.69    0.62
   2   1  -2   10.33    0.81
   1  -1  -2   12.94    0.67
  -1  -1   2   11.67    0.82
  -1  -1   2   13.49    0.72
  -1   1   2   12.97    0.70
   1   1  -2   13.59    0.77
   1   1  -2   13.29    0.79
   0  -1   2    5.68    0.70
   0  -1  -2    7.19    0.53
   0   1   2    7.10    0.48
   0   1   2    5.90    0.50
  -1   1  -2   84.84    3.12
   1   1   2   89.72    2.98
  -2  -1  -2    2.66    0.50
   2  -1   2    2.71    0.81
   2   1   2    2.26    0.55
  -2   1  -2    1.48    0.54
  -3  -1  -2   57.97    2.26
   3   1   2   57.63    2.24
  -4  -1  -2    1.57    0.74
   4   1   2    0.75    0.70
  -5  -1  -2    8.03    1.07
   5   1   2    9.53    1.08
  -6  -1  -2    3.59    1.16
   6   1   2    2.38    1.07
   7   1   2    1.59    1.22
   8   1   2    3.85    1.47
  -9  -2   2    4.77    1.72
   9   2  -2    2.63    1.41
  -8  -2   2    0.05    1.40
  -8   2   2    1.31    1.49
   8   2  -2    3.40    1.28
  -7  -2   2    6.29    1.45
  -7   2   2    7.98    1.50
   7   2  -2   10.08    1.35
  -6  -2   2   67.32    3.25
  -6   2   2   70.36    3.17
   6   2  -2   69.11    2.95
  -5  -2   2    0.51    0.89
   5   2  -2    0.64    0.84
  -5   2   2   -0.73    0.81
  -4  -2   2   22.10    1.52
  -4   2   2   21.26    1.43
   4   2  -2   21.84    1.38
  -3  -2   2    2.67    0.71
   3   2  -2    2.04    0.68
  -3   2   2    2.91    0.67
  -2  -2   2  226.48    7.47
  -2   2   2  229.04    7.43
   2   2  -2  227.42    7.45
   1  -2  -2    8.41    0.61
  -1  -2   2    9.23    0.72
  -1   2   2    8.55    0.58
   1   2  -2   11.00    0.67
   1   2  -2   11.92    0.80
   0  -2   2    6.24    0.79
   0  -2  -2    5.92    0.53
   0   2   2    6.72    0.55
   0   2  -2    6.10    0.48
   1   2   2   13.28    0.86
   1   2   2    9.49    0.58
  -2  -2  -2   52.96    1.99
   2   2   2   54.97    2.10
  -3  -2  -2   -0.44    0.59
   3   2   2   -0.29    0.68
  -4  -2  -2   19.08    1.40
   4   2   2   18.20    1.37
  -5  -2  -2    1.75    0.89
   5   2   2    3.65    1.00
  -6  -2  -2    8.71    1.36
   6   2   2    7.65    1.27
   7   2   2    5.27    1.34
   8   2   2    2.94    1.43
  -8  -3   2    2.39    1.48
   8   3  -2    2.49    1.39
  -7  -3   2    0.56    1.28
   7   3  -2    2.75    1.33
  -6  -3   2    0.04    1.10
  -6   3   2    0.35    1.12
   6   3  -2    2.65    1.17
  -5  -3   2   19.24    1.54
   5   3  -2   19.58    1.49
  -5   3   2   21.86    1.67
  -4  -3   2    6.97    0.94
  -4   3   2    6.34    0.90
   4   3  -2    8.23    0.98
  -3  -3   2   27.40    1.52
   3   3  -2   24.06    1.43
  -3   3   2   23.84    1.35
  -2  -3   2    1.81    0.58
  -2   3   2    2.73    0.51
   2   3  -2    1.89    0.65
  -1  -3   2   10.28    0.82
   1  -3  -2    9.15    0.58
   1   3  -2   11.15    0.80
   0  -3   2    4.38    0.77
   0   3   2    3.11    0.60
   0   3  -2    4.43    0.52
  -1   3  -2   59.64    2.08
   1   3   2   58.97    2.26
  -2  -3  -2    0.88    0.50
   2   3   2    2.00    0.48
   2   3   2    2.31    0.73
  -3  -3  -2   34.91    1.64
   3   3   2   37.83    1.76
  -4  -3  -2    1.15    0.76
   4   3   2    0.28    0.83
  -5  -3  -2    8.59    1.16
   5   3   2    8.93    1.26
  -6  -3  -2    4.35    1.25
   6   3   2    5.85    1.35
   7   3   2    0.93    1.36
   8   3   2    3.49    1.56
  -8  -4   2    3.76    1.52
   8   4  -2    4.13    1.63
  -7  -4   2    4.48    1.39
   7   4  -2    5.09    1.53
  -6  -4   2    3.09    1.23
   6   4  -2    3.12    1.33
  -5  -4   2    0.61    1.02
   5   4  -2    1.35    1.08
  -4  -4   2  220.76    7.36
   4   4  -2  210.49    7.34
  -3  -4   2   -0.98    0.69
   3   4  -2    1.13    0.77
  -2  -4   2    9.52    0.82
   2   4  -2   11.46    1.01
  -1  -4   2    4.77    0.59
   1   4  -2    4.38    0.71
   0   4  -2    9.70    0.76
   0   4   2    4.31    0.85
  -1   4  -2    2.56    0.53
   1   4   2    2.94    0.78
  -2  -4  -2   25.08    1.19
   2   4   2   26.63    1.52
  -3  -4  -2   -0.52    0.59
   3   4   2    0.19    0.83
  -4  -4  -2   24.23    1.61
   4   4   2   23.86    1.79
  -5  -4  -2   12.24    1.29
   5   4   2   13.53    1.55
  -6  -4  -2    8.90    1.37
   6   4   2    9.38    1.57
   7   4   2    1.85    1.54
   8   4   2   10.97    1.97
  -7  -5   2    0.37    1.32
   7   5  -2    3.73    1.62
  -6  -5   2    0.43    1.18
   6   5  -2    2.24    1.44
  -5  -5   2    8.18    1.26
   5   5  -2    7.76    1.37
  -4  -5   2    1.82    0.90
   4   5  -2    0.86    1.01
  -3  -5   2   22.57    1.58
   3   5  -2   20.55    1.57
  -2  -5   2    1.18    0.64
   2   5  -2    1.15    0.79
  -1  -5   2    4.96    0.63
   1   5  -2    4.25    0.82
   0  -5   2    4.47    0.79
   0   5   2    4.41    0.84
   0   5  -2    3.77    0.72
   1  -5   2   23.75    1.84
  -1   5  -2   26.21    1.29
   1   5   2   24.62    1.59
   2   5   2    1.09    0.91
  -3  -5  -2   31.98    1.57
   3   5   2   30.46    1.93
  -4  -5  -2    2.28    0.85
   4   5   2    3.31    1.20
  -5  -5  -2    3.62    1.13
   5   5   2    5.17    1.47
   6   5   2    2.60    1.55
   7   5   2    3.46    1.86
   7   6  -2    3.59    1.84
   6   6  -2   28.55    2.38
   5   6  -2    1.66    1.22
   4   6  -2    5.27    1.29
  -3  -6   2    2.11    1.15
   3   6  -2    2.47    1.12
  -2  -6   2   66.90    2.60
   2   6  -2   62.88    2.79
  -1  -6   2    2.83    0.67
   1   6  -2    2.83    0.93
   0  -6   2    2.21    0.70
   0   6  -2    2.92    0.86
   0   6   2    2.71    0.96
   1  -6   2    2.84    1.10
   1   6   2    1.94    1.02
  -1   6  -2    3.46    0.79
   2   6   2   29.94    2.04
   3   6   2    0.99    1.18
   4   6   2    3.61    1.41
   5   6   2    0.85    1.55
   6   6   2    1.33    1.75
   6   7  -2   -0.17    1.68
   5   7  -2   13.25    1.84
   4   7  -2    0.66    1.27
   3   7  -2    6.61    1.39
   2   7  -2    2.86    1.20
  -1   7   2    2.83    1.03
   1   7  -2    1.89    1.09
   0   7  -2    2.99    1.02
   0   7   2    4.30    1.15
   1   7   2   18.13    1.66
  -1   7  -2   17.10    1.37
   2   7   2    1.64    1.27
   3   7   2   10.96    1.59
   4   7   2   -0.22    1.45
   5   7   2    3.63    1.68
   4   8  -2   38.72    2.66
   3   8  -2    2.32    1.35
   2   8  -2    3.29    1.32
   1   8  -2    0.58    1.20
   0   8  -2    4.62    1.19
   0   8   2    1.97    1.23
   1   8   2    1.54    1.26
   2   8   2    1.19    1.34
   3   8   2    2.93    1.53
   4   8   2    8.58    1.85
   2   9  -2    0.89    1.39
   1   9  -2   -1.28    1.25
   1   9   2    9.22    1.66
  -9   0   3    3.67    1.75
  -8   0   3   30.78    2.62
   7   0  -3    0.65    0.90
  -7   0   3   -0.22    1.15
   6   0  -3    2.95    0.77
  -6   0   3    1.27    1.02
   5   0  -3    2.18    0.67
  -5   0   3    2.36    0.85
  -4   0   3  159.65    5.64
   4   0  -3  165.97    5.42
   3   0  -3   38.17    1.48
  -3   0   3   38.84    1.72
   2   0  -3    6.89    0.48
  -2   0   3    4.12    0.59
   1   0  -3    5.69    0.45
  -1   0   3    5.72    0.50
   0   0  -3   43.91    1.74
   0   0   3   45.34    1.88
   0   0   3   45.65    1.84
  -1   0  -3    0.95    0.75
   1   0   3    0.13    0.84
   2   0   3   85.48    3.11
   3   0   3    2.81    0.84
   4   0   3   16.69    1.28
   5   0   3   18.71    1.44
   6   0   3    6.69    1.32
   7   0   3    0.56    1.38
  -9  -1   3    0.14    1.55
  -9   1   3   -0.07    1.64
  -8  -1   3    0.73    1.40
  -8   1   3    2.29    1.48
   8   1  -3    2.20    1.13
  -7  -1   3    6.48    1.41
  -7   1   3    4.15    1.30
   7   1  -3    6.35    1.11
  -6  -1   3    5.41    1.19
  -6   1   3    4.76    1.11
   6   1  -3    6.42    0.99
  -5  -1   3   13.63    1.27
   5   1  -3   14.91    1.11
  -5   1   3   14.42    1.26
  -4  -1   3    2.37    0.80
  -4   1   3    4.19    0.79
   4   1  -3    3.06    0.71
  -3  -1   3    9.97    0.92
   3   1  -3   11.99    0.81
  -3   1   3    9.32    0.85
  -2  -1   3    6.21    0.65
   2   1  -3    7.98    0.61
  -2   1   3    7.69    0.66
  -1  -1   3   98.48    3.48
   1  -1  -3  103.21    3.40
   1   1  -3  102.78    3.40
   1   1  -3  103.03    3.47
  -1   1   3  103.74    3.40
   0  -1  -3    1.32    0.53
   0  -1   3    3.62    0.83
   0   1   3    1.71    0.56
   0   1   3    3.56    0.66
   1   1   3   41.89    1.69
   2  -1   3    0.83    0.88
   2   1   3    0.22    0.58
   3  -1   3   29.68    1.81
   3   1   3   25.11    1.44
   4  -1   3   10.80    1.28
   4   1   3   10.14    1.02
   5  -1   3    3.68    1.24
   5   1   3    4.71    1.01
   6   1   3    6.94    1.24
   7   1   3    2.18    1.35
   8   1   3    0.57    1.48
  -9  -2   3    0.46    1.58
   9   2  -3    2.26    1.43
  -9   2   3    2.22    1.73
  -8  -2   3    2.19    1.47
   8   2  -3    2.53    1.26
  -8   2   3    0.47    1.47
  -7  -2   3    2.47    1.36
  -7   2   3    0.82    1.29
   7   2  -3   -1.14    1.12
  -6  -2   3  117.03    4.62
   6   2  -3  118.08    4.40
  -6   2   3  121.69    4.56
  -5  -2   3   -1.36    0.85
  -5   2   3    0.48    0.81
   5   2  -3   -0.53    0.80
  -4  -2   3    9.96    1.05
  -4   2   3    9.80    1.01
   4   2  -3   12.50    1.01
  -3  -2   3   11.66    0.96
  -3   2   3   12.04    0.94
   3   2  -3   10.73    0.90
  -2  -2   3   18.17    1.12
  -2   2   3   16.05    0.97
   2   2  -3   18.90    1.02
  -1  -2   3    7.18    0.63
   1  -2  -3    6.51    0.47
   1   2  -3    6.67    0.57
  -1   2   3    6.31    0.46
   0  -2   3  138.06    4.84
   0   2   3  142.77    4.67
   1   2   3    1.50    0.56
   1   2   3    0.52    0.29
   2   2   3   40.47    1.74
   3   2   3   26.11    1.47
   4   2   3   18.90    1.41
   5   2   3    2.03    0.98
   6   2   3   46.43    2.54
   7   2   3    0.60    1.29
   8   2   3    0.68    1.51
  -8  -3   3    2.83    1.46
   8   3  -3    2.12    1.37
  -8   3   3    0.19    1.48
  -7  -3   3    2.08    1.40
  -7   3   3    5.22    1.43
   7   3  -3    2.48    1.35
  -6  -3   3    1.76    1.22
  -6   3   3    0.93    1.16
   6   3  -3    3.65    1.22
  -5  -3   3   18.52    1.48
   5   3  -3   18.06    1.44
  -5   3   3   18.19    1.41
  -4  -3   3    1.85    0.83
  -4   3   3    1.70    0.73
   4   3  -3    1.95    0.80
  -3  -3   3    7.86    0.91
  -3   3   3    5.90    0.74
   3   3  -3    6.95    0.89
  -2  -3   3    5.52    0.69
   2   3  -3    4.71    0.73
  -2   3   3    5.78    0.57
   1  -3  -3   59.63    2.03
  -1  -3   3   60.18    2.23
   1   3  -3   57.43    2.18
  -1   3   3   58.37    2.01
   0  -3   3    0.52    0.73
   0   3   3    1.46    0.56
   0   3  -3    1.44    0.46
  -1   3  -3   43.58    1.62
   1   3   3   43.19    1.84
   2   3   3    0.19    0.72
   3   3   3   15.39    1.19
   4   3   3    5.15    1.01
   5   3   3    3.08    1.13
   6   3   3    4.67    1.32
   7   3   3    0.31    1.42
   8   3   3    0.60    1.58
  -8  -4   3   18.54    2.00
   8   4  -3   21.07    2.09
  -7  -4   3    0.26    1.34
   7   4  -3    0.98    1.41
  -6  -4   3    4.16    1.31
   6   4  -3    3.61    1.32
  -5  -4   3    0.81    1.03
   5   4  -3    1.47    1.09
  -5   4   3    1.60    0.99
  -4  -4   3   88.47    3.37
  -4   4   3   78.45    3.24
   4   4  -3   87.35    3.30
  -3  -4   3   12.64    1.08
   3   4  -3   13.87    1.15
  -2  -4   3    4.51    0.71
   2   4  -3    4.82    0.77
  -1  -4   3    3.35    0.63
   1   4  -3    3.70    0.69
   0  -4   3   46.56    2.09
   0   4  -3   45.86    1.80
   0   4   3   42.77    1.92
   1   4   3   -0.42    0.73
  -1   4  -3    0.87    0.51
   2   4   3   22.54    1.50
   3   4   3    0.51    0.85
   4   4   3    6.45    1.20
   5   4   3    5.50    1.32
   6   4   3    2.75    1.40
   7   4   3    0.48    1.51
  -7  -5   3    6.86    1.55
   7   5  -3   12.33    1.83
  -6  -5   3    0.60    1.23
   6   5  -3    1.21    1.32
  -5  -5   3    5.68    1.20
   5   5  -3    5.90    1.33
  -4  -5   3    2.08    0.98
   4   5  -3    0.67    1.01
  -3  -5   3    2.75    0.86
   3   5  -3    3.79    0.96
  -2  -5   3    2.69    0.71
   2   5  -3    2.72    0.81
  -1  -5   3   27.29    1.41
   1   5  -3   26.77    1.49
   0  -5   3    0.09    0.76
   0   5   3    2.16    0.79
   0   5  -3    1.76    0.69
   1  -5   3   27.05    1.98
   1   5   3   23.09    1.59
  -1   5  -3   25.29    1.30
   2   5   3   -0.99    0.91
   3   5   3   10.04    1.35
   4   5   3    2.80    1.28
   5   5   3    1.70    1.42
   6   5   3    2.20    1.60
   7   5   3    4.29    1.81
   7   6  -3    5.41    1.84
   6   6  -3   44.48    2.76
   5   6  -3    1.10    1.28
  -4  -6   3    4.34    1.08
   4   6  -3    5.02    1.29
  -3  -6   3    3.36    0.96
   3   6  -3    3.72    1.11
  -2  -6   3    5.40    0.85
   2   6  -3    5.09    1.03
  -1  -6   3    0.48    0.66
   1   6  -3    2.00    0.89
   0  -6   3   10.58    1.07
   0   6  -3   12.39    1.10
   0   6   3   12.09    1.28
   1  -6   3    0.08    1.11
   1   6   3   -0.57    1.02
  -1   6  -3   -0.04    0.72
   2  -6   3   17.37    1.70
   2   6   3   14.38    1.58
   3   6   3    7.45    1.42
   4   6   3    4.51    1.49
   5   6   3    3.28    1.63
   6   6   3   19.66    2.44
   6   7  -3    1.30    1.67
   5   7  -3    7.53    1.56
   4   7  -3    1.41    1.30
   3   7  -3    1.97    1.27
   2   7  -3    1.70    1.13
   1   7  -3   12.75    1.36
  -1   7   3   14.21    1.34
   0   7  -3    1.07    0.95
   0   7   3    0.42    1.10
  -1   7  -3   20.50    1.46
   1   7   3   17.31    1.70
   2   7   3    1.36    1.30
   3   7   3    2.20    1.41
   4   7   3    2.73    1.61
   5   7   3    0.09    1.68
   4   8  -3   16.77    1.86
   3   8  -3    1.19    1.29
   2   8  -3    0.74    1.22
   1   8  -3    1.37    1.23
   0   8   3   19.31    1.77
   0   8  -3   18.64    1.64
   1   8   3    0.60    1.32
   2   8   3    0.64    1.40
   3   8   3   -1.78    1.44
   4   8   3    1.85    1.80
   2   9  -3    0.52    1.39
   1   9  -3    4.61    1.50
   1   9   3    7.51    1.66
  -9   0   4   -0.13    1.54
  -8   0   4   40.76    2.81
  -7   0   4    0.06    1.21
  -6   0   4    5.77    1.15
  -5   0   4   12.80    1.21
   5   0  -4   14.44    1.12
   4   0  -4   14.57    0.98
  -4   0   4   10.51    1.08
   3   0  -4   12.21    0.74
  -3   0   4   11.18    0.93
  -2   0   4  147.40    4.95
  -1   0   4   -0.47    0.46
   1   0  -4    0.64    0.44
   0   0   4   44.19    2.01
   0   0  -4   48.23    1.96
   1   0   4   27.89    1.73
   2   0   4   23.27    1.60
   3   0   4    6.55    1.09
   4   0   4  176.83    6.18
   5   0   4    4.92    1.20
   6   0   4    2.88    1.38
   7   0   4    2.95    1.61
  -9  -1   4    3.37    1.69
  -9   1   4    1.63    1.63
  -8  -1   4   -1.35    1.40
   8   1  -4    0.83    1.08
  -8   1   4    1.09    1.45
  -7  -1   4    4.86    1.39
   7   1  -4    5.59    1.11
  -7   1   4    3.40    1.29
  -6  -1   4    1.41    1.09
   6   1  -4    1.79    0.91
  -6   1   4    0.35    1.00
  -5  -1   4    0.90    0.86
   5   1  -4    2.29    0.80
  -5   1   4    1.76    0.88
  -4  -1   4    9.08    1.05
   4   1  -4   10.58    0.89
  -4   1   4   11.74    1.05
  -3  -1   4   68.37    2.66
   3   1  -4   69.23    2.50
  -3   1   4   70.85    2.64
  -2  -1   4    6.33    0.67
  -2   1   4    6.52    0.65
   2   1  -4    6.96    0.61
   1  -1  -4   36.15    1.64
   1  -1  -4   37.84    1.43
  -1  -1   4   32.78    1.71
  -1   1   4   38.16    1.41
  -1   1   4   36.03    1.74
   0  -1  -4    0.27    0.70
   0   1   4    0.84    0.72
   0   1   4   -0.13    0.62
   1   1   4   60.27    2.34
   2  -1   4    9.04    1.23
   2   1   4    8.34    0.92
   3  -1   4    8.85    1.32
   3   1   4    7.22    0.97
   4  -1   4   11.43    1.41
   4   1   4   12.25    1.18
   5  -1   4   11.40    1.57
   5   1   4    8.63    1.25
   6  -1   4    1.14    1.51
   6   1   4    2.56    1.30
   7  -1   4    3.13    2.97
   7   1   4   -0.36    1.41
   8   1   4    0.39    1.64
  -9  -2   4    1.90    1.67
  -9   2   4    0.73    1.67
   9   2  -4    2.71    1.62
  -8  -2   4    3.39    1.54
  -8   2   4    1.30    1.49
   8   2  -4    0.86    1.22
  -7  -2   4    3.15    1.36
   7   2  -4   -0.16    1.14
  -7   2   4    1.86    1.27
  -6  -2   4   57.56    3.05
   6   2  -4   64.15    2.78
  -6   2   4   64.83    2.97
  -5  -2   4   20.10    1.47
   5   2  -4   17.56    1.46
  -5   2   4   19.13    1.61
  -4  -2   4    4.34    0.88
  -4   2   4    5.46    0.87
   4   2  -4    6.53    0.85
  -3  -2   4    4.55    0.78
   3   2  -4    4.61    0.73
  -3   2   4    4.27    0.70
  -2  -2   4   57.97    2.26
   2   2  -4   58.31    2.21
  -2   2   4   61.35    2.20
   1  -2  -4    2.59    0.36
  -1  -2   4    2.81    0.57
   1   2  -4    1.80    0.48
  -1   2   4    1.64    0.36
   0  -2   4   78.38    2.96
   0   2   4   74.64    2.60
   0   2   4   76.11    2.72
   1   2   4    4.38    0.73
   2   2   4   12.71    0.99
   3   2   4   17.36    1.34
   4   2   4   16.46    1.30
   5   2   4    6.64    1.19
   6   2   4   53.32    2.81
   7   2   4    0.91    1.45
   8   2   4    2.01    1.66
  -8  -3   4    2.45    1.53
   8   3  -4    0.18    1.37
  -8   3   4    0.54    1.46
  -7  -3   4    0.48    1.31
   7   3  -4    1.74    1.31
  -7   3   4    1.40    1.34
  -6  -3   4   -0.98    1.12
   6   3  -4    1.77    1.16
  -6   3   4    0.46    1.12
  -5  -3   4    2.27    1.03
   5   3  -4    4.38    1.04
  -5   3   4    1.50    0.90
  -4  -3   4    7.41    1.04
  -4   3   4    5.70    0.87
   4   3  -4    7.33    0.93
  -3  -3   4   42.24    1.93
   3   3  -4   40.13    1.82
  -3   3   4   39.29    1.74
  -2  -3   4    3.99    0.69
  -2   3   4    4.27    0.59
   2   3  -4    3.43    0.67
  -1  -3   4   42.09    1.78
   1  -3  -4   40.04    1.47
  -1   3   4   38.14    1.62
   1   3  -4   40.73    1.67
  -1   3   4   42.33    1.46
   0  -3   4    0.33    0.81
   0   3   4   -0.37    0.59
   0   3  -4    0.10    0.46
   1   3   4   25.15    1.38
   2   3   4    5.92    0.86
   3   3   4    4.28    0.91
   4   3   4    7.02    1.08
   5   3   4   10.53    1.39
   6   3   4   -0.06    1.32
   7   3   4    0.84    1.44
   8   3   4    0.74    1.72
  -8  -4   4   28.37    2.37
   8   4  -4   27.76    2.29
  -7  -4   4    2.80    1.40
   7   4  -4    0.94    1.36
  -7   4   4   -2.23    1.26
  -6  -4   4    0.97    1.22
   6   4  -4    1.49    1.29
  -6   4   4    3.33    1.23
  -5  -4   4    5.10    1.20
  -5   4   4    4.30    1.07
   5   4  -4    3.45    1.13
  -4  -4   4    7.62    1.10
   4   4  -4    7.97    1.05
  -4   4   4    5.17    0.92
  -3  -4   4    5.89    0.88
  -3   4   4    3.93    0.71
   3   4  -4    5.98    0.85
  -2  -4   4   30.10    1.53
   2   4  -4   27.66    1.49
  -2   4   4   28.23    1.30
  -1  -4   4   -0.47    0.62
  -1   4   4   -1.65    0.56
   1   4  -4   -0.40    0.57
   0  -4   4   25.63    1.75
   0   4  -4   26.74    1.30
   0   4   4   26.58    1.44
   1  -4   4    9.69    1.19
  -1   4  -4   10.10    0.77
   1   4   4   10.72    1.02
   2   4   4   12.00    1.13
   2   4   4    9.05    0.74
   3   4   4    4.89    1.05
   4   4   4   78.58    3.31
   5   4   4    2.39    1.30
   6   4   4    0.11    1.45
   7   4   4    1.57    1.67
  -7  -5   4    6.63    1.51
   7   5  -4    6.41    1.58
  -6  -5   4   -0.25    1.23
   6   5  -4    0.01    1.29
  -5  -5   4   -0.28    1.14
   5   5  -4   -0.31    1.16
  -4  -5   4    4.34    1.09
   4   5  -4    3.24    1.05
  -3  -5   4   30.12    1.79
   3   5  -4   27.53    1.75
  -2  -5   4    1.40    0.74
   2   5  -4    1.89    0.77
  -1  -5   4   27.63    1.55
   1   5  -4   27.60    1.51
   0  -5   4    1.10    0.85
   0   5  -4    0.47    0.63
   0   5   4    1.02    0.80
   1  -5   4   12.67    1.46
  -1   5  -4   13.30    0.95
   1   5   4   13.82    1.24
   2   5   4    2.55    1.02
   3   5   4    3.93    1.21
   4   5   4    2.97    1.33
   5   5   4    2.63    1.47
   6   5   4   -2.23    1.57
   7   5   4   -0.71    1.78
   7   6  -4    4.09    1.80
   6   6  -4   19.74    2.02
  -5  -6   4    2.13    1.18
   5   6  -4    4.27    1.36
  -4  -6   4    0.91    1.05
   4   6  -4    0.71    1.16
  -3  -6   4    2.60    0.98
   3   6  -4    1.42    1.05
  -2  -6   4   30.98    1.77
   2   6  -4   28.45    1.84
  -1  -6   4    0.29    0.73
   1   6  -4   -0.18    0.83
   0  -6   4    9.71    1.17
   0   6   4   13.58    1.26
   0   6  -4   11.03    1.08
   1  -6   4    2.01    1.25
  -1   6  -4    3.39    0.81
   1   6   4    0.64    1.08
   2  -6   4    7.21    1.53
   2   6   4    4.95    1.29
   3   6   4    3.42    1.35
   4   6   4    8.54    1.62
   5   6   4    0.53    1.59
   6   6   4   19.67    2.46
   6   7  -4   -0.19    1.50
   5   7  -4    0.83    1.38
   4   7  -4    0.85    1.28
   3   7  -4    9.08    1.42
   2   7  -4    2.38    1.11
   1   7  -4   18.86    1.54
   0   7  -4    1.70    0.99
   0   7   4    1.39    1.20
   1   7   4    5.79    1.38
  -1   7  -4    4.74    1.00
   2  -7   4    5.96    2.55
   2   7   4    4.28    1.41
   3   7   4    0.09    1.40
   4   7   4    2.65    1.63
   5   7   4    5.24    1.84
   4   8  -4    4.97    1.51
   3   8  -4    2.19    1.40
   2   8  -4    1.47    1.29
   1   8  -4   -0.50    1.14
   0   8  -4   10.59    1.35
   0   8   4    5.93    1.44
   1   8   4    1.84    1.37
   2   8   4    2.89    1.48
   3   8   4    0.22    1.58
   2   9  -4    1.66    1.43
   1   9  -4    6.99    1.57
   1   9   4    2.17    1.54
  -9   0   5    2.71    1.67
  -8   0   5   24.71    2.16
  -7   0   5    8.32    1.48
   6   0  -5    5.61    0.87
  -6   0   5    5.57    1.22
   5   0  -5    5.26    0.74
  -5   0   5    3.79    0.95
   4   0  -5   81.97    2.87
  -4   0   5   79.84    3.13
   3   0  -5    5.02    0.60
  -3   0   5    5.74    0.76
  -2   0   5   70.25    2.58
  -1   0   5   44.94    1.83
   0   0   5   10.44    1.01
   1   0   5   21.59    1.71
   2   0   5   68.98    2.94
   3   0   5   19.75    1.61
   4   0   5  202.82    7.08
   5   0   5   -0.70    1.27
   6   0   5    1.96    1.58
   7   0   5   14.96    2.02
  -9  -1   5    3.28    1.69
  -9   1   5    0.93    1.65
  -8  -1   5    1.90    1.53
   8   1  -5    1.48    1.12
  -8   1   5   -0.12    1.41
  -7  -1   5    2.79    1.30
   7   1  -5    1.01    1.04
  -7   1   5   -0.19    1.21
  -6  -1   5    5.08    1.19
  -6   1   5    5.08    1.17
   6   1  -5    5.15    0.96
  -5  -1   5   41.97    2.24
  -5   1   5   45.73    2.20
   5   1  -5   38.88    1.91
  -4  -1   5    6.94    0.98
  -4   1   5    7.99    0.97
   4   1  -5    9.18    0.86
  -3  -1   5   60.70    2.45
   3   1  -5   59.58    2.28
  -3   1   5   63.56    2.44
  -2  -1   5    2.35    0.59
   2   1  -5    1.89    0.50
  -2   1   5    1.48    0.51
  -1  -1   5   59.22    2.19
   1  -1  -5   50.71    2.26
   1  -1  -5   52.62    2.00
  -1   1   5   56.13    2.02
   0  -1   5    6.95    0.98
   0   1   5    5.76    0.81
   0   1   5    4.75    0.94
   1   1   5   13.69    1.12
   2  -1   5   21.26    1.65
   2   1   5   21.41    1.51
   3  -1   5   54.88    2.79
   3   1   5   52.66    2.40
   4  -1   5    4.55    1.38
   4   1   5    5.50    1.11
   5  -1   5    1.65    1.57
   5   1   5    3.25    1.24
   6  -1   5    4.92    1.82
   6   1   5    6.45    1.53
   7  -1   5   -1.45    3.06
   7   1   5    3.69    1.63
   8   1   5    2.98    1.80
  -9  -2   5    1.49    1.56
  -9   2   5    0.14    1.64
   9   2  -5    2.74    2.05
  -8  -2   5   -0.72    1.46
  -8   2   5    2.92    1.48
   8   2  -5    3.12    1.27
  -7  -2   5    4.74    1.48
  -7   2   5    6.03    1.38
   7   2  -5    3.64    1.28
  -6  -2   5    6.46    1.29
   6   2  -5    8.65    1.21
  -6   2   5    6.64    1.23
  -5  -2   5    5.67    1.09
  -5   2   5    5.48    0.99
   5   2  -5    7.18    1.00
  -4  -2   5   20.61    1.49
  -4   2   5   18.29    1.33
   4   2  -5   16.60    1.31
  -3  -2   5    0.74    0.71
   3   2  -5    0.90    0.64
  -3   2   5   -0.63    0.60
  -2  -2   5   41.15    1.78
  -2   2   5   40.44    1.65
   2   2  -5   40.04    1.68
  -1  -2   5    1.81    0.69
   1  -2  -5    2.57    0.42
  -1   2   5   -0.72    0.93
  -1   2   5    3.75    0.47
   0  -2   5   13.90    1.21
   0   2   5   13.73    0.89
   0   2   5   14.86    1.07
   1   2   5   18.64    1.28
   2   2   5  288.65    9.54
   3   2   5    5.14    0.92
   4   2   5   10.31    1.20
   5   2   5    8.08    1.36
   6   2   5   18.29    1.84
   7   2   5    3.75    1.59
   8   2   5   -1.18    1.72
  -8  -3   5   -0.82    1.45
   8   3  -5    2.45    1.41
  -8   3   5    0.94    1.44
  -7  -3   5   -1.63    1.33
   7   3  -5    2.38    1.34
  -7   3   5   -1.59    1.24
  -6  -3   5    0.80    1.24
   6   3  -5    4.29    1.25
  -6   3   5    3.60    1.20
  -5  -3   5   33.95    2.17
   5   3  -5   36.21    2.04
  -5   3   5   39.48    2.08
  -4  -3   5    4.72    0.95
  -4   3   5    3.31    0.83
   4   3  -5    3.78    0.85
  -3  -3   5   33.99    1.79
  -3   3   5   36.79    1.64
   3   3  -5   34.89    1.68
  -2  -3   5    1.76    0.70
  -2   3   5    1.49    0.51
   2   3  -5    1.41    0.66
   1  -3  -5   27.81    1.16
  -1  -3   5   28.45    1.60
  -1   3   5   30.13    1.16
  -1   3   5   28.00    1.43
   1   3  -5   27.51    1.35
   0  -3   5    6.26    1.03
   0   3  -5    4.31    0.62
   0   3   5    4.77    0.77
   1   3   5    5.61    0.46
   1   3   5    8.26    0.91
   2   3   5   10.61    1.04
   3   3   5   24.05    1.61
   4   3   5    0.16    0.99
   5   3   5    3.44    1.24
   6   3   5    4.01    1.47
   7   3   5    2.88    1.64
  -8  -4   5   12.85    1.93
   8   4  -5   12.85    1.82
  -8   4   5   16.58    1.99
  -7  -4   5    3.00    1.51
   7   4  -5    2.24    1.48
  -7   4   5    3.26    1.40
  -6  -4   5    1.44    1.26
  -6   4   5    2.36    1.21
   6   4  -5   -0.25    1.25
  -5  -4   5    3.84    1.16
  -5   4   5    2.07    1.00
   5   4  -5    2.31    1.12
  -4  -4   5   51.02    2.44
  -4   4   5   51.06    2.22
   4   4  -5   47.55    2.28
  -3  -4   5    0.52    0.77
  -3   4   5    0.60    0.58
   3   4  -5    0.60    0.75
  -2  -4   5   22.48    1.40
  -2   4   5   19.28    1.03
   2   4  -5   19.20    1.25
  -1  -4   5   14.80    1.26
   1   4  -5   13.16    1.09
  -1   4   5   17.86    1.17
   0  -4   5    7.53    1.12
   0   4  -5   10.24    0.85
   0   4   5   11.30    0.99
   1  -4   5   11.28    1.34
   1   4   5    9.09    1.05
  -1   4  -5   11.20    0.91
   2   4   5   22.16    1.55
   3   4   5    5.37    1.10
   4   4   5   84.77    3.56
   5   4   5    1.34    1.35
   6   4   5    0.03    1.48
   7   4   5    9.74    1.94
  -7  -5   5    1.63    1.49
   7   5  -5    2.38    1.55
  -6  -5   5    1.03    1.26
   6   5  -5    4.16    1.39
  -5  -5   5   15.39    1.62
   5   5  -5   13.72    1.52
  -4  -5   5   -0.25    1.00
   4   5  -5    0.50    0.99
  -3  -5   5   36.42    1.96
   3   5  -5   30.85    1.85
  -2  -5   5    0.83    0.78
   2   5  -5    1.00    0.78
  -1  -5   5   10.80    1.07
  -1   5   5    9.98    0.97
   1   5  -5   11.54    0.97
   0  -5   5    4.16    1.00
   0   5   5    4.08    0.88
   0   5  -5    3.85    0.75
   1  -5   5    1.90    1.23
  -1   5  -5    2.88    0.70
   1   5   5    0.93    0.94
   2   5   5    6.54    1.15
   3   5   5   18.56    1.65
   4   5   5    0.11    1.33
   5   5   5    0.29    1.47
   6   5   5    4.41    1.74
   7   6  -5    0.91    1.57
  -6  -6   5    3.58    1.88
   6   6  -5    5.63    1.57
  -5  -6   5    1.71    1.21
   5   6  -5    1.17    1.24
  -4  -6   5    2.71    1.16
   4   6  -5    2.59    1.16
  -3  -6   5    0.33    0.94
   3   6  -5    0.50    1.03
  -2  -6   5   16.63    1.30
   2   6  -5   15.99    1.37
  -1  -6   5    1.68    0.87
  -1   6   5    2.36    0.95
   1   6  -5    0.88    0.88
   0  -6   5    6.91    1.20
   0   6   5    7.11    1.18
   0   6  -5    8.98    1.01
   1  -6   5    7.35    1.47
  -1   6  -5    8.04    0.94
   1   6   5    7.09    1.27
   2  -6   5   73.20    3.63
   2   6   5   69.05    3.22
   3   6   5    3.28    1.39
   4   6   5    2.23    1.51
   5   6   5    3.69    1.73
   6   6   5    5.78    2.09
   6   7  -5    0.04    1.57
   5   7  -5   14.44    1.86
   4   7  -5    2.43    1.28
   3   7  -5   10.70    1.44
   2   7  -5   -0.12    1.07
   1   7  -5    4.95    1.11
   0   7   5    4.10    1.24
   0   7  -5    4.22    1.03
   1  -7   5    1.94    1.36
  -1   7  -5    4.20    0.98
   1   7   5    1.19    1.27
   2  -7   5    1.81    1.67
   2   7   5    5.54    1.44
   3  -7   5    6.26    1.89
   3   7   5    8.04    1.65
   4   7   5    2.04    1.66
   5   7   5   -0.30    1.77
   4   8  -5   14.30    1.82
   3   8  -5    3.37    1.37
   2   8  -5    2.67    1.23
   1   8  -5    3.78    1.25
   0   8   5    2.86    1.37
   0   8  -5    4.10    1.21
   1   8   5    4.19    1.45
   2   8   5    5.07    1.57
   3   8   5    2.57    1.73
   1   9  -5    2.26    1.40
  -9   0   6    2.23    1.67
  -8   0   6    8.09    1.65
  -7   0   6    3.79    1.38
   7   0  -6    4.58    1.03
  -6   0   6   -0.89    0.98
   6   0  -6    0.70    0.75
   5   0  -6    1.25    0.64
  -5   0   6    0.82    0.88
  -4   0   6   37.27    1.92
   4   0  -6   35.41    1.57
   3   0  -6    8.20    0.69
  -3   0   6    8.39    0.91
  -2   0   6   18.79    1.17
  -1   0   6   49.11    2.03
   0   0   6  538.20   17.48
   1   0   6    9.41    1.40
   2   0   6   44.10    2.47
   3   0   6   21.67    1.73
   4   0   6   29.30    2.27
   5   0   6   10.16    1.71
   6   0   6   -0.89    1.67
   7   0   6    6.04    1.93
  -9  -1   6    1.80    1.73
  -9   1   6   -0.11    1.66
  -8  -1   6    1.38    1.49
  -8   1   6    3.14    1.49
   8   1  -6    2.79    1.14
  -7  -1   6   27.74    2.22
   7   1  -6   28.28    1.92
  -7   1   6   30.36    2.42
  -6  -1   6    1.49    1.10
   6   1  -6    3.17    0.92
  -6   1   6    2.58    1.13
  -5  -1   6   45.65    2.35
  -5   1   6   48.06    2.29
   5   1  -6   47.52    2.05
  -4  -1   6    3.45    0.87
  -4   1   6    5.63    0.91
   4   1  -6    4.71    0.74
  -3  -1   6   27.34    1.57
  -3   1   6   26.19    1.48
   3   1  -6   24.65    1.31
  -2  -1   6   19.70    1.29
  -2   1   6   18.96    1.15
  -1  -1   6   14.28    1.08
  -1   1   6   13.29    0.98
   0  -1   6   18.10    1.51
   0   1   6   15.70    1.40
   0   1   6   16.71    1.40
   1   1   6   97.05    3.67
   2  -1   6    3.64    1.37
   2   1   6    2.44    1.02
   3  -1   6    0.40    1.36
   3   1   6    1.29    1.02
   4  -1   6   11.07    1.70
   4   1   6   10.27    1.38
   5  -1   6    2.60    1.75
   5   1   6    5.74    1.48
   6  -1   6    5.38    1.94
   6   1   6    4.65    1.69
   7  -1   6   14.07    3.03
   7   1   6   13.14    1.99
   8   1   6   -0.12    1.94
  -9  -2   6    1.35    1.71
  -9   2   6    0.80    1.60
  -8  -2   6    1.93    1.52
  -8   2   6    2.42    1.49
   8   2  -6    4.22    1.32
  -7  -2   6    0.85    1.37
   7   2  -6    2.56    1.23
  -7   2   6    1.72    1.29
  -6  -2   6   61.99    3.05
   6   2  -6   60.47    2.72
  -6   2   6   61.24    2.91
  -5  -2   6    2.13    0.98
   5   2  -6    0.21    0.81
  -5   2   6    0.35    0.88
  -4  -2   6   20.25    1.58
  -4   2   6   19.08    1.40
   4   2  -6   15.97    1.30
  -3  -2   6   54.22    2.34
   3   2  -6   53.81    2.19
  -3   2   6   55.06    2.21
  -2  -2   6   16.57    1.23
   2   2  -6   16.47    1.07
  -2   2   6   16.97    1.05
   1  -2  -6   10.96    0.89
  -1  -2   6   11.10    1.06
  -1   2   6    9.00    0.68
  -1   2   6   10.94    1.11
   0  -2   6   75.52    3.08
   0   2   6   73.37    2.91
   0   2   6   75.59    2.80
   1   2   6   13.93    1.23
   2   2   6  280.49    9.36
   3   2   6    1.60    0.95
   4   2   6    1.83    1.10
   5   2   6   35.06    2.42
   6  -2   6    5.50    1.95
   6   2   6    5.10    1.60
   7   2   6    1.61    1.69
   8   2   6    2.31    1.94
  -8  -3   6    0.79    1.53
  -8   3   6   -2.77    1.42
   8   3  -6   -0.39    1.35
  -7  -3   6   12.67    1.78
  -7   3   6   16.26    1.74
   7   3  -6   15.91    1.70
  -6  -3   6    0.82    1.22
  -6   3   6    1.07    1.13
   6   3  -6    1.67    1.15
  -5  -3   6   47.59    2.59
  -5   3   6   46.98    2.38
   5   3  -6   47.28    2.31
  -4  -3   6    2.12    0.88
   4   3  -6    2.44    0.84
  -4   3   6    2.59    0.78
  -3  -3   6   13.58    1.15
  -3   3   6   14.99    1.04
   3   3  -6   15.67    1.10
  -2  -3   6   16.03    1.16
   2   3  -6   14.70    1.03
  -2   3   6   13.39    0.97
   1  -3  -6    9.83    0.73
  -1  -3   6    9.08    1.06
   1   3  -6   10.30    0.82
  -1   3   6    7.57    0.97
  -1   3   6    7.21    0.59
   0  -3   6    9.54    1.19
   0   3   6    8.85    0.71
   0   3   6   10.36    1.02
   1  -3   6   56.95    2.56
   1   3   6   51.72    2.17
   1   3   6   54.82    2.33
   2   3   6    1.55    0.85
   3   3   6    1.23    0.94
   4   3   6    8.29    1.32
   5   3   6    4.89    1.45
   6   3   6    6.01    1.68
   7   3   6    6.47    1.84
  -8  -4   6    4.82    1.69
  -8   4   6    4.81    1.67
   8   4  -6    9.67    1.75
  -7  -4   6    1.84    1.45
  -7   4   6    2.86    1.36
   7   4  -6    1.86    1.42
  -6  -4   6    2.30    1.34
   6   4  -6   -1.68    1.20
  -6   4   6   -1.81    1.09
  -5  -4   6    0.20    1.14
  -5   4   6    1.35    0.97
   5   4  -6    2.16    1.12
  -4  -4   6   22.37    1.84
  -4   4   6   23.99    1.51
   4   4  -6   23.86    1.64
  -3  -4   6    1.76    0.86
  -3   4   6    2.31    0.67
   3   4  -6    2.65    0.82
  -2  -4   6   11.88    1.04
  -2   4   6   10.39    0.86
   2   4  -6   10.33    0.95
  -1  -4   6   21.99    1.63
   1   4  -6   24.07    1.30
  -1   4   6   21.43    1.42
   0  -4   6  195.94    6.90
   0   4   6  198.87    6.71
   0   4  -6  200.31    6.60
   1  -4   6    5.05    1.23
   1   4   6    4.55    0.93
   2   4   6   18.09    1.45
   3   4   6   10.14    1.28
   4   4   6   16.59    1.70
   5   4   6    4.22    1.50
   6   4   6   -0.04    1.61
   7   4   6    3.79    1.87
  -7  -5   6   15.08    1.88
  -7   5   6   16.50    1.90
   7   5  -6   16.31    1.97
  -6  -5   6    0.70    1.34
   6   5  -6    1.07    1.34
  -6   5   6    2.16    1.22
  -5  -5   6   17.04    1.69
  -5   5   6   17.45    1.56
   5   5  -6   16.23    1.64
  -4  -5   6    2.59    1.08
  -4   5   6    1.11    0.86
   4   5  -6    2.11    1.01
  -3  -5   6    9.95    1.19
   3   5  -6   10.07    1.14
  -3   5   6    9.30    0.94
  -2  -5   6    4.99    0.92
   2   5  -6    6.30    0.94
  -1  -5   6    4.47    0.94
   1   5  -6    4.60    0.82
  -1   5   6    3.74    0.89
   0  -5   6    3.86    1.08
   0   5   6    6.22    1.00
   0   5  -6    4.44    0.80
   1  -5   6   24.75    1.95
   1   5   6   21.32    1.71
  -1   5  -6   21.12    1.32
   2   5   6    0.91    1.09
  -2   5  -6    0.10    0.64
   3   5   6    2.43    1.29
   4   5   6    4.65    1.51
   5   5   6    2.39    1.62
   6   5   6    2.88    1.78
   7   6  -6    2.11    1.63
  -6  -6   6   19.93    1.93
   6   6  -6   22.32    2.07
  -5  -6   6   -0.34    1.22
   5   6  -6   -0.52    1.21
  -4  -6   6    3.36    1.18
   4   6  -6    3.11    1.21
  -3  -6   6   12.98    1.35
   3   6  -6   12.68    1.37
  -2  -6   6    6.39    1.11
   2   6  -6    7.09    1.13
  -1  -6   6    4.83    1.04
   1   6  -6    5.20    1.00
  -1   6   6    5.36    1.11
   0  -6   6   15.27    1.54
   0   6  -6   14.16    1.19
   0   6   6   15.35    1.49
   1  -6   6    3.14    1.44
   1   6   6    4.03    1.23
  -1   6  -6    2.71    0.84
   2  -6   6   73.11    3.80
  -2   6  -6   73.25    2.82
   2   6   6   69.97    3.33
   3   6   6    2.30    1.44
   4   6   6    0.42    1.56
   5   6   6   10.88    1.97
   6   7  -6   -0.18    1.59
   5   7  -6   13.10    1.76
   4   7  -6    2.91    1.31
   3   7  -6    2.62    1.24
   2   7  -6    4.96    1.20
  -1  -7   6    3.11    1.85
  -1   7   6    2.39    1.19
   1   7  -6    3.38    1.08
   0  -7   6    2.71    1.22
   0   7   6    4.11    1.33
   0   7  -6    3.26    1.07
   1  -7   6   12.96    1.69
  -1   7  -6   12.32    1.29
   1   7   6   13.28    1.68
   2  -7   6   -1.95    1.66
   2   7   6    0.85    1.41
   3  -7   6    0.22    1.81
   3   7   6    1.88    1.56
   4   7   6    4.20    1.82
   4   8  -6    5.50    1.57
   3   8  -6    1.22    1.30
   2   8  -6    2.84    1.30
   1   8  -6    5.48    1.29
   0   8   6   29.76    2.41
   0   8  -6   26.67    2.01
   1   8   6    2.53    1.51
   2   8   6    1.88    1.57
   3   8   6    0.47    1.71
  -9   0   7   -1.70    1.67
  -8   0   7   41.27    2.95
  -7   0   7    2.36    1.40
  -6   0   7    4.59    1.24
   6   0  -7    6.75    0.91
   5   0  -7   52.81    2.12
  -5   0   7   51.25    2.51
   4   0  -7   24.16    1.29
  -4   0   7   23.76    1.59
  -3   0   7    4.14    0.83
  -2   0   7   73.77    2.80
  -1   0   7    9.84    0.99
   0   0   7  440.02   14.43
   1   0   7    5.32    1.41
   2   0   7    1.60    1.41
   3   0   7   76.13    3.49
   4   0   7    6.35    1.56
   5   0   7    1.39    1.67
   6   0   7   -0.57    1.81
   7   0   7    1.75    1.98
  -9  -1   7    8.83    2.02
  -9   1   7    9.79    1.92
  -8  -1   7   -0.61    1.43
   8   1  -7    1.79    1.16
  -8   1   7    0.83    1.50
  -7  -1   7   34.59    2.43
   7   1  -7   32.60    2.05
  -7   1   7   37.39    2.57
  -6  -1   7    2.22    1.19
  -6   1   7    4.20    1.21
   6   1  -7    4.18    0.96
  -5  -1   7    5.78    1.08
   5   1  -7    5.78    0.90
  -5   1   7    6.33    1.07
  -4  -1   7   21.77    1.55
  -4   1   7   22.50    1.55
   4   1  -7   22.68    1.36
  -3  -1   7   10.51    1.03
   3   1  -7   10.69    0.86
  -3   1   7    9.31    0.93
  -2  -1   7    9.78    0.95
  -2   1   7    9.68    0.87
  -1  -1   7  102.66    3.84
  -1   1   7  101.18    3.66
   0  -1   7    2.53    0.95
   0   1   7    1.48    0.88
   0   1   7    3.02    1.22
   1   1   7    1.11    1.17
   2   1   7   17.95    1.55
   3  -1   7   13.33    1.76
   3   1   7   17.51    1.59
   4  -1   7   11.10    1.83
   4   1   7    8.85    1.46
   5  -1   7   17.97    2.28
   5   1   7   21.92    2.07
   6  -1   7    2.22    1.99
   6   1   7    4.03    1.73
   7  -1   7    0.84    3.03
   7   1   7    4.24    1.90
  -9  -2   7    2.82    1.76
  -9   2   7   -1.27    1.54
  -8  -2   7    0.84    1.61
   8   2  -7    3.02    1.37
  -8   2   7    0.66    1.42
  -7  -2   7    2.04    1.45
  -7   2   7    3.05    1.37
   7   2  -7    2.57    1.22
  -6  -2   7   20.49    1.82
  -6   2   7   23.07    1.79
   6   2  -7   21.24    1.76
  -5  -2   7    6.74    1.17
  -5   2   7    5.77    1.05
   5   2  -7    6.79    1.03
  -4  -2   7   16.31    1.34
  -4   2   7   17.53    1.44
   4   2  -7   16.64    1.29
  -3  -2   7   41.26    2.00
  -3   2   7   40.34    1.89
   3   2  -7   43.10    1.85
  -2  -2   7  328.32   10.82
  -2   2   7  332.48   10.69
   2   2  -7  321.86   10.66
  -1  -2   7    8.65    1.07
  -1   2   7    6.64    1.19
  -1   2   7    6.47    0.70
   0  -2   7   45.19    2.22
   0   2   7   39.42    2.02
   0   2   7   44.12    2.19
   1   2   7   13.54    1.30
   1   2   7   13.16    1.08
   2   2   7   18.00    1.47
   3   2   7    7.37    1.23
   4   2   7    2.47    1.29
   5   2   7    8.92    1.68
   6   2   7   11.19    1.93
   7   2   7    5.28    1.92
  -8  -3   7   -0.56    1.59
   8   3  -7    2.28    1.42
  -8   3   7    0.05    1.45
  -7  -3   7   21.94    2.07
  -7   3   7   19.69    1.91
   7   3  -7   20.72    1.85
  -6  -3   7    2.86    1.36
  -6   3   7    0.73    1.20
   6   3  -7    3.26    1.23
  -5  -3   7    8.05    1.25
   5   3  -7    6.73    1.13
  -5   3   7    8.42    1.15
  -4  -3   7   14.32    1.29
   4   3  -7   12.91    1.15
  -4   3   7   11.42    1.08
  -3  -3   7    4.76    0.93
  -3   3   7    6.25    0.77
   3   3  -7    5.67    0.87
  -2  -3   7    6.04    0.88
  -2   3   7    5.10    0.65
   2   3  -7    7.95    0.84
  -1  -3   7   59.04    2.58
   1  -3  -7   56.03    2.43
  -1   3   7   55.59    2.11
  -1   3   7   58.47    2.48
   1   3  -7   62.14    2.26
   0  -3   7    0.39    0.97
   0   3   7    0.36    0.52
   0   3   7    2.18    0.91
   1  -3   7   -0.21    1.00
   1   3   7   -0.29    0.76
   1   3   7    0.84    0.89
   2   3   7   12.41    1.26
   3   3   7    9.56    1.30
   4   3   7    6.10    1.41
   5   3   7   18.49    1.98
   6   3   7    1.98    1.70
   7   3   7    0.78    1.95
  -8  -4   7   22.89    2.35
   8   4  -7   27.06    2.34
  -8   4   7   24.29    2.29
  -7  -4   7    1.70    1.46
   7   4  -7    0.34    1.39
  -7   4   7   -0.06    1.28
  -6  -4   7    2.97    1.39
   6   4  -7    1.70    1.33
  -6   4   7    0.51    1.17
  -5  -4   7   24.11    1.89
   5   4  -7   27.93    1.84
  -5   4   7   23.53    1.92
  -4  -4   7   13.93    1.36
  -4   4   7   13.10    1.16
   4   4  -7   14.18    1.30
  -3  -4   7    4.86    0.96
  -3   4   7    3.67    0.72
   3   4  -7    3.67    0.85
  -2  -4   7   28.21    1.70
   2   4  -7   27.07    1.52
  -2   4   7   28.05    1.31
  -1  -4   7    2.09    0.93
   1   4  -7    3.48    0.74
  -1   4   7    1.20    0.83
   0  -4   7  177.46    6.36
   0   4   7  182.12    6.19
   0   4  -7  177.87    6.01
   1  -4   7    2.61    1.21
   1   4   7    2.28    0.99
   2   4   7   -0.13    0.99
   3   4   7   31.84    2.13
   4   4   7    4.03    1.43
   5   4   7    1.57    1.58
   6   4   7    0.09    1.77
   7   4   7    0.90    1.95
  -7  -5   7   14.13    1.92
  -7   5   7   23.21    2.05
   7   5  -7   20.23    2.05
  -6  -5   7    1.12    1.37
   6   5  -7    0.22    1.31
  -6   5   7    0.91    1.19
  -5  -5   7    2.31    1.27
  -5   5   7    2.05    1.06
   5   5  -7    1.79    1.19
  -4  -5   7    8.84    1.30
  -4   5   7    8.05    1.03
   4   5  -7    7.32    1.17
  -3  -5   7    7.32    1.11
  -3   5   7    5.28    0.81
   3   5  -7    5.99    1.06
  -2  -5   7    3.32    0.95
   2   5  -7    3.80    0.90
  -1  -5   7   22.67    1.76
   1   5  -7   22.12    1.45
  -1   5   7   21.28    1.52
   0  -5   7   -0.29    1.02
   0   5  -7    0.58    0.73
   0   5   7    0.14    0.95
   1  -5   7    0.18    1.28
  -1   5  -7    1.29    0.72
   1   5   7    0.54    1.03
   2  -5   7    7.46    1.56
  -2   5  -7    4.28    0.81
   2   5   7    6.23    1.32
   3   5   7    7.12    1.50
   4   5   7    3.75    1.57
   5   5   7    5.89    1.78
   6   5   7    0.35    1.94
  -7  -6   7    0.81    1.82
   7   6  -7    2.78    1.68
  -6  -6   7   10.19    1.71
   6   6  -7    9.74    1.72
  -5  -6   7    2.12    1.34
   5   6  -7    1.00    1.28
  -4  -6   7    5.95    1.29
   4   6  -7    6.32    1.34
  -3  -6   7   11.92    1.41
   3   6  -7   12.44    1.37
  -2  -6   7   66.90    2.95
   2   6  -7   68.45    2.89
  -1  -6   7    2.91    1.10
  -1   6   7    0.69    1.09
   1   6  -7    0.59    0.86
   0  -6   7    7.90    1.42
   0   6  -7    8.57    1.07
   0   6   7    9.42    1.39
   1  -6   7    4.78    1.57
   1   6   7    4.74    1.36
  -1   6  -7    5.66    0.94
   2  -6   7   10.48    1.93
  -2   6  -7   10.12    1.06
   2   6   7    8.24    1.58
   3   6   7    1.71    1.55
   4   6   7   -3.16    1.54
   5   6   7    5.02    2.07
   5   7  -7    4.56    1.49
   4   7  -7    1.07    1.29
   3   7  -7    2.64    1.23
  -2  -7   7    3.60    1.82
   2   7  -7    1.22    1.11
  -1  -7   7    8.00    1.32
   1   7  -7   13.14    1.38
  -1   7   7   10.23    1.49
   0  -7   7   -0.75    1.18
   0   7  -7   -0.24    0.98
   0   7   7    0.39    1.34
   1  -7   7    1.61    1.46
   1   7   7    2.24    1.41
  -1   7  -7    1.46    0.95
   2  -7   7    0.75    1.76
   2   7   7    1.89    1.52
   3  -7   7    2.53    1.98
   3   7   7    2.86    1.61
   4   7   7    3.94    1.86
   4   8  -7    2.06    1.45
   3   8  -7    3.54    1.40
   2   8  -7    4.69    1.33
   1   8  -7    0.27    1.15
   0   8  -7   27.62    2.04
   0   8   7   29.48    2.32
   1   8   7   -0.92    1.49
   2   8   7    0.98    1.70
  -9   0   8    4.40    1.85
  -8   0   8   10.74    1.87
  -7   0   8    5.23    1.48
   7   0  -8    3.22    0.97
  -6   0   8   14.89    1.61
   6   0  -8   17.43    1.22
   5   0  -8   35.32    1.67
  -5   0   8   34.33    2.11
   4   0  -8  190.82    6.49
  -4   0   8  199.26    6.75
  -3   0   8    6.27    0.95
  -2   0   8   43.65    2.03
  -1   0   8   13.16    1.20
   0   0   8   14.43    1.33
   1   0   8   11.53    1.73
   1   0   8    9.98    1.17
   2   0   8    5.71    1.58
   3   0   8    6.55    1.66
   4   0   8   16.58    2.06
   5   0   8    6.26    2.04
   6   0   8    6.87    2.18
   7   0   8    2.01    2.15
  -9  -1   8   12.68    2.14
  -9   1   8   15.99    2.09
  -8  -1   8    0.10    1.60
  -8   1   8    1.41    1.58
   8   1  -8    1.73    1.16
  -7  -1   8    3.52    1.45
   7   1  -8    2.48    1.07
  -7   1   8    3.41    1.45
  -6  -1   8    9.31    1.47
  -6   1   8    6.08    1.33
   6   1  -8   11.82    1.15
  -5  -1   8    6.92    1.14
   5   1  -8    6.66    0.95
  -5   1   8    7.77    1.17
  -4  -1   8    4.87    0.93
  -4   1   8    6.01    0.97
   4   1  -8    5.32    0.80
  -3  -1   8   54.96    2.42
  -3   1   8   54.69    2.35
   3   1  -8   56.10    2.19
  -2  -1   8    1.36    0.77
  -2   1   8    0.63    0.70
  -1  -1   8    1.33    0.93
  -1   1   8    1.22    0.83
   0  -1   8    8.99    1.19
   0   1   8   10.65    1.59
   0   1   8    9.79    1.20
   1  -1   8   36.55    2.06
   1   1   8   35.98    2.37
   1   1   8   32.85    1.97
   2   1   8    7.16    1.39
   3  -1   8   24.11    2.20
   3   1   8   19.98    1.84
   4  -1   8   -0.03    1.76
   4   1   8    2.35    1.48
   5  -1   8   10.59    2.19
   5   1   8    9.36    1.90
   6  -1   8    5.33    2.22
   6   1   8    3.16    1.91
   7   1   8   -1.63    1.88
  -9  -2   8    1.49    1.78
  -9   2   8    1.48    1.67
  -8  -2   8   -1.89    1.54
   8   2  -8    0.16    1.27
  -8   2   8    2.47    1.55
  -7  -2   8   25.13    2.15
   7   2  -8   23.44    1.83
  -7   2   8   22.75    2.04
  -6  -2   8   18.20    1.76
   6   2  -8   17.26    1.49
  -6   2   8   14.30    1.64
  -5  -2   8    2.08    1.08
   5   2  -8    3.56    0.97
  -5   2   8    4.33    1.04
  -4  -2   8   22.94    1.64
  -4   2   8   20.05    1.51
   4   2  -8   21.24    1.46
  -3  -2   8    2.32    0.86
  -3   2   8    3.62    0.75
   3   2  -8    2.31    0.73
  -2  -2   8  279.27    9.19
  -2   2   8  268.62    9.02
  -1  -2   8   10.25    1.26
  -1   2   8    9.25    0.85
  -1   2   8    9.76    1.41
   0  -2   8    0.84    1.01
   0   2   8    0.66    0.83
   0   2   8   -0.20    1.05
   1  -2   8   43.82    2.39
   1   2   8   47.52    2.41
   1   2   8   45.94    2.29
   2   2   8    5.59    1.20
   3   2   8    3.56    1.27
   4   2   8    3.09    1.46
   5   2   8   -1.13    1.56
   6   2   8    2.42    1.80
   7   2   8    6.78    2.09
  -8  -3   8    1.98    1.63
   8   3  -8    2.48    1.44
  -8   3   8    0.76    1.47
  -7  -3   8    1.92    1.52
  -7   3   8    0.87    1.29
   7   3  -8    0.70    1.28
  -6  -3   8    9.62    1.59
  -6   3   8   10.03    1.42
   6   3  -8    7.99    1.38
  -5  -3   8    7.94    1.33
  -5   3   8    7.63    1.19
   5   3  -8    7.29    1.21
  -4  -3   8    3.83    1.01
  -4   3   8    2.58    0.83
   4   3  -8    3.53    0.91
  -3  -3   8   29.90    1.80
   3   3  -8   26.82    1.55
  -3   3   8   26.55    1.49
  -2  -3   8    0.17    0.77
   2   3  -8    0.64    0.67
  -2   3   8    1.20    0.56
  -2   3   8    0.05    1.03
  -1  -3   8    0.06    0.89
  -1   3   8   -0.24    0.49
  -1   3   8    0.97    1.03
   0  -3   8    6.49    1.13
   0   3   8    5.88    1.09
   0   3   8    5.00    0.73
   1  -3   8   22.06    1.73
   1   3   8   20.95    1.58
   1   3   8   20.90    1.40
   2   3   8    5.64    1.21
   3   3   8   15.38    1.62
   4   3   8    0.92    1.43
   5   3   8    7.40    1.83
   6   3   8    3.69    1.89
   7   3   8   -1.89    1.92
  -8  -4   8    8.65    1.90
   8   4  -8   10.37    1.82
  -8   4   8    9.70    1.78
  -7  -4   8    3.19    1.53
   7   4  -8    1.92    1.42
  -7   4   8    0.43    1.30
  -6  -4   8    9.04    1.58
   6   4  -8    6.41    1.43
  -6   4   8    6.70    1.36
  -5  -4   8   17.29    1.66
   5   4  -8   18.45    1.60
  -5   4   8   17.20    1.51
  -4  -4   8   98.77    3.89
   4   4  -8   90.93    3.70
  -4   4   8   99.09    3.70
  -3  -4   8    3.60    0.97
  -3   4   8    2.28    0.69
   3   4  -8    2.25    0.86
  -2  -4   8   17.54    1.37
   2   4  -8   16.26    1.18
  -2   4   8   13.67    1.04
  -1  -4   8    4.30    1.08
  -1   4   8    7.88    1.13
  -1   4   8    5.50    0.54
   1   4  -8    7.14    0.86
   0  -4   8   10.53    1.35
   0   4   8    9.66    1.25
   1  -4   8    7.36    1.39
   1   4   8    6.39    0.77
   1   4   8    6.45    1.23
   2   4   8    2.76    1.17
   3   4   8    6.59    1.48
   4   4   8   11.28    1.77
   5   4   8    5.38    1.79
   6   4   8   -1.41    1.85
  -7  -5   8   -2.64    1.45
   7   5  -8    3.74    1.60
  -7   5   8    0.47    1.36
  -6  -5   8    3.03    1.46
  -6   5   8    3.17    1.24
   6   5  -8    2.31    1.45
  -5  -5   8    4.16    1.35
   5   5  -8    3.33    1.27
  -5   5   8    3.02    1.07
  -4  -5   8    1.14    1.11
  -4   5   8    2.23    0.92
   4   5  -8    2.81    1.13
  -3  -5   8   18.82    1.58
  -3   5   8   18.72    1.30
   3   5  -8   21.82    1.57
  -2  -5   8    1.52    0.97
   2   5  -8    0.37    0.83
  -1  -5   8   -0.30    0.99
  -1   5   8    1.40    1.04
   1   5  -8    0.73    0.81
   0  -5   8    4.54    1.28
   0   5  -8    4.40    0.86
   0   5   8    5.09    1.22
   1  -5   8   10.61    1.70
   1   5   8    9.94    1.45
  -1   5  -8   10.72    1.00
   2  -5   8    2.79    1.57
   2   5   8    3.23    1.39
   3   5   8   10.99    1.74
   4   5   8    2.58    1.63
   5   5   8    7.58    1.92
   6   5   8    0.90    2.13
  -6  -6   8    7.79    1.61
   6   6  -8    5.20    1.56
  -5  -6   8    1.83    1.32
   5   6  -8    0.41    1.31
  -4  -6   8    7.33    1.36
   4   6  -8    8.03    1.35
  -3  -6   8    0.87    1.10
   3   6  -8    1.36    1.09
  -2  -6   8   57.69    2.80
   2   6  -8   61.84    2.66
  -1  -6   8    1.93    1.15
   1   6  -8    2.98    0.97
  -1   6   8    2.72    1.24
   0  -6   8   -0.93    1.23
   0   6   8   -0.27    1.22
   0   6  -8    0.23    0.86
   1  -6   8   13.14    1.87
   1   6   8   12.85    1.70
  -1   6  -8   11.61    1.16
   2  -6   8    1.10    1.67
   2   6   8    1.34    1.49
  -2   6  -8    2.95    0.92
   3  -6   8   -1.88    1.68
   3   6   8    1.61    1.56
   4   6   8    2.39    1.77
   5   6   8   -1.46    2.01
   5   7  -8    2.30    1.49
   4   7  -8    0.08    1.27
  -3  -7   8    3.29    2.29
   3   7  -8    5.47    1.31
  -2  -7   8    2.79    1.19
   2   7  -8   -0.37    1.11
  -1  -7   8    1.16    1.21
   1   7  -8    0.68    1.07
  -1   7   8    0.24    1.31
   0  -7   8    1.18    1.34
   0   7   8    3.77    1.49
   0   7  -8    1.11    0.98
   1  -7   8    6.46    1.68
  -1   7  -8    3.55    1.07
   1   7   8    3.97    1.51
   2  -7   8    5.60    1.91
   2   7   8    2.68    1.66
   3  -7   8    6.37    2.14
   3   7   8    5.54    1.83
   4  -7   8   -0.29    2.08
   4   7   8   -0.25    1.80
   4   8  -8   18.89    1.93
   3   8  -8    1.63    1.34
   2   8  -8    1.66    1.29
   1   8  -8    4.05    1.26
   0   8   8    5.55    1.90
   0   8  -8    4.91    1.31
   1   8   8    3.44    1.69
   2   8   8    4.46    1.79
  -9   0   9    8.79    1.98
  -8   0   9    8.87    1.90
  -7   0   9    0.25    1.43
   7   0  -9    0.75    0.95
   6   0  -9    3.54    0.93
  -6   0   9    6.25    1.40
  -5   0   9    1.25    1.03
   5   0  -9    1.81    0.78
   4   0  -9  165.35    5.60
  -4   0   9  166.57    5.88
  -3   0   9   18.46    1.38
  -2   0   9    1.11    0.82
  -1   0   9   26.32    1.97
   0   0   9    6.97    1.18
   1   0   9    5.70    1.16
   1   0   9    7.94    1.68
   2   0   9   30.51    2.38
   3   0   9    0.14    1.65
   4   0   9    2.13    1.87
   5   0   9   18.51    2.47
   6   0   9    5.31    2.22
   7   0   9    3.90    2.38
  -9  -1   9    1.53    1.78
  -9   1   9    2.25    1.82
  -8  -1   9    3.77    1.69
  -8   1   9    2.14    1.61
   8   1  -9    3.78    1.22
  -7  -1   9    6.98    1.66
  -7   1   9    7.64    1.61
   7   1  -9    6.57    1.23
  -6  -1   9    0.55    1.26
   6   1  -9   -0.69    0.93
  -6   1   9    2.16    1.26
  -5  -1   9   10.55    1.29
   5   1  -9   11.53    1.14
  -5   1   9   12.71    1.34
  -4  -1   9    0.92    0.88
  -4   1   9    1.72    0.89
   4   1  -9    2.56    0.79
  -3  -1   9    2.40    0.85
  -3   1   9    0.62    0.79
  -2  -1   9    8.10    1.06
  -2   1   9    9.77    1.01
  -1  -1   9   39.03    2.26
  -1   1   9   40.63    2.06
   0  -1   9    5.64    1.15
   0   1   9    7.23    1.52
   0   1   9    6.85    1.18
   1  -1   9   11.02    1.29
   1   1   9    7.72    1.59
   1   1   9    8.72    1.27
   2   1   9    1.00    1.40
   3  -1   9   14.82    2.10
   3   1   9   12.28    1.77
   4  -1   9    5.73    2.08
   4   1   9    7.92    1.84
   5  -1   9    3.34    2.22
   5   1   9    0.91    1.92
   6  -1   9    1.46    2.26
   6   1   9    1.00    2.04
   7   1   9   -0.94    2.11
  -9  -2   9   -0.70    1.68
  -9   2   9   -0.35    1.62
  -8  -2   9    3.93    1.70
   8   2  -9    8.38    1.48
  -8   2   9    3.84    1.66
  -7  -2   9   14.09    1.91
   7   2  -9   13.77    1.55
  -7   2   9   13.28    1.77
  -6  -2   9   59.35    3.16
  -6   2   9   63.55    3.13
   6   2  -9   56.06    2.74
  -5  -2   9    2.14    1.10
   5   2  -9    2.85    0.99
  -5   2   9    3.60    1.10
  -4  -2   9   12.15    1.30
  -4   2   9   13.68    1.23
   4   2  -9   13.56    1.15
  -3  -2   9    2.74    0.93
   3   2  -9    2.20    0.76
  -3   2   9    3.59    0.79
  -2  -2   9   12.26    1.20
  -2   2   9   11.78    1.00
  -1  -2   9   26.76    1.95
  -1   2   9   27.33    1.60
  -1   2   9   26.49    2.00
   0  -2   9    5.66    1.14
   0   2   9   10.44    1.17
   0   2   9    7.16    1.47
   1  -2   9    6.65    1.27
   1   2   9    6.93    1.16
   1   2   9    7.93    1.35
   2   2   9    5.94    1.35
   3   2   9    5.84    1.52
   4   2   9   10.35    1.79
   5   2   9    3.02    1.82
   6   2   9    8.14    2.07
   7   2   9    0.64    2.10
  -8  -3   9    1.73    1.75
   8   3  -9    0.47    1.46
  -8   3   9   -0.54    1.48
  -7  -3   9    3.52    1.64
  -7   3   9    2.29    1.43
   7   3  -9    2.55    1.41
  -6  -3   9    3.98    1.45
  -6   3   9   -1.13    1.19
   6   3  -9    2.88    1.23
  -5  -3   9   14.05    1.50
  -5   3   9   15.65    1.42
   5   3  -9   14.69    1.44
  -4  -3   9    0.42    0.97
   4   3  -9    0.22    0.88
  -4   3   9   -0.12    0.82
  -3  -3   9    2.09    0.93
   3   3  -9    0.87    0.79
  -3   3   9    0.02    0.67
  -2  -3   9    4.78    0.98
  -2   3   9    5.01    0.70
  -2   3   9    7.60    1.28
   2   3  -9    5.03    0.82
  -1  -3   9   24.39    1.74
  -1   3   9   22.22    1.30
  -1   3   9   22.23    1.71
   0  -3   9    5.29    1.18
   0   3   9    5.08    1.22
   0   3   9    5.87    0.84
   1  -3   9   12.04    1.48
   1   3   9   12.26    1.21
   1   3   9   11.98    1.43
   2   3   9    1.94    1.22
   3   3   9    8.08    1.57
   4   3   9    0.43    1.56
   5   3   9    1.46    1.76
   6   3   9    3.16    1.98
  -8  -4   9    1.86    1.72
   8   4  -9    6.55    1.75
  -8   4   9    6.79    1.69
  -7  -4   9    2.24    1.60
   7   4  -9    1.76    1.52
  -7   4   9    2.42    1.36
  -6  -4   9    4.48    1.46
   6   4  -9    6.34    1.43
  -6   4   9    4.48    1.34
  -5  -4   9    0.87    1.20
   5   4  -9   -1.01    1.13
  -5   4   9   -0.28    1.03
  -4  -4   9   85.23    3.57
   4   4  -9   75.16    3.27
  -4   4   9   83.37    3.26
  -3  -4   9    6.17    1.19
  -3   4   9    6.87    0.87
   3   4  -9    6.81    1.07
  -2  -4   9   -0.01    0.91
   2   4  -9   -0.45    0.77
  -2   4   9   -0.67    0.55
  -2   4   9   -0.27    1.09
  -1  -4   9   13.81    1.42
  -1   4   9   13.37    0.94
  -1   4   9   15.23    1.46
   1   4  -9   16.05    1.16
   0  -4   9    3.72    1.22
   0   4   9    3.93    0.58
   0   4   9    5.16    1.20
   1  -4   9    2.36    1.38
   1   4   9    1.59    1.17
   1   4   9    2.79    0.79
   2  -4   9    9.70    1.61
   2   4   9    9.21    1.51
   2   4   9    7.64    1.12
   3   4   9   -0.59    1.46
   4   4   9    0.28    1.60
   5   4   9   10.33    2.06
   6   4   9    2.88    2.07
  -7  -5   9    6.59    1.74
   7   5  -9    5.50    1.63
  -7   5   9    4.15    1.47
  -6  -5   9    2.36    1.48
   6   5  -9   -0.50    1.38
  -6   5   9    1.18    1.18
  -5  -5   9    4.76    1.37
   5   5  -9    5.16    1.31
  -5   5   9    4.29    1.11
  -4  -5   9    0.71    1.17
   4   5  -9   -0.73    1.09
  -4   5   9    0.32    0.97
  -3  -5   9    1.93    1.15
   3   5  -9    1.71    0.97
  -2  -5   9    1.70    1.10
   2   5  -9    2.75    0.97
  -1  -5   9   10.04    1.40
  -1   5   9   12.11    1.47
   1   5  -9   10.35    1.12
   0  -5   9    5.27    1.34
   0   5   9    5.35    1.30
   0   5  -9    4.73    0.92
   1  -5   9   12.43    1.75
   1   5   9   10.36    1.63
  -1   5  -9    9.90    1.03
   2  -5   9    1.63    1.62
   2   5   9   -1.02    1.39
   3   5   9    8.26    1.79
   4   5   9    1.40    1.77
   5   5   9   -2.91    1.79
  -6  -6   9   24.22    2.23
   6   6  -9   24.98    2.27
  -5  -6   9    1.03    1.36
   5   6  -9    2.50    1.35
  -4  -6   9    4.22    1.32
   4   6  -9    4.10    1.29
  -3  -6   9    3.45    1.29
   3   6  -9    1.44    1.15
  -2  -6   9    6.25    1.31
   2   6  -9    8.56    1.19
  -1  -6   9    4.66    1.31
  -1   6   9    8.41    1.55
   1   6  -9    4.72    1.08
   0  -6   9   -0.38    1.34
   0   6  -9    0.74    0.93
   0   6   9    3.41    1.41
   1  -6   9    2.43    1.61
   1   6   9    3.85    1.52
  -1   6  -9    2.31    0.96
   2  -6   9    8.61    1.95
   2   6   9    7.51    1.77
  -2   6  -9    5.51    1.02
   3  -6   9    1.30    1.89
   3   6   9   -0.38    1.66
   4   6   9    0.66    1.90
   5   6   9    2.38    2.25
   5   7  -9    5.65    1.61
   4   7  -9    0.77    1.31
  -3  -7   9    2.23    1.28
   3   7  -9    0.28    1.19
  -2  -7   9    3.11    1.25
   2   7  -9    1.24    1.17
  -1  -7   9    4.54    1.37
  -1   7   9    2.56    1.54
   1   7  -9    1.48    1.04
   0  -7   9    0.95    1.42
   0   7   9    3.16    1.53
   0   7  -9    0.19    1.04
   1  -7   9    5.95    1.72
   1   7   9    6.82    1.79
  -1   7  -9    7.65    1.21
   2  -7   9    3.01    1.90
   2   7   9   -0.87    1.70
   3  -7   9    5.71    2.14
   3   7   9    3.65    1.90
   3   8  -9    1.84    1.37
   2   8  -9    0.96    1.27
   1   8  -9    3.96    1.33
   0   8  -9    4.99    1.30
   1   8   9    1.18    1.85
  -9   0  10    3.74    1.89
  -8   0  10   20.05    2.22
  -7   0  10    4.50    1.61
   7   0 -10   -0.45    0.95
  -6   0  10    5.18    1.45
   6   0 -10    3.21    0.95
  -5   0  10    2.86    1.10
   5   0 -10    1.63    0.84
  -4   0  10   13.46    1.33
  -3   0  10   41.58    2.16
  -2   0  10    6.10    1.04
  -1   0  10   13.58    1.43
   0   0  10    5.63    1.16
   1   0  10    6.11    1.25
   2   0  10    8.67    1.91
   3   0  10    2.87    1.99
   4   0  10   13.80    2.35
   5   0  10    5.80    2.31
   6   0  10    4.10    2.37
   7   0  10   -0.17    2.49
  -9  -1  10    3.22    1.91
  -9   1  10    3.85    1.87
  -8  -1  10    0.05    1.62
   8   1 -10    0.17    1.16
  -8   1  10    1.77    1.69
  -7  -1  10    5.83    1.69
   7   1 -10    1.31    1.12
  -7   1  10    3.47    1.55
  -6  -1  10    1.18    1.36
   6   1 -10    1.05    1.00
  -6   1  10    0.74    1.34
   5  -1 -10    2.46    0.75
  -5  -1  10    0.89    1.07
  -5   1  10    1.42    1.14
   5   1 -10    2.11    0.93
  -4  -1  10    8.71    1.20
   4   1 -10    7.41    0.97
  -4   1  10    8.13    1.16
  -3  -1  10   21.12    1.75
  -3   1  10   24.38    1.74
  -2  -1  10    7.59    1.09
  -2   1  10    7.96    1.03
  -1  -1  10   12.63    1.41
  -1   1  10   11.55    1.25
   0  -1  10   -0.48    0.94
   0   1  10    0.76    1.04
   0   1  10    1.88    1.49
   1  -1  10   15.14    1.57
   1   1  10   18.85    1.56
   1   1  10   14.86    1.87
   2   1  10    3.61    1.68
   3   1  10   -0.31    1.72
   4  -1  10    5.16    2.16
   4   1  10    2.06    1.91
   5  -1  10   -0.24    2.23
   5   1  10   -0.28    2.02
   6  -1  10   -1.53    2.29
   6   1  10   -2.48    2.06
   7   1  10   -0.58    2.35
  -8  -2  10   -0.19    1.69
  -8   2  10   -0.42    1.53
   8   2 -10    1.00    1.30
  -7  -2  10   -0.89    1.50
   7   2 -10    0.23    1.25
  -7   2  10    2.08    1.48
  -6  -2  10   47.74    2.88
   6   2 -10   47.76    2.54
  -6   2  10   54.90    2.94
  -5  -2  10    6.92    1.30
  -5   2  10    9.75    1.34
   5   2 -10   10.54    1.24
  -4  -2  10    1.68    1.04
   4   2 -10    1.44    0.90
  -4   2  10    1.24    0.89
  -3  -2  10    9.42    1.22
   3   2 -10   10.37    1.05
  -3   2  10   10.07    1.06
  -2  -2  10    4.96    1.05
  -2   2  10    8.06    0.93
  -1  -2  10    3.26    1.09
  -1   2  10    2.17    1.39
  -1   2  10    3.03    0.90
   0  -2  10   28.60    2.01
   0   2  10   27.89    2.10
   0   2  10   26.37    1.93
   1  -2  10    0.83    1.14
   1   2  10    2.63    1.09
   1   2  10    1.93    1.37
   2   2  10    1.29    1.42
   3   2  10   24.14    2.18
   4   2  10   12.90    2.05
   5   2  10    3.00    1.92
   6   2  10    7.92    2.25
  -8  -3  10    0.50    1.72
   8   3 -10    0.07    1.38
  -8   3  10    1.26    1.61
  -7  -3  10    2.85    1.58
  -7   3  10    4.91    1.51
   7   3 -10    1.79    1.39
  -6  -3  10    2.02    1.38
  -6   3  10    2.15    1.28
   6   3 -10    0.60    1.28
  -5  -3  10    3.42    1.24
  -5   3  10    1.36    1.09
   5   3 -10    2.67    1.13
  -4  -3  10    3.37    1.17
  -4   3  10    4.78    1.01
   4   3 -10    5.58    1.10
  -3  -3  10   13.38    1.38
   3   3 -10   15.83    1.29
  -3   3  10   14.31    1.13
  -2  -3  10    5.15    1.08
  -2   3  10    5.92    0.79
   2   3 -10    4.96    0.88
  -1  -3  10    8.76    1.36
  -1   3  10   11.93    0.97
  -1   3  10   11.06    1.49
   0  -3  10    2.20    1.11
   0   3  10   -1.52    1.16
   0   3  10    0.15    0.80
   1  -3  10   11.63    1.58
   1   3  10    8.95    1.53
   1   3  10   11.81    1.27
   2  -3  10    2.47    1.27
   2   3  10    4.26    1.43
   2   3  10    0.63    1.07
   3   3  10   -0.20    1.49
   4   3  10    2.27    1.74
   5   3  10    3.23    1.94
   6   3  10   -2.42    2.06
  -8  -4  10   11.40    2.02
  -8   4  10   15.13    1.95
   8   4 -10   13.80    1.87
  -7  -4  10   -0.86    1.55
   7   4 -10    1.21    1.46
  -7   4  10    1.85    1.42
  -6  -4  10    2.02    1.39
  -6   4  10    0.42    1.25
   6   4 -10    4.28    1.38
  -5  -4  10    1.28    1.29
   5   4 -10    2.13    1.28
  -5   4  10    2.88    1.22
  -4  -4  10    9.15    1.38
   4   4 -10    8.45    1.26
  -4   4  10    8.72    1.12
  -3  -4  10   17.44    1.57
  -3   4  10   16.22    1.24
   3   4 -10   16.60    1.38
  -2  -4  10    2.56    1.09
   2   4 -10    0.84    0.86
  -2   4  10    1.27    0.64
  -2   4  10    0.51    1.26
  -1  -4  10    3.49    1.22
  -1   4  10    2.57    1.27
   1   4 -10    5.25    0.92
  -1   4  10    5.16    0.66
   0  -4  10    3.09    1.28
   0   4  10    5.92    1.39
   0   4  10    4.87    0.71
   1  -4  10    1.57    1.38
   1   4  10    1.21    1.31
   1   4  10    2.67    0.90
   2  -4  10    3.91    1.59
   2   4  10    4.32    1.58
   2   4  10    6.42    1.20
   3   4  10    5.68    1.72
   4   4  10    7.90    1.95
   5   4  10    5.46    2.06
   6   4  10    1.00    2.18
  -7  -5  10    5.08    1.73
   7   5 -10   10.41    1.88
  -6  -5  10    0.22    1.42
  -6   5  10    0.50    1.53
   6   5 -10   -2.27    1.37
  -5  -5  10   -0.29    1.32
   5   5 -10   -1.47    1.25
  -4  -5  10    2.85    1.30
   4   5 -10    3.32    1.16
  -3  -5  10    6.67    1.42
   3   5 -10    8.47    1.23
  -2  -5  10    2.30    1.19
  -2   5  10    5.12    1.35
   2   5 -10    3.57    1.01
  -1  -5  10   10.54    1.50
   1   5 -10    8.04    1.10
  -1   5  10    8.88    1.52
   0  -5  10   -1.36    1.26
   0   5  10    2.09    1.42
   0   5 -10   -0.03    0.81
   1  -5  10    4.62    1.61
   1   5  10    5.16    1.58
   2  -5  10    0.60    1.67
   2   5  10    2.15    1.58
   3  -5  10    0.36    1.66
   3   5  10   -2.82    1.64
   4   5  10    4.83    1.97
   5   5  10    1.39    2.07
  -6  -6  10   18.96    2.10
   6   6 -10   22.31    2.14
  -5  -6  10    1.82    1.43
   5   6 -10    3.95    1.40
  -4  -6  10   -0.95    1.27
   4   6 -10    2.46    1.26
  -3  -6  10    4.73    1.39
   3   6 -10    6.04    1.21
  -2  -6  10    2.93    1.31
   2   6 -10    3.16    1.08
  -1  -6  10   -0.13    1.26
  -1   6  10    1.75    1.41
   1   6 -10    0.79    0.99
   0  -6  10    3.55    1.49
   0   6  10    1.69    1.52
   0   6 -10    2.99    1.00
   1  -6  10    2.49    1.66
   1   6  10    0.06    1.58
  -1   6 -10   -0.12    0.95
   2  -6  10    0.50    1.80
   2   6  10   -0.08    1.64
  -2   6 -10   -1.47    0.86
   3  -6  10    7.38    2.19
   3   6  10    7.52    2.03
   4  -6  10    1.19    2.02
   4   6  10    4.92    2.28
   5   7 -10   -0.70    1.46
  -4  -7  10    1.65    1.48
   4   7 -10    0.89    1.33
  -3  -7  10    3.10    1.40
   3   7 -10    0.86    1.30
  -2  -7  10    2.54    1.32
   2   7 -10    3.12    1.25
  -1  -7  10    8.77    1.61
  -1   7  10    6.36    2.49
   1   7 -10    7.24    1.23
   0  -7  10    0.98    1.50
   0   7  10    0.88    1.67
   0   7 -10    0.43    1.05
   1  -7  10    6.79    1.76
   1   7  10    4.39    1.80
  -1   7 -10    3.22    1.10
   2  -7  10    2.59    1.97
   2   7  10   -0.05    1.82
   3  -7  10   -1.47    2.04
   3   7  10   -3.58    1.79
   3   8 -10    2.80    1.42
   2   8 -10    0.14    1.28
   1   8 -10    1.46    1.32
   0   8 -10    5.23    1.38
   1   8  10    0.70    2.01
  -8   0  11   20.36    2.33
   7   0 -11    3.27    1.11
  -7   0  11    3.63    1.73
  -6   0  11    3.17    1.48
   6   0 -11    0.45    0.94
   5   0 -11    6.07    1.00
  -5   0  11    5.92    1.29
  -4   0  11    9.34    1.30
  -3   0  11    3.01    1.04
  -2   0  11   29.36    1.98
  -1   0  11    6.16    1.26
   0   0  11    1.73    1.07
   1   0  11   22.42    1.82
   2   0  11   18.27    2.31
   3   0  11   17.70    2.47
   4   0  11   29.79    2.98
   5   0  11   -2.99    2.24
   6   0  11    6.17    2.48
  -8  -1  11   -0.25    1.71
  -8   1  11   -1.46    1.62
   8   1 -11    0.78    1.43
  -7  -1  11    0.55    1.61
  -7   1  11   -0.76    1.52
   7   1 -11   -0.51    1.10
  -6  -1  11    1.48    1.32
  -6   1  11    3.26    1.46
   6   1 -11    1.36    1.09
   5  -1 -11   10.01    1.00
  -5  -1  11    8.34    1.39
   5   1 -11   10.12    1.21
  -5   1  11   11.55    1.46
  -4  -1  11    7.18    1.25
   4   1 -11    9.47    1.07
  -4   1  11    8.27    1.18
  -3  -1  11   18.89    1.59
  -3   1  11   20.80    1.67
  -2  -1  11    1.99    0.98
  -2   1  11    0.63    0.91
  -1  -1  11   17.17    1.61
  -1   1  11   18.85    1.55
   0  -1  11    0.82    1.05
   0   1  11    2.05    1.11
   1  -1  11    5.85    1.29
   1   1  11    2.84    1.27
   1   1  11    3.64    1.70
   2   1  11   11.43    1.98
   3   1  11    5.33    2.01
   4   1  11    7.13    2.25
   5  -1  11   -0.34    2.39
   5   1  11    3.87    2.24
   6  -1  11    0.37    2.48
   6   1  11    3.38    2.36
  -8  -2  11    3.40    1.81
   8   2 -11   -0.24    1.36
  -8   2  11    0.25    1.61
  -7  -2  11    1.99    1.61
   7   2 -11    0.29    1.28
  -7   2  11    1.29    1.52
  -6  -2  11   11.14    1.65
   6   2 -11   10.83    1.41
  -6   2  11    9.14    1.62
  -5  -2  11   19.62    1.78
  -5   2  11   19.73    1.75
   5   2 -11   22.80    1.64
  -4  -2  11    0.07    1.06
  -4   2  11   -1.00    0.92
   4   2 -11    1.06    0.96
  -3  -2  11    7.10    1.19
  -3   2  11    7.41    1.04
  -2  -2  11    7.51    1.19
  -2   2  11    6.82    1.05
  -1  -2  11    0.72    1.04
  -1   2  11    0.66    0.94
   0  -2  11    7.88    1.27
   0   2  11    7.41    1.26
   0   2  11    5.81    1.63
   1  -2  11   12.20    1.58
   1   2  11   14.99    1.90
   1   2  11   17.04    1.55
   2  -2  11   26.27    2.22
   2   2  11   27.06    2.21
   2   2  11   25.38    2.30
   3   2  11    7.85    1.95
   4   2  11    7.09    2.07
   5   2  11   -2.77    2.01
   6   2  11    4.90    2.28
  -8  -3  11    2.11    1.84
   8   3 -11    0.05    1.58
  -8   3  11   -0.61    1.54
  -7  -3  11   -0.31    1.54
   7   3 -11    0.88    1.33
  -7   3  11   -1.17    1.45
  -6  -3  11    1.24    1.42
  -6   3  11    0.64    1.29
   6   3 -11   -0.22    1.32
  -5  -3  11    7.86    1.48
  -5   3  11    7.86    1.38
   5   3 -11    9.94    1.41
  -4  -3  11    4.97    1.28
  -4   3  11    5.26    1.10
   4   3 -11    5.71    1.16
  -3  -3  11   12.59    1.46
  -3   3  11   15.61    1.22
   3   3 -11   12.25    1.27
  -2  -3  11    0.26    0.98
  -2   3  11    0.88    0.80
  -1  -3  11   14.85    1.57
  -1   3  11   11.95    1.72
  -1   3  11   13.53    1.14
   0  -3  11    1.76    1.14
   0   3  11    2.68    0.96
   0   3  11    3.37    1.42
   1  -3  11    0.05    1.28
   1   3  11    0.43    1.41
   1   3  11    0.79    1.08
   2  -3  11    8.03    1.56
   2   3  11    5.42    1.34
   2   3  11    4.97    1.66
   3   3  11    3.88    1.79
   4   3  11    4.99    1.93
   5   3  11    1.19    2.04
   6   3  11   -2.21    2.14
  -7  -4  11    1.30    1.63
   7   4 -11    0.18    1.42
  -7   4  11   -1.09    1.42
  -6  -4  11    0.26    1.42
   6   4 -11    1.62    1.39
  -6   4  11    1.68    1.29
  -5  -4  11    3.69    1.44
  -5   4  11    3.90    1.18
   5   4 -11    4.72    1.41
  -4  -4  11    7.47    1.45
   4   4 -11    6.98    1.31
  -4   4  11    6.43    1.13
  -3  -4  11    3.83    1.23
   3   4 -11    2.72    1.06
  -3   4  11    4.76    0.90
  -2  -4  11    7.70    1.35
  -2   4  11    5.36    1.62
  -2   4  11    6.97    0.87
   2   4 -11    6.01    1.04
  -1  -4  11    1.99    1.27
  -1   4  11    5.64    1.53
  -1   4  11    3.42    0.77
   0  -4  11   -0.70    1.24
   0   4  11    0.78    0.74
   0   4  11   -0.07    1.38
   1  -4  11   13.34    1.80
   1   4  11   11.64    1.26
   1   4  11    7.06    1.68
   2  -4  11   10.58    1.84
   2   4  11    7.61    1.79
   3   4  11    8.97    2.00
   4   4  11   19.65    2.46
   5   4  11   -1.70    2.05
  -7  -5  11    1.16    1.67
   7   5 -11    5.32    1.71
  -6  -5  11    3.02    1.48
   6   5 -11   -0.62    1.39
  -5  -5  11    4.54    1.48
   5   5 -11    6.15    1.44
  -4  -5  11    1.68    1.31
   4   5 -11    5.86    1.30
  -3  -5  11   12.69    1.61
   3   5 -11   12.63    1.43
  -2  -5  11   -0.07    1.21
  -2   5  11    1.75    1.48
   2   5 -11   -0.60    0.96
  -1  -5  11    5.81    1.43
   1   5 -11    5.86    1.09
  -1   5  11    3.85    1.58
   0  -5  11    1.66    1.40
   0   5  11    1.89    1.52
   0   5 -11    0.90    0.91
   1  -5  11    0.66    1.63
   1   5  11   -0.63    1.53
   2  -5  11    6.00    1.89
   2   5  11    3.56    1.76
   3  -5  11    2.23    1.88
   3   5  11    3.35    1.91
   4   5  11    0.44    2.05
   5   5  11   -3.29    2.28
  -6  -6  11    3.23    1.61
   6   6 -11    2.33    1.62
  -5  -6  11    4.12    1.56
   5   6 -11    6.02    1.54
  -4  -6  11   -1.23    1.37
   4   6 -11    0.11    1.31
  -3  -6  11    0.44    1.32
   3   6 -11    2.27    1.15
  -2  -6  11    5.69    1.45
   2   6 -11    4.75    1.18
  -1  -6  11    0.51    1.34
  -1   6  11    0.62    1.51
   1   6 -11   -0.24    0.97
   0  -6  11    2.73    1.57
   0   6  11    3.13    1.64
   0   6 -11    3.12    1.07
   1  -6  11    6.65    1.80
  -1   6 -11    6.98    1.14
   1   6  11    7.21    1.90
   2  -6  11    5.93    2.04
  -2   6 -11    5.26    1.10
   2   6  11    6.37    1.98
   3  -6  11    0.67    1.99
   3   6  11    2.37    2.07
   4  -6  11    5.04    2.20
   4   6  11    3.24    2.27
  -4  -7  11    2.99    1.55
   4   7 -11    2.97    1.44
  -3  -7  11    3.37    1.47
   3   7 -11    5.55    1.50
  -2  -7  11    0.18    1.33
   2   7 -11   -0.13    1.07
  -1  -7  11    4.79    1.58
   1   7 -11    2.42    1.15
   0  -7  11    0.15    1.52
   0   7  11    0.08    1.69
   0   7 -11    1.01    1.09
   1  -7  11    1.11    1.68
  -1   7 -11   -0.43    1.04
   1   7  11   -0.90    1.77
   2  -7  11    4.85    2.12
   2   7  11    2.67    2.03
   1   8 -11    0.49    1.35
  -8   0  12    2.01    1.85
   7   0 -12    7.99    1.21
  -7   0  12    7.75    1.90
  -6   0  12    0.63    1.47
   6   0 -12   -0.59    0.99
  -5   0  12    5.37    1.42
   5   0 -12    4.22    1.01
  -4   0  12   11.34    1.49
  -3   0  12   -0.10    1.05
  -2   0  12    9.02    1.31
  -1   0  12   37.27    2.38
   0   0  12   42.51    2.56
   1   0  12    9.35    1.54
   2   0  12   28.65    2.81
   2   0  12   34.56    2.51
   3   0  12    1.43    2.24
   4   0  12   15.03    2.70
   5   0  12    2.16    2.46
   6   0  12   -2.19    2.52
  -8  -1  12    3.42    1.90
  -8   1  12    0.21    1.75
  -7  -1  12    5.03    1.83
  -7   1  12    4.91    1.78
   7   1 -12    6.35    1.32
  -6  -1  12    3.28    1.53
  -6   1  12    6.17    1.63
   6   1 -12    3.82    1.25
   5  -1 -12   20.49    1.52
  -5  -1  12   20.18    1.90
   5   1 -12   23.38    1.63
  -5   1  12   24.60    1.96
  -4  -1  12    1.78    1.21
   4   1 -12    0.77    0.95
  -4   1  12    1.80    1.16
  -3  -1  12   15.73    1.55
  -3   1  12   15.20    1.46
  -2  -1  12    6.58    1.23
  -2   1  12    7.29    1.23
  -1  -1  12    7.09    1.32
  -1   1  12    3.16    1.20
   0  -1  12   10.59    1.41
   0   1  12    9.98    1.42
   1  -1  12   15.11    1.70
   1   1  12   16.33    1.67
   1   1  12   16.49    2.18
   2  -1  12    8.86    1.54
   2   1  12   10.46    1.55
   2   1  12    7.15    2.06
   3   1  12    3.30    2.21
   4   1  12   -2.43    2.23
   5   1  12   -0.49    2.28
   6   1  12    4.09    2.63
  -8  -2  12    0.33    1.82
  -8   2  12    4.53    1.90
   8   2 -12    3.83    1.43
  -7  -2  12    4.17    1.80
  -7   2  12    0.61    1.53
   7   2 -12    4.26    1.37
  -6  -2  12    9.34    1.67
   6   2 -12   12.83    1.54
  -6   2  12    9.72    1.72
  -5  -2  12    3.67    1.37
  -5   2  12    1.75    1.30
   5   2 -12    6.60    1.27
  -4  -2  12    4.03    1.26
   4   2 -12    3.84    1.11
  -4   2  12    3.53    1.14
  -3  -2  12    7.87    1.32
  -3   2  12   12.31    1.32
  -2  -2  12    0.78    1.06
  -2   2  12    0.25    0.90
  -1  -2  12    9.29    1.39
  -1   2  12    5.89    1.18
   0  -2  12   20.20    1.76
   0   2  12   18.42    2.14
   0   2  12   23.24    1.79
   1  -2  12   21.20    1.90
   1   2  12   19.84    2.23
   1   2  12   23.23    1.80
   2  -2  12   63.46    3.37
   2   2  12   67.87    3.37
   2   2  12   67.21    3.76
   3   2  12   -1.49    1.96
   4   2  12    4.39    2.19
   5   2  12    4.61    2.36
   6   2  12    3.18    2.41
  -8  -3  12    1.96    1.88
  -8   3  12    3.34    1.78
   8   3 -12    1.35    1.53
  -7  -3  12    2.82    1.71
   7   3 -12    3.88    1.49
  -7   3  12    2.31    1.56
  -6  -3  12    5.18    1.56
   6   3 -12    4.06    1.42
  -6   3  12    5.38    1.46
  -5  -3  12   18.97    1.89
  -5   3  12   21.20    1.81
   5   3 -12   21.19    1.83
  -4  -3  12    0.50    1.24
  -4   3  12   -1.15    1.01
   4   3 -12   -0.81    1.10
  -3  -3  12   10.05    1.46
  -3   3  12   10.87    1.20
   3   3 -12    8.63    1.25
  -2  -3  12    6.28    1.30
  -2   3  12    5.18    0.99
  -1  -3  12    2.17    1.25
  -1   3  12    1.25    1.56
  -1   3  12    1.97    0.92
   0  -3  12    8.34    1.40
   0   3  12    8.64    1.77
   0   3  12    8.88    1.27
   1  -3  12   11.49    1.68
   1   3  12   11.12    1.91
   1   3  12   12.51    1.47
   2  -3  12    5.38    1.62
   2   3  12    3.02    1.77
   2   3  12    4.19    1.40
   3   3  12    5.61    2.03
   4   3  12    1.41    2.04
   5   3  12   -2.56    2.15
  -7  -4  12    2.67    1.81
  -7   4  12    3.74    1.58
   7   4 -12    8.26    1.67
  -6  -4  12    0.67    1.46
  -6   4  12    0.53    1.30
   6   4 -12    2.27    1.45
  -5  -4  12   -0.33    1.34
   5   4 -12    1.74    1.37
  -5   4  12    1.84    1.13
  -4  -4  12    8.49    1.60
   4   4 -12   11.00    1.47
  -4   4  12   10.37    1.32
  -3  -4  12    0.00    1.22
   3   4 -12   -0.61    1.05
  -3   4  12    0.35    0.85
  -2  -4  12    4.58    1.35
  -2   4  12    3.07    0.87
   2   4 -12    4.96    1.06
  -2   4  12    4.93    1.67
  -1  -4  12   21.14    1.99
  -1   4  12   21.21    1.55
  -1   4  12   20.23    2.11
   0  -4  12   16.94    1.83
   0   4  12   18.30    2.04
   0   4  12   15.47    1.39
   1  -4  12    7.58    1.69
   1   4  12    4.74    1.73
   2  -4  12   13.60    2.00
   2   4  12   11.55    2.07
   3  -4  12    0.78    1.65
   3   4  12    1.45    1.90
   4   4  12   10.34    2.35
   5   4  12    0.06    2.25
   7   5 -12    5.18    1.75
  -6  -5  12    2.55    1.56
   6   5 -12    4.63    1.64
  -5  -5  12    7.53    1.63
  -4  -5  12   -0.75    1.33
   4   5 -12    1.48    1.23
  -3  -5  12    7.92    1.52
   3   5 -12    7.83    1.34
  -2  -5  12    2.20    1.36
   2   5 -12    2.26    1.10
  -2   5  12    1.52    1.64
  -1  -5  12   -2.72    1.30
   1   5 -12   -0.66    0.95
  -1   5  12    0.34    1.71
   0  -5  12    6.76    1.65
   0   5  12    5.05    1.72
   0   5 -12    5.58    1.08
   1  -5  12    7.51    1.85
   1   5  12    4.11    1.77
   2  -5  12    1.40    1.82
   2   5  12    2.14    1.82
   3  -5  12    4.57    1.95
   3   5  12    5.43    2.13
   4  -5  12    1.95    1.97
   4   5  12   -3.67    2.08
   6   6 -12    5.02    1.78
  -5  -6  12    3.04    1.56
   5   6 -12    3.72    1.58
  -4  -6  12   -0.61    1.38
   4   6 -12    0.59    1.30
  -3  -6  12    0.34    1.40
   3   6 -12    3.09    1.26
  -2  -6  12    0.43    1.36
   2   6 -12    1.12    1.14
  -1  -6  12    1.95    1.41
   1   6 -12    2.21    1.10
  -1   6  12    0.96    1.61
   0  -6  12    7.93    1.83
   0   6 -12    4.15    1.17
   0   6  12    5.86    1.83
   1  -6  12    8.50    1.87
  -1   6 -12    4.22    1.14
   1   6  12   10.92    2.00
   2  -6  12   17.76    2.35
  -2   6 -12   14.83    1.41
   2   6  12   14.30    2.35
   3  -6  12    0.38    1.99
   3   6  12    2.92    2.28
  -4  -7  12    0.53    1.55
   4   7 -12   -0.21    1.45
  -3  -7  12    3.04    1.56
   3   7 -12    2.18    1.38
  -2  -7  12    2.49    1.50
   2   7 -12    1.40    1.18
  -1  -7  12    0.65    1.52
   1   7 -12    0.31    1.16
   0  -7  12    4.71    1.78
   0   7 -12    2.31    1.18
   0   7  12    1.87    1.88
   1  -7  12    0.48    1.69
   1   7  12    5.60    2.12
  -1   7 -12    2.11    1.16
   2  -7  12    1.48    2.01
   2   7  12    2.75    2.09
  -8   0  13    7.18    2.13
   7   0 -13    3.15    1.14
  -7   0  13    4.27    1.88
  -6   0  13    2.15    1.58
   6   0 -13   -0.54    1.06
   5   0 -13   11.75    1.29
  -5   0  13   10.36    1.71
  -4   0  13    0.57    1.33
  -3   0  13    5.59    1.33
  -2   0  13   21.73    1.82
  -1   0  13   27.99    2.40
   0   0  13  113.25    4.57
   1   0  13    0.97    1.30
   2   0  13    4.16    1.54
   3   0  13   15.62    2.84
   4   0  13   -0.70    2.51
   5   0  13    2.93    2.74
   6   0  13    1.99    2.73
  -8  -1  13    3.47    2.02
  -8   1  13    3.06    1.95
  -7  -1  13   17.50    2.37
   7   1 -13   17.72    1.67
  -7   1  13   21.69    2.34
   6  -1 -13   -0.07    0.96
  -6  -1  13   -1.32    1.43
  -6   1  13    1.57    1.62
   6   1 -13   -0.92    1.17
  -5  -1  13    9.08    1.64
  -5   1  13    9.56    1.63
   5   1 -13    8.86    1.35
  -4  -1  13   14.98    1.70
  -4   1  13   14.09    1.68
  -3  -1  13    2.05    1.22
  -3   1  13    1.54    1.13
  -2  -1  13    8.02    1.39
  -2   1  13   12.45    1.45
  -1  -1  13   18.17    1.79
  -1   1  13   18.18    1.72
   0  -1  13    5.38    1.30
   0   1  13    5.75    1.32
   1  -1  13   11.80    1.62
   1   1  13   13.39    2.30
   1   1  13   13.96    1.68
   2  -1  13   -0.69    1.38
   2   1  13    0.55    1.44
   2   1  13    4.25    2.23
   3   1  13   -3.21    2.22
   4   1  13    4.39    2.45
   5   1  13    0.49    2.50
  -8  -2  13   -0.68    1.91
  -8   2  13    3.30    1.86
   8   2 -13    1.37    1.45
  -7  -2  13    1.68    1.86
   7   2 -13    0.39    1.37
  -7   2  13    3.65    1.70
  -6  -2  13   11.68    1.86
   6   2 -13   14.19    1.67
  -6   2  13   14.87    1.90
  -5  -2  13   -0.82    1.36
   5   2 -13    0.29    1.26
  -5   2  13    1.53    1.35
  -4  -2  13    4.25    1.37
  -4   2  13    4.88    1.34
   4   2 -13    5.31    1.23
  -3  -2  13   42.50    2.69
  -3   2  13   42.90    2.58
  -2  -2  13   25.64    2.23
  -2   2  13   30.03    2.11
  -1  -2  13   12.87    1.60
  -1   2  13   13.39    1.57
   0  -2  13   35.79    2.46
   0   2  13   35.35    2.55
   0   2  13   32.08    2.66
   1  -2  13   -1.97    1.23
   1   2  13    0.70    1.27
   1   2  13    1.57    1.93
   2  -2  13   18.22    2.02
   2   2  13   18.74    2.51
   2   2  13   21.70    1.98
   3   2  13    5.42    2.26
   3   2  13    2.49    1.53
   4   2  13    4.79    2.38
   5   2  13    6.26    2.54
   8   3 -13    2.66    1.58
  -7  -3  13   14.03    2.09
   7   3 -13   14.01    1.87
  -7   3  13   10.11    1.87
  -6  -3  13   -0.54    1.45
   6   3 -13    1.16    1.48
  -6   3  13   -1.46    1.39
  -5  -3  13    8.63    1.70
  -5   3  13    8.87    1.49
   5   3 -13    9.89    1.58
  -4  -3  13    7.87    1.58
   4   3 -13    6.56    1.36
  -4   3  13    6.34    1.28
  -3  -3  13    0.81    1.22
  -3   3  13    1.22    1.00
   3   3 -13    0.20    1.05
  -2  -3  13    7.87    1.44
  -2   3  13    8.06    1.20
  -1  -3  13   11.60    1.61
  -1   3  13    8.68    1.94
  -1   3  13   10.40    1.28
   0  -3  13    3.02    1.36
   0   3  13    0.94    1.80
   0   3  13    1.92    1.20
   1  -3  13    9.50    1.60
   1   3  13    9.63    2.06
   1   3  13    7.24    1.43
   2  -3  13    1.10    1.57
   2   3  13    0.71    1.40
   2   3  13    1.41    2.02
   3  -3  13    1.76    1.65
   3   3  13    0.86    1.50
   3   3  13    0.79    2.05
   4   3  13    5.63    2.32
   5   3  13    1.57    2.39
  -7  -4  13    0.62    1.70
   7   4 -13    3.43    1.65
  -7   4  13    1.47    1.59
  -6  -4  13    1.81    1.57
  -6   4  13   -0.79    1.30
   6   4 -13   -0.94    1.51
  -5  -4  13    5.32    1.61
  -5   4  13    5.73    1.34
   5   4 -13    7.89    1.57
  -4  -4  13    0.88    1.42
  -4   4  13    1.40    1.08
   4   4 -13    1.00    1.27
  -3  -4  13    2.34    1.37
   3   4 -13    2.84    1.22
  -3   4  13    2.27    1.00
  -2  -4  13   11.95    1.62
  -2   4  13   10.45    1.10
   2   4 -13   10.61    1.32
  -1  -4  13   15.17    1.84
  -1   4  13   12.60    2.00
  -1   4  13   12.82    1.59
   0  -4  13   50.73    3.00
   0   4  13   42.94    3.25
   1  -4  13   -0.58    1.47
   1   4  13    0.26    1.80
   2  -4  13    4.60    1.78
   2   4  13    1.53    1.94
   3  -4  13    9.26    2.09
   3   4  13    7.55    2.27
   4   4  13    0.61    2.21
  -6  -5  13    2.58    1.61
   6   5 -13    0.04    1.56
  -5  -5  13    4.64    1.62
   5   5 -13    5.13    1.59
  -4  -5  13    4.08    1.59
   4   5 -13    4.86    1.47
  -3  -5  13    0.26    1.37
   3   5 -13   -0.50    1.14
  -2  -5  13    1.79    1.43
  -2   5  13    2.30    1.76
   2   5 -13    4.43    1.20
  -1  -5  13    4.87    1.58
  -1   5  13    8.33    1.88
   1   5 -13    3.29    1.12
   0  -5  13    2.86    1.60
   0   5  13   -0.34    1.71
   1  -5  13    4.53    1.78
   1   5  13    3.69    1.85
   2  -5  13   -0.66    1.77
   2   5  13    1.57    1.97
   3  -5  13    2.04    1.94
   3   5  13    0.51    2.10
   4  -5  13    1.44    2.12
   4   5  13    1.28    2.36
  -5  -6  13   -1.73    1.48
   5   6 -13   -0.64    1.53
  -4  -6  13    3.49    1.55
   4   6 -13    1.80    1.47
  -3  -6  13   10.56    1.73
   3   6 -13    9.55    1.50
  -2  -6  13    7.22    1.67
   2   6 -13    5.90    1.30
  -1  -6  13    2.68    1.53
  -1   6  13    4.01    1.80
   1   6 -13    2.61    1.14
   0  -6  13   10.15    1.94
   0   6 -13    8.16    1.28
   0   6  13    9.07    2.08
   1  -6  13   -2.09    1.65
   1   6  13    3.29    1.92
  -1   6 -13    1.77    1.05
   2  -6  13    9.12    2.18
  -2   6 -13    7.25    1.21
   2   6  13    7.91    2.22
   3  -6  13    2.75    2.17
   3   6  13    4.63    2.32
  -3  -7  13    0.73    1.57
   3   7 -13   -0.29    1.29
  -2  -7  13    3.02    1.57
   2   7 -13    5.38    1.36
  -1  -7  13    2.87    1.63
   1   7 -13    1.04    1.22
   0  -7  13   -0.41    1.67
   0   7  13    2.78    1.97
   0   7 -13    0.92    1.19
   1  -7  13    1.86    1.85
  -1   7 -13    3.25    1.24
   1   7  13    3.51    2.11
  -8   0  14   10.17    2.34
   7   0 -14    0.51    1.25
  -7   0  14    4.17    1.96
  -6   0  14    5.57    1.78
   6   0 -14    4.22    1.23
  -5   0  14   45.74    3.14
   5   0 -14   37.90    2.22
  -4   0  14   25.17    2.26
  -3   0  14   11.16    1.63
  -2   0  14   37.09    2.64
  -1   0  14    1.23    1.31
   0   0  14   23.48    1.98
   1   0  14    3.02    1.39
   2   0  14    0.41    1.56
   3   0  14   14.29    1.93
   4   0  14   -4.44    2.52
   5   0  14   -3.23    2.67
  -8  -1  14    0.17    2.06
  -8   1  14    0.95    1.95
  -7  -1  14    5.35    2.06
   7   1 -14    5.50    1.40
  -7   1  14    6.33    2.00
  -6  -1  14    9.89    1.85
   6  -1 -14    4.92    1.14
   6   1 -14    6.54    1.42
  -6   1  14    9.43    1.93
  -5  -1  14    2.26    1.57
  -5   1  14    1.02    1.54
   5   1 -14   -0.05    1.17
  -4  -1  14    4.67    1.46
  -4   1  14    7.82    1.66
  -3  -1  14   11.06    1.64
  -3   1  14   12.02    1.63
  -2  -1  14    5.43    1.38
  -2   1  14    6.31    1.39
  -1  -1  14   12.50    1.71
  -1   1  14   12.77    1.63
   0  -1  14    2.37    1.31
   0   1  14    0.39    1.28
   1  -1  14    5.09    1.41
   1   1  14    4.74    1.46
   2  -1  14    5.53    1.67
   2   1  14    3.97    2.38
   2   1  14    5.56    1.69
   3  -1  14    2.16    1.59
   3   1  14    5.46    1.69
   3   1  14    3.13    2.54
   4   1  14   -0.35    2.51
   5   1  14    6.66    2.77
  -8  -2  14    2.07    2.07
  -8   2  14    0.55    1.94
   8   2 -14    0.33    1.47
  -7  -2  14    6.90    1.91
   7   2 -14    7.09    1.58
  -7   2  14    4.42    1.90
  -6  -2  14   -0.06    1.58
   6   2 -14    0.48    1.38
  -6   2  14   -0.56    1.60
  -5  -2  14    1.55    1.58
  -5   2  14    4.59    1.56
   5   2 -14    5.18    1.42
  -4  -2  14   12.44    1.73
   4   2 -14   12.24    1.50
  -4   2  14   13.41    1.66
  -3  -2  14   12.61    1.67
  -3   2  14   15.29    1.71
  -2  -2  14   68.62    3.54
  -2   2  14   72.99    3.41
  -1  -2  14    0.48    1.31
  -1   2  14   -0.92    1.26
   0  -2  14    7.37    1.47
   0   2  14    4.35    1.48
   0   2  14    8.58    2.18
   1  -2  14   11.51    1.67
   1   2  14   14.69    1.71
   1   2  14   11.83    2.35
   2  -2  14    0.82    1.57
   2   2  14    1.62    2.27
   2   2  14    2.52    1.56
   3  -2  14    2.18    1.61
   3   2  14    2.58    2.39
   3   2  14    1.59    1.61
   4   2  14   -3.67    2.37
   5   2  14    3.13    2.63
  -7  -3  14    1.07    1.71
  -7   3  14    3.28    1.78
   7   3 -14    1.66    1.63
  -6  -3  14    5.15    1.73
  -6   3  14    3.97    1.63
   6   3 -14    4.07    1.60
  -5  -3  14   -0.79    1.51
  -5   3  14    1.01    1.36
   5   3 -14   -0.28    1.37
  -4  -3  14    5.70    1.60
   4   3 -14    6.49    1.46
  -4   3  14    7.76    1.37
  -3  -3  14    7.19    1.52
  -3   3  14    5.83    1.23
   3   3 -14    5.68    1.32
  -2  -3  14    3.12    1.41
  -2   3  14    3.62    1.16
  -1  -3  14    7.18    1.59
  -1   3  14    9.36    1.36
   0  -3  14    2.58    1.37
   0   3  14    0.61    1.22
   0   3  14   -0.40    1.93
   1  -3  14    1.42    1.44
   1   3  14   -0.10    1.28
   1   3  14   -1.41    2.00
   2  -3  14    5.09    1.72
   2   3  14    5.74    1.50
   2   3  14    6.19    2.28
   3  -3  14    4.13    1.81
   3   3  14   -1.16    2.23
   3   3  14    0.05    1.56
   4   3  14   -0.68    2.34
  -7  -4  14    0.62    1.78
   7   4 -14   -0.49    1.64
  -7   4  14    1.29    1.67
  -6  -4  14    0.76    1.60
   6   4 -14    3.66    1.65
  -6   4  14   -0.79    1.36
  -5  -4  14   20.40    2.18
  -5   4  14   19.69    1.80
   5   4 -14   21.55    2.05
  -4  -4  14   10.13    1.81
   4   4 -14   13.01    1.67
  -4   4  14   11.17    1.41
  -3  -4  14    3.63    1.50
  -3   4  14    5.10    1.13
   3   4 -14    4.71    1.32
  -2  -4  14   13.19    1.89
   2   4 -14   15.57    1.52
  -1  -4  14   -0.42    1.44
  -1   4  14    2.18    1.90
   0  -4  14   22.46    2.11
   0   4  14   11.47    2.18
   1  -4  14    3.45    1.65
   1   4  14    1.30    1.96
   2  -4  14    2.21    1.74
   2   4  14    2.48    2.15
   3  -4  14    8.48    2.10
   3   4  14    9.57    2.46
   4  -4  14    0.35    1.89
   4   4  14    0.50    2.43
  -6  -5  14    2.11    1.63
   6   5 -14    1.10    1.73
  -5  -5  14    1.48    1.55
   5   5 -14   -0.53    1.58
  -4  -5  14    4.24    1.66
   4   5 -14    3.72    1.56
  -3  -5  14    2.86    1.44
   3   5 -14    5.91    1.37
  -2  -5  14    2.07    1.47
   2   5 -14    3.29    1.18
  -2   5  14    1.01    1.74
  -1  -5  14    2.08    1.51
   1   5 -14    3.86    1.14
  -1   5  14    1.52    1.85
   0  -5  14    1.85    1.58
   0   5  14   -0.16    1.80
   1  -5  14    0.73    1.64
   1   5  14   -0.19    1.93
   2  -5  14    3.84    1.94
   2   5  14    4.48    2.20
   3  -5  14    1.38    2.04
   3   5  14    3.84    2.29
  -5  -6  14   -1.86    1.62
   5   6 -14    0.44    1.66
  -4  -6  14    6.29    1.74
   4   6 -14    4.03    1.56
  -3  -6  14    3.70    1.61
   3   6 -14    5.18    1.51
  -2  -6  14   16.90    2.03
   2   6 -14   15.18    1.61
  -1  -6  14   -1.96    1.45
   1   6 -14    0.40    1.16
  -1   6  14    1.70    1.92
   0  -6  14    2.87    1.73
   0   6  14    4.67    2.03
   0   6 -14    1.88    1.11
   1  -6  14    4.69    1.85
  -1   6 -14    1.08    1.11
   1   6  14    5.20    2.13
   2  -6  14   -2.03    1.87
   2   6  14   -1.75    2.14
  -2  -7  14    0.77    1.54
   2   7 -14    0.91    1.30
  -1  -7  14    1.42    1.69
   1   7 -14    0.34    1.23
  -8   0  15    1.30    2.26
   7   0 -15    1.35    1.97
  -7   0  15    6.28    2.12
   6   0 -15    6.51    1.38
  -6   0  15    6.49    1.93
  -5   0  15    7.09    1.88
  -4   0  15   45.67    3.03
  -3   0  15    1.62    1.41
  -2   0  15    6.71    1.55
  -1   0  15   10.39    1.67
   0   0  15    2.46    1.40
   1   0  15    3.38    1.50
   2   0  15    3.43    1.65
   3   0  15    2.51    1.71
  -7  -1  15   -0.26    1.88
  -7   1  15    0.06    1.83
   7   1 -15   -0.29    1.36
  -6  -1  15    6.79    1.91
   6  -1 -15    1.71    1.11
   6   1 -15    2.27    1.36
  -6   1  15    2.72    1.81
  -5  -1  15    6.47    1.86
  -5   1  15    5.68    1.80
   5   1 -15    5.90    1.38
  -4  -1  15    1.34    1.52
  -4   1  15    2.88    1.69
  -3  -1  15    5.94    1.58
  -3   1  15    4.59    1.55
  -2  -1  15   -0.24    1.29
  -2   1  15   -0.14    1.34
  -1  -1  15    4.92    1.51
  -1   1  15    6.97    1.52
   0  -1  15    4.48    1.42
   0   1  15    7.77    1.64
   1  -1  15    1.13    1.41
   1   1  15    4.17    1.54
   2  -1  15    0.49    1.58
   2   1  15    0.93    1.59
   2   1  15    3.52    2.55
   3  -1  15    3.25    1.79
   3   1  15   -0.23    2.58
   3   1  15    1.65    1.78
   4   1  15   -0.09    2.75
   5   1  15    1.34    2.85
  -7  -2  15   13.62    2.26
  -7   2  15   18.29    2.37
   7   2 -15   17.30    1.92
  -6  -2  15    7.56    1.97
  -6   2  15    8.84    2.00
   6   2 -15   10.19    1.69
  -5  -2  15    2.86    1.71
   5   2 -15    4.04    1.48
  -5   2  15    1.79    1.59
  -4  -2  15   10.82    1.81
   4   2 -15   12.39    1.60
  -4   2  15   12.50    1.77
  -3  -2  15    0.04    1.36
  -3   2  15    1.20    1.34
  -2  -2  15   14.24    1.85
  -2   2  15   17.45    1.80
  -1  -2  15   10.34    1.76
  -1   2  15    8.03    1.64
   0  -2  15    0.68    1.31
   0   2  15   -1.11    1.36
   1  -2  15   10.50    1.71
   1   2  15    9.29    2.44
   1   2  15   12.50    1.73
   2  -2  15   -0.44    1.61
   2   2  15    1.73    2.37
   2   2  15   -2.06    1.43
   3  -2  15    1.28    1.71
   3   2  15    1.85    1.75
   3   2  15    5.42    2.53
   4  -2  15   -2.54    1.71
   4   2  15   -0.67    1.82
   4   2  15    1.48    2.68
  -7  -3  15   -0.92    1.78
   7   3 -15    0.85    1.65
  -7   3  15    1.69    1.76
  -6  -3  15    1.55    1.70
  -6   3  15    5.00    1.72
   6   3 -15    5.65    1.72
  -5  -3  15    3.44    1.77
   5   3 -15    2.48    1.53
  -5   3  15    2.65    1.49
  -4  -3  15    2.88    1.62
  -4   3  15    2.36    1.35
   4   3 -15    2.48    1.41
  -3  -3  15    1.30    1.51
  -3   3  15    2.21    1.29
  -2  -3  15    1.07    1.42
  -2   3  15    1.41    1.21
  -1  -3  15    2.35    1.50
  -1   3  15    4.99    1.31
   0  -3  15    2.39    1.45
   0   3  15    4.33    2.16
   0   3  15    4.49    1.36
   1  -3  15    2.84    1.51
   1   3  15    4.71    1.40
   1   3  15    1.75    2.19
   2  -3  15    1.12    1.66
   2   3  15    1.69    1.44
   2   3  15   -3.62    2.21
   3  -3  15    0.73    1.83
   3   3  15    3.48    2.47
   4  -3  15    1.66    1.99
   4   3  15    9.15    2.73
  -6  -4  15    3.22    1.80
   6   4 -15    2.76    1.74
  -6   4  15    4.61    1.77
  -5  -4  15    6.98    1.86
  -5   4  15    5.29    1.85
   5   4 -15    3.95    1.70
  -4  -4  15   20.21    2.23
   4   4 -15   23.36    2.09
  -3  -4  15   -0.79    1.43
   3   4 -15   -0.07    1.23
  -2  -4  15    5.27    1.61
  -1  -4  15    4.54    1.61
  -1   4  15    2.65    1.98
   0  -4  15   -0.98    1.47
   0   4  15   -0.31    1.94
   1  -4  15    3.72    1.72
   1   4  15   -0.78    2.03
   2  -4  15    1.71    1.80
   2   4  15   -1.66    2.20
   3  -4  15    1.44    1.96
   3   4  15   -0.57    2.38
  -5  -5  15    0.30    1.66
   5   5 -15    0.51    1.67
  -4  -5  15    1.82    1.57
   4   5 -15    0.98    1.53
  -3  -5  15    2.99    1.55
   3   5 -15    3.04    1.44
  -2  -5  15   -0.35    1.48
   2   5 -15   -0.36    1.21
  -1  -5  15    0.13    1.49
   1   5 -15   -0.24    1.13
  -1   5  15   -0.24    1.88
   0  -5  15    2.78    1.71
   0   5  15   -1.48    1.99
   1  -5  15    0.47    1.73
   1   5  15    1.01    2.14
   2  -5  15    4.12    1.96
   2   5  15    0.85    2.32
   3  -5  15    0.82    2.02
  -4  -6  15    8.88    1.93
   4   6 -15    2.73    1.64
  -3  -6  15   -2.02    1.56
   3   6 -15   -0.71    1.39
  -2  -6  15    7.01    1.75
   2   6 -15    5.05    1.41
  -1  -6  15    1.67    1.56
  -1   6  15    3.34    2.06
   1   6 -15    1.28    1.22
   0  -6  15   -1.30    1.70
   0   6 -15   -1.40    1.10
   0   6  15   -2.23    2.01
   1  -6  15    7.88    1.98
  -1   6 -15    2.13    1.16
   1   6  15    5.98    2.37
  -7   0  16    3.99    2.25
  -6   0  16    4.99    2.07
   6   0 -16    3.01    1.32
  -5   0  16    1.55    1.89
  -4   0  16   15.36    2.03
  -3   0  16   14.43    1.93
  -2   0  16   -0.12    1.43
  -1   0  16   10.06    1.72
   0   0  16    1.19    1.46
   1   0  16   -1.01    1.36
   2   0  16   -1.47    1.55
   3   0  16    3.40    1.87
   4   0  16    1.17    1.93
  -7  -1  16    0.71    2.08
   7   1 -16   -0.93    1.46
  -7   1  16    1.44    2.04
  -6  -1  16    2.27    2.02
   6  -1 -16   -0.42    1.19
   6   1 -16    3.21    1.49
  -6   1  16   -0.16    1.87
  -5  -1  16    1.34    1.89
   5   1 -16   -0.06    1.35
  -5   1  16    1.74    1.85
  -4  -1  16   -0.66    1.51
  -4   1  16    1.82    1.78
  -3  -1  16    2.82    1.57
  -3   1  16    4.55    1.65
  -2  -1  16    4.67    1.53
  -2   1  16    3.31    1.56
  -1  -1  16    3.83    1.56
  -1   1  16    5.80    1.62
   0  -1  16   -1.27    1.35
   0   1  16    1.86    1.56
   1  -1  16    1.87    1.43
   1   1  16    5.12    1.57
   2  -1  16    1.87    1.60
   2   1  16   -1.73    1.58
   3  -1  16    3.06    1.82
   3   1  16    0.20    1.76
   3   1  16    3.16    2.77
   4  -1  16    3.28    1.89
   4   1  16   -0.72    1.94
   4   1  16    0.87    2.84
  -7  -2  16    4.40    2.12
  -7   2  16    0.36    1.99
   7   2 -16    2.61    1.66
  -6  -2  16   11.85    2.21
  -6   2  16   15.15    2.26
   6   2 -16   12.85    1.85
  -5  -2  16    0.27    1.82
  -5   2  16    2.50    1.66
   5   2 -16   -3.42    1.41
  -4  -2  16    4.20    1.70
  -4   2  16    3.27    1.60
  -3  -2  16   -0.20    1.50
  -3   2  16    4.84    1.55
  -2  -2  16    4.05    1.55
  -2   2  16    0.49    1.42
  -1  -2  16    5.93    1.61
  -1   2  16    8.17    1.69
   0  -2  16    3.18    1.46
   0   2  16   -0.24    1.46
   1  -2  16    1.85    1.46
   1   2  16    1.50    1.43
   1   2  16    1.84    2.38
   2  -2  16    0.12    1.59
   2   2  16   -5.28    2.39
   2   2  16    0.61    1.57
   3  -2  16    3.76    1.91
   3   2  16    0.78    2.63
   3   2  16    1.76    1.80
   4  -2  16    3.05    1.98
   4   2  16    3.66    2.05
   4   2  16    1.85    2.84
   7   3 -16    2.43    1.76
  -6  -3  16   -3.01    1.67
   6   3 -16   -0.75    1.67
  -6   3  16   -0.79    1.66
  -5  -3  16   -0.48    1.69
  -5   3  16    2.36    1.62
   5   3 -16    2.78    1.62
  -4  -3  16    0.31    1.69
  -4   3  16   -0.90    1.40
   4   3 -16   -0.90    1.37
  -3  -3  16    0.42    1.55
  -3   3  16    2.11    1.38
  -2  -3  16    3.57    1.55
  -2   3  16    2.75    1.31
  -1  -3  16    1.65    1.48
  -1   3  16    2.63    1.34
   0  -3  16    0.62    1.47
   0   3  16    1.81    1.32
   0   3  16    0.04    2.13
   1  -3  16    1.06    1.56
   1   3  16    1.25    2.29
   1   3  16    2.37    1.41
   2  -3  16    0.09    1.70
   2   3  16    0.26    2.39
   3  -3  16    1.99    1.94
   3   3  16    4.57    2.60
  -6  -4  16    1.11    1.84
   6   4 -16    6.08    1.86
  -5  -4  16    2.61    1.75
   5   4 -16    1.92    1.69
  -4  -4  16    8.15    1.90
   4   4 -16    8.18    1.72
  -3  -4  16    5.82    1.75
   3   4 -16    4.69    1.50
  -2  -4  16    2.54    1.62
  -1  -4  16    3.30    1.63
   0  -4  16    0.16    1.59
   0   4  16   -2.16    1.98
   1  -4  16    1.30    1.67
   1   4  16   -0.18    2.19
   2  -4  16    2.27    1.82
   2   4  16   -0.97    2.44
   3  -4  16    0.68    1.96
   3   4  16    0.95    2.59
  -5  -5  16   -1.29    1.66
   5   5 -16   -0.91    1.74
  -4  -5  16    1.74    1.70
   4   5 -16    1.69    1.65
  -3  -5  16    1.10    1.62
   3   5 -16   -1.80    1.46
  -2  -5  16    2.17    1.70
   2   5 -16    1.60    1.30
  -1  -5  16    1.90    1.60
   1   5 -16    0.15    1.18
  -1   5  16   -0.20    2.07
   0  -5  16   -0.01    1.64
   0   5  16   -0.31    2.12
   1  -5  16    2.94    1.77
   1   5  16    5.84    2.43
   2  -5  16    1.46    1.92
   2   5  16    0.55    2.36
  -3  -6  16    1.51    1.67
   3   6 -16    1.94    1.56
  -2  -6  16   -1.65    1.62
   2   6 -16    1.27    1.40
  -1  -6  16    3.05    1.73
   1   6 -16    2.80    1.30
  -1   6  16   -0.21    2.07
   0  -6  16    2.10    1.81
   0   6 -16   -0.46    1.16
  -7   0  17    0.53    2.19
  -6   0  17    0.85    2.06
   6   0 -17   -0.23    1.35
  -5   0  17    0.48    2.00
  -4   0  17   -0.82    1.55
  -3   0  17    6.31    1.80
  -2   0  17    0.45    1.50
  -1   0  17    0.49    1.48
   0   0  17   -0.04    1.50
   1   0  17    1.89    1.56
   2   0  17    0.85    1.63
   3   0  17    1.67    1.93
   4   0  17    4.59    2.27
  -7  -1  17   -1.06    2.20
  -7   1  17   -0.26    2.19
   7   1 -17    1.68    1.61
   6  -1 -17    1.76    1.72
  -6  -1  17    2.27    2.17
  -6   1  17    2.00    2.06
   6   1 -17   -0.68    1.50
  -5  -1  17   -0.74    1.92
   5   1 -17   -0.07    1.39
  -5   1  17   -0.33    1.84
  -4  -1  17    1.93    1.76
  -4   1  17    3.27    1.96
  -3  -1  17    3.95    1.71
  -3   1  17    3.19    1.68
  -2  -1  17    0.51    1.50
  -2   1  17    2.22    1.56
  -1  -1  17    1.27    1.48
  -1   1  17    1.55    1.53
   0  -1  17   -1.11    1.42
   0   1  17    0.11    1.54
   1  -1  17    3.79    1.54
   1   1  17    6.98    1.69
   2  -1  17   -0.67    1.55
   2   1  17    4.29    1.66
   3  -1  17    3.30    1.95
   3   1  17    0.49    1.86
   4  -1  17    3.52    2.16
   4   1  17    1.22    2.13
   7   2 -17    0.49    1.74
  -6  -2  17    6.72    2.17
   6   2 -17    7.57    1.74
  -6   2  17    7.52    2.12
  -5  -2  17    9.29    2.16
   5   2 -17    7.14    1.67
  -5   2  17    5.54    2.02
  -4  -2  17    2.96    1.76
  -4   2  17    3.38    1.75
  -3  -2  17    4.80    1.71
  -3   2  17    6.30    1.66
  -2  -2  17    0.02    1.46
  -2   2  17    2.13    1.49
  -1  -2  17    1.10    1.48
  -1   2  17    0.40    1.52
   0  -2  17    2.06    1.53
   0   2  17    0.39    1.43
   1  -2  17    1.17    1.48
   1   2  17   -0.52    1.50
   2  -2  17    0.50    1.61
   2   2  17    1.55    1.58
   2   2  17    1.11    2.67
   3  -2  17   -0.26    1.93
   3   2  17    4.96    2.85
   3   2  17    2.76    1.82
  -6  -3  17   -1.19    1.88
   6   3 -17    3.07    1.76
  -6   3  17    0.04    1.79
  -5  -3  17    2.21    1.86
   5   3 -17    1.86    1.75
  -5   3  17    2.10    1.63
  -4  -3  17   -0.41    1.74
  -4   3  17    4.53    1.59
   4   3 -17    0.71    1.53
  -3  -3  17    1.59    1.61
  -3   3  17    1.25    1.54
  -2  -3  17    0.71    1.54
  -2   3  17    2.41    1.36
  -1  -3  17    2.88    1.58
  -1   3  17    0.20    1.33
   0  -3  17    0.43    1.54
   0   3  17    0.14    1.40
   1  -3  17    5.18    1.73
   1   3  17    0.59    2.46
   2  -3  17    5.02    1.88
   2   3  17   -3.09    2.49
   3  -3  17    0.46    1.96
   3   3  17    1.97    2.72
  -5  -4  17    4.88    1.93
   5   4 -17    2.37    1.76
  -4  -4  17    4.77    1.83
   4   4 -17    0.41    1.61
  -3  -4  17    4.80    1.78
   3   4 -17    3.93    1.52
  -2  -4  17    0.54    1.62
  -1  -4  17    2.03    1.61
   0  -4  17   -2.02    1.58
   0   4  17    0.81    2.21
   1  -4  17   -0.30    1.72
   1   4  17    3.95    2.36
   2  -4  17    0.69    1.90
   2   4  17    3.35    2.64
  -4  -5  17    2.25    1.82
   4   5 -17    2.43    1.74
  -3  -5  17    1.22    1.67
   3   5 -17    0.09    1.56
  -2  -5  17    0.47    1.64
   2   5 -17   -1.54    1.31
  -1  -5  17    2.56    1.74
  -1   5  17   -1.16    2.08
   1   5 -17    1.48    1.30
   0  -5  17   -1.48    1.66
   0   5  17   -0.39    2.33
   1  -5  17    0.86    1.72
   1   5  17    3.32    2.50
  -6   0  18    3.85    2.33
   6   0 -18   -0.79    1.37
  -5   0  18    2.55    2.21
  -4   0  18   -0.56    1.69
  -3   0  18    0.23    1.65
  -2   0  18   -1.50    1.52
  -1   0  18    4.65    1.65
   0   0  18   -0.31    1.53
   1   0  18    6.25    1.69
   2   0  18    6.92    1.89
   3   0  18    3.28    2.05
  -6  -1  18    4.18    2.39
   6   1 -18   -0.03    1.57
  -6   1  18    4.83    2.28
  -5  -1  18    3.98    2.26
   5   1 -18    4.80    1.60
  -5   1  18    1.92    2.14
  -4  -1  18   -0.29    1.71
  -4   1  18    1.81    2.00
  -3  -1  18    1.89    1.72
  -3   1  18    4.93    1.86
  -2  -1  18    1.28    1.57
  -2   1  18   -2.71    1.50
  -1  -1  18    2.65    1.58
  -1   1  18    3.59    1.69
   0  -1  18    0.70    1.54
   0   1  18    4.30    1.72
   1  -1  18   -0.78    1.51
   1   1  18    0.57    1.52
   2  -1  18    3.94    1.77
   2   1  18    2.84    1.74
   3  -1  18    0.24    1.91
   3   1  18    2.54    1.96
  -6  -2  18   -2.46    2.08
  -6   2  18   -1.76    2.00
   6   2 -18    0.90    1.69
  -5  -2  18    4.29    2.21
  -5   2  18    4.16    2.08
   5   2 -18    3.08    1.66
  -4  -2  18   -0.51    1.81
  -4   2  18    1.91    1.84
  -3  -2  18    0.03    1.66
  -3   2  18   -0.32    1.49
  -2  -2  18    0.26    1.58
  -2   2  18    0.37    1.47
  -1  -2  18   -1.34    1.49
  -1   2  18    2.20    1.60
   0  -2  18    1.47    1.60
   0   2  18   -0.01    1.51
   1  -2  18    6.78    1.74
   1   2  18    7.00    1.66
   2  -2  18    9.87    1.94
   2   2  18    4.84    1.72
   3  -2  18   -1.39    1.88
   3   2  18   -0.11    1.80
  -5  -3  18    2.60    2.04
   5   3 -18    2.52    1.77
  -5   3  18    3.48    1.84
  -4  -3  18    1.81    1.89
  -4   3  18   -1.43    1.53
   4   3 -18    4.08    1.63
  -3  -3  18    0.91    1.68
  -3   3  18    3.36    1.69
  -2  -3  18    1.13    1.66
  -2   3  18   -0.18    1.40
  -1  -3  18    4.23    1.68
   0  -3  18    1.40    1.63
   1  -3  18   -0.22    1.66
   1   3  18    1.85    2.54
   2  -3  18    4.80    1.91
   2   3  18    0.85    2.69
   5   4 -18    1.66    1.88
  -4  -4  18   -0.60    1.87
   4   4 -18   -2.27    1.61
  -3  -4  18    0.79    1.72
   3   4 -18    1.17    1.59
  -2  -4  18    2.34    1.70
  -1  -4  18    4.95    1.76
   0  -4  18   -1.95    1.61
   1  -4  18    3.57    1.81
   1   4  18    2.63    2.53
  -3  -5  18    1.52    1.77
   3   5 -18    0.31    1.68
  -2  -5  18    3.16    1.91
   2   5 -18   -1.08    1.46
  -1  -5  18   -1.47    1.59
   6   0 -19   -0.44    1.48
  -6   0  19   -1.39    2.45
  -5   0  19   -2.48    2.30
  -4   0  19   -0.69    1.81
  -3   0  19    1.63    1.78
  -2   0  19   -0.95    1.59
  -1   0  19    7.26    1.76
   0   0  19   13.46    2.05
   1   0  19    1.35    1.62
   2   0  19    7.43    1.94
  -6  -1  19   -0.62    2.43
   6   1 -19   -2.98    1.59
  -6   1  19    5.06    2.46
  -5  -1  19    5.23    2.50
  -5   1  19    7.62    2.38
  -4  -1  19   -2.32    1.79
  -4   1  19    1.52    2.09
  -3  -1  19    0.63    1.76
  -3   1  19    0.86    1.72
  -2  -1  19    1.99    1.64
  -2   1  19    1.59    1.60
  -1  -1  19   -2.25    1.49
  -1   1  19    1.36    1.65
   0  -1  19    3.60    1.70
   0   1  19    4.44    1.75
   1  -1  19    3.33    1.66
   1   1  19    1.90    1.66
   2  -1  19    1.29    1.71
   2   1  19    2.78    1.78
  -5  -2  19    1.27    2.23
   5   2 -19   -2.39    1.59
  -5   2  19   -1.89    2.04
  -4  -2  19    0.40    1.95
  -4   2  19    0.05    1.91
  -3  -2  19    5.15    1.91
  -3   2  19    4.83    1.74
  -2  -2  19   -1.74    1.59
  -2   2  19   -0.13    1.60
  -1  -2  19    6.00    1.72
  -1   2  19    2.37    1.62
   0  -2  19   14.19    2.05
   0   2  19    8.84    1.78
   1  -2  19    5.23    1.77
   1   2  19    3.00    1.69
   2  -2  19    9.88    2.05
   2   2  19    6.63    1.84
  -5  -3  19    2.14    2.13
   5   3 -19    0.88    1.84
  -5   3  19    4.43    2.02
  -4  -3  19   -0.07    1.95
  -4   3  19    1.20    1.86
   4   3 -19   -0.97    1.68
  -3  -3  19    0.41    1.74
  -3   3  19    0.94    2.35
  -2  -3  19    3.78    1.81
  -1  -3  19    3.40    1.69
   0  -3  19    2.15    1.76
   1  -3  19    4.24    1.81
  -3  -4  19    2.37    1.81
   3   4 -19    1.55    1.68
  -2  -4  19    2.00    1.80
  -1  -4  19    6.46    1.86
   0  -4  19    8.78    2.10
  -5   0  20    7.75    2.69
  -4   0  20   -0.35    1.87
  -3   0  20    1.24    1.84
  -2   0  20   11.28    2.03
  -1   0  20    4.16    1.73
   0   0  20    8.22    1.98
   1   0  20    2.48    1.69
  -5  -1  20    3.53    2.50
  -5   1  20   -0.32    2.25
  -4  -1  20    2.53    2.04
  -4   1  20    2.18    2.27
  -3  -1  20   -1.02    1.82
  -3   1  20   -2.71    1.77
  -2  -1  20    2.82    1.69
  -2   1  20    1.76    1.71
  -1  -1  20    6.84    1.76
  -1   1  20    4.82    1.87
   0  -1  20   -1.32    1.57
   0   1  20    1.72    1.65
   1  -1  20    0.81    1.62
   1   1  20   -0.37    1.69
  -4  -2  20   -0.12    2.02
  -4   2  20   -2.38    1.96
  -3  -2  20    5.32    1.94
  -3   2  20    6.23    1.87
  -2  -2  20    4.99    1.84
  -2   2  20    3.64    1.72
  -1  -2  20    2.53    1.66
  -1   2  20    1.67    1.69
   0  -2  20    4.60    1.89
   0   2  20    7.70    1.81
   1  -2  20    0.40    1.71
   1   2  20    1.99    1.69
  -3  -3  20   -0.79    1.83
  -2  -3  20    0.89    1.77
  -1  -3  20    3.55    1.77
   0  -3  20    0.50    1.78
  -4   0  21    2.30    2.06
  -3   0  21    0.29    1.88
  -2   0  21    7.23    1.94
  -1   0  21   -0.59    1.66
   0   0  21    1.39    1.80
  -4  -1  21   -0.48    2.06
  -4   1  21   -0.45    2.32
  -3  -1  21    0.70    1.87
  -3   1  21    3.78    1.97
  -2  -1  21    0.62    1.75
  -2   1  21   -0.27    1.71
  -1  -1  21   -0.35    1.65
  -1   1  21    1.05    1.78
   0  -1  21    0.46    1.80
   0   1  21    0.39    1.69
  -3  -2  21    1.45    1.99
  -3   2  21    3.02    1.78
  -2  -2  21    3.83    1.92
  -2   2  21    6.99    1.86
  -1  -2  21   -0.21    1.67
  -1   2  21   -1.11    1.58
   0   0   0    0.00    0.00
;
_shelx_hkl_checksum              88415
_olex2_submission_special_instructions 'No special instructions were received'
loop_
_space_group_symop_operation_xyz
'x, y, z'
'-x, y+1/2, -z'
'-x, -y, -z'
'x, -y-1/2, z'
loop_
_atom_site_label
_atom_site_type_symbol
_atom_site_fract_x
_atom_site_fract_y
_atom_site_fract_z
_atom_site_U_iso_or_equiv
_atom_site_adp_type
_atom_site_occupancy
_atom_site_site_symmetry_order
_atom_site_calc_flag
_atom_site_refinement_flags_posn
_atom_site_refinement_flags_adp
_atom_site_refinement_flags_occupancy
_atom_site_disorder_assembly
_atom_site_disorder_group
Bi1 Bi 0.3200(4) 0.2500 0.15043(18) 0.0315(11) Uani 0.52(3) 2 d S T P . .
In1 In 0.3200(4) 0.2500 0.15043(18) 0.0315(11) Uani 0.48(3) 2 d S T P . .
Ag2 Ag 0.1667(5) 0.2500 -0.1650(3) 0.0408(13) Uani 1 2 d S T P . .
Br4 Br 0.5770(6) 0.5000(7) 0.1626(3) 0.0651(16) Uani 1 1 d . . . . .
Br5 Br 0.0684(6) 0.4995(6) 0.1373(3) 0.0539(14) Uani 1 1 d . . . . .
Br6 Br 0.2831(7) 0.2500 -0.0024(4) 0.0455(17) Uani 1 2 d S T P . .
Br1 Br 0.3480(10) 0.2500 0.3054(5) 0.078(3) Uani 1 2 d S T P . .
Cs1 Cs 0.7419(6) 0.2500 0.0004(3) 0.0558(12) Uani 1 2 d S T P . .
Br0A Br 0.0434(11) 0.2500 -0.3121(5) 0.092(3) Uani 1 2 d S T P . .
N0AA N 0.890(13) 0.2500 0.275(4) 0.18(2) Uiso 1 2 d DS T P . .
H H 0.9762 0.2828 0.2532 0.212 Uiso 0.5 1 calc GR . . A -1
HA H 0.8009 0.3235 0.2626 0.212 Uiso 0.5 1 calc GR . . A -1
HB H 0.8550 0.1436 0.2597 0.212 Uiso 0.5 1 calc GR . . A -1
C2 C 0.809(10) 0.2500 0.398(5) 0.18(2) Uiso 1 2 d DS T P . .
HC H 0.7370 0.1481 0.3842 0.212 Uiso 0.5 1 calc R . . . .
HD H 0.7370 0.3519 0.3842 0.212 Uiso 0.5 1 calc R . . . .
C3 C 0.882(15) 0.2500 0.481(5) 0.18(2) Uiso 1 2 d DS T P . .
HE H 0.7895 0.2689 0.5079 0.266 Uiso 0.5 1 calc GR . . B -1
HF H 0.9668 0.3408 0.4939 0.266 Uiso 0.5 1 calc GR . . B -1
HG H 0.9363 0.1403 0.4963 0.266 Uiso 0.5 1 calc GR . . B -1
C1 C 0.953(9) 0.2500 0.358(5) 0.18(2) Uiso 1 2 d DS T P . .
HH H 1.0253 0.3516 0.3735 0.212 Uiso 0.5 1 calc R . . . .
HI H 1.0253 0.1484 0.3735 0.212 Uiso 0.5 1 calc R . . . .
C4 C 0.513(10) 0.7500 0.330(5) 0.18(2) Uiso 1 2 d DS T P . .
H4A H 0.5823 0.6475 0.3258 0.212 Uiso 0.5 1 calc R . . . .
H4B H 0.5823 0.8525 0.3258 0.212 Uiso 0.5 1 calc R . . . .
N2 N 0.350(12) 0.7500 0.272(4) 0.18(2) Uiso 1 2 d DS T P . .
H2C H 0.2626 0.7867 0.2923 0.212 Uiso 0.5 1 calc GR . . C -1
H2B H 0.3266 0.6428 0.2536 0.212 Uiso 0.5 1 calc GR . . C -1
H2A H 0.3600 0.8205 0.2334 0.212 Uiso 0.5 1 calc GR . . C -1
C6 C 0.598(14) 0.7500 0.466(5) 0.18(2) Uiso 1 2 d DS T P . .
H6A H 0.6252 0.6330 0.4831 0.266 Uiso 0.5 1 calc GR . . D -1
H6C H 0.5695 0.8163 0.5072 0.266 Uiso 0.5 1 calc GR . . D -1
H6B H 0.6979 0.8007 0.4517 0.266 Uiso 0.5 1 calc GR . . D -1
C5 C 0.449(10) 0.7500 0.401(4) 0.18(2) Uiso 1 2 d DS T P . .
H5B H 0.3778 0.6482 0.4024 0.212 Uiso 0.5 1 calc R . . . .
H5A H 0.3778 0.8518 0.4024 0.212 Uiso 0.5 1 calc R . . . .
loop_
_atom_site_aniso_label
_atom_site_aniso_U_11
_atom_site_aniso_U_22
_atom_site_aniso_U_33
_atom_site_aniso_U_23
_atom_site_aniso_U_13
_atom_site_aniso_U_12
Bi1 0.0321(17) 0.0183(15) 0.048(2) 0.000 0.0163(13) 0.000
In1 0.0321(17) 0.0183(15) 0.048(2) 0.000 0.0163(13) 0.000
Ag2 0.0135(19) 0.035(3) 0.074(4) 0.000 0.010(2) 0.000
Br4 0.050(3) 0.055(3) 0.094(4) 0.001(3) 0.022(3) -0.015(3)
Br5 0.047(3) 0.038(3) 0.081(4) -0.002(3) 0.023(3) 0.013(2)
Br6 0.033(3) 0.067(4) 0.038(4) 0.000 0.010(3) 0.000
Br1 0.050(4) 0.122(8) 0.059(5) 0.000 0.003(4) 0.000
Cs1 0.056(3) 0.052(2) 0.060(3) 0.000 0.014(2) 0.000
Br0A 0.051(5) 0.144(9) 0.079(6) 0.000 0.012(4) 0.000
loop_
_atom_type_symbol
_atom_type_description
_atom_type_scat_dispersion_real
_atom_type_scat_dispersion_imag
_atom_type_scat_source
C C 0.0033 0.0016 'International Tables Vol C Tables 4.2.6.8 and 6.1.1.4'
H H 0.0000 0.0000 'International Tables Vol C Tables 4.2.6.8 and 6.1.1.4'
Ag Ag -0.8971 1.1015 'International Tables Vol C Tables 4.2.6.8 and 6.1.1.4'
Bi Bi -4.1077 10.2566 'International Tables Vol C Tables 4.2.6.8 and 6.1.1.4'
Br Br -0.2901 2.4595 'International Tables Vol C Tables 4.2.6.8 and 6.1.1.4'
Cs Cs -0.3680 2.1192 'International Tables Vol C Tables 4.2.6.8 and 6.1.1.4'
In In -0.7276 1.3100 'International Tables Vol C Tables 4.2.6.8 and 6.1.1.4'
N N 0.0061 0.0033 'International Tables Vol C Tables 4.2.6.8 and 6.1.1.4'
loop_
_geom_angle_atom_site_label_1
_geom_angle_atom_site_label_2
_geom_angle_atom_site_label_3
_geom_angle
_geom_angle_site_symmetry_1
_geom_angle_site_symmetry_3
Br4 Bi1 Br4 88.5(3) . 4_565
Br5 Bi1 Br4 90.91(18) . .
Br5 Bi1 Br4 90.91(18) 4_565 4_565
Br5 Bi1 Br4 179.27(19) . 4_565
Br5 Bi1 Br4 179.27(19) 4_565 .
Br5 Bi1 Br5 89.7(2) . 4_565
Br5 Bi1 Br1 89.07(18) 4_565 .
Br5 Bi1 Br1 89.07(18) . .
Br6 Bi1 Br4 89.71(17) . .
Br6 Bi1 Br4 89.71(17) . 4_565
Br6 Bi1 Br5 89.84(17) . 4_565
Br6 Bi1 Br5 89.84(17) . .
Br6 Bi1 Br1 178.5(2) . .
Br1 Bi1 Br4 91.40(19) . 4_565
Br1 Bi1 Br4 91.40(19) . .
Br4 Ag2 Br4 87.9(3) 3_665 2_645
Br4 Ag2 Br5 169.1(3) 3_665 2_545
Br4 Ag2 Br5 169.1(3) 2_645 3_565
Br4 Ag2 Br5 91.17(18) 2_645 2_545
Br4 Ag2 Br5 91.17(18) 3_665 3_565
Br4 Ag2 Br6 85.15(19) 3_665 .
Br4 Ag2 Br6 85.15(19) 2_645 .
Br5 Ag2 Br5 87.7(2) 2_545 3_565
Br5 Ag2 Br6 83.96(17) 2_545 .
Br5 Ag2 Br6 83.96(17) 3_565 .
Br0A Ag2 Br4 97.1(2) . 3_665
Br0A Ag2 Br4 97.1(2) . 2_645
Br0A Ag2 Br5 93.8(2) . 2_545
Br0A Ag2 Br5 93.8(2) . 3_565
Br0A Ag2 Br6 176.9(3) . .
Bi1 Br4 Ag2 176.4(3) . 3_665
Bi1 Br4 Cs1 87.06(17) . 3_665
Bi1 Br4 Cs1 87.20(17) . .
Ag2 Br4 Cs1 90.67(19) 3_665 3_665
Ag2 Br4 Cs1 89.91(17) 3_665 .
Cs1 Br4 Cs1 87.07(16) 3_665 .
Bi1 Br5 Ag2 165.2(2) . 3_565
Bi1 Br5 Cs1 94.22(17) . 1_455
Bi1 Br5 Cs1 92.14(15) . 3_665
Ag2 Br5 Cs1 95.18(17) 3_565 1_455
Ag2 Br5 Cs1 97.75(17) 3_565 3_665
Cs1 Br5 Cs1 98.66(16) 1_455 3_665
Bi1 Br6 Ag2 167.9(3) . .
Bi1 Br6 Cs1 95.8(2) . .
Bi1 Br6 Cs1 89.14(12) . 3_665
Bi1 Br6 Cs1 89.14(12) . 3_655
Ag2 Br6 Cs1 90.22(13) . 3_655
Ag2 Br6 Cs1 96.33(19) . .
Ag2 Br6 Cs1 90.22(13) . 3_665
Cs1 Br6 Cs1 93.02(11) . 3_665
Cs1 Br6 Cs1 173.9(2) 3_655 3_665
Cs1 Br6 Cs1 93.02(11) . 3_655
Br4 Cs1 Br4 92.93(16) 3_665 .
Br4 Cs1 Br4 122.27(15) 2_645 .
Br4 Cs1 Br4 58.68(19) 4_565 .
Br4 Cs1 Br4 122.27(15) 3_665 4_565
Br4 Cs1 Br4 92.93(16) 2_645 4_565
Br4 Cs1 Br4 59.01(19) 2_645 3_665
Br4 Cs1 Cs1 46.31(11) 4_565 3_655
Br4 Cs1 Cs1 90.90(16) 3_665 3_655
Br4 Cs1 Cs1 46.63(12) 2_645 3_655
Br4 Cs1 Cs1 90.47(15) . 3_655
Br5 Cs1 Br4 61.84(14) 3_665 3_665
Br5 Cs1 Br4 92.47(18) 3_665 2_645
Br5 Cs1 Br4 174.48(17) 2_645 .
Br5 Cs1 Br4 174.48(17) 3_665 4_565
Br5 Cs1 Br4 62.85(13) 4_665 4_565
Br5 Cs1 Br4 173.59(17) 1_655 2_645
Br5 Cs1 Br4 118.87(13) 3_665 .
Br5 Cs1 Br4 173.59(17) 4_665 3_665
Br5 Cs1 Br4 118.60(13) 1_655 3_665
Br5 Cs1 Br4 93.22(18) 1_655 4_565
Br5 Cs1 Br4 93.22(18) 4_665 .
Br5 Cs1 Br4 118.87(13) 2_645 4_565
Br5 Cs1 Br4 92.47(18) 2_645 3_665
Br5 Cs1 Br4 62.85(13) 1_655 .
Br5 Cs1 Br4 118.60(13) 4_665 2_645
Br5 Cs1 Br4 61.84(14) 2_645 2_645
Br5 Cs1 Br5 113.35(16) 1_655 2_645
Br5 Cs1 Br5 63.05(18) 1_655 4_665
Br5 Cs1 Br5 113.35(16) 4_665 3_665
Br5 Cs1 Br5 81.34(16) 4_665 2_645
Br5 Cs1 Br5 81.34(16) 1_655 3_665
Br5 Cs1 Br5 63.07(17) 2_645 3_665
Br5 Cs1 Br6 60.83(12) 3_665 3_665
Br5 Cs1 Br6 60.07(13) 1_655 3_665
Br5 Cs1 Br6 123.05(17) 4_665 3_665
Br5 Cs1 Br6 123.85(17) 3_665 3_655
Br5 Cs1 Br6 123.85(17) 2_645 3_665
Br5 Cs1 Br6 123.05(17) 1_655 3_655
Br5 Cs1 Br6 60.83(12) 2_645 3_655
Br5 Cs1 Br6 60.07(13) 4_665 3_655
Br5 Cs1 Cs1 90.56(12) 2_645 3_655
Br5 Cs1 Cs1 139.09(18) 3_665 3_655
Br5 Cs1 Cs1 139.49(19) 1_655 3_655
Br5 Cs1 Cs1 90.83(12) 4_665 3_655
Br6 Cs1 Br4 118.24(18) 3_655 3_665
Br6 Cs1 Br4 58.56(13) 3_665 .
Br6 Cs1 Br4 118.24(18) 3_665 2_645
Br6 Cs1 Br4 58.56(13) 3_655 4_565
Br6 Cs1 Br4 59.31(14) 3_655 2_645
Br6 Cs1 Br4 117.19(17) 3_665 4_565
Br6 Cs1 Br4 60.94(14) . 2_645
Br6 Cs1 Br4 59.31(14) 3_665 3_665
Br6 Cs1 Br4 61.33(13) . .
Br6 Cs1 Br4 60.94(14) . 3_665
Br6 Cs1 Br4 61.33(13) . 4_565
Br6 Cs1 Br4 117.19(17) 3_655 .
Br6 Cs1 Br5 122.65(15) . 3_665
Br6 Cs1 Br5 123.99(15) . 1_655
Br6 Cs1 Br5 122.65(15) . 2_645
Br6 Cs1 Br5 123.99(15) . 4_665
Br6 Cs1 Br6 86.98(11) . 3_655
Br6 Cs1 Br6 173.9(2) 3_655 3_665
Br6 Cs1 Br6 86.98(11) . 3_665
Br6 Cs1 Cs1 41.48(9) 3_655 3_655
Br6 Cs1 Cs1 45.50(9) . 3_655
Br6 Cs1 Cs1 132.47(18) 3_665 3_655
C1 C2 C3 109(3) . .
N0AA C1 C2 112(3) . .
C5 C4 N2 102(3) . .
C4 C5 C6 109(3) . .
loop_
_geom_bond_atom_site_label_1
_geom_bond_atom_site_label_2
_geom_bond_distance
_geom_bond_site_symmetry_2
Bi1 Br4 2.822(6) 4_565
Bi1 Br4 2.822(6) .
Bi1 Br5 2.787(5) 4_565
Bi1 Br5 2.787(5) .
Bi1 Br6 2.749(8) .
Bi1 Br1 2.797(10) .
Ag2 Br4 2.837(6) 2_645
Ag2 Br4 2.837(6) 3_665
Ag2 Br5 2.848(5) 3_565
Ag2 Br5 2.848(5) 2_545
Ag2 Br6 2.920(9) .
Ag2 Br0A 2.660(11) .
Br4 Ag2 2.837(6) 3_665
Br4 Cs1 3.998(8) 3_665
Br4 Cs1 4.019(8) .
Br5 Ag2 2.848(5) 3_565
Br5 Cs1 3.758(7) 1_455
Br5 Cs1 3.773(7) 3_665
Br6 Cs1 3.944(4) 3_655
Br6 Cs1 3.944(4) 3_665
Br6 Cs1 3.663(8) .
Cs1 Br4 3.998(8) 2_645
Cs1 Br4 4.019(8) 4_565
Cs1 Br4 3.998(8) 3_665
Cs1 Br5 3.773(7) 3_665
Cs1 Br5 3.758(7) 1_655
Cs1 Br5 3.758(7) 4_665
Cs1 Br5 3.773(7) 2_645
Cs1 Br6 3.944(4) 3_655
Cs1 Br6 3.944(4) 3_665
Cs1 Cs1 5.522(8) 3_655
N0AA C1 1.49(2) .
C2 C3 1.50(2) .
C2 C1 1.495(14) .
C4 N2 1.497(14) .
C4 C5 1.496(14) .
C6 C5 1.50(2) .
