#------------------------------------------------------------------------------
#$Date: 2019-11-25 07:36:55 +0200 (Mon, 25 Nov 2019) $
#$Revision: 240386 $
#$URL: file:///home/coder/svn-repositories/cod/cif/4/12/97/4129718.cif $
#------------------------------------------------------------------------------
#
# This file is available in the Crystallography Open Database (COD),
# http://www.crystallography.net/
#
# All data on this site have been placed in the public domain by the
# contributors.
#
data_4129718
loop_
_publ_author_name
'Furuyama, Taniyuki'
'Sato, Takehito'
'Kobayashi, Nagao'
_publ_section_title
;
 A Bottom-up Synthesis of Antiaromatic Expanded Phthalocyanines:
 Pentabenzotriazasmaragdyrins, i.e. Norcorroles of Superphthalocyanines.
;
_journal_issue                   43
_journal_name_full               'Journal of the American Chemical Society'
_journal_page_first              13788
_journal_page_last               13791
_journal_paper_doi               10.1021/jacs.5b09853
_journal_volume                  137
_journal_year                    2015
_chemical_formula_moiety         'C24 H16 F12 N4 O4, 2(C H4 O)'
_chemical_formula_sum            'C26 H24 F12 N4 O6'
_chemical_formula_weight         716.49
_space_group_crystal_system      triclinic
_space_group_IT_number           2
_space_group_name_Hall           '-P 1'
_space_group_name_H-M_alt        'P -1'
_atom_sites_solution_hydrogens   mixed
_atom_sites_solution_primary     direct
_atom_sites_solution_secondary   difmap
_audit_creation_method           SHELXL-2014/7
_cell_angle_alpha                91.9330(10)
_cell_angle_beta                 102.8530(10)
_cell_angle_gamma                91.4830(10)
_cell_formula_units_Z            1
_cell_length_a                   7.2292(6)
_cell_length_b                   8.3533(7)
_cell_length_c                   11.9019(10)
_cell_measurement_temperature    100(2)
_cell_volume                     699.91(10)
_computing_cell_refinement       'Bruker SMART'
_computing_data_collection       'Bruker SMART'
_computing_data_reduction        'Bruker SAINT'
_computing_molecular_graphics
'Yadokari-XG 2009 (Wakita, Nemoto et al., 2009)'
_computing_publication_material
'Yadokari-XG 2009 (Wakita, Nemoto et al., 2009)'
_computing_structure_refinement  'SHELXL-97 (Sheldrick, 1997)'
_computing_structure_solution    'SHELXS-97 (Sheldrick, 1997)'
_diffrn_ambient_temperature      100(2)
_diffrn_detector_area_resol_mean 8.333
_diffrn_measured_fraction_theta_full 0.996
_diffrn_measured_fraction_theta_max 0.996
_diffrn_measurement_device_type  'Bruker APEX-II CCD'
_diffrn_measurement_method       'phi and omega scans'
_diffrn_radiation_monochromator  'Bruker Helios multilayered confocal mirror'
_diffrn_radiation_source         'Bruker TXS fine-focus rotating anode'
_diffrn_radiation_type           MoK\a
_diffrn_radiation_wavelength     0.71073
_diffrn_reflns_av_R_equivalents  0.0146
_diffrn_reflns_av_unetI/netI     0.0159
_diffrn_reflns_Laue_measured_fraction_full 0.996
_diffrn_reflns_Laue_measured_fraction_max 0.996
_diffrn_reflns_limit_h_max       8
_diffrn_reflns_limit_h_min       -8
_diffrn_reflns_limit_k_max       9
_diffrn_reflns_limit_k_min       -9
_diffrn_reflns_limit_l_max       14
_diffrn_reflns_limit_l_min       -14
_diffrn_reflns_number            6694
_diffrn_reflns_point_group_measured_fraction_full 0.996
_diffrn_reflns_point_group_measured_fraction_max 0.996
_diffrn_reflns_theta_full        24.997
_diffrn_reflns_theta_max         24.997
_diffrn_reflns_theta_min         2.441
_exptl_absorpt_coefficient_mu    0.172
_exptl_absorpt_correction_T_max  0.9830
_exptl_absorpt_correction_T_min  0.9664
_exptl_absorpt_correction_type   empirical
_exptl_absorpt_process_details
'Sheldrick, G. M. (2008) SADABS. University of G\"ottingen, Germany.'
_exptl_crystal_colour            orange
_exptl_crystal_density_diffrn    1.700
_exptl_crystal_description       plate
_exptl_crystal_F_000             364
_exptl_crystal_size_max          0.200
_exptl_crystal_size_mid          0.200
_exptl_crystal_size_min          0.100
_refine_diff_density_max         0.219
_refine_diff_density_min         -0.310
_refine_diff_density_rms         0.047
_refine_ls_extinction_method     none
_refine_ls_goodness_of_fit_ref   1.091
_refine_ls_hydrogen_treatment    mixed
_refine_ls_matrix_type           full
_refine_ls_number_parameters     262
_refine_ls_number_reflns         2453
_refine_ls_number_restraints     0
_refine_ls_restrained_S_all      1.091
_refine_ls_R_factor_all          0.0309
_refine_ls_R_factor_gt           0.0289
_refine_ls_shift/su_max          0.000
_refine_ls_shift/su_mean         0.000
_refine_ls_structure_factor_coef Fsqd
_refine_ls_weighting_details
'w=1/[\s^2^(Fo^2^)+(0.0422P)^2^+0.3143P] where P=(Fo^2^+2Fc^2^)/3'
_refine_ls_weighting_scheme      calc
_refine_ls_wR_factor_gt          0.0789
_refine_ls_wR_factor_ref         0.0818
_reflns_Friedel_coverage         0.000
_reflns_number_gt                2296
_reflns_number_total             2453
_reflns_threshold_expression     'I > 2\s(I)'
_cod_data_source_file            ja5b09853_si_002.cif
_cod_data_source_block           test
_cod_database_code               4129718
_shelx_shelxl_version_number     2014/7
_shelx_space_group_comment
;
The symmetry employed for this shelxl refinement is uniquely defined
by the following loop, which should always be used as a source of
symmetry information in preference to the above space-group names.
They are only intended as comments.
;
_shelx_estimated_absorpt_t_min   0.966
_shelx_estimated_absorpt_t_max   0.983
_exptl_absorpt_special_details
; 
 SADABS (Sheldrick, 1997) 
;
_shelx_res_file
;

    test.res created by SHELXL-2014/7

TITL
REM  Yadorkari-X generated
CELL 0.71073 7.2292 8.3533 11.9019 91.9330 102.8530 91.4830
ZERR 1.0 0.0006 0.0007 0.0010 0.0010 0.0010 0.0010
LATT 1
REM  SPGR P-1 triclinic
SFAC C H N O F
UNIT 26 24 4 6 12
SIZE 0.20 0.20 0.10
TEMP -173.0
L.S. 10
FMAP 2
PLAN -25
ACTA
CONF
OMIT -10.000000 50.000000

WGHT    0.042200    0.314300
FVAR       0.22351
N1    3   -0.390565   -0.199244    0.498507    11.00000    0.01569    0.01500 =
         0.01586    0.00119    0.00633    0.00125
C1    1   -0.430653   -0.037254    0.479413    11.00000    0.01407    0.01520 =
         0.01263    0.00009    0.00338   -0.00080
C2    1   -0.302731    0.030232    0.411523    11.00000    0.01325    0.01705 =
         0.01223   -0.00111    0.00309   -0.00054
C3    1   -0.284116    0.178307    0.363431    11.00000    0.01580    0.01546 =
         0.01438   -0.00187    0.00431    0.00053
H1    2   -0.364482    0.265426    0.371423    11.00000    0.01745
C4    1   -0.147291    0.197239    0.299948    11.00000    0.01863    0.01519 =
         0.01413    0.00027    0.00445   -0.00295
C5    1   -0.026451    0.072267    0.284951    11.00000    0.01402    0.02154 =
         0.01402   -0.00131    0.00624   -0.00289
C6    1   -0.042407   -0.074534    0.333470    11.00000    0.01494    0.01744 =
         0.01524   -0.00134    0.00523    0.00157
H2    2    0.039986   -0.154581    0.325476    11.00000    0.01539
C7    1   -0.183669   -0.092525    0.395058    11.00000    0.01429    0.01656 =
         0.01261   -0.00090    0.00255   -0.00027
C8    1   -0.244568   -0.231428    0.451874    11.00000    0.01479    0.01685 =
         0.01247    0.00025    0.00246    0.00021
N2    3   -0.165500   -0.374253    0.454497    11.00000    0.01948    0.01699 =
         0.02299    0.00343    0.01174    0.00448
H3    2   -0.207545   -0.451887    0.492034    11.00000    0.03412
O1    4   -0.125406    0.346272    0.255644    11.00000    0.02600    0.01534 =
         0.01639    0.00094    0.00931   -0.00217
C9    1   -0.158567    0.349761    0.133410    11.00000    0.02979    0.02204 =
         0.01676    0.00001    0.01018   -0.00439
H4    2   -0.049364    0.322805    0.105369    11.00000    0.02354
C10   1   -0.209336    0.516735    0.100555    11.00000    0.02075    0.02752 =
         0.01872    0.00173    0.00632    0.00000
H5    2    0.146091   -0.117948    0.169247    11.00000    0.02114
H6    2   -0.261690    0.276873    0.096477    11.00000    0.03091
H7    2    0.466036    0.517418    0.325051    11.00000    0.05199
H8    2   -0.074060   -0.389902    0.420616    11.00000    0.02551
F1    5   -0.368157    0.562293    0.128465    11.00000    0.03476    0.06557 =
         0.04261    0.01759    0.01953    0.02571
F2    5   -0.073521    0.624851    0.150115    11.00000    0.04674    0.01992 =
         0.03701    0.00495   -0.00077   -0.00886
F3    5   -0.232039    0.529125   -0.013625    11.00000    0.04110    0.03729 =
         0.02090    0.00971    0.00701    0.00198
O2    4    0.102498    0.107583    0.219189    11.00000    0.01903    0.02037 =
         0.02275    0.00197    0.01380    0.00069
C11   1    0.218959   -0.018618    0.198901    11.00000    0.01718    0.02344 =
         0.02120    0.00189    0.00908    0.00251
H9    2    0.312064   -0.039730    0.267859    11.00000    0.02464
C12   1    0.318972    0.033951    0.107776    11.00000    0.01699    0.02729 =
         0.02096    0.00046    0.00755    0.00169
F4    5    0.413664    0.174278    0.134222    11.00000    0.02403    0.03559 =
         0.02828    0.00311    0.01027   -0.00849
F5    5    0.200158    0.049107    0.005668    11.00000    0.02624    0.05140 =
         0.01718    0.00289    0.00650   -0.00365
F6    5    0.443733   -0.076143    0.093391    11.00000    0.03631    0.04159 =
         0.04324    0.01066    0.02998    0.01558
C13   1    0.333055    0.531125    0.307199    11.00000    0.02351    0.02605 =
         0.02289   -0.00353    0.00731    0.00216
H10   2    0.271028    0.433989    0.294105    11.00000    0.05017
H11   2    0.312756    0.596094    0.237906    11.00000    0.05668
O3    4    0.275464    0.613744    0.400580    11.00000    0.02147    0.01942 =
         0.02275   -0.00299    0.00917   -0.00254
AFIX 147
H12   2    0.366478    0.671725    0.438173    11.00000   -1.50000

AFIX   0
HKLF 4 1 1 0 0 0 1 0 0 0 1

REM
REM R1 =  0.0289 for    2296 Fo > 4sig(Fo)  and  0.0309 for all    2453 data
REM    262 parameters refined using      0 restraints

END

WGHT      0.0422      0.3143

REM Highest difference peak  0.219,  deepest hole -0.310,  1-sigma level  0.047
Q1    1  -0.1973 -0.1620  0.4177  11.00000  0.05    0.22
Q2    1  -0.0994 -0.0769  0.3792  11.00000  0.05    0.20
Q3    1  -0.3744  0.0075  0.4480  11.00000  0.05    0.20
Q4    1   0.2625  0.0092  0.1580  11.00000  0.05    0.20
Q5    1  -0.2723  0.1184  0.4034  11.00000  0.05    0.19
Q6    1   0.0044  0.0174  0.3368  11.00000  0.05    0.18
Q7    1  -0.5304 -0.0106  0.4734  11.00000  0.05    0.18
Q8    1   0.2258  0.5314  0.2320  11.00000  0.05    0.18
Q9    1   0.0331  0.0850  0.2589  11.00000  0.05    0.17
Q10   1  -0.2484  0.1739  0.3092  11.00000  0.05    0.17
Q11   1  -0.1757  0.2002  0.3625  11.00000  0.05    0.17
Q12   1  -0.2405 -0.0264  0.4083  11.00000  0.05    0.16
Q13   1  -0.0718 -0.0180  0.2779  11.00000  0.05    0.16
Q14   1  -0.2614 -0.0337  0.3779  11.00000  0.05    0.16
Q15   1  -0.1038  0.1276  0.2762  11.00000  0.05    0.16
Q16   1  -0.0755  0.1406  0.3086  11.00000  0.05    0.16
Q17   1  -0.1763  0.4325  0.1202  11.00000  0.05    0.14
Q18   1  -0.4929 -0.2627  0.4793  11.00000  0.05    0.14
Q19   1   0.4493  0.5848  0.2760  11.00000  0.05    0.14
Q20   1  -0.4029 -0.1048  0.4985  11.00000  0.05    0.13
Q21   1  -0.3648  0.5436 -0.0164  11.00000  0.05    0.12
Q22   1  -0.4195 -0.2395  0.5351  11.00000  0.05    0.12
Q23   1   0.3414 -0.2111  0.0577  11.00000  0.05    0.11
Q24   1  -0.5701  0.5669  0.0655  11.00000  0.05    0.11
Q25   1  -0.3352  0.3170  0.0997  11.00000  0.05    0.11
;
_shelx_res_checksum              97475
_shelx_hkl_file
;
  -1   0   0   10.77    0.21
   1   0   0   10.66    0.21
   1   0   0   10.71    0.22
   1   0   0   10.48    0.21
  -2   0   0  140.73    2.60
   2   0   0  138.54    2.63
   2   0   0  139.51    2.77
   2   0   0  135.34    2.70
  -3   0   0    6.06    0.14
   3   0   0    6.17    0.15
   3   0   0    6.32    0.15
  -4   0   0    5.57    0.14
   4   0   0    5.45    0.14
  -5   0   0    9.33    0.22
  -5   0   0    9.84    0.25
   5   0   0   10.01    0.24
   5   0   0    9.92    0.23
  -6   0   0    3.09    0.12
   6   0   0    2.96    0.12
  -7   0   0    1.51    0.09
   7   0   0    1.45    0.09
  -8   0   0    2.19    0.12
   8   0   0    2.19    0.11
  -9   0   0   -0.04    0.03
   9   0   0    0.00    0.03
   9  -1   0    0.12    0.04
  -9   1   0    0.05    0.04
   8  -1   0   12.77    0.33
  -8   1   0   11.86    0.34
   7  -1   0    0.24    0.05
  -7   1   0    0.22    0.05
   6  -1   0   13.73    0.32
  -6   1   0   13.72    0.32
   5  -1   0    8.10    0.20
   5  -1   0    8.25    0.22
  -5   1   0    7.59    0.20
   4  -1   0    0.16    0.02
   4  -1   0    0.12    0.03
   4  -1   0    0.15    0.03
  -4   1   0    0.14    0.03
   3  -1   0   14.46    0.29
   3  -1   0   13.86    0.29
   3  -1   0   14.79    0.31
  -3   1   0   14.07    0.30
   2  -1   0   21.06    0.41
   2  -1   0   20.43    0.40
   2  -1   0   20.25    0.39
  -2   1   0   20.13    0.40
   1  -1   0    0.00    0.01
   1  -1   0   -0.01    0.01
  -1   1   0    0.02    0.01
  -1   1   0    0.00    0.01
   0  -1   0   40.58    1.07
   0   1   0   40.03    0.81
   0   1   0   41.92    0.79
   1   1   0   10.00    0.20
  -2  -1   0   68.63    1.32
   2   1   0   69.71    1.24
   2   1   0   66.54    1.33
   2   1   0   62.26    1.26
  -3  -1   0   27.08    0.51
  -3  -1   0   26.77    0.54
   3   1   0   27.09    0.52
   3   1   0   26.70    0.56
  -4  -1   0   14.70    0.33
  -4  -1   0   14.64    0.30
   4   1   0   14.61    0.32
   4   1   0   14.98    0.33
  -5  -1   0    0.10    0.03
   5   1   0    0.07    0.02
   5   1   0    0.05    0.02
  -6  -1   0   21.82    0.49
   6   1   0   21.51    0.47
   6   1   0   22.10    0.48
  -7  -1   0    9.48    0.27
   7   1   0    9.24    0.26
  -8  -1   0    2.47    0.13
   8   1   0    2.52    0.12
  -9  -1   0    3.60    0.17
   9   1   0    3.87    0.16
   9  -2   0    1.34    0.10
  -9   2   0    1.28    0.12
   8  -2   0    5.97    0.20
  -8   2   0    5.91    0.21
   7  -2   0   13.26    0.36
   7  -2   0   14.26    0.34
  -7   2   0   13.61    0.34
   6  -2   0    0.49    0.05
   6  -2   0    0.46    0.06
  -6   2   0    0.55    0.06
   5  -2   0    0.41    0.05
   5  -2   0    0.60    0.05
  -5   2   0    0.43    0.05
   4  -2   0    7.14    0.19
   4  -2   0    6.90    0.18
  -4   2   0    6.92    0.18
  -4   2   0    6.86    0.15
   3  -2   0    2.60    0.08
   3  -2   0    2.38    0.09
  -3   2   0    2.68    0.09
  -3   2   0    2.63    0.06
   2  -2   0   16.64    0.34
   2  -2   0   17.08    0.33
  -2   2   0   16.57    0.34
  -2   2   0   16.80    0.34
   1  -2   0   11.21    0.23
   1  -2   0   11.67    0.22
  -1   2   0   11.60    0.24
  -1   2   0   11.52    0.24
   0  -2   0  233.87    4.28
   0   2   0  235.50    4.34
  -1  -2   0   28.60    0.54
  -1  -2   0   28.95    0.55
   1   2   0   27.77    0.58
   1   2   0   29.13    0.53
  -2  -2   0   33.69    0.64
   2   2   0   33.20    0.68
   2   2   0   33.14    0.61
  -3  -2   0    0.02    0.02
   3   2   0   -0.01    0.01
   3   2   0   -0.01    0.01
  -4  -2   0   31.44    0.64
  -4  -2   0   31.84    0.60
   4   2   0   31.92    0.67
   4   2   0   32.25    0.63
  -5  -2   0    7.29    0.20
   5   2   0    7.18    0.20
   5   2   0    7.28    0.20
  -6  -2   0    4.30    0.15
   6   2   0    4.17    0.15
   6   2   0    4.47    0.15
  -7  -2   0    0.73    0.07
   7   2   0    0.71    0.07
  -8  -2   0    8.86    0.27
   8   2   0    8.61    0.26
  -9  -2   0    9.70    0.30
   8  -3   0    5.20    0.20
   8  -3   0    5.25    0.19
   7  -3   0    3.09    0.14
   7  -3   0    2.98    0.13
  -7   3   0    2.95    0.13
   6  -3   0   20.12    0.44
   6  -3   0   18.89    0.46
  -6   3   0   20.32    0.45
   5  -3   0   25.58    0.53
   5  -3   0   25.93    0.55
  -5   3   0   25.10    0.55
   4  -3   0    0.10    0.03
   4  -3   0    0.07    0.02
  -4   3   0    0.07    0.03
   3  -3   0    0.05    0.02
   3  -3   0    0.01    0.02
  -3   3   0    0.03    0.02
  -3   3   0    0.02    0.01
   2  -3   0   66.72    1.26
   2  -3   0   67.59    1.28
  -2   3   0   68.07    1.33
  -2   3   0   67.41    1.26
   1  -3   0  125.13    2.42
   1  -3   0  126.93    2.36
  -1   3   0  127.15    2.53
  -1   3   0  124.43    2.37
   0  -3   0    2.26    0.06
   0  -3   0    2.33    0.07
   0   3   0    2.26    0.07
   0   3   0    2.33    0.08
  -1  -3   0    2.45    0.07
  -1  -3   0    2.55    0.07
   1   3   0    2.51    0.06
   1   3   0    2.56    0.09
  -2  -3   0   56.36    1.05
   2   3   0   54.71    1.03
   2   3   0   56.15    1.13
  -3  -3   0   16.42    0.35
   3   3   0   17.05    0.31
  -4  -3   0    0.93    0.05
   4   3   0    0.82    0.06
   4   3   0    0.91    0.05
  -5  -3   0    0.32    0.04
   5   3   0    0.31    0.05
   5   3   0    0.45    0.05
  -6  -3   0    0.09    0.03
   6   3   0    0.11    0.03
   6   3   0    0.16    0.04
  -7  -3   0    0.21    0.04
   7   3   0    0.26    0.05
   7   3   0    0.18    0.04
  -8  -3   0    0.35    0.06
   8   3   0    0.22    0.05
   8  -4   0    0.02    0.04
  -8   4   0    0.00    0.03
   7  -4   0    0.10    0.04
   7  -4   0    0.04    0.03
  -7   4   0    0.05    0.04
   6  -4   0    2.17    0.10
   6  -4   0    2.34    0.11
  -6   4   0    2.40    0.12
   5  -4   0    2.72    0.11
   5  -4   0    2.71    0.10
  -5   4   0    2.77    0.12
   4  -4   0   42.62    0.81
   4  -4   0   41.21    0.85
  -4   4   0   42.22    0.84
   3  -4   0    2.05    0.08
   3  -4   0    2.14    0.08
  -3   4   0    2.23    0.07
  -3   4   0    2.08    0.09
   2  -4   0    0.01    0.02
   2  -4   0   -0.01    0.01
  -2   4   0   -0.01    0.01
  -2   4   0    0.02    0.02
   1  -4   0   85.80    1.69
   1  -4   0   86.64    1.64
  -1   4   0   85.75    1.69
  -1   4   0   85.27    1.59
   0  -4   0   16.59    0.34
   0  -4   0   16.99    0.33
   0   4   0   16.65    0.34
   0   4   0   16.48    0.37
  -1  -4   0   24.50    0.48
  -1  -4   0   25.13    0.49
   1   4   0   24.64    0.47
   1   4   0   24.56    0.53
  -2  -4   0  101.35    1.96
  -2  -4   0  103.09    2.02
   2   4   0  105.47    2.05
   2   4   0  101.53    1.90
  -3  -4   0   30.03    0.59
  -3  -4   0   29.91    0.60
   3   4   0   30.62    0.66
  -4  -4   0    2.38    0.09
   4   4   0    2.57    0.10
   4   4   0    2.44    0.11
  -5  -4   0   12.09    0.29
   5   4   0   12.38    0.30
   5   4   0   12.55    0.33
  -6  -4   0    1.72    0.09
   6   4   0    1.48    0.09
   6   4   0    2.00    0.11
  -7  -4   0   15.93    0.39
   7   4   0   16.19    0.42
   7   4   0   15.39    0.39
  -8  -4   0    0.01    0.04
   8   4   0    0.01    0.03
   8  -5   0    0.74    0.09
  -8   5   0    0.56    0.08
   7  -5   0    0.23    0.05
  -7   5   0    0.31    0.06
   6  -5   0    0.02    0.03
  -6   5   0   -0.02    0.03
   5  -5   0    0.65    0.07
   5  -5   0    0.65    0.06
  -5   5   0    0.57    0.07
   4  -5   0    4.18    0.13
   4  -5   0    4.36    0.15
  -4   5   0    4.37    0.15
   3  -5   0    1.14    0.06
   3  -5   0    1.18    0.06
  -3   5   0    1.09    0.07
   2  -5   0    0.99    0.05
   2  -5   0    1.28    0.06
  -2   5   0    1.21    0.07
  -2   5   0    1.27    0.06
   1  -5   0    5.14    0.13
   1  -5   0    4.95    0.13
  -1   5   0    4.79    0.14
  -1   5   0    5.13    0.15
   0  -5   0   14.86    0.31
   0  -5   0   14.81    0.31
   0   5   0   15.09    0.32
   0   5   0   14.84    0.35
  -1  -5   0   64.24    1.20
  -1  -5   0   63.08    1.17
   1   5   0   62.12    1.29
   1   5   0   63.55    1.18
  -2  -5   0   21.94    0.45
  -2  -5   0   21.94    0.45
   2   5   0   22.47    0.51
  -3  -5   0   29.21    0.59
  -3  -5   0   28.67    0.58
   3   5   0   29.86    0.65
  -4  -5   0    0.28    0.04
  -4  -5   0    0.35    0.04
   4   5   0    0.37    0.05
  -5  -5   0    0.16    0.03
  -5  -5   0    0.13    0.04
   5   5   0    0.12    0.04
  -6  -5   0    1.72    0.09
   6   5   0    1.66    0.11
  -7  -5   0    5.90    0.19
   7   5   0    5.89    0.22
   7  -6   0    2.22    0.13
  -7   6   0    2.81    0.14
   6  -6   0    1.89    0.11
  -6   6   0    1.66    0.11
   5  -6   0    0.21    0.04
  -5   6   0    0.08    0.04
   4  -6   0    2.13    0.09
   4  -6   0    2.24    0.10
  -4   6   0    1.95    0.11
   3  -6   0    2.31    0.09
   3  -6   0    2.20    0.10
  -3   6   0    2.15    0.10
   2  -6   0   17.63    0.39
   2  -6   0   17.57    0.37
  -2   6   0   18.28    0.40
  -2   6   0   17.81    0.40
   1  -6   0    5.42    0.14
   1  -6   0    5.53    0.15
  -1   6   0    5.36    0.16
  -1   6   0    5.58    0.17
   0  -6   0    1.04    0.06
   0  -6   0    0.94    0.06
   0   6   0    1.39    0.07
   0   6   0    1.46    0.07
  -1  -6   0    0.11    0.03
  -1  -6   0    0.16    0.03
   1   6   0    0.05    0.02
   1   6   0    0.02    0.03
  -2  -6   0    0.38    0.04
  -2  -6   0    0.41    0.05
   2   6   0    0.24    0.05
  -3  -6   0   16.41    0.36
  -3  -6   0   15.92    0.36
   3   6   0   16.59    0.42
  -4  -6   0    1.94    0.09
  -4  -6   0    1.99    0.09
   4   6   0    2.06    0.11
  -5  -6   0    0.19    0.04
  -5  -6   0    0.18    0.04
   5   6   0    0.19    0.05
  -6  -6   0    4.00    0.15
   6   6   0    3.89    0.17
  -7  -6   0    0.10    0.04
   7   6   0    0.07    0.05
   7  -7   0    3.48    0.17
  -7   7   0    3.76    0.18
   6  -7   0    1.09    0.10
  -6   7   0    1.33    0.11
   5  -7   0    0.41    0.06
  -5   7   0    0.47    0.07
   4  -7   0    5.04    0.17
  -4   7   0    4.73    0.18
   3  -7   0    3.67    0.13
  -3   7   0    3.81    0.15
   2  -7   0   24.25    0.51
   2  -7   0   23.87    0.49
  -2   7   0   23.75    0.53
   1  -7   0   14.06    0.31
   1  -7   0   13.89    0.32
  -1   7   0   13.97    0.34
  -1   7   0   13.80    0.33
   0  -7   0   51.27    0.96
   0  -7   0   50.66    0.99
   0   7   0   49.91    1.06
   0   7   0   49.62    0.98
  -1  -7   0    5.40    0.15
  -1  -7   0    5.40    0.15
   1   7   0    5.15    0.18
  -2  -7   0   17.89    0.38
  -2  -7   0   17.90    0.39
   2   7   0   17.42    0.44
  -3  -7   0    5.63    0.17
  -3  -7   0    5.97    0.17
   3   7   0    5.86    0.21
  -4  -7   0    9.42    0.25
   4   7   0    9.23    0.29
  -5  -7   0    6.48    0.20
   5   7   0    6.89    0.24
  -6  -7   0    2.75    0.13
  -6   8   0    3.08    0.16
   5  -8   0    9.45    0.29
  -5   8   0    9.60    0.30
   4  -8   0    0.02    0.03
  -4   8   0    0.01    0.04
   3  -8   0    2.24    0.11
  -3   8   0    2.31    0.12
   2  -8   0    6.64    0.20
  -2   8   0    6.56    0.21
   1  -8   0    1.06    0.07
  -1   8   0    0.93    0.07
  -1   8   0    1.03    0.07
   0  -8   0    0.47    0.05
   0  -8   0    0.53    0.05
   0   8   0    0.42    0.05
   0   8   0    0.53    0.06
  -1  -8   0   12.73    0.30
  -1  -8   0   12.79    0.30
   1   8   0   12.63    0.35
  -2  -8   0    1.39    0.08
  -2  -8   0    1.22    0.07
   2   8   0    1.09    0.10
  -3  -8   0   19.19    0.43
   3   8   0   19.59    0.50
  -4  -8   0    1.45    0.09
   4   8   0    1.54    0.11
  -5  -8   0   -0.03    0.03
   5   8   0    0.04    0.04
  -6  -8   0    0.59    0.08
   5  -9   0    1.84    0.12
  -5   9   0    1.98    0.13
   4  -9   0    6.77    0.23
  -4   9   0    6.71    0.24
   3  -9   0    2.58    0.12
  -3   9   0    2.40    0.13
   2  -9   0    0.07    0.03
  -2   9   0    0.02    0.03
   1  -9   0    0.70    0.07
  -1   9   0    0.62    0.07
   0  -9   0    1.21    0.07
   0   9   0    1.08    0.09
  -1  -9   0    0.21    0.05
   1   9   0    0.20    0.05
  -2  -9   0    1.17    0.08
   2   9   0    1.15    0.11
  -3  -9   0    0.69    0.07
   3   9   0    0.58    0.08
  -4  -9   0    0.80    0.08
   4   9   0    0.74    0.09
  -5  -9   0    2.96    0.14
   4 -10   0    0.47    0.07
  -4  10   0    0.56    0.08
   3 -10   0    0.10    0.04
  -3  10   0    0.02    0.04
   2 -10   0    5.32    0.19
  -2  10   0    5.61    0.20
   1  10   0    0.18    0.05
   2  10   0    2.96    0.16
   3  10   0    0.25    0.06
   3  10  -1    0.26    0.06
   2  10  -1    1.75    0.12
   1  10  -1    4.43    0.19
   0 -10   1    0.09    0.04
   1 -10   1    0.78    0.07
  -2  10  -1    0.20    0.05
   2 -10   1    0.24    0.05
  -3  10  -1    0.11    0.05
   3 -10   1    0.14    0.04
   4 -10   1    0.04    0.04
  -5  -9   1    0.45    0.07
   4   9  -1    0.01    0.04
  -4  -9   1   -0.07    0.03
   3   9  -1    0.43    0.07
  -3  -9   1    0.44    0.06
   2   9  -1    2.17    0.13
  -2  -9   1    2.10    0.10
   1   9  -1    2.36    0.13
  -1  -9   1    2.77    0.11
   0   9  -1    0.76    0.08
   0  -9   1    0.77    0.07
  -1   9  -1    1.26    0.09
   1  -9   1    1.23    0.08
  -2   9  -1    1.60    0.10
   2  -9   1    1.55    0.09
  -3   9  -1    0.02    0.04
   3  -9   1    0.01    0.03
  -4   9  -1    0.97    0.10
   4  -9   1    1.00    0.09
  -5   9  -1    2.56    0.15
   5  -9   1    2.01    0.12
   6   8  -1    0.00    0.04
  -6  -8   1    0.00    0.04
   5   8  -1    0.46    0.08
  -5  -8   1    0.39    0.06
   4   8  -1    0.83    0.09
  -4  -8   1    0.96    0.07
   3   8  -1    3.99    0.18
  -3  -8   1    3.99    0.14
  -3  -8   1    4.30    0.15
   2   8  -1    2.42    0.13
  -2  -8   1    2.83    0.11
  -2  -8   1    2.67    0.10
   1   8  -1    4.21    0.17
  -1  -8   1    4.23    0.13
  -1  -8   1    4.26    0.14
   0  -8   1    0.66    0.06
  -1   8  -1    0.07    0.03
  -1   8  -1    0.11    0.04
   1  -8   1    0.14    0.04
  -2   8  -1    0.16    0.04
   2  -8   1    0.19    0.04
  -3   8  -1    7.06    0.23
   3  -8   1    6.91    0.21
  -4   8  -1    0.01    0.03
   4  -8   1    0.05    0.04
  -5   8  -1    0.04    0.05
   5  -8   1    0.05    0.04
  -6   8  -1    0.35    0.07
   6  -8   1    0.35    0.06
   7   7  -1    2.75    0.15
   6   7  -1   -0.01    0.04
  -6  -7   1    0.09    0.04
   5   7  -1    0.57    0.08
  -5  -7   1    0.59    0.06
  -5  -7   1    0.56    0.07
   4   7  -1    0.10    0.04
  -4  -7   1    0.14    0.04
  -4  -7   1    0.16    0.04
   3   7  -1   19.87    0.50
  -3  -7   1   19.96    0.44
  -3  -7   1   19.52    0.42
   2   7  -1    6.22    0.21
  -2  -7   1    6.25    0.18
  -2  -7   1    6.45    0.17
   1   7  -1    1.02    0.08
  -1  -7   1    1.08    0.07
  -1  -7   1    1.12    0.06
   0   7  -1   12.77    0.30
   0   7  -1   12.67    0.33
   0  -7   1   12.57    0.28
   0  -7   1   12.41    0.29
  -1   7  -1    1.25    0.08
  -1   7  -1    1.35    0.08
   1  -7   1    1.35    0.07
   1  -7   1    1.24    0.07
  -2   7  -1   23.69    0.53
   2  -7   1   24.35    0.52
  -3   7  -1    3.88    0.15
   3  -7   1    4.33    0.15
  -4   7  -1    1.22    0.09
   4  -7   1    1.36    0.09
  -5   7  -1    0.39    0.07
   5  -7   1    0.35    0.06
  -6   7  -1   -0.01    0.03
   6  -7   1    0.09    0.04
  -7   7  -1    5.38    0.22
   7   6  -1    0.31    0.06
  -7  -6   1    0.49    0.06
  -7  -6   1    0.36    0.06
   6   6  -1   35.17    0.82
  -6  -6   1   36.84    0.75
  -6  -6   1   35.16    0.74
   5   6  -1   10.23    0.31
  -5  -6   1   10.00    0.26
  -5  -6   1   10.33    0.26
   4   6  -1    8.49    0.27
  -4  -6   1    9.00    0.23
  -4  -6   1    8.63    0.23
   3   6  -1    0.81    0.08
  -3  -6   1    0.87    0.06
  -3  -6   1    0.87    0.07
   2   6  -1   35.07    0.77
  -2  -6   1   35.44    0.71
  -2  -6   1   35.56    0.69
   1   6  -1   -0.03    0.02
   1   6  -1   -0.03    0.02
  -1  -6   1    0.02    0.02
  -1  -6   1    0.02    0.03
   0   6  -1    2.78    0.11
   0   6  -1    2.74    0.10
   0  -6   1    2.82    0.10
   0  -6   1    2.80    0.09
  -1   6  -1    0.17    0.03
  -1   6  -1    0.13    0.03
   1  -6   1    0.15    0.03
   1  -6   1    0.19    0.03
  -2   6  -1    0.04    0.02
  -2   6  -1    0.00    0.02
   2  -6   1   -0.02    0.02
   2  -6   1    0.00    0.02
  -3   6  -1    3.04    0.13
   3  -6   1    3.19    0.12
  -4   6  -1    6.42    0.21
   4  -6   1    6.48    0.20
  -5   6  -1    0.53    0.07
   5  -6   1    0.44    0.06
  -6   6  -1    5.51    0.20
   6  -6   1    5.08    0.19
  -7   6  -1    0.16    0.05
   7  -6   1    0.20    0.05
   8   5  -1    0.00    0.03
  -8  -5   1   -0.05    0.04
   7   5  -1    4.74    0.17
   7   5  -1    5.06    0.20
  -7  -5   1    4.68    0.17
   6   5  -1    6.39    0.22
   6   5  -1    6.36    0.20
  -6  -5   1    6.31    0.19
   5   5  -1   15.07    0.35
   5   5  -1   15.70    0.40
  -5  -5   1   15.06    0.35
   4   5  -1    0.06    0.03
  -4  -5   1    0.06    0.03
  -4  -5   1    0.04    0.03
   3   5  -1   13.05    0.33
  -3  -5   1   12.58    0.28
  -3  -5   1   12.56    0.29
   2   5  -1    0.08    0.03
  -2  -5   1    0.06    0.02
  -2  -5   1    0.03    0.03
   1   5  -1    0.11    0.03
   1   5  -1    0.01    0.02
  -1  -5   1    0.03    0.02
  -1  -5   1    0.04    0.02
   0   5  -1   93.53    1.71
   0   5  -1   91.11    1.84
   0  -5   1   92.46    1.74
   0  -5   1   92.98    1.72
  -1   5  -1   43.69    0.85
  -1   5  -1   43.55    0.90
   1  -5   1   43.63    0.85
   1  -5   1   43.46    0.81
  -2   5  -1   36.75    0.76
  -2   5  -1   37.07    0.75
   2  -5   1   37.58    0.74
   2  -5   1   37.36    0.70
  -3   5  -1    4.68    0.15
   3  -5   1    4.60    0.14
   3  -5   1    4.63    0.13
  -4   5  -1    4.16    0.15
   4  -5   1    4.29    0.15
   4  -5   1    4.26    0.13
  -5   5  -1   26.71    0.59
   5  -5   1   26.59    0.59
  -6   5  -1    0.79    0.08
   6  -5   1    0.78    0.08
  -7   5  -1    0.58    0.08
   7  -5   1    0.36    0.06
  -8   5  -1    3.86    0.18
   8   4  -1    1.48    0.10
  -8  -4   1    1.25    0.09
   7   4  -1    0.09    0.04
   7   4  -1    0.08    0.04
  -7  -4   1    0.09    0.04
   6   4  -1    8.88    0.26
   6   4  -1    8.80    0.24
  -6  -4   1    8.93    0.24
   5   4  -1    0.08    0.03
   5   4  -1    0.06    0.03
  -5  -4   1    0.06    0.03
   4   4  -1    0.05    0.03
   4   4  -1    0.03    0.02
  -4  -4   1    0.07    0.03
   3   4  -1   12.73    0.32
   3   4  -1   13.15    0.28
  -3  -4   1   12.64    0.28
   2   4  -1   23.72    0.52
   2   4  -1   23.57    0.44
  -2  -4   1   23.30    0.46
  -2  -4   1   23.70    0.48
   1   4  -1   74.98    1.48
   1   4  -1   75.53    1.36
  -1  -4   1   72.96    1.41
  -1  -4   1   72.75    1.45
   0   4  -1    5.40    0.15
   0   4  -1    5.18    0.14
   0  -4   1    5.40    0.13
   0  -4   1    5.49    0.12
  -1   4  -1    0.02    0.02
  -1   4  -1   -0.01    0.01
   1  -4   1    0.01    0.02
   1  -4   1    0.01    0.01
  -2   4  -1   56.77    1.08
  -2   4  -1   56.79    1.13
   2  -4   1   55.74    1.09
   2  -4   1   56.79    1.04
  -3   4  -1    4.27    0.14
  -3   4  -1    4.20    0.11
   3  -4   1    4.35    0.12
   3  -4   1    4.36    0.13
  -4   4  -1    4.13    0.14
   4  -4   1    4.06    0.14
   4  -4   1    4.27    0.12
  -5   4  -1    0.45    0.06
   5  -4   1    0.54    0.06
   5  -4   1    0.59    0.05
  -6   4  -1    4.92    0.18
   6  -4   1    4.82    0.16
   6  -4   1    4.72    0.17
  -7   4  -1   10.29    0.29
   7  -4   1    9.31    0.29
  -8   4  -1    0.15    0.05
   8  -4   1    0.11    0.05
   8   3  -1    3.60    0.15
  -8  -3   1    3.42    0.15
   7   3  -1    2.29    0.11
   7   3  -1    2.23    0.11
  -7  -3   1    2.09    0.11
   6   3  -1    0.49    0.06
   6   3  -1    0.58    0.06
  -6  -3   1    0.50    0.06
   5   3  -1    5.27    0.16
   5   3  -1    5.23    0.17
  -5  -3   1    5.00    0.15
   4   3  -1   24.75    0.55
   4   3  -1   24.99    0.51
  -4  -3   1   24.97    0.52
   3   3  -1    5.92    0.15
   3   3  -1    5.60    0.17
  -3  -3   1    5.89    0.15
   2   3  -1   -0.06    0.01
   2   3  -1   -0.02    0.01
  -2  -3   1   -0.03    0.01
   1   3  -1    2.85    0.07
  -1  -3   1    2.84    0.07
  -1  -3   1    2.78    0.08
   0   3  -1   65.93    1.20
   0   3  -1   64.06    1.29
   0  -3   1   65.78    1.24
   0  -3   1   64.53    1.28
  -1   3  -1  148.82    2.96
  -1   3  -1  143.32    2.78
   1  -3   1  148.95    2.90
   1  -3   1  150.16    2.74
  -2   3  -1    5.08    0.13
  -2   3  -1    4.99    0.14
   2  -3   1    5.24    0.12
  -3   3  -1    5.06    0.15
  -3   3  -1    5.03    0.12
   3  -3   1    5.26    0.15
   3  -3   1    5.21    0.13
  -4   3  -1   17.00    0.39
   4  -3   1   17.88    0.40
   4  -3   1   18.55    0.37
  -5   3  -1    6.57    0.20
   5  -3   1    6.77    0.20
   5  -3   1    7.08    0.18
  -6   3  -1    2.38    0.11
   6  -3   1    2.41    0.10
   6  -3   1    2.37    0.11
  -7   3  -1    4.80    0.18
   7  -3   1    5.08    0.19
   7  -3   1    5.29    0.17
   8  -3   1    0.16    0.05
  -9  -2   1    1.09    0.10
   8   2  -1    0.09    0.04
  -8  -2   1    0.12    0.04
   7   2  -1   11.72    0.30
  -7  -2   1   11.47    0.31
   6   2  -1   13.40    0.33
   6   2  -1   14.32    0.34
  -6  -2   1   13.47    0.33
   5   2  -1    6.25    0.18
   5   2  -1    6.77    0.19
  -5  -2   1    6.56    0.18
   4   2  -1    4.50    0.14
   4   2  -1    4.34    0.13
  -4  -2   1    4.43    0.13
   3   2  -1    4.13    0.12
   3   2  -1    4.35    0.13
  -3  -2   1    4.41    0.12
   2   2  -1   96.01    1.83
   2   2  -1   99.73    2.03
  -2  -2   1  102.08    1.96
   1   2  -1   28.65    0.57
   1   2  -1   32.39    0.57
   1   2  -1   31.96    0.63
  -1  -2   1   31.13    0.59
   0   2  -1  321.49    6.21
   0   2  -1  314.30    5.78
   0  -2   1  303.87    6.32
  -1   2  -1   56.74    1.03
  -1   2  -1   56.59    1.10
   1  -2   1   55.06    1.04
   1  -2   1   53.60    1.09
  -2   2  -1   24.42    0.47
  -2   2  -1   23.83    0.47
   2  -2   1   23.83    0.45
   2  -2   1   21.85    0.47
  -3   2  -1   10.76    0.23
  -3   2  -1   11.02    0.25
   3  -2   1   11.17    0.24
  -4   2  -1    0.18    0.03
  -4   2  -1    0.23    0.02
   4  -2   1    0.21    0.03
   4  -2   1    0.26    0.04
  -5   2  -1    0.78    0.06
   5  -2   1    0.72    0.06
   5  -2   1    0.71    0.05
  -6   2  -1    0.31    0.05
   6  -2   1    0.30    0.04
   6  -2   1    0.37    0.05
  -7   2  -1    0.89    0.08
   7  -2   1    0.73    0.08
   7  -2   1    0.88    0.08
  -8   2  -1    9.59    0.30
   8  -2   1    9.83    0.27
   9   1  -1    0.54    0.07
  -9  -1   1    0.74    0.09
   8   1  -1    2.27    0.12
  -8  -1   1    2.15    0.12
   7   1  -1    1.09    0.08
  -7  -1   1    1.06    0.08
   6   1  -1    3.47    0.13
  -6  -1   1    3.70    0.14
   5   1  -1   11.48    0.27
   5   1  -1   11.70    0.28
  -5  -1   1   11.59    0.28
   4   1  -1  104.71    2.06
   4   1  -1  105.22    1.93
  -4  -1   1  106.84    1.98
  -4  -1   1  102.86    1.91
   3   1  -1    0.72    0.04
   3   1  -1    0.56    0.04
  -3  -1   1    0.58    0.03
  -3  -1   1    0.65    0.04
   2   1  -1   23.79    0.45
   2   1  -1   23.49    0.49
  -2  -1   1   23.65    0.46
  -2  -1   1   24.15    0.43
  -1  -1   1   15.63    0.31
   0   1  -1    0.54    0.02
  -1   1  -1   16.93    0.33
   1  -1   1   16.97    0.31
   1  -1   1   15.48    0.32
  -2   1  -1   20.53    0.40
   2  -1   1   20.09    0.39
  -3   1  -1  122.65    2.40
   3  -1   1  123.65    2.31
   3  -1   1  125.55    2.46
   3  -1   1  128.40    2.52
  -4   1  -1    8.92    0.21
   4  -1   1    8.78    0.22
   4  -1   1    8.70    0.21
   4  -1   1    8.79    0.20
  -5   1  -1    0.06    0.02
   5  -1   1    0.05    0.02
   5  -1   1    0.09    0.03
   5  -1   1    0.07    0.02
  -6   1  -1    0.14    0.03
   6  -1   1    0.16    0.03
   6  -1   1    0.19    0.04
  -7   1  -1   20.12    0.48
   7  -1   1   19.95    0.45
  -8   1  -1    4.58    0.18
   8  -1   1    4.82    0.17
  -9   1  -1    0.23    0.06
   9  -1   1    0.25    0.06
   9   0  -1    0.44    0.07
  -9   0   1    0.40    0.07
   8   0  -1    8.42    0.25
  -8   0   1    8.26    0.26
   7   0  -1   21.70    0.49
  -7   0   1   21.53    0.50
   6   0  -1    6.66    0.20
  -6   0   1    7.03    0.21
   5   0  -1   22.65    0.48
   5   0  -1   23.01    0.48
  -5   0   1   22.92    0.46
  -5   0   1   23.15    0.50
   4   0  -1    4.08    0.11
  -4   0   1    4.15    0.11
  -4   0   1    4.26    0.13
   3   0  -1   39.63    0.78
  -3   0   1   39.41    0.76
  -3   0   1   38.67    0.73
   2   0  -1   74.06    1.62
   2   0  -1   87.72    1.72
  -2   0   1   92.67    1.64
  -2   0   1   88.10    1.66
   1   0  -1   15.33    0.31
  -1   0   1   15.46    0.29
  -1   0   1   15.52    0.30
   1   0   1   18.44    0.34
   1   0   1   18.21    0.37
   1   0   1   18.35    0.35
   1   0   1   18.17    0.34
   2   0   1  119.18    2.32
   2   0   1  125.11    2.44
   2   0   1  123.19    2.32
   2   0   1  119.64    2.38
   3   0   1    3.26    0.10
   3   0   1    3.53    0.10
   3   0   1    3.56    0.10
  -4   0  -1    1.28    0.06
   4   0   1    1.21    0.06
   4   0   1    1.25    0.06
   4   0   1    1.37    0.06
  -5   0  -1    0.44    0.05
  -5   0  -1    0.49    0.04
   5   0   1    0.51    0.04
   5   0   1    0.52    0.05
  -6   0  -1    0.44    0.06
   6   0   1    0.54    0.06
  -7   0  -1    2.23    0.11
   7   0   1    2.41    0.11
  -8   0  -1    3.87    0.16
   8   0   1    3.77    0.15
  -9   0  -1   12.84    0.37
   9   0   1   12.86    0.35
   9  -1  -1    1.00    0.10
  -9   1   1    0.98    0.10
   8  -1  -1   12.54    0.34
  -8   1   1   13.25    0.36
   7  -1  -1   13.63    0.34
  -7   1   1   14.52    0.36
   6  -1  -1   -0.01    0.02
  -6   1   1    0.01    0.02
  -6   1   1   -0.02    0.02
   5  -1  -1    0.36    0.05
   5  -1  -1    0.34    0.04
  -5   1   1    0.43    0.04
   4  -1  -1   15.04    0.32
   4  -1  -1   15.03    0.31
   4  -1  -1   14.82    0.33
  -4   1   1   14.42    0.31
   3  -1  -1   17.01    0.40
   3  -1  -1   20.02    0.39
   3  -1  -1   20.41    0.38
  -3   1   1   19.88    0.39
   2  -1  -1    1.98    0.07
  -2   1   1    2.22    0.07
   1  -1  -1    0.63    0.03
  -1   1   1    0.62    0.03
   0  -1  -1   67.11    1.27
   0  -1  -1   68.82    1.27
   0   1   1   68.66    1.28
   0   1   1   67.60    1.39
  -1  -1  -1   80.11    1.45
   1   1   1   68.50    1.54
   1   1   1   78.49    1.68
  -2  -1  -1    2.96    0.08
   2   1   1    2.93    0.09
   2   1   1    2.92    0.07
   2   1   1    2.96    0.08
  -3  -1  -1   20.24    0.42
   3   1   1   21.06    0.40
   3   1   1   19.98    0.43
   3   1   1   20.52    0.41
  -4  -1  -1    6.38    0.17
  -4  -1  -1    6.33    0.15
   4   1   1    6.31    0.16
   4   1   1    6.54    0.17
  -5  -1  -1    0.05    0.02
  -5  -1  -1    0.05    0.02
   5   1   1    0.06    0.02
   5   1   1    0.12    0.03
  -6  -1  -1    2.97    0.12
   6   1   1    2.99    0.12
   6   1   1    3.01    0.11
  -7  -1  -1    0.13    0.04
   7   1   1    0.21    0.05
  -8  -1  -1    0.99    0.09
   8   1   1    0.88    0.08
  -9  -1  -1    1.99    0.12
   9   1   1    2.21    0.12
   9  -2  -1    0.16    0.05
  -9   2   1    0.27    0.06
   8  -2  -1    0.54    0.07
  -8   2   1    0.57    0.08
   7  -2  -1    2.49    0.12
  -7   2   1    2.57    0.11
   6  -2  -1    8.71    0.23
   6  -2  -1    8.87    0.25
  -6   2   1    8.40    0.23
   5  -2  -1    0.49    0.05
   5  -2  -1    0.58    0.05
  -5   2   1    0.64    0.06
   4  -2  -1    3.62    0.12
   4  -2  -1    3.27    0.11
  -4   2   1    3.20    0.11
   3  -2  -1  137.53    2.59
   3  -2  -1  130.81    2.66
  -3   2   1  136.44    2.60
   2  -2  -1    0.01    0.01
   2  -2  -1    0.01    0.01
  -2   2   1    0.03    0.02
   1  -2  -1   10.05    0.21
   1  -2  -1   10.15    0.20
  -1   2   1   10.16    0.21
  -1   2   1   10.15    0.21
   0  -2  -1    3.42    0.08
   0  -2  -1    3.63    0.08
   0   2   1    3.38    0.09
   0   2   1    3.42    0.08
  -1  -2  -1   13.97    0.27
  -1  -2  -1   14.24    0.27
   1   2   1   12.92    0.30
   1   2   1   13.83    0.26
  -2  -2  -1  155.46    3.01
   2   2   1  158.85    3.01
   2   2   1  158.63    3.21
   2   2   1  159.63    2.91
  -3  -2  -1    8.66    0.20
   3   2   1    8.84    0.18
  -4  -2  -1   11.64    0.27
   4   2   1   11.78    0.24
   4   2   1   11.65    0.29
   4   2   1   11.93    0.27
  -5  -2  -1   56.22    1.11
   5   2   1   57.23    1.16
   5   2   1   56.94    1.09
  -6  -2  -1   12.00    0.30
   6   2   1   11.65    0.30
   6   2   1   11.43    0.29
  -7  -2  -1    8.95    0.26
   7   2   1    8.96    0.25
  -8  -2  -1    2.72    0.13
   8   2   1    2.39    0.12
   9  -3  -1    0.73    0.08
   8  -3  -1    3.78    0.15
   7  -3  -1    9.57    0.26
   7  -3  -1    9.52    0.28
  -7   3   1    9.36    0.27
   6  -3  -1   15.11    0.37
   6  -3  -1   15.29    0.35
  -6   3   1   14.73    0.36
   5  -3  -1    1.74    0.09
   5  -3  -1    1.64    0.08
  -5   3   1    1.76    0.09
   4  -3  -1    3.21    0.11
   4  -3  -1    3.27    0.11
  -4   3   1    3.20    0.11
   3  -3  -1  108.96    2.00
   3  -3  -1  103.23    1.97
  -3   3   1  106.27    1.97
   2  -3  -1   23.25    0.47
   2  -3  -1   23.04    0.45
  -2   3   1   23.57    0.47
  -2   3   1   23.76    0.47
   1  -3  -1   19.38    0.38
   1  -3  -1   19.69    0.39
  -1   3   1   20.09    0.41
  -1   3   1   19.90    0.40
   0  -3  -1   26.73    0.51
   0  -3  -1   26.54    0.50
   0   3   1   26.20    0.51
   0   3   1   26.59    0.55
  -1  -3  -1   29.53    0.56
  -1  -3  -1   29.43    0.56
   1   3   1   29.80    0.62
   1   3   1   29.58    0.55
  -2  -3  -1   13.22    0.28
  -2  -3  -1   13.74    0.28
   2   3   1   13.68    0.32
   2   3   1   13.75    0.26
  -3  -3  -1  121.14    2.30
   3   3   1  121.61    2.21
   3   3   1  119.89    2.39
   3   3   1  120.97    2.23
  -4  -3  -1   11.11    0.25
   4   3   1   10.93    0.28
   4   3   1   10.87    0.26
  -5  -3  -1    0.92    0.06
   5   3   1    0.69    0.06
   5   3   1    0.84    0.06
  -6  -3  -1    0.45    0.05
   6   3   1    0.42    0.05
   6   3   1    0.42    0.06
  -7  -3  -1    0.00    0.03
   7   3   1    0.02    0.03
   7   3   1    0.03    0.03
  -8  -3  -1    0.28    0.05
   8   3   1    0.22    0.05
   8  -4  -1    3.22    0.15
   8  -4  -1    3.49    0.15
  -8   4   1    3.10    0.15
   7  -4  -1    1.75    0.11
   7  -4  -1    2.08    0.11
  -7   4   1    1.99    0.11
   6  -4  -1    2.97    0.12
   6  -4  -1    2.92    0.13
  -6   4   1    3.05    0.13
   5  -4  -1    0.04    0.02
   5  -4  -1    0.01    0.03
  -5   4   1   -0.01    0.03
   4  -4  -1   39.78    0.77
   4  -4  -1   39.79    0.80
  -4   4   1   38.46    0.79
   3  -4  -1   41.68    0.83
   3  -4  -1   42.32    0.80
  -3   4   1   42.37    0.83
   2  -4  -1    0.07    0.02
   2  -4  -1    0.10    0.02
  -2   4   1    0.09    0.02
  -2   4   1    0.14    0.02
   1  -4  -1    1.24    0.05
   1  -4  -1    1.21    0.05
  -1   4   1    1.04    0.06
  -1   4   1    1.07    0.05
   0  -4  -1    0.26    0.03
   0  -4  -1    0.32    0.03
   0   4   1    0.27    0.03
   0   4   1    0.26    0.03
  -1  -4  -1    0.39    0.03
  -1  -4  -1    0.43    0.03
   1   4   1    0.42    0.04
   1   4   1    0.42    0.03
  -2  -4  -1   72.86    1.33
  -2  -4  -1   72.54    1.38
   2   4   1   71.60    1.45
   2   4   1   70.88    1.35
  -3  -4  -1    6.92    0.17
  -3  -4  -1    7.27    0.18
   3   4   1    6.96    0.20
  -4  -4  -1    0.43    0.04
  -4  -4  -1    0.44    0.05
   4   4   1    0.57    0.06
  -5  -4  -1   25.20    0.54
   5   4   1   26.02    0.59
  -6  -4  -1    2.65    0.11
   6   4   1    2.60    0.13
   6   4   1    2.56    0.11
  -7  -4  -1    0.95    0.08
   7   4   1    0.83    0.08
   7   4   1    1.13    0.09
   8   4   1    0.00    0.03
   8  -5  -1    0.06    0.04
  -8   5   1   -0.03    0.03
   7  -5  -1    0.20    0.04
   7  -5  -1    0.17    0.05
  -7   5   1    0.24    0.05
   6  -5  -1   21.18    0.46
   6  -5  -1   20.70    0.49
  -6   5   1   20.34    0.49
   5  -5  -1    2.14    0.09
   5  -5  -1    2.02    0.10
  -5   5   1    1.84    0.10
   4  -5  -1   19.87    0.43
   4  -5  -1   20.65    0.46
  -4   5   1   20.82    0.46
   3  -5  -1   36.84    0.74
   3  -5  -1   36.40    0.71
  -3   5   1   37.00    0.75
   2  -5  -1    7.55    0.19
   2  -5  -1    7.54    0.18
  -2   5   1    7.43    0.20
  -2   5   1    7.37    0.18
   1  -5  -1    5.66    0.14
   1  -5  -1    5.69    0.14
  -1   5   1    5.65    0.16
  -1   5   1    5.35    0.15
   0  -5  -1    0.06    0.02
   0  -5  -1    0.03    0.02
   0   5   1   -0.01    0.02
   0   5   1    0.00    0.02
  -1  -5  -1    2.36    0.08
  -1  -5  -1    2.24    0.08
   1   5   1    2.29    0.10
   1   5   1    2.22    0.08
  -2  -5  -1    4.68    0.13
  -2  -5  -1    4.73    0.13
   2   5   1    4.61    0.11
   2   5   1    4.65    0.16
  -3  -5  -1   14.68    0.33
  -3  -5  -1   14.71    0.32
  -4  -5  -1    1.79    0.08
  -4  -5  -1    1.77    0.08
   4   5   1    1.60    0.09
  -5  -5  -1    5.46    0.16
  -5  -5  -1    5.31    0.17
   5   5   1    4.98    0.19
  -6  -5  -1    4.91    0.17
   6   5   1    5.18    0.19
  -7  -5  -1    7.33    0.23
   7   5   1    7.52    0.25
   8   5   1    0.08    0.04
  -8   6   1    0.26    0.06
   7  -6  -1    0.45    0.07
  -7   6   1    0.28    0.06
   6  -6  -1    0.50    0.07
  -6   6   1    0.60    0.07
   5  -6  -1    2.26    0.10
   5  -6  -1    2.01    0.11
  -5   6   1    2.11    0.12
   4  -6  -1   34.35    0.72
   4  -6  -1   34.73    0.69
  -4   6   1   34.11    0.73
   3  -6  -1   10.32    0.26
   3  -6  -1   10.36    0.25
  -3   6   1   10.35    0.27
   2  -6  -1    2.85    0.10
   2  -6  -1    3.21    0.11
  -2   6   1    3.01    0.12
  -2   6   1    3.19    0.11
   1  -6  -1    4.58    0.13
   1  -6  -1    4.51    0.13
  -1   6   1    4.36    0.14
  -1   6   1    4.52    0.14
   0  -6  -1    0.85    0.06
   0  -6  -1    0.89    0.05
   0   6   1    0.89    0.05
   0   6   1    1.04    0.07
  -1  -6  -1   21.18    0.44
  -1  -6  -1   21.76    0.44
   1   6   1   21.57    0.50
   1   6   1   21.30    0.44
  -2  -6  -1    0.90    0.06
  -2  -6  -1    1.14    0.06
   2   6   1    1.08    0.08
  -3  -6  -1    0.00    0.03
  -3  -6  -1    0.05    0.03
   3   6   1    0.06    0.03
  -4  -6  -1    0.13    0.04
   4   6   1    0.16    0.04
  -5  -6  -1    0.09    0.03
   5   6   1    0.06    0.04
  -6  -6  -1   16.28    0.39
   6   6   1   16.35    0.44
  -7  -6  -1   11.56    0.32
   7   6   1   11.67    0.35
   7  -7  -1    0.00    0.04
  -7   7   1    0.00    0.04
   6  -7  -1    1.11    0.10
  -6   7   1    0.92    0.10
   5  -7  -1    0.49    0.06
  -5   7   1    0.49    0.07
   4  -7  -1    3.19    0.13
   4  -7  -1    3.09    0.12
  -4   7   1    3.20    0.14
   3  -7  -1    0.18    0.04
   3  -7  -1    0.12    0.04
  -3   7   1    0.08    0.04
   2  -7  -1   22.08    0.46
   2  -7  -1   21.96    0.47
  -2   7   1   21.42    0.49
   1  -7  -1   28.85    0.58
   1  -7  -1   28.91    0.60
  -1   7   1   29.15    0.61
  -1   7   1   29.70    0.64
   0  -7  -1    3.49    0.12
   0  -7  -1    3.50    0.11
   0   7   1    3.21    0.12
   0   7   1    3.50    0.14
  -1  -7  -1   35.34    0.69
  -1  -7  -1   33.60    0.68
   1   7   1   34.09    0.76
  -2  -7  -1   13.19    0.29
  -2  -7  -1   12.94    0.30
   2   7   1   12.52    0.35
  -3  -7  -1    3.63    0.13
   3   7   1    3.67    0.16
  -4  -7  -1    0.10    0.04
   4   7   1    0.10    0.04
  -5  -7  -1    2.22    0.11
   5   7   1    2.39    0.13
  -6  -7  -1    0.90    0.09
   6   7   1    0.85    0.10
   6  -8  -1    1.42    0.10
  -6   8   1    1.43    0.12
   5  -8  -1    0.61    0.07
  -5   8   1    0.59    0.08
   4  -8  -1    0.35    0.05
  -4   8   1    0.41    0.06
   3  -8  -1    3.08    0.12
  -3   8   1    2.62    0.13
   2  -8  -1    1.31    0.08
   2  -8  -1    1.46    0.08
  -2   8   1    1.22    0.08
   1  -8  -1   34.14    0.68
   1  -8  -1   33.58    0.69
  -1   8   1   33.71    0.71
   0  -8  -1    0.02    0.02
   0  -8  -1   -0.01    0.03
   0   8   1    0.00    0.02
   0   8   1   -0.02    0.03
  -1  -8  -1    0.41    0.05
   1   8   1    0.27    0.05
  -2  -8  -1    2.86    0.12
   2   8   1    2.74    0.14
  -3  -8  -1   -0.05    0.03
   3   8   1    0.04    0.03
  -4  -8  -1    7.06    0.21
  -5  -8  -1    0.09    0.04
   5   8   1    0.08    0.04
   5  -9  -1    0.59    0.07
  -5   9   1    0.59    0.08
   4  -9  -1    3.96    0.16
  -4   9   1    4.09    0.18
   3  -9  -1    0.33    0.05
  -3   9   1    0.15    0.05
   2  -9  -1    0.12    0.04
  -2   9   1    0.07    0.04
  -1   9   1    2.53    0.12
   0  -9  -1    0.62    0.07
   0   9   1    0.64    0.08
  -1  -9  -1    0.23    0.05
   1   9   1    0.19    0.05
  -2  -9  -1    0.26    0.05
   2   9   1    0.20    0.05
  -3  -9  -1    0.20    0.05
   3   9   1    0.22    0.05
  -4  -9  -1    2.64    0.13
   4   9   1    2.65    0.15
  -4  10   1    3.12    0.16
  -3  10   1    3.08    0.15
  -2  10   1    2.06    0.12
   1  10   1    0.14    0.05
  -2 -10  -1    0.00    0.04
   2  10   1    0.01    0.04
  -3 -10  -1    0.64    0.08
   3  10   1    0.77    0.10
   3  10  -2    0.52    0.08
   2  10  -2    5.34    0.22
   1  10  -2    0.81    0.10
  -1 -10   2    0.79    0.08
   0  10  -2    0.00    0.04
   0 -10   2    0.09    0.04
   1 -10   2    0.58    0.07
  -2  10  -2    0.58    0.08
   2 -10   2    0.62    0.07
  -3  10  -2    0.01    0.04
   3 -10   2    0.04    0.04
  -5  -9   2   -0.03    0.03
   4   9  -2    4.50    0.20
   3   9  -2    1.30    0.12
  -3  -9   2    1.32    0.09
   2   9  -2    0.68    0.08
  -2  -9   2    0.92    0.08
   1   9  -2    7.48    0.25
  -1  -9   2    7.16    0.21
   0   9  -2    1.11    0.09
   0  -9   2    1.07    0.08
  -1   9  -2    0.05    0.03
   1  -9   2    0.11    0.04
  -2   9  -2    0.30    0.06
   2  -9   2    0.36    0.05
  -3   9  -2    3.85    0.17
   3  -9   2    3.72    0.16
  -4   9  -2    0.17    0.05
   4  -9   2    0.12    0.04
   5  -9   2    0.05    0.04
   6   8  -2    0.11    0.05
  -6  -8   2    0.25    0.05
   5   8  -2    4.21    0.20
  -5  -8   2    4.14    0.16
  -5  -8   2    4.43    0.16
   4   8  -2    0.37    0.07
  -4  -8   2    0.42    0.06
  -4  -8   2    0.46    0.06
   3   8  -2    1.76    0.11
  -3  -8   2    2.15    0.10
  -3  -8   2    1.91    0.09
   2   8  -2    0.87    0.09
  -2  -8   2    0.74    0.07
   1   8  -2    0.25    0.05
  -1  -8   2    0.26    0.04
   0   8  -2    0.69    0.07
   0  -8   2    0.64    0.06
  -1   8  -2    0.40    0.06
  -1   8  -2    0.30    0.05
   1  -8   2    0.23    0.04
  -2   8  -2    0.60    0.07
   2  -8   2    0.43    0.06
  -3   8  -2    3.81    0.16
   3  -8   2    3.51    0.14
  -4   8  -2    0.75    0.09
   4  -8   2    0.97    0.09
  -5   8  -2    7.41    0.26
   5  -8   2    7.27    0.25
   6  -8   2    0.15    0.05
   7   7  -2    0.32    0.07
  -7  -7   2    0.42    0.06
   6   7  -2    0.07    0.04
  -6  -7   2    0.01    0.04
  -6  -7   2    0.07    0.03
   5   7  -2    1.87    0.12
  -5  -7   2    2.18    0.10
  -5  -7   2    2.06    0.11
   4   7  -2    1.88    0.12
  -4  -7   2    1.92    0.09
  -4  -7   2    2.00    0.10
   3   7  -2   -0.04    0.03
  -3  -7   2    0.03    0.03
  -3  -7   2    0.03    0.03
   2   7  -2   26.27    0.63
  -2  -7   2   27.35    0.54
  -2  -7   2   26.79    0.56
   1   7  -2    6.21    0.21
  -1  -7   2    6.20    0.18
  -1  -7   2    6.22    0.16
   0   7  -2    3.28    0.12
   0   7  -2    3.22    0.14
   0  -7   2    3.57    0.12
  -1   7  -2   23.68    0.53
  -1   7  -2   22.60    0.50
   1  -7   2   23.08    0.50
  -2   7  -2   22.50    0.51
   2  -7   2   22.85    0.50
  -3   7  -2   13.05    0.34
   3  -7   2   12.84    0.33
  -4   7  -2    8.67    0.27
   4  -7   2    8.62    0.25
  -5   7  -2    0.27    0.06
   5  -7   2    0.26    0.05
  -6   7  -2    1.45    0.11
   6  -7   2    1.41    0.10
   7   6  -2    0.49    0.08
  -7  -6   2    0.31    0.06
   6   6  -2    1.55    0.11
  -6  -6   2    1.38    0.09
  -6  -6   2    1.45    0.09
   5   6  -2    5.83    0.22
  -5  -6   2    6.21    0.19
  -5  -6   2    6.11    0.18
   4   6  -2   17.69    0.46
  -4  -6   2   17.78    0.40
  -4  -6   2   18.28    0.40
   3   6  -2    0.73    0.08
  -3  -6   2    0.95    0.06
  -3  -6   2    1.09    0.07
   2   6  -2   24.02    0.56
  -2  -6   2   23.53    0.48
  -2  -6   2   24.51    0.51
   1   6  -2   11.77    0.31
   1   6  -2   11.69    0.26
  -1  -6   2   11.78    0.27
  -1  -6   2   11.84    0.25
   0   6  -2    0.37    0.05
   0   6  -2    0.34    0.04
   0  -6   2    0.37    0.04
   0  -6   2    0.37    0.04
  -1   6  -2    0.39    0.05
  -1   6  -2    0.43    0.05
   1  -6   2    0.46    0.04
   1  -6   2    0.39    0.04
  -2   6  -2   21.42    0.48
  -2   6  -2   22.67    0.49
   2  -6   2   21.81    0.47
  -3   6  -2   25.56    0.56
   3  -6   2   25.46    0.55
  -4   6  -2   10.70    0.29
   4  -6   2   10.14    0.28
  -5   6  -2    1.66    0.11
   5  -6   2    1.62    0.10
  -6   6  -2    0.84    0.09
   6  -6   2    0.86    0.09
  -7   6  -2    0.48    0.08
   7  -6   2    0.24    0.05
   8   5  -2    1.42    0.10
  -8  -5   2    1.53    0.10
   7   5  -2    0.71    0.07
   7   5  -2    0.64    0.08
  -7  -5   2    0.59    0.07
   6   5  -2    8.31    0.27
   6   5  -2    8.86    0.24
  -6  -5   2    8.43    0.24
   5   5  -2   40.15    0.80
   5   5  -2   40.00    0.88
  -5  -5   2   39.37    0.81
   4   5  -2    0.52    0.05
   4   5  -2    0.50    0.06
  -4  -5   2    0.53    0.05
   3   5  -2   13.34    0.34
  -3  -5   2   13.26    0.30
  -3  -5   2   13.37    0.29
   2   5  -2    0.57    0.06
  -2  -5   2    0.57    0.04
  -2  -5   2    0.56    0.05
   1   5  -2    0.51    0.05
   1   5  -2    0.50    0.04
  -1  -5   2    0.49    0.04
  -1  -5   2    0.49    0.05
   0   5  -2    0.10    0.03
   0   5  -2    0.15    0.03
   0  -5   2    0.12    0.03
   0  -5   2    0.15    0.02
  -1   5  -2   29.52    0.63
  -1   5  -2   29.05    0.59
   1  -5   2   28.88    0.55
   1  -5   2   29.58    0.59
  -2   5  -2    2.62    0.11
  -2   5  -2    2.57    0.10
   2  -5   2    2.75    0.10
   2  -5   2    2.61    0.08
  -3   5  -2    7.31    0.21
   3  -5   2    7.04    0.20
  -4   5  -2    0.02    0.03
   4  -5   2    0.02    0.03
  -5   5  -2    0.71    0.07
   5  -5   2    0.56    0.06
  -6   5  -2    2.65    0.13
   6  -5   2    2.56    0.13
  -7   5  -2   -0.03    0.03
   7  -5   2    0.05    0.04
  -8   5  -2    0.87    0.10
   8   4  -2    0.70    0.08
  -8  -4   2    0.87    0.09
   7   4  -2    5.69    0.19
   7   4  -2    6.04    0.21
  -7  -4   2    5.87    0.19
   6   4  -2    2.05    0.10
   6   4  -2    2.22    0.11
  -6  -4   2    2.20    0.10
   5   4  -2    0.04    0.02
   5   4  -2    0.02    0.03
  -5  -4   2    0.09    0.03
   4   4  -2    9.63    0.23
   4   4  -2    9.36    0.26
  -4  -4   2    9.55    0.24
   3   4  -2    3.25    0.10
   3   4  -2    3.26    0.12
  -3  -4   2    3.24    0.10
   2   4  -2   21.42    0.48
   2   4  -2   21.33    0.40
  -2  -4   2   21.14    0.43
  -2  -4   2   20.83    0.42
   1   4  -2   94.89    1.74
   1   4  -2   94.29    1.85
  -1  -4   2   91.61    1.80
  -1  -4   2   91.67    1.73
   0   4  -2   54.79    1.02
   0   4  -2   52.18    1.09
   0  -4   2   53.89    1.01
   0  -4   2   55.79    1.03
  -1   4  -2    6.05    0.16
  -1   4  -2    6.07    0.16
   1  -4   2    6.11    0.13
   1  -4   2    6.19    0.15
  -2   4  -2    0.11    0.02
  -2   4  -2    0.12    0.03
   2  -4   2    0.06    0.02
   2  -4   2    0.09    0.02
  -3   4  -2    1.94    0.09
  -3   4  -2    1.84    0.07
   3  -4   2    1.85    0.08
   3  -4   2    1.90    0.07
  -4   4  -2   32.28    0.68
   4  -4   2   32.15    0.68
   4  -4   2   33.52    0.64
  -5   4  -2    3.03    0.13
   5  -4   2    2.90    0.12
  -6   4  -2    0.45    0.06
   6  -4   2    0.53    0.07
  -7   4  -2    0.25    0.05
   7  -4   2    0.26    0.05
  -8   4  -2    0.32    0.06
   8  -4   2    0.19    0.05
  -9  -3   2    0.67    0.08
   8   3  -2   18.10    0.45
  -8  -3   2   19.42    0.46
   7   3  -2    3.39    0.14
  -7  -3   2    3.42    0.14
   6   3  -2    8.63    0.24
   6   3  -2    7.97    0.23
  -6  -3   2    8.32    0.23
   5   3  -2    7.96    0.22
   5   3  -2    7.76    0.21
  -5  -3   2    7.59    0.21
   4   3  -2    6.92    0.18
   4   3  -2    7.03    0.20
  -4  -3   2    6.95    0.18
   3   3  -2    0.50    0.05
   3   3  -2    0.53    0.04
  -3  -3   2    0.53    0.04
   2   3  -2   44.32    0.83
   2   3  -2   45.15    0.81
   2   3  -2   44.65    0.91
  -2  -3   2   44.02    0.86
   1   3  -2    1.05    0.06
   1   3  -2    0.99    0.04
  -1  -3   2    1.03    0.04
  -1  -3   2    1.06    0.05
   0   3  -2    0.79    0.04
   0   3  -2    0.89    0.05
   0  -3   2    0.80    0.04
   0  -3   2    0.81    0.03
  -1   3  -2   28.81    0.60
  -1   3  -2   29.27    0.57
   1  -3   2   29.26    0.57
   1  -3   2   28.96    0.53
  -2   3  -2    0.43    0.03
  -2   3  -2    0.32    0.04
   2  -3   2    0.43    0.03
   2  -3   2    0.42    0.04
  -3   3  -2    4.27    0.12
  -3   3  -2    4.39    0.14
   3  -3   2    4.62    0.11
  -4   3  -2   11.37    0.26
  -4   3  -2   11.09    0.28
   4  -3   2   11.57    0.25
   4  -3   2   11.66    0.28
  -5   3  -2    1.79    0.09
   5  -3   2    1.83    0.08
   5  -3   2    1.61    0.09
  -6   3  -2    9.93    0.28
   6  -3   2   10.48    0.26
   6  -3   2   10.30    0.28
  -7   3  -2    5.93    0.20
   7  -3   2    5.86    0.21
   8  -3   2    0.58    0.08
   9   2  -2    0.26    0.06
  -9  -2   2    0.28    0.06
   8   2  -2    7.54    0.24
  -8  -2   2    8.29    0.25
   7   2  -2    0.03    0.03
  -7  -2   2    0.04    0.03
   6   2  -2   21.49    0.48
   6   2  -2   21.29    0.47
  -6  -2   2   21.04    0.48
   5   2  -2    4.86    0.15
   5   2  -2    4.99    0.15
  -5  -2   2    4.88    0.15
   4   2  -2    2.88    0.10
   4   2  -2    3.07    0.10
  -4  -2   2    2.76    0.10
   3   2  -2    0.86    0.05
  -3  -2   2    0.97    0.05
   2   2  -2   84.27    1.71
   2   2  -2   87.41    1.60
  -2  -2   2   86.47    1.64
  -2  -2   2   87.64    1.58
   1   2  -2    3.87    0.09
   1   2  -2    3.76    0.11
  -1  -2   2    3.78    0.08
  -1  -2   2    3.83    0.10
   0   2  -2   19.39    0.40
   0  -2   2   19.04    0.35
   0  -2   2   19.58    0.37
  -1   2  -2    6.20    0.15
   1  -2   2    6.18    0.12
   1  -2   2    6.27    0.14
  -2   2  -2   21.98    0.46
   2  -2   2   22.46    0.42
  -3   2  -2   24.61    0.50
  -3   2  -2   23.98    0.50
   3  -2   2   24.52    0.50
   3  -2   2   24.21    0.47
  -4   2  -2   14.75    0.32
  -4   2  -2   14.29    0.33
   4  -2   2   14.92    0.31
   4  -2   2   15.38    0.34
  -5   2  -2    4.87    0.16
   5  -2   2    4.90    0.16
   5  -2   2    4.52    0.14
  -6   2  -2    2.81    0.12
   6  -2   2    2.83    0.12
   6  -2   2    2.54    0.10
  -7   2  -2    8.73    0.26
   7  -2   2    8.95    0.27
   7  -2   2    9.06    0.25
   9   1  -2    3.54    0.16
  -9  -1   2    3.68    0.17
   8   1  -2    5.69    0.20
  -8  -1   2    5.77    0.21
   7   1  -2   10.95    0.29
  -7  -1   2   11.27    0.30
   6   1  -2    0.08    0.03
  -6  -1   2    0.08    0.03
   5   1  -2   30.62    0.63
   5   1  -2   29.82    0.61
  -5  -1   2   29.24    0.62
   4   1  -2    3.42    0.11
   4   1  -2    3.51    0.11
  -4  -1   2    3.58    0.09
  -4  -1   2    3.27    0.11
   3   1  -2    5.15    0.13
   3   1  -2    5.11    0.13
  -3  -1   2    4.84    0.13
  -3  -1   2    5.14    0.11
   2   1  -2   53.42    1.00
   2   1  -2   53.95    1.07
  -2  -1   2   55.61    1.02
  -2  -1   2   54.27    1.03
   1   1  -2    8.04    0.18
  -1  -1   2    8.13    0.16
  -1  -1   2    8.34    0.17
   0   1  -2   11.73    0.25
  -1   1  -2  316.83    6.28
   1  -1   2  320.85    6.27
  -2   1  -2   24.69    0.51
   2  -1   2   25.28    0.47
   2  -1   2   24.34    0.48
   2  -1   2   25.19    0.49
   3  -1   2   25.44    0.53
   3  -1   2   25.68    0.51
   3  -1   2   25.79    0.50
   3  -1   2   25.80    0.52
  -4   1  -2   41.45    0.83
   4  -1   2   43.78    0.85
   4  -1   2   43.38    0.82
   4  -1   2   42.29    0.86
  -5   1  -2    1.66    0.08
   5  -1   2    1.73    0.07
   5  -1   2    1.69    0.09
   5  -1   2    1.61    0.07
  -6   1  -2    0.32    0.05
   6  -1   2    0.44    0.05
   6  -1   2    0.38    0.05
   7  -1   2    0.58    0.06
  -8   1  -2    0.71    0.08
   8  -1   2    0.70    0.07
   9   0  -2    3.88    0.17
  -9   0   2    3.64    0.17
   8   0  -2   -0.02    0.03
  -8   0   2    0.02    0.04
   7   0  -2    1.42    0.09
  -7   0   2    1.49    0.09
   6   0  -2   11.72    0.29
  -6   0   2   11.63    0.30
   5   0  -2   73.81    1.46
   5   0  -2   72.91    1.40
  -5   0   2   76.27    1.44
  -5   0   2   73.61    1.38
   4   0  -2   -0.03    0.01
   4   0  -2    0.02    0.01
  -4   0   2    0.01    0.01
  -4   0   2    0.02    0.02
   3   0  -2    1.89    0.06
  -3   0   2    1.86    0.07
  -3   0   2    2.00    0.06
   2   0  -2  102.10    2.05
  -2   0   2  100.51    1.90
  -2   0   2  103.28    1.95
   1   0  -2   30.61    0.56
   1   0  -2   30.83    0.60
  -1   0   2   30.31    0.57
  -1   0   2   30.02    0.58
   0   0  -2   15.66    0.32
   0   0  -2   15.47    0.29
   0   0   2   15.31    0.30
   1   0   2  250.57    5.78
   1   0   2  266.71    5.13
   2   0   2   47.84    0.90
   2   0   2   47.16    0.94
   2   0   2   47.45    0.87
   2   0   2   47.30    0.88
   3   0   2   16.22    0.33
   3   0   2   16.65    0.35
   3   0   2   16.55    0.34
   3   0   2   16.34    0.35
   4   0   2   57.65    1.11
   4   0   2   57.12    1.07
   4   0   2   56.25    1.08
   4   0   2   57.34    1.14
  -5   0  -2    7.52    0.19
   5   0   2    7.40    0.20
   5   0   2    7.47    0.21
   5   0   2    7.63    0.20
  -6   0  -2    0.09    0.03
   6   0   2    0.07    0.03
  -7   0  -2    2.90    0.13
   7   0   2    2.88    0.12
  -8   0  -2    6.47    0.22
   8   0   2    6.14    0.20
   9  -1  -2    0.38    0.06
  -9   1   2    0.34    0.07
   8  -1  -2    0.01    0.03
  -8   1   2   -0.02    0.03
   7  -1  -2    3.06    0.13
  -7   1   2    2.96    0.13
   6  -1  -2    4.94    0.16
  -6   1   2    5.14    0.17
  -6   1   2    4.83    0.15
   5  -1  -2    4.66    0.15
  -5   1   2    4.89    0.15
  -5   1   2    4.74    0.14
   4  -1  -2   30.56    0.60
   4  -1  -2   30.84    0.61
  -4   1   2   30.28    0.60
   3  -1  -2   22.71    0.45
  -3   1   2   22.82    0.45
   2  -1  -2    3.36    0.07
  -2   1   2    3.17    0.09
   1  -1  -2  362.19    7.45
   1  -1  -2  352.90    6.49
  -1   1   2  354.69    8.22
  -1   1   2  358.39    7.83
   0  -1  -2   18.84    0.34
   0   1   2   16.89    0.37
   0   1   2   18.45    0.34
  -1  -1  -2  986.03   18.78
  -1  -1  -2 1000.00   19.44
   1   1   2  974.62   19.32
   1   1   2  954.57   21.31
  -2  -1  -2   24.03    0.46
   2   1   2   23.48    0.46
   2   1   2   23.68    0.50
   2   1   2   24.19    0.45
  -3  -1  -2    0.60    0.04
   3   1   2    0.54    0.03
   3   1   2    0.48    0.04
   3   1   2    0.47    0.03
  -4  -1  -2    1.06    0.06
   4   1   2    1.16    0.06
   4   1   2    1.16    0.05
   4   1   2    1.13    0.06
  -5  -1  -2    3.54    0.11
  -5  -1  -2    3.67    0.13
   5   1   2    3.54    0.12
   5   1   2    3.89    0.12
  -6  -1  -2    0.01    0.03
   6   1   2   -0.01    0.02
   6   1   2   -0.01    0.02
  -7  -1  -2    1.49    0.09
   7   1   2    1.35    0.08
  -8  -1  -2    5.33    0.20
   8   1   2    5.55    0.19
   9  -2  -2    0.80    0.09
  -9   2   2    0.70    0.09
   8  -2  -2    0.17    0.04
  -8   2   2    0.18    0.05
   7  -2  -2   45.42    0.91
  -7   2   2   43.63    0.94
  -7   2   2   45.31    0.90
   6  -2  -2    6.22    0.19
  -6   2   2    6.37    0.18
   5  -2  -2    2.85    0.11
   5  -2  -2    2.84    0.11
  -5   2   2    2.77    0.10
   4  -2  -2   22.47    0.46
   4  -2  -2   21.05    0.44
  -4   2   2   21.28    0.45
   3  -2  -2   96.99    2.07
   3  -2  -2  114.05    1.98
  -3   2   2  114.15    2.00
   2  -2  -2   99.40    1.87
   2  -2  -2  102.34    1.97
  -2   2   2  100.22    1.97
  -2   2   2  101.22    1.93
   1  -2  -2   14.77    0.30
   1  -2  -2   15.61    0.30
  -1   2   2   14.92    0.31
  -1   2   2   15.08    0.30
   0  -2  -2    6.09    0.13
   0  -2  -2    6.08    0.12
   0   2   2    6.08    0.14
  -1  -2  -2    0.12    0.02
  -1  -2  -2    0.15    0.01
   1   2   2    0.10    0.02
   1   2   2    0.12    0.02
  -2  -2  -2   39.69    0.75
  -2  -2  -2   39.35    0.74
   2   2   2   39.60    0.73
   2   2   2   39.36    0.81
  -3  -2  -2   14.81    0.31
   3   2   2   14.23    0.34
   3   2   2   15.27    0.30
   3   2   2   14.91    0.31
  -4  -2  -2    7.07    0.18
   4   2   2    7.09    0.20
   4   2   2    7.41    0.17
   4   2   2    7.05    0.18
  -5  -2  -2   10.69    0.26
   5   2   2   10.95    0.28
   5   2   2   10.99    0.26
  -6  -2  -2    0.07    0.03
   6   2   2    0.06    0.03
   6   2   2    0.06    0.03
  -7  -2  -2    0.95    0.08
   7   2   2    0.92    0.08
  -8  -2  -2    1.49    0.10
   8   2   2    1.49    0.10
   9  -3  -2    0.02    0.04
   8  -3  -2    8.75    0.26
  -8   3   2    8.58    0.27
   7  -3  -2   17.85    0.44
   7  -3  -2   17.90    0.42
  -7   3   2   17.57    0.42
   6  -3  -2   10.26    0.27
   6  -3  -2   10.18    0.28
  -6   3   2   10.18    0.27
   5  -3  -2    4.63    0.15
   5  -3  -2    4.48    0.14
  -5   3   2    4.49    0.15
   4  -3  -2   15.52    0.35
   4  -3  -2   15.81    0.34
  -4   3   2   15.87    0.35
   3  -3  -2   15.80    0.34
   3  -3  -2   16.27    0.34
  -3   3   2   15.87    0.35
   2  -3  -2   16.61    0.34
   2  -3  -2   16.64    0.34
  -2   3   2   17.00    0.34
  -2   3   2   16.79    0.35
   1  -3  -2   26.03    0.50
   1  -3  -2   26.31    0.51
  -1   3   2   25.69    0.51
  -1   3   2   26.91    0.53
   0  -3  -2   -0.04    0.01
   0  -3  -2   -0.03    0.01
   0   3   2   -0.02    0.01
   0   3   2   -0.04    0.01
  -1  -3  -2   29.42    0.55
  -1  -3  -2   28.72    0.55
   1   3   2   28.62    0.54
   1   3   2   28.33    0.60
  -2  -3  -2   23.81    0.46
  -2  -3  -2   23.96    0.46
   2   3   2   22.96    0.51
   2   3   2   23.34    0.45
  -3  -3  -2   35.56    0.71
  -3  -3  -2   36.82    0.71
   3   3   2   37.12    0.68
   3   3   2   36.24    0.77
  -4  -3  -2    1.41    0.06
   4   3   2    1.35    0.08
  -5  -3  -2    2.25    0.09
   5   3   2    2.22    0.09
   5   3   2    2.27    0.10
  -6  -3  -2    5.97    0.18
   6   3   2    6.28    0.20
   6   3   2    5.76    0.18
   7   3   2    7.67    0.24
   7   3   2    7.90    0.23
   8   3   2    0.63    0.07
   8  -4  -2    0.64    0.08
   8  -4  -2    0.50    0.07
  -8   4   2    0.61    0.07
   7  -4  -2    1.36    0.09
   7  -4  -2    1.38    0.09
  -7   4   2    1.22    0.09
   6  -4  -2   23.57    0.54
   6  -4  -2   24.04    0.52
  -6   4   2   23.98    0.53
   5  -4  -2    0.22    0.04
   5  -4  -2    0.27    0.04
  -5   4   2    0.26    0.04
   4  -4  -2   11.75    0.28
   4  -4  -2   11.57    0.27
  -4   4   2   12.13    0.29
   3  -4  -2   12.51    0.28
   3  -4  -2   12.33    0.27
  -3   4   2   12.33    0.29
   2  -4  -2   23.79    0.47
   2  -4  -2   24.35    0.48
  -2   4   2   23.93    0.49
  -2   4   2   23.98    0.49
   1  -4  -2    0.39    0.04
   1  -4  -2    0.39    0.03
  -1   4   2    0.40    0.04
  -1   4   2    0.42    0.04
   0  -4  -2   18.29    0.37
   0  -4  -2   18.34    0.36
   0   4   2   18.14    0.37
   0   4   2   18.26    0.40
  -1  -4  -2    6.51    0.15
  -1  -4  -2    6.34    0.14
   1   4   2    6.23    0.15
   1   4   2    6.03    0.17
  -2  -4  -2    0.48    0.04
  -2  -4  -2    0.43    0.04
   2   4   2    0.44    0.03
   2   4   2    0.38    0.05
  -3  -4  -2    1.86    0.07
  -3  -4  -2    2.02    0.08
   3   4   2    1.80    0.09
  -4  -4  -2    0.93    0.06
  -4  -4  -2    1.10    0.06
   4   4   2    0.89    0.07
  -5  -4  -2    1.83    0.09
  -5  -4  -2    1.83    0.08
   5   4   2    1.80    0.10
  -6  -4  -2    6.73    0.21
   6   4   2    7.32    0.23
  -7  -4  -2    0.10    0.04
   7   4   2   -0.03    0.03
   8  -5  -2    0.11    0.04
   8  -5  -2    0.12    0.04
  -8   5   2    0.07    0.04
   7  -5  -2    0.49    0.07
   7  -5  -2    0.55    0.07
  -7   5   2    0.37    0.06
   6  -5  -2    2.38    0.12
   6  -5  -2    2.42    0.11
  -6   5   2    2.46    0.12
   5  -5  -2    5.18    0.17
   5  -5  -2    5.49    0.17
  -5   5   2    5.10    0.18
   4  -5  -2   24.46    0.51
   4  -5  -2   24.59    0.53
  -4   5   2   24.01    0.53
   3  -5  -2   16.41    0.36
   3  -5  -2   17.04    0.37
  -3   5   2   16.74    0.38
   2  -5  -2    0.61    0.04
   2  -5  -2    0.69    0.05
  -2   5   2    0.69    0.04
  -2   5   2    0.71    0.06
   1  -5  -2    1.63    0.07
   1  -5  -2    1.67    0.06
  -1   5   2    1.65    0.07
  -1   5   2    1.67    0.07
   0  -5  -2   21.90    0.44
   0  -5  -2   21.81    0.44
   0   5   2   22.12    0.45
   0   5   2   22.09    0.48
  -1  -5  -2   36.72    0.70
  -1  -5  -2   35.93    0.71
   1   5   2   36.84    0.70
   1   5   2   36.83    0.78
  -2  -5  -2   20.16    0.42
  -2  -5  -2   20.23    0.41
   2   5   2   19.89    0.40
   2   5   2   19.88    0.47
  -3  -5  -2   17.06    0.37
  -3  -5  -2   17.23    0.36
   3   5   2   16.69    0.41
  -4  -5  -2    0.01    0.03
   4   5   2    0.00    0.03
  -5  -5  -2    0.00    0.02
   5   5   2    0.03    0.03
  -6  -5  -2    1.64    0.09
   6   5   2    1.52    0.10
  -7  -5  -2    2.42    0.12
   7   5   2    2.48    0.13
  -8   6   2    0.32    0.07
   7  -6  -2    7.35    0.24
  -7   6   2    7.32    0.25
   6  -6  -2    0.96    0.08
   6  -6  -2    0.74    0.08
  -6   6   2    0.74    0.08
   5  -6  -2    7.03    0.22
   5  -6  -2    7.30    0.21
  -5   6   2    7.14    0.23
   4  -6  -2    0.20    0.04
   4  -6  -2    0.17    0.04
  -4   6   2    0.22    0.05
   3  -6  -2    8.40    0.22
   3  -6  -2    8.62    0.22
  -3   6   2    8.55    0.24
   2  -6  -2    3.15    0.11
   2  -6  -2    3.05    0.10
  -2   6   2    2.98    0.12
   1  -6  -2   26.31    0.53
   1  -6  -2   26.48    0.53
  -1   6   2   25.90    0.55
  -1   6   2   26.40    0.57
   0  -6  -2    0.76    0.05
   0  -6  -2    0.76    0.06
   0   6   2    0.81    0.05
   0   6   2    0.69    0.06
  -1  -6  -2    0.35    0.04
  -1  -6  -2    0.38    0.05
   1   6   2    0.33    0.04
   1   6   2    0.26    0.04
  -2  -6  -2   18.56    0.40
   2   6   2   18.60    0.45
  -3  -6  -2    0.36    0.05
   3   6   2    0.44    0.06
  -4  -6  -2    2.14    0.10
   4   6   2    2.39    0.12
  -5  -6  -2   -0.01    0.03
   5   6   2   -0.01    0.03
  -6  -6  -2    1.42    0.09
   6   6   2    1.68    0.11
   7   6   2    0.88    0.10
   7  -7  -2    0.03    0.04
  -7   7   2    0.06    0.04
   6  -7  -2    0.47    0.07
  -6   7   2    0.39    0.06
   5  -7  -2    2.81    0.12
   5  -7  -2    2.90    0.13
  -5   7   2    2.97    0.14
   4  -7  -2    0.94    0.07
   4  -7  -2    0.97    0.07
  -4   7   2    0.81    0.08
   3  -7  -2   -0.02    0.02
   3  -7  -2    0.03    0.03
  -3   7   2    0.08    0.03
   2  -7  -2    0.03    0.03
   2  -7  -2    0.02    0.03
  -2   7   2   -0.01    0.03
   1  -7  -2   43.90    0.85
   1  -7  -2   42.54    0.85
  -1   7   2   43.75    0.87
  -1   7   2   43.40    0.91
   0  -7  -2    0.40    0.04
   0  -7  -2    0.38    0.05
   0   7   2    0.33    0.04
   0   7   2    0.37    0.05
  -1  -7  -2   -0.05    0.03
   1   7   2   -0.01    0.03
  -2  -7  -2    5.10    0.16
   2   7   2    5.08    0.18
  -3  -7  -2    0.27    0.05
   3   7   2    0.23    0.05
  -4  -7  -2    0.97    0.07
   4   7   2    1.04    0.10
  -5  -7  -2    4.29    0.16
   5   7   2    4.25    0.19
  -6  -7  -2    2.07    0.11
   6   7   2    2.00    0.13
   6  -8  -2    7.37    0.24
  -6   8   2    6.96    0.25
  -5   8   2    1.51    0.11
   4  -8  -2   -0.01    0.03
  -4   8   2    0.02    0.03
   3  -8  -2    0.15    0.04
   3  -8  -2    0.03    0.03
  -3   8   2    0.14    0.04
   2  -8  -2    3.91    0.14
   2  -8  -2    4.19    0.14
  -2   8   2    4.21    0.16
   1  -8  -2    0.96    0.07
  -1   8   2    0.77    0.07
   0  -8  -2    0.65    0.06
   0   8   2    0.78    0.08
   0   8   2    0.82    0.07
  -1  -8  -2   28.56    0.60
   1   8   2   29.53    0.67
  -2  -8  -2    1.21    0.08
   2   8   2    1.25    0.09
  -3  -8  -2   -0.04    0.03
   3   8   2   -0.03    0.03
  -4  -8  -2    4.60    0.17
   4   8   2    4.66    0.20
  -5  -8  -2    0.01    0.04
   5   8   2    0.00    0.04
  -5   9   2    5.52    0.22
  -4   9   2    0.93    0.10
  -3   9   2   -0.03    0.03
  -2   9   2    6.68    0.22
   1  -9  -2    4.43    0.15
  -1   9   2    4.52    0.16
   0  -9  -2    2.84    0.12
   0   9   2    2.54    0.13
  -1  -9  -2    1.00    0.08
   1   9   2    1.13    0.10
  -2  -9  -2    0.56    0.07
   2   9   2    0.57    0.08
  -3  -9  -2    7.51    0.23
   3   9   2    7.26    0.26
  -4  -9  -2    2.97    0.14
  -3  10   2    2.98    0.15
  -2  10   2    0.21    0.05
  -1 -10  -2    0.68    0.07
   1  10   2    0.60    0.08
  -2 -10  -2    0.57    0.07
   2  10   2    0.60    0.08
   3  10  -3    1.82    0.13
  -3 -10   3    2.06    0.11
   2  10  -3    3.82    0.19
  -2 -10   3    3.99    0.15
   1  10  -3    0.04    0.04
  -1 -10   3    0.10    0.04
   0  10  -3    2.33    0.14
   0 -10   3    2.42    0.12
   1 -10   3    2.17    0.11
  -2  10  -3    0.82    0.09
   2 -10   3    0.80    0.08
  -3  10  -3    0.26    0.06
   3 -10   3    0.23    0.06
  -5  -9   3   -0.02    0.04
   4   9  -3    0.02    0.04
  -4  -9   3    0.02    0.04
   3   9  -3    1.90    0.13
  -3  -9   3    1.83    0.10
   2   9  -3    2.56    0.14
  -2  -9   3    2.43    0.11
   1   9  -3    5.64    0.22
  -1  -9   3    5.81    0.19
   0   9  -3    0.19    0.05
   0  -9   3    0.29    0.05
  -1   9  -3    0.44    0.06
   1  -9   3    0.68    0.07
  -2   9  -3    0.01    0.03
   2  -9   3   -0.01    0.03
  -3   9  -3    0.65    0.08
   3  -9   3    0.49    0.07
  -4   9  -3    1.46    0.11
   4  -9   3    1.49    0.10
   6   8  -3    2.91    0.17
  -6  -8   3    3.30    0.14
  -6  -8   3    3.40    0.15
   5   8  -3    1.30    0.12
  -5  -8   3    1.36    0.09
  -5  -8   3    1.23    0.09
   4   8  -3    0.49    0.08
  -4  -8   3    0.35    0.06
   3   8  -3    0.55    0.07
  -3  -8   3    0.58    0.07
   2   8  -3    4.42    0.18
  -2  -8   3    4.45    0.15
   1   8  -3   13.25    0.37
  -1  -8   3   13.64    0.33
   0   8  -3    1.83    0.11
   0  -8   3    1.64    0.09
  -1   8  -3    3.65    0.14
  -1   8  -3    3.87    0.16
   1  -8   3    3.87    0.14
  -2   8  -3    2.63    0.12
   2  -8   3    2.40    0.11
  -3   8  -3    1.45    0.10
   3  -8   3    1.60    0.10
  -4   8  -3    4.47    0.19
   4  -8   3    4.30    0.17
  -5   8  -3   -0.01    0.03
   5  -8   3    0.01    0.03
   7   7  -3    1.63    0.13
  -7  -7   3    2.00    0.12
  -7  -7   3    2.06    0.11
   6   7  -3    0.81    0.10
  -6  -7   3    0.99    0.08
  -6  -7   3    0.86    0.09
   5   7  -3    9.02    0.29
  -5  -7   3    8.59    0.25
  -5  -7   3    8.77    0.24
   4   7  -3    1.64    0.11
  -4  -7   3    1.59    0.08
  -4  -7   3    1.85    0.10
   3   7  -3    1.52    0.10
  -3  -7   3    1.37    0.07
  -3  -7   3    1.36    0.08
   2   7  -3   25.21    0.60
  -2  -7   3   25.48    0.54
   1   7  -3    1.61    0.10
  -1  -7   3    1.60    0.08
   0   7  -3   16.66    0.42
   0   7  -3   16.47    0.38
   0  -7   3   16.79    0.38
  -1   7  -3    0.06    0.03
  -1   7  -3    0.09    0.03
   1  -7   3    0.11    0.03
  -2   7  -3    0.74    0.07
  -2   7  -3    0.68    0.07
   2  -7   3    0.60    0.06
  -3   7  -3    0.00    0.03
   3  -7   3    0.05    0.03
  -4   7  -3    0.22    0.05
   4  -7   3    0.19    0.04
  -5   7  -3    0.29    0.06
   5  -7   3    0.29    0.06
  -6   7  -3    0.43    0.07
   6  -7   3    0.41    0.07
   7   6  -3    9.49    0.30
   7   6  -3    9.44    0.27
  -7  -6   3    9.01    0.27
   6   6  -3    0.43    0.06
   6   6  -3    0.46    0.07
  -6  -6   3    0.28    0.06
   5   6  -3    8.31    0.27
  -5  -6   3    8.67    0.24
   4   6  -3    0.31    0.06
  -4  -6   3    0.39    0.05
  -4  -6   3    0.37    0.04
   3   6  -3   17.25    0.43
  -3  -6   3   16.93    0.38
  -3  -6   3   16.94    0.36
   2   6  -3    0.66    0.07
  -2  -6   3    0.62    0.05
  -2  -6   3    0.59    0.06
   1   6  -3    2.17    0.11
   1   6  -3    2.20    0.08
  -1  -6   3    2.27    0.09
  -1  -6   3    2.15    0.07
   0   6  -3    4.95    0.16
   0   6  -3    4.96    0.15
   0  -6   3    4.66    0.14
  -1   6  -3   15.71    0.36
  -1   6  -3   15.73    0.38
   1  -6   3   15.51    0.35
  -2   6  -3   10.39    0.27
  -2   6  -3   10.25    0.27
   2  -6   3    9.44    0.25
  -3   6  -3    0.50    0.06
   3  -6   3    0.51    0.06
  -4   6  -3    0.15    0.04
   4  -6   3    0.12    0.04
  -5   6  -3    2.15    0.12
   5  -6   3    2.14    0.11
  -6   6  -3    0.62    0.08
   6  -6   3    0.60    0.07
  -7   6  -3    0.59    0.09
   7  -6   3    0.63    0.08
   8   5  -3    0.01    0.03
  -8  -5   3    0.00    0.04
   7   5  -3    1.08    0.08
   7   5  -3    1.15    0.09
  -7  -5   3    1.05    0.08
   6   5  -3    0.43    0.07
   6   5  -3    0.35    0.05
  -6  -5   3    0.30    0.05
   5   5  -3   78.13    1.63
   5   5  -3   80.13    1.50
  -5  -5   3   78.81    1.53
   4   5  -3    0.03    0.03
   4   5  -3    0.08    0.03
  -4  -5   3    0.08    0.03
   3   5  -3    0.79    0.07
  -3  -5   3    1.11    0.07
   2   5  -3   29.43    0.66
  -2  -5   3   29.75    0.60
  -2  -5   3   30.01    0.57
   1   5  -3    3.80    0.11
   1   5  -3    3.77    0.14
  -1  -5   3    3.90    0.10
  -1  -5   3    3.73    0.12
   0   5  -3   22.19    0.50
   0   5  -3   22.36    0.46
   0  -5   3   22.37    0.43
   0  -5   3   22.87    0.47
  -1   5  -3   22.29    0.48
  -1   5  -3   22.65    0.50
   1  -5   3   22.74    0.47
  -2   5  -3    0.96    0.07
  -2   5  -3    1.05    0.06
   2  -5   3    0.95    0.06
  -3   5  -3    2.09    0.10
  -3   5  -3    2.23    0.09
   3  -5   3    2.23    0.10
  -4   5  -3    2.35    0.11
   4  -5   3    1.98    0.10
  -5   5  -3    4.61    0.18
   5  -5   3    4.79    0.17
  -6   5  -3    4.88    0.19
   6  -5   3    4.67    0.18
  -7   5  -3    2.20    0.13
   7  -5   3    2.22    0.13
   8   4  -3    2.18    0.12
  -8  -4   3    2.14    0.12
   7   4  -3    0.26    0.05
   7   4  -3    0.23    0.05
  -7  -4   3    0.25    0.05
   6   4  -3    0.13    0.04
   6   4  -3    0.26    0.04
  -6  -4   3    0.22    0.04
   5   4  -3    7.81    0.21
   5   4  -3    7.87    0.24
  -5  -4   3    7.84    0.21
   4   4  -3    0.04    0.02
   4   4  -3    0.01    0.03
  -4  -4   3    0.09    0.03
   3   4  -3    0.54    0.06
   3   4  -3    0.48    0.04
  -3  -4   3    0.52    0.05
   2   4  -3    1.58    0.05
   2   4  -3    1.42    0.06
   2   4  -3    1.62    0.08
  -2  -4   3    1.59    0.07
   1   4  -3   27.78    0.53
   1   4  -3   27.26    0.59
  -1  -4   3   27.60    0.51
  -1  -4   3   26.90    0.55
   0   4  -3    2.22    0.09
   0   4  -3    2.23    0.08
   0  -4   3    2.38    0.06
   0  -4   3    2.30    0.08
  -1   4  -3  126.89    2.50
  -1   4  -3  126.55    2.39
   1  -4   3  127.10    2.38
   1  -4   3  128.19    2.32
  -2   4  -3   72.63    1.44
  -2   4  -3   72.51    1.37
   2  -4   3   70.36    1.37
   2  -4   3   72.04    1.30
  -3   4  -3    0.05    0.03
  -3   4  -3    0.04    0.02
   3  -4   3    0.02    0.02
  -4   4  -3    9.27    0.26
   4  -4   3    9.27    0.25
  -5   4  -3    0.28    0.05
   5  -4   3    0.21    0.04
  -6   4  -3    7.30    0.23
   6  -4   3    7.04    0.23
  -7   4  -3    3.74    0.17
   7  -4   3    3.49    0.16
  -8   4  -3    0.68    0.09
   8  -4   3    0.76    0.09
  -9  -3   3    0.00    0.04
   8   3  -3    0.14    0.04
  -8  -3   3    0.09    0.04
   7   3  -3    2.82    0.12
  -7  -3   3    2.58    0.12
   6   3  -3    7.79    0.22
   6   3  -3    7.65    0.23
  -6  -3   3    7.82    0.22
   5   3  -3    0.16    0.04
   5   3  -3    0.14    0.03
  -5  -3   3    0.14    0.03
   4   3  -3   30.83    0.68
   4   3  -3   31.96    0.62
  -4  -3   3   31.58    0.64
   3   3  -3   35.54    0.75
   3   3  -3   35.68    0.68
  -3  -3   3   34.78    0.70
   2   3  -3    1.22    0.05
   2   3  -3    1.24    0.06
  -2  -3   3    1.25    0.04
  -2  -3   3    1.32    0.06
   1   3  -3   20.47    0.45
   1   3  -3   21.19    0.39
  -1  -3   3   20.67    0.42
  -1  -3   3   20.61    0.40
   0   3  -3  159.79    3.17
   0  -3   3  162.37    2.90
   0  -3   3  160.97    3.10
   0  -3   3  154.91    2.96
  -1   3  -3   15.62    0.35
   1  -3   3   15.98    0.33
   1  -3   3   16.13    0.34
   1  -3   3   16.43    0.30
  -2   3  -3    0.92    0.05
   2  -3   3    0.84    0.05
   2  -3   3    0.73    0.03
  -3   3  -3    0.03    0.02
  -3   3  -3    0.05    0.02
   3  -3   3    0.03    0.01
   3  -3   3    0.02    0.02
  -4   3  -3   25.73    0.55
  -4   3  -3   25.43    0.54
   4  -3   3   25.56    0.55
   4  -3   3   26.13    0.51
  -5   3  -3    5.50    0.18
   5  -3   3    5.65    0.18
  -6   3  -3    1.45    0.09
   6  -3   3    1.38    0.09
  -7   3  -3    0.36    0.06
   7  -3   3    0.29    0.06
   8  -3   3    4.89    0.20
   9   2  -3    0.39    0.07
  -9  -2   3    0.37    0.07
   8   2  -3    4.52    0.17
  -8  -2   3    4.62    0.18
   7   2  -3    3.65    0.14
  -7  -2   3    3.65    0.15
   6   2  -3   11.88    0.30
   6   2  -3   11.54    0.29
  -6  -2   3   11.37    0.29
   5   2  -3   13.24    0.31
   5   2  -3   13.93    0.33
  -5  -2   3   13.51    0.32
   4   2  -3    0.63    0.05
   4   2  -3    0.48    0.05
  -4  -2   3    0.50    0.05
   3   2  -3    6.49    0.18
  -3  -2   3    6.64    0.16
  -3  -2   3    6.54    0.13
   2   2  -3  129.34    2.39
   2   2  -3  129.40    2.61
  -2  -2   3  126.43    2.48
  -2  -2   3  133.32    2.40
   1   2  -3   12.75    0.24
   1   2  -3   12.55    0.28
  -1  -2   3   12.72    0.25
  -1  -2   3   12.38    0.26
   0   2  -3   69.59    1.39
   0  -2   3   66.96    1.32
   0  -2   3   69.80    1.32
  -1   2  -3   12.97    0.29
   1  -2   3   12.71    0.27
   1  -2   3   13.01    0.24
   1  -2   3   12.90    0.27
  -2   2  -3    4.18    0.12
   2  -2   3    4.12    0.11
   2  -2   3    4.22    0.12
   2  -2   3    4.14    0.09
  -3   2  -3   11.45    0.26
   3  -2   3   11.65    0.27
   3  -2   3   11.56    0.24
   3  -2   3   11.29    0.26
  -4   2  -3    1.89    0.08
  -4   2  -3    1.83    0.09
   4  -2   3    1.85    0.08
   4  -2   3    1.95    0.07
  -5   2  -3    2.24    0.10
   5  -2   3    2.27    0.10
   5  -2   3    2.30    0.09
  -6   2  -3    2.25    0.11
   6  -2   3    2.18    0.11
   6  -2   3    2.14    0.09
  -7   2  -3    1.11    0.08
   7  -2   3    0.94    0.09
   9   1  -3    3.32    0.15
  -9  -1   3    3.24    0.16
   8   1  -3    0.06    0.03
  -8  -1   3    0.07    0.04
   7   1  -3    1.01    0.07
  -7  -1   3    1.09    0.08
   6   1  -3   24.37    0.53
  -6  -1   3   24.91    0.54
   5   1  -3    5.28    0.16
   5   1  -3    5.11    0.15
  -5  -1   3    5.10    0.16
   4   1  -3    1.02    0.05
   4   1  -3    1.02    0.06
  -4  -1   3    1.10    0.06
  -4  -1   3    1.03    0.04
   3   1  -3  165.39    3.13
   3   1  -3  170.27    3.45
  -3  -1   3  167.29    3.28
  -3  -1   3  175.50    3.14
   2   1  -3   27.97    0.54
   2   1  -3   28.35    0.59
  -2  -1   3   28.82    0.56
  -2  -1   3   29.39    0.53
   1   1  -3  133.09    2.45
   1   1  -3  129.70    2.69
  -1  -1   3  130.95    2.46
  -1  -1   3  131.47    2.54
   0   1  -3   62.59    1.21
   0   1  -3   62.56    1.13
   0  -1   3   59.64    1.19
   0  -1   3   61.00    1.20
  -1   1  -3    6.63    0.13
  -1   1  -3    6.59    0.16
   1  -1   3    6.57    0.15
   1  -1   3    6.62    0.14
  -2   1  -3   70.63    1.45
   2  -1   3   71.84    1.36
   2  -1   3   71.59    1.33
   2  -1   3   74.26    1.34
   3  -1   3   28.63    0.58
   3  -1   3   29.55    0.56
   3  -1   3   28.88    0.58
   4  -1   3    0.95    0.06
   4  -1   3    0.98    0.06
   4  -1   3    1.03    0.05
  -5   1  -3    3.71    0.13
   5  -1   3    3.47    0.13
   5  -1   3    3.69    0.12
   5  -1   3    3.64    0.12
  -6   1  -3    1.23    0.08
   6  -1   3    1.38    0.08
   6  -1   3    1.31    0.08
   7  -1   3    0.69    0.07
  -8   1  -3    4.02    0.17
   9   0  -3    1.34    0.10
  -9   0   3    1.06    0.10
   8   0  -3    0.92    0.09
  -8   0   3    0.94    0.09
   7   0  -3    0.03    0.03
  -7   0   3    0.00    0.03
   6   0  -3    0.22    0.04
  -6   0   3    0.16    0.04
   5   0  -3    0.93    0.05
   5   0  -3    0.96    0.06
  -5   0   3    1.03    0.05
  -5   0   3    0.84    0.06
   4   0  -3   47.13    0.94
   4   0  -3   46.99    0.91
  -4   0   3   47.45    0.93
  -4   0   3   47.89    0.89
   3   0  -3   19.47    0.41
  -3   0   3   19.98    0.39
  -3   0   3   20.04    0.41
   2   0  -3  110.79    2.19
   2   0  -3  108.49    2.07
  -2   0   3  110.03    2.06
  -2   0   3  109.99    2.15
   1   0  -3   -0.10    0.01
   1   0  -3   -0.08    0.02
  -1   0   3   -0.08    0.01
  -1   0   3   -0.08    0.01
   0   0  -3   27.40    0.50
   0   0  -3   27.36    0.55
   0   0   3   26.89    0.53
  -1   0  -3  139.27    2.51
   1   0   3  140.86    2.77
   1   0   3  135.10    2.57
   1   0   3  127.07    2.59
   2   0   3    6.83    0.16
   2   0   3    6.85    0.15
   2   0   3    6.81    0.16
   2   0   3    6.71    0.17
   3   0   3    5.29    0.14
   3   0   3    5.35    0.14
   3   0   3    5.28    0.13
   3   0   3    5.24    0.14
   4   0   3   41.26    0.85
   4   0   3   41.17    0.82
   4   0   3   41.59    0.79
   4   0   3   41.50    0.80
   5   0   3    5.85    0.17
   5   0   3    5.89    0.17
   5   0   3    5.79    0.16
  -6   0  -3   21.57    0.49
   6   0   3   21.43    0.46
  -7   0  -3    0.05    0.04
   7   0   3    0.06    0.03
  -8   0  -3    1.86    0.11
   8   0   3    1.90    0.10
   9  -1  -3    1.06    0.10
  -9   1   3    1.23    0.11
   8  -1  -3    0.76    0.08
  -8   1   3    0.82    0.09
   7  -1  -3   12.63    0.32
  -7   1   3   12.20    0.33
   6  -1  -3   28.33    0.60
  -6   1   3   28.54    0.62
  -6   1   3   28.30    0.58
   5  -1  -3   -0.01    0.02
  -5   1   3    0.05    0.02
  -5   1   3    0.08    0.03
   4  -1  -3   34.19    0.67
   4  -1  -3   34.28    0.67
  -4   1   3   33.62    0.68
  -4   1   3   33.89    0.66
   3  -1  -3   19.34    0.40
   3  -1  -3   19.75    0.40
  -3   1   3   19.80    0.41
  -3   1   3   19.98    0.40
   2  -1  -3    0.00    0.01
   2  -1  -3    0.02    0.01
  -2   1   3    0.01    0.02
  -2   1   3    0.01    0.01
   1  -1  -3   36.03    0.66
   1  -1  -3   35.06    0.71
  -1   1   3   35.51    0.67
  -1   1   3   35.99    0.67
   0  -1  -3  108.32    1.99
   0   1   3  101.44    2.16
   0   1   3  105.38    2.01
  -1  -1  -3  405.09    9.03
   1   1   3  380.94    9.14
   1   1   3  399.92    8.19
  -2  -1  -3    1.57    0.06
   2   1   3    1.53    0.05
   2   1   3    1.58    0.05
   2   1   3    1.50    0.06
   3   1   3    6.57    0.16
   3   1   3    6.69    0.18
   3   1   3    6.60    0.16
  -4  -1  -3    1.12    0.06
   4   1   3    1.18    0.07
   4   1   3    1.35    0.06
   4   1   3    1.29    0.06
  -5  -1  -3    1.37    0.07
   5   1   3    1.30    0.07
   5   1   3    1.30    0.07
   5   1   3    1.39    0.07
  -6  -1  -3    0.17    0.04
   6   1   3    0.19    0.04
   6   1   3    0.16    0.04
  -7  -1  -3   11.20    0.31
   7   1   3   12.00    0.30
   8   1   3    2.25    0.12
   9  -2  -3    3.02    0.15
  -9   2   3    3.53    0.17
   8  -2  -3    1.67    0.11
  -8   2   3    1.61    0.10
   7  -2  -3    0.37    0.05
  -7   2   3    0.42    0.05
  -7   2   3    0.50    0.06
   6  -2  -3    0.56    0.06
  -6   2   3    0.60    0.06
  -6   2   3    0.64    0.07
   5  -2  -3   34.28    0.70
   5  -2  -3   35.93    0.72
  -5   2   3   34.79    0.70
   4  -2  -3   21.98    0.47
   4  -2  -3   22.02    0.46
  -4   2   3   22.41    0.46
   3  -2  -3   24.27    0.49
   3  -2  -3   24.07    0.48
  -3   2   3   24.46    0.49
   2  -2  -3   41.75    0.82
   2  -2  -3   41.43    0.78
   2  -2  -3   41.31    0.79
  -2   2   3   41.24    0.79
   1  -2  -3    0.13    0.02
   1  -2  -3    0.15    0.02
  -1   2   3    0.15    0.02
  -1   2   3    0.18    0.02
   0  -2  -3    3.71    0.09
   0   2   3    3.63    0.10
   0   2   3    3.67    0.09
  -1  -2  -3   18.21    0.34
  -1  -2  -3   18.07    0.36
   1   2   3   18.07    0.39
  -2  -2  -3    0.40    0.03
  -2  -2  -3    0.44    0.03
   2   2   3    0.40    0.03
   2   2   3    0.38    0.04
  -3  -2  -3    0.02    0.01
  -3  -2  -3    0.00    0.02
   3   2   3    0.02    0.01
   3   2   3    0.02    0.02
  -4  -2  -3    0.24    0.03
   4   2   3    0.17    0.03
   4   2   3    0.20    0.03
   4   2   3    0.43    0.04
  -5  -2  -3    2.43    0.10
   5   2   3    2.36    0.10
   5   2   3    2.39    0.10
  -6  -2  -3    1.37    0.08
   6   2   3    1.38    0.08
   6   2   3    1.33    0.08
   7   2   3    9.27    0.26
   8   2   3    0.50    0.07
   9  -3  -3    0.09    0.04
   8  -3  -3    0.00    0.03
  -8   3   3    0.00    0.03
   7  -3  -3    0.12    0.04
  -7   3   3    0.13    0.04
  -7   3   3    0.09    0.04
   6  -3  -3    1.83    0.10
   6  -3  -3    1.99    0.10
  -6   3   3    1.58    0.09
   5  -3  -3   17.74    0.40
   5  -3  -3   17.51    0.39
  -5   3   3   17.85    0.40
   4  -3  -3   23.91    0.50
   4  -3  -3   23.98    0.49
  -4   3   3   24.03    0.50
   3  -3  -3   21.96    0.45
   3  -3  -3   22.35    0.46
  -3   3   3   22.08    0.46
   2  -3  -3   69.29    1.30
   2  -3  -3   68.44    1.27
  -2   3   3   68.77    1.36
  -2   3   3   68.56    1.29
   1  -3  -3    1.48    0.06
   1  -3  -3    1.41    0.05
  -1   3   3    1.43    0.05
  -1   3   3    1.51    0.06
   0  -3  -3   21.42    0.42
   0  -3  -3   21.39    0.40
   0   3   3   21.06    0.42
  -1  -3  -3   33.74    0.63
  -1  -3  -3   33.36    0.63
   1   3   3   32.99    0.69
   1   3   3   33.11    0.63
  -2  -3  -3   11.04    0.23
  -2  -3  -3   11.06    0.24
   2   3   3   11.15    0.23
   2   3   3   10.72    0.27
  -3  -3  -3   15.55    0.33
  -3  -3  -3   14.82    0.32
   3   3   3   16.08    0.32
  -4  -3  -3    0.50    0.04
  -4  -3  -3    0.50    0.05
   4   3   3    0.51    0.06
  -5  -3  -3    4.14    0.13
  -5  -3  -3    4.12    0.14
   5   3   3    4.27    0.16
  -6  -3  -3    5.41    0.17
   6   3   3    5.39    0.19
  -7  -3  -3    0.64    0.07
   7   3   3    0.56    0.07
  -8  -3  -3    0.97    0.09
   9  -4  -3    0.09    0.04
   8  -4  -3    0.07    0.04
  -8   4   3    0.06    0.04
  -8   4   3    0.03    0.04
   7  -4  -3    4.42    0.17
   7  -4  -3    4.49    0.17
  -7   4   3    4.45    0.17
   6  -4  -3    3.05    0.13
   6  -4  -3    3.27    0.13
  -6   4   3    3.18    0.13
   5  -4  -3   14.02    0.33
   5  -4  -3   14.20    0.34
  -5   4   3   14.28    0.34
   4  -4  -3   15.73    0.35
   4  -4  -3   15.91    0.36
  -4   4   3   16.38    0.37
   3  -4  -3    0.04    0.02
   3  -4  -3    0.01    0.02
  -3   4   3    0.07    0.03
   2  -4  -3   50.52    0.96
   2  -4  -3   49.57    0.94
  -2   4   3   50.64    0.96
  -2   4   3   49.47    0.99
   1  -4  -3   44.30    0.84
   1  -4  -3   44.21    0.83
  -1   4   3   44.12    0.85
  -1   4   3   43.71    0.89
   0  -4  -3   32.43    0.61
   0  -4  -3   32.33    0.62
   0   4   3   32.19    0.67
   0   4   3   32.06    0.63
  -1  -4  -3    0.96    0.05
  -1  -4  -3    0.91    0.04
   1   4   3    0.97    0.06
   1   4   3    1.01    0.05
  -2  -4  -3    4.70    0.13
  -2  -4  -3    4.54    0.11
   2   4   3    4.65    0.12
   2   4   3    4.36    0.15
  -3  -4  -3   32.36    0.64
  -3  -4  -3   33.06    0.65
   3   4   3   32.31    0.71
  -4  -4  -3    0.93    0.06
   4   4   3    1.09    0.07
  -5  -4  -3    6.03    0.18
   5   4   3    6.36    0.21
  -6  -4  -3    3.88    0.15
   6   4   3    4.05    0.17
  -7  -4  -3    0.37    0.06
   7   4   3    0.43    0.07
   8  -5  -3    0.24    0.05
   8  -5  -3    0.22    0.05
  -8   5   3    0.32    0.06
   7  -5  -3    0.32    0.05
   7  -5  -3    0.26    0.05
  -7   5   3    0.22    0.05
   6  -5  -3    0.01    0.03
   6  -5  -3    0.01    0.03
  -6   5   3    0.05    0.03
   5  -5  -3    0.91    0.06
   5  -5  -3    0.88    0.07
  -5   5   3    0.83    0.08
   4  -5  -3    0.67    0.06
   4  -5  -3    0.63    0.06
  -4   5   3    0.60    0.06
   3  -5  -3    7.87    0.20
   3  -5  -3    7.88    0.20
  -3   5   3    7.86    0.22
   2  -5  -3   46.77    0.91
   2  -5  -3   46.99    0.89
  -2   5   3   46.49    0.94
  -2   5   3   46.52    0.91
   1  -5  -3    2.69    0.08
   1  -5  -3    2.90    0.10
  -1   5   3    2.80    0.10
  -1   5   3    2.82    0.10
   0  -5  -3   33.12    0.64
   0  -5  -3   33.05    0.65
   0   5   3   33.46    0.70
   0   5   3   33.54    0.65
  -1  -5  -3   21.68    0.44
  -1  -5  -3   21.55    0.43
   1   5   3   21.95    0.44
   1   5   3   21.55    0.49
  -2  -5  -3    7.24    0.19
   2   5   3    7.48    0.21
   2   5   3    7.06    0.17
  -3  -5  -3    0.59    0.06
   3   5   3    0.65    0.07
  -4  -5  -3    3.49    0.13
   4   5   3    3.63    0.15
  -5  -5  -3    0.20    0.04
   5   5   3    0.08    0.04
  -6  -5  -3    0.61    0.07
   6   5   3    0.65    0.08
  -7  -5  -3    2.08    0.11
   7   5   3    2.08    0.13
   8  -6  -3    0.25    0.06
  -8   6   3    0.22    0.06
   7  -6  -3    0.19    0.05
   7  -6  -3    0.10    0.04
  -7   6   3    0.17    0.05
   6  -6  -3    0.29    0.05
   6  -6  -3    0.23    0.05
  -6   6   3    0.23    0.05
   5  -6  -3   23.98    0.52
   5  -6  -3   23.38    0.53
  -5   6   3   24.12    0.55
   4  -6  -3    1.00    0.07
   4  -6  -3    1.00    0.07
  -4   6   3    0.91    0.08
   3  -6  -3    0.21    0.04
   3  -6  -3    0.23    0.04
  -3   6   3    0.18    0.04
   2  -6  -3    0.85    0.05
   2  -6  -3    0.77    0.06
  -2   6   3    0.93    0.06
   1  -6  -3    1.72    0.07
   1  -6  -3    1.83    0.09
  -1   6   3    1.93    0.08
  -1   6   3    1.82    0.09
   0  -6  -3    0.13    0.03
   0   6   3    0.18    0.04
   0   6   3    0.17    0.03
  -1  -6  -3    3.06    0.11
   1   6   3    3.14    0.10
   1   6   3    3.10    0.12
  -2  -6  -3    6.38    0.18
   2   6   3    6.24    0.20
  -3  -6  -3    0.38    0.05
   3   6   3    0.36    0.06
  -4  -6  -3    0.84    0.07
   4   6   3    0.83    0.08
  -5  -6  -3    0.07    0.04
   5   6   3    0.10    0.04
  -6  -6  -3    0.86    0.08
   6   6   3    0.79    0.09
   7  -7  -3    0.25    0.06
  -7   7   3    0.25    0.06
   6  -7  -3    1.35    0.09
   6  -7  -3    1.30    0.09
  -6   7   3    1.38    0.10
   5  -7  -3    1.85    0.10
   5  -7  -3    1.71    0.10
  -5   7   3    1.87    0.11
   4  -7  -3    4.61    0.16
   4  -7  -3    4.51    0.15
  -4   7   3    4.42    0.17
   3  -7  -3   24.08    0.51
   3  -7  -3   24.49    0.52
  -3   7   3   24.15    0.54
   2  -7  -3   50.28    0.97
   2  -7  -3   49.82    0.96
  -2   7   3   47.58    0.98
   1  -7  -3    0.53    0.06
  -1   7   3    0.55    0.06
  -1   7   3    0.55    0.06
   0  -7  -3   25.91    0.54
   0   7   3   26.61    0.59
   0   7   3   25.76    0.54
  -1  -7  -3    0.35    0.05
   1   7   3    0.35    0.05
  -2  -7  -3    2.46    0.11
   2   7   3    2.55    0.13
  -3  -7  -3    1.17    0.08
   3   7   3    1.27    0.09
  -4  -7  -3    1.35    0.09
   4   7   3    1.31    0.10
  -5  -7  -3   -0.04    0.03
   5   7   3   -0.01    0.03
   6   7   3    3.41    0.17
   6  -8  -3    0.15    0.05
  -6   8   3    0.20    0.06
   5  -8  -3    0.02    0.03
   5  -8  -3    0.02    0.03
  -5   8   3   -0.03    0.03
   4  -8  -3    0.94    0.08
   4  -8  -3    0.83    0.08
  -4   8   3    0.90    0.09
   3  -8  -3    0.07    0.03
  -3   8   3    0.07    0.04
   2  -8  -3    0.10    0.04
  -2   8   3    0.14    0.04
   1  -8  -3   28.73    0.60
  -1   8   3   28.85    0.62
   0  -8  -3   33.40    0.70
   0   8   3   34.51    0.76
   0   8   3   34.78    0.70
  -1  -8  -3    8.22    0.23
   1   8   3    8.35    0.26
  -2  -8  -3    4.85    0.16
   2   8   3    5.05    0.19
  -3  -8  -3    6.81    0.21
   3   8   3    6.94    0.24
  -4  -8  -3    2.86    0.13
   4   8   3    3.04    0.16
  -5  -8  -3    2.02    0.12
   5   8   3    2.01    0.13
  -5   9   3    0.99    0.10
  -4   9   3    3.66    0.17
   3  -9  -3    2.86    0.12
  -3   9   3    2.85    0.14
   2  -9  -3    2.76    0.12
  -2   9   3    3.12    0.14
   1  -9  -3    0.33    0.05
  -1   9   3    0.31    0.05
   0  -9  -3    3.89    0.15
   0   9   3    3.75    0.16
  -1  -9  -3   -0.02    0.04
   1   9   3   -0.05    0.02
  -2  -9  -3    0.73    0.08
   2   9   3    0.69    0.08
  -3  -9  -3    0.42    0.07
   3   9   3    0.44    0.08
  -4  -9  -3    0.07    0.05
  -3  10   3    1.38    0.11
  -2  10   3    0.43    0.07
   1 -10  -3    0.05    0.04
   0 -10  -3    1.28    0.09
  -1 -10  -3    0.92    0.09
   1  10   3    0.82    0.09
  -2 -10  -3    1.07    0.10
   2  10   3    1.02    0.11
   3  10  -4    0.70    0.10
  -3 -10   4    0.81    0.08
   2  10  -4    0.08    0.05
  -2 -10   4    0.09    0.04
   1  10  -4    7.04    0.26
  -1 -10   4    6.65    0.22
   0  10  -4    0.20    0.06
   0 -10   4    0.22    0.05
   1 -10   4    0.14    0.04
  -2  10  -4    2.30    0.13
  -5  -9   4    0.41    0.07
   4   9  -4    3.34    0.17
  -4  -9   4    3.20    0.14
   3   9  -4    0.09    0.05
  -3  -9   4    0.16    0.05
   2   9  -4    1.00    0.10
  -2  -9   4    0.82    0.08
   1   9  -4    0.01    0.03
  -1  -9   4    0.00    0.03
   0   9  -4    6.50    0.23
   0  -9   4    6.24    0.20
   1  -9   4    0.17    0.04
  -2   9  -4    2.82    0.14
   2  -9   4    2.79    0.13
  -3   9  -4    0.18    0.05
   3  -9   4    0.22    0.05
  -4   9  -4    0.21    0.06
   4  -9   4    0.17    0.05
   6   8  -4    0.23    0.07
  -6  -8   4    0.18    0.06
   5   8  -4    0.79    0.10
  -5  -8   4    0.88    0.09
   4   8  -4    0.03    0.04
  -4  -8   4    0.01    0.04
   3   8  -4    1.87    0.12
  -3  -8   4    2.01    0.10
   2   8  -4    0.94    0.10
  -2  -8   4    0.77    0.07
   1   8  -4    1.39    0.10
  -1  -8   4    1.22    0.08
   0   8  -4    0.69    0.08
   0  -8   4    0.73    0.07
  -1   8  -4    2.96    0.14
  -1   8  -4    3.13    0.13
   1  -8   4    3.02    0.12
  -2   8  -4    0.04    0.03
   2  -8   4    0.04    0.03
  -3   8  -4    0.24    0.05
   3  -8   4    0.17    0.04
  -4   8  -4    1.04    0.11
   4  -8   4    1.06    0.10
  -5   8  -4    0.12    0.05
   5  -8   4    0.08    0.04
   7   7  -4    0.94    0.11
  -7  -7   4    0.82    0.08
  -7  -7   4    0.70    0.09
   6   7  -4    1.66    0.12
  -6  -7   4    1.75    0.09
  -6  -7   4    1.47    0.10
   5   7  -4    1.57    0.11
  -5  -7   4    1.54    0.08
  -5  -7   4    1.31    0.09
   4   7  -4    5.71    0.22
  -4  -7   4    6.04    0.17
  -4  -7   4    6.12    0.19
   3   7  -4    0.14    0.04
  -3  -7   4    0.14    0.04
   2   7  -4    1.12    0.09
  -2  -7   4    1.18    0.07
   1   7  -4    0.47    0.06
  -1  -7   4    0.35    0.05
   0   7  -4    3.11    0.14
   0   7  -4    3.10    0.12
   0  -7   4    2.97    0.12
  -1   7  -4    4.32    0.16
  -1   7  -4    4.52    0.17
   1  -7   4    4.43    0.15
  -2   7  -4    2.84    0.13
  -2   7  -4    3.02    0.13
   2  -7   4    3.12    0.12
  -3   7  -4    8.47    0.26
   3  -7   4    8.78    0.25
  -4   7  -4    1.20    0.11
   4  -7   4    1.05    0.08
  -5   7  -4    0.60    0.08
   5  -7   4    0.57    0.07
  -6   7  -4    0.31    0.07
   6  -7   4    0.18    0.05
   7   6  -4   -0.01    0.03
   7   6  -4    0.05    0.04
  -7  -6   4    0.04    0.04
   6   6  -4    0.06    0.03
   6   6  -4    0.01    0.04
  -6  -6   4   -0.02    0.03
   5   6  -4    0.02    0.03
   5   6  -4    0.03    0.03
  -5  -6   4    0.02    0.04
   4   6  -4   14.71    0.40
  -4  -6   4   15.16    0.36
  -4  -6   4   14.97    0.34
   3   6  -4    0.41    0.06
  -3  -6   4    0.45    0.06
  -3  -6   4    0.40    0.04
   2   6  -4    5.45    0.19
  -2  -6   4    5.87    0.14
  -2  -6   4    5.57    0.17
   1   6  -4    0.95    0.06
   1   6  -4    0.96    0.08
  -1  -6   4    0.86    0.06
   0   6  -4   25.75    0.58
   0   6  -4   25.54    0.53
   0  -6   4   25.44    0.54
  -1   6  -4   14.56    0.36
  -1   6  -4   14.68    0.35
   1  -6   4   14.50    0.34
  -2   6  -4   13.75    0.34
  -2   6  -4   13.27    0.34
   2  -6   4   13.48    0.32
  -3   6  -4    9.94    0.28
   3  -6   4    9.76    0.26
  -4   6  -4   34.38    0.75
   4  -6   4   34.74    0.74
  -5   6  -4    0.05    0.04
   5  -6   4    0.02    0.03
  -6   6  -4    0.32    0.06
   6  -6   4    0.32    0.06
   8   5  -4    1.72    0.10
  -8  -5   4    1.45    0.10
   7   5  -4    0.05    0.03
   7   5  -4    0.09    0.04
  -7  -5   4    0.04    0.04
   6   5  -4    2.20    0.12
   6   5  -4    2.28    0.11
  -6  -5   4    2.12    0.11
   5   5  -4    9.55    0.24
   5   5  -4    9.25    0.28
  -5  -5   4    9.25    0.25
   4   5  -4   28.38    0.66
   4   5  -4   29.04    0.58
  -4  -5   4   29.15    0.61
   3   5  -4    8.95    0.26
   3   5  -4    9.26    0.21
  -3  -5   4    9.16    0.23
   2   5  -4    1.30    0.08
  -2  -5   4    1.16    0.07
  -2  -5   4    1.25    0.05
   1   5  -4    9.79    0.26
   1   5  -4    9.70    0.23
  -1  -5   4    9.79    0.20
   0   5  -4   10.43    0.25
   0   5  -4   10.59    0.28
   0  -5   4   10.48    0.25
  -1   5  -4    0.02    0.02
  -1   5  -4    0.02    0.02
   1  -5   4    0.02    0.02
  -2   5  -4    0.18    0.04
  -2   5  -4    0.16    0.04
   2  -5   4    0.17    0.04
  -3   5  -4   10.64    0.27
  -3   5  -4   10.90    0.29
   3  -5   4   10.72    0.27
  -4   5  -4   12.07    0.33
   4  -5   4   12.44    0.32
  -5   5  -4   26.60    0.60
   5  -5   4   25.79    0.59
  -6   5  -4    2.00    0.12
   6  -5   4    1.81    0.11
  -7   5  -4    2.98    0.16
   7  -5   4    2.87    0.15
   8   4  -4    0.12    0.04
  -8  -4   4    0.13    0.04
   7   4  -4    4.10    0.17
   7   4  -4    3.96    0.15
  -7  -4   4    3.82    0.15
   6   4  -4    6.14    0.21
   6   4  -4    5.63    0.18
  -6  -4   4    5.86    0.19
   5   4  -4   21.65    0.52
   5   4  -4   22.11    0.47
  -5  -4   4   22.29    0.49
   4   4  -4   82.07    1.51
   4   4  -4   79.35    1.64
  -4  -4   4   80.86    1.55
   3   4  -4   14.75    0.31
   3   4  -4   14.89    0.36
  -3  -4   4   14.73    0.33
   2   4  -4    2.46    0.10
   2   4  -4    2.30    0.07
  -2  -4   4    2.32    0.09
   1   4  -4    0.31    0.04
  -1  -4   4    0.30    0.03
  -1  -4   4    0.26    0.03
  -1  -4   4    0.29    0.02
   0   4  -4    7.01    0.19
   0  -4   4    6.80    0.17
   0  -4   4    6.95    0.14
   0  -4   4    7.03    0.17
  -1   4  -4    3.51    0.12
   1  -4   4    3.74    0.11
  -2   4  -4    0.06    0.02
  -2   4  -4    0.07    0.02
   2  -4   4    0.05    0.02
  -3   4  -4   15.88    0.37
  -3   4  -4   15.67    0.36
   3  -4   4   14.94    0.35
  -4   4  -4   13.81    0.34
   4  -4   4   13.46    0.33
  -5   4  -4    1.70    0.10
   5  -4   4    1.98    0.10
  -6   4  -4    0.11    0.04
   6  -4   4    0.26    0.05
  -7   4  -4    0.05    0.04
   7  -4   4    0.02    0.04
   8   3  -4    0.37    0.06
  -8  -3   4    0.40    0.06
   7   3  -4    3.38    0.14
  -7  -3   4    3.58    0.14
   6   3  -4    2.59    0.11
   6   3  -4    2.60    0.12
  -6  -3   4    2.50    0.11
   5   3  -4    1.36    0.08
   5   3  -4    1.24    0.07
  -5  -3   4    1.18    0.07
   4   3  -4    4.94    0.16
   4   3  -4    4.93    0.14
  -4  -3   4    5.01    0.15
   3   3  -4    5.69    0.15
   3   3  -4    5.69    0.17
  -3  -3   4    5.74    0.15
  -3  -3   4    5.73    0.12
   2   3  -4    0.00    0.02
   2   3  -4    0.08    0.02
  -2  -3   4    0.05    0.02
  -2  -3   4    0.03    0.01
   1   3  -4    0.16    0.03
   1   3  -4    0.21    0.02
  -1  -3   4    0.18    0.02
  -1  -3   4    0.21    0.03
   0   3  -4    0.06    0.02
   0  -3   4    0.05    0.02
   0  -3   4    0.03    0.02
  -1   3  -4    0.65    0.05
   1  -3   4    0.72    0.04
   1  -3   4    0.69    0.04
  -2   3  -4    0.15    0.03
   2  -3   4    0.16    0.01
   2  -3   4    0.16    0.03
   2  -3   4    0.16    0.03
  -3   3  -4   40.58    0.84
   3  -3   4   41.37    0.82
  -4   3  -4    7.53    0.22
  -4   3  -4    7.45    0.20
   4  -3   4    7.56    0.21
  -5   3  -4   26.17    0.58
   5  -3   4   26.60    0.58
  -6   3  -4    0.33    0.05
   6  -3   4    0.25    0.05
  -7   3  -4    0.00    0.03
   7  -3   4    0.10    0.04
   8  -3   4    3.18    0.16
   9   2  -4    0.05    0.04
  -9  -2   4    0.03    0.04
   8   2  -4    6.19    0.21
  -8  -2   4    6.50    0.22
   7   2  -4    8.84    0.25
  -7  -2   4    9.03    0.26
   6   2  -4    1.74    0.09
   6   2  -4    1.70    0.09
  -6  -2   4    1.72    0.09
   5   2  -4    3.29    0.12
   5   2  -4    3.20    0.12
  -5  -2   4    3.20    0.12
   4   2  -4    4.20    0.13
   4   2  -4    4.36    0.14
  -4  -2   4    4.42    0.13
   3   2  -4   35.62    0.69
   3   2  -4   35.44    0.75
  -3  -2   4   37.14    0.67
  -3  -2   4   36.90    0.72
   2   2  -4   66.42    1.34
   2   2  -4   65.51    1.23
  -2  -2   4   68.19    1.24
  -2  -2   4   68.10    1.27
   1   2  -4    1.56    0.07
   1   2  -4    1.72    0.05
  -1  -2   4    1.70    0.06
  -1  -2   4    1.74    0.06
   0   2  -4   30.35    0.63
   0  -2   4   29.66    0.58
   0  -2   4   30.39    0.58
  -1   2  -4    0.01    0.02
   1  -2   4    0.00    0.01
   1  -2   4    0.02    0.02
  -2   2  -4    0.49    0.04
   2  -2   4    0.29    0.03
   2  -2   4    0.43    0.02
   2  -2   4    0.41    0.04
  -3   2  -4    0.06    0.02
   3  -2   4    0.03    0.01
   3  -2   4    0.05    0.02
   3  -2   4    0.06    0.02
  -4   2  -4   18.81    0.43
   4  -2   4   19.07    0.42
   4  -2   4   19.10    0.42
   4  -2   4   19.48    0.39
  -5   2  -4   17.42    0.41
   5  -2   4   18.03    0.41
  -6   2  -4    2.23    0.11
   6  -2   4    2.61    0.12
  -7   2  -4    5.01    0.19
   7  -2   4    4.71    0.18
   8  -2   4    3.53    0.16
   9   1  -4    4.57    0.19
  -9  -1   4    4.66    0.19
   8   1  -4    2.07    0.11
  -8  -1   4    1.71    0.11
   7   1  -4    0.77    0.07
  -7  -1   4    0.75    0.08
   6   1  -4    2.03    0.10
  -6  -1   4    2.01    0.10
   5   1  -4    3.57    0.12
   5   1  -4    3.29    0.11
  -5  -1   4    3.55    0.12
   4   1  -4    5.49    0.15
  -4  -1   4    5.41    0.15
  -4  -1   4    5.67    0.13
   3   1  -4    1.50    0.06
   3   1  -4    1.47    0.06
  -3  -1   4    1.49    0.06
  -3  -1   4    1.51    0.05
   2   1  -4   64.83    1.18
   2   1  -4   64.69    1.28
  -2  -1   4   64.36    1.23
  -2  -1   4   63.81    1.22
   1   1  -4    0.27    0.02
   1   1  -4    0.23    0.03
  -1  -1   4    0.29    0.02
  -1  -1   4    0.28    0.02
   0   1  -4   70.13    1.29
   0   1  -4   69.26    1.38
   0  -1   4   70.56    1.36
  -1   1  -4   93.32    1.92
  -1   1  -4   91.73    1.69
   1  -1   4   89.55    1.69
   1  -1   4   93.16    1.78
  -2   1  -4    0.37    0.04
   2  -1   4    0.43    0.03
   2  -1   4    0.40    0.04
  -3   1  -4    9.28    0.23
   3  -1   4    9.19    0.22
   3  -1   4    9.25    0.22
   3  -1   4    9.11    0.20
  -4   1  -4    0.27    0.04
   4  -1   4    0.26    0.04
   4  -1   4    0.30    0.03
   4  -1   4    0.28    0.04
  -5   1  -4    5.11    0.16
   5  -1   4    5.01    0.14
   5  -1   4    5.04    0.16
  -6   1  -4    0.21    0.04
   6  -1   4    0.20    0.04
   6  -1   4    0.26    0.04
  -8   1  -4    1.49    0.10
   9   0  -4    0.82    0.09
  -9   0   4    0.88    0.10
   8   0  -4    2.84    0.13
  -8   0   4    2.73    0.14
   7   0  -4    0.22    0.04
  -7   0   4    0.18    0.04
   6   0  -4    2.49    0.11
  -6   0   4    2.56    0.11
   5   0  -4    1.29    0.07
  -5   0   4    1.35    0.07
  -5   0   4    1.28    0.06
   4   0  -4    3.49    0.10
   4   0  -4    3.93    0.12
  -4   0   4    3.72    0.10
  -4   0   4    3.62    0.12
   3   0  -4   52.24    0.99
   3   0  -4   52.50    1.05
  -3   0   4   53.03    0.98
  -3   0   4   53.23    1.01
   2   0  -4   39.00    0.78
   2   0  -4   39.08    0.73
  -2   0   4   39.23    0.73
  -2   0   4   37.83    0.74
   1   0  -4   88.88    1.63
   1   0  -4   85.79    1.81
  -1   0   4   87.54    1.71
  -1   0   4   88.67    1.71
   0   0  -4   18.25    0.34
   0   0  -4   17.90    0.38
   0   0   4   17.77    0.36
   0   0   4   18.23    0.35
  -1   0  -4    8.47    0.17
   1   0   4    7.60    0.18
   1   0   4    8.48    0.17
  -2   0  -4    5.90    0.13
   2   0   4    5.95    0.14
   3   0   4   22.78    0.46
   3   0   4   22.98    0.45
   3   0   4   22.82    0.49
   3   0   4   22.80    0.47
   4   0   4    0.87    0.06
   4   0   4    0.89    0.06
   4   0   4    0.87    0.05
   4   0   4    0.83    0.05
   5   0   4    5.38    0.17
   5   0   4    5.21    0.16
   5   0   4    5.56    0.16
   5   0   4    5.23    0.15
   6   0   4    0.03    0.02
  -7   0  -4    2.86    0.13
   7   0   4    2.95    0.12
   9  -1  -4    0.59    0.08
  -9   1   4    0.60    0.08
   8  -1  -4    0.94    0.09
  -8   1   4    0.79    0.09
   7  -1  -4    7.62    0.23
  -7   1   4    7.77    0.24
   6  -1  -4   20.29    0.45
  -6   1   4   20.36    0.46
  -6   1   4   20.16    0.43
   5  -1  -4   12.49    0.30
  -5   1   4   12.84    0.28
  -5   1   4   12.00    0.30
   4  -1  -4   33.57    0.67
   4  -1  -4   33.50    0.66
  -4   1   4   33.57    0.65
  -4   1   4   33.29    0.67
   3  -1  -4   23.41    0.47
   3  -1  -4   23.28    0.47
  -3   1   4   23.05    0.46
  -3   1   4   23.04    0.47
   2  -1  -4    2.53    0.07
   2  -1  -4    2.45    0.08
  -2   1   4    2.46    0.07
  -2   1   4    2.45    0.08
   1  -1  -4    0.74    0.04
   1  -1  -4    0.72    0.04
  -1   1   4    0.81    0.03
  -1   1   4    0.75    0.04
   0  -1  -4    9.85    0.19
   0   1   4    9.73    0.20
   0   1   4    7.85    0.21
   0   1   4    9.97    0.18
  -1  -1  -4    1.65    0.06
   1   1   4    1.62    0.06
   1   1   4    1.72    0.05
   1   1   4    1.68    0.07
  -2  -1  -4  107.87    2.07
   2   1   4  110.40    2.17
   2   1   4  108.64    2.14
   2   1   4  108.33    2.05
  -3  -1  -4   45.24    0.86
   3   1   4   45.48    0.93
   3   1   4   45.69    0.86
   3   1   4   45.38    0.88
  -4  -1  -4    0.07    0.02
   4   1   4    0.07    0.02
   4   1   4    0.09    0.03
  -5  -1  -4    0.41    0.05
   5   1   4    0.49    0.05
   5   1   4    0.48    0.05
   5   1   4    0.47    0.05
  -6  -1  -4    1.52    0.09
   6   1   4    1.65    0.09
   6   1   4    1.59    0.08
   7   1   4    1.14    0.08
   8   1   4    0.26    0.05
   9  -2  -4    1.05    0.10
  -9   2   4    1.09    0.11
   8  -2  -4    6.64    0.22
  -8   2   4    6.61    0.23
   7  -2  -4    0.04    0.03
  -7   2   4    0.00    0.03
  -7   2   4    0.02    0.03
   6  -2  -4   48.66    0.96
  -6   2   4   48.41    0.95
  -6   2   4   47.44    0.98
   5  -2  -4    7.08    0.20
  -5   2   4    7.06    0.19
  -5   2   4    6.89    0.20
   4  -2  -4   14.11    0.32
  -4   2   4   14.12    0.32
  -4   2   4   14.49    0.32
   3  -2  -4   20.39    0.43
   3  -2  -4   20.98    0.42
  -3   2   4   21.32    0.43
   2  -2  -4   11.48    0.24
   2  -2  -4   11.60    0.25
  -2   2   4   11.10    0.25
   1  -2  -4   50.92    0.93
  -1   2   4   49.77    0.94
  -1   2   4   49.81    0.94
  -1   2   4   50.48    1.00
   0  -2  -4   38.52    0.72
   0   2   4   38.27    0.72
   0   2   4   37.72    0.77
  -1  -2  -4    0.39    0.02
  -1  -2  -4    0.39    0.03
   1   2   4    0.37    0.03
   1   2   4    0.38    0.04
  -2  -2  -4    8.79    0.18
  -2  -2  -4    8.84    0.20
   2   2   4    8.59    0.22
   2   2   4    8.93    0.20
  -3  -2  -4   44.71    0.89
  -3  -2  -4   47.23    0.88
   3   2   4   46.89    0.88
   3   2   4   47.31    0.96
  -4  -2  -4    0.01    0.02
  -4  -2  -4    0.04    0.02
   4   2   4   -0.02    0.02
   4   2   4    0.01    0.02
  -5  -2  -4    3.55    0.12
  -5  -2  -4    3.21    0.11
   5   2   4    3.45    0.13
   6   2   4    0.04    0.03
   9  -3  -4    0.34    0.07
   8  -3  -4    0.50    0.07
  -8   3   4    0.48    0.07
   7  -3  -4    1.31    0.09
  -7   3   4    1.19    0.08
  -7   3   4    1.28    0.09
   6  -3  -4   36.63    0.76
  -6   3   4   37.36    0.76
   5  -3  -4    3.00    0.12
   5  -3  -4    3.10    0.12
  -5   3   4    3.04    0.12
   4  -3  -4   39.88    0.78
   4  -3  -4   40.02    0.79
  -4   3   4   39.02    0.78
   3  -3  -4    2.30    0.09
   3  -3  -4    2.32    0.06
   3  -3  -4    2.40    0.08
  -3   3   4    2.33    0.09
   2  -3  -4   37.95    0.73
   2  -3  -4   38.78    0.74
  -2   3   4   38.27    0.76
  -2   3   4   38.19    0.74
   1  -3  -4    1.19    0.06
   1  -3  -4    1.21    0.04
  -1   3   4    1.17    0.05
  -1   3   4    1.20    0.06
   0  -3  -4    0.99    0.05
   0  -3  -4    0.98    0.03
   0   3   4    0.98    0.05
   0   3   4    0.98    0.05
  -1  -3  -4   24.83    0.47
  -1  -3  -4   25.31    0.49
   1   3   4   24.96    0.49
  -2  -3  -4    1.05    0.05
  -2  -3  -4    0.99    0.04
   2   3   4    1.02    0.05
   2   3   4    0.95    0.06
  -3  -3  -4    4.60    0.13
   3   3   4    4.50    0.15
   3   3   4    4.57    0.12
  -4  -3  -4    3.54    0.12
   4   3   4    3.44    0.13
  -5  -3  -4    0.81    0.07
   5   3   4    0.80    0.08
  -6  -3  -4    4.30    0.15
   6   3   4    4.36    0.17
  -7  -3  -4    0.37    0.06
   7   3   4    0.31    0.06
   8  -4  -4    1.44    0.10
  -8   4   4    1.62    0.11
  -8   4   4    1.54    0.10
   7  -4  -4    0.09    0.04
  -7   4   4    0.09    0.04
   6  -4  -4   15.53    0.38
   6  -4  -4   15.78    0.38
  -6   4   4   15.66    0.38
   5  -4  -4    0.88    0.06
   5  -4  -4    0.85    0.06
  -5   4   4    0.59    0.06
   4  -4  -4    3.80    0.13
   4  -4  -4    3.81    0.13
  -4   4   4    3.91    0.14
   3  -4  -4    2.36    0.09
   3  -4  -4    2.43    0.09
  -3   4   4    2.43    0.10
   2  -4  -4   43.27    0.83
   2  -4  -4   42.87    0.83
  -2   4   4   43.14    0.84
  -2   4   4   44.08    0.87
   1  -4  -4    0.63    0.05
   1  -4  -4    0.54    0.03
  -1   4   4    0.47    0.04
  -1   4   4    0.50    0.04
   0  -4  -4   35.20    0.66
   0  -4  -4   34.09    0.64
   0   4   4   33.78    0.66
   0   4   4   33.71    0.71
  -1  -4  -4    2.55    0.09
   1   4   4    2.36    0.10
   1   4   4    2.49    0.08
  -2  -4  -4    8.59    0.21
   2   4   4    8.48    0.19
   2   4   4    8.07    0.23
  -3  -4  -4    5.50    0.16
   3   4   4    5.20    0.17
   3   4   4    5.40    0.14
  -4  -4  -4    4.63    0.15
   4   4   4    4.87    0.17
  -5  -4  -4    0.14    0.04
   5   4   4    0.11    0.04
  -6  -4  -4    0.13    0.04
   6   4   4    0.13    0.04
  -7  -4  -4    1.36    0.09
   7   4   4    1.08    0.10
   8  -5  -4    5.55    0.21
  -8   5   4    5.69    0.21
   7  -5  -4    0.79    0.08
   7  -5  -4    0.98    0.09
  -7   5   4    1.07    0.09
   6  -5  -4    3.20    0.14
   6  -5  -4    3.53    0.14
  -6   5   4    3.62    0.15
   5  -5  -4   16.57    0.38
   5  -5  -4   16.05    0.38
  -5   5   4   16.06    0.39
   4  -5  -4    5.97    0.18
   4  -5  -4    6.26    0.18
  -4   5   4    6.02    0.19
   3  -5  -4    0.54    0.05
   3  -5  -4    0.49    0.05
  -3   5   4    0.55    0.06
   2  -5  -4   18.35    0.39
   2  -5  -4   18.60    0.38
  -2   5   4   18.08    0.40
  -2   5   4   18.19    0.39
   1  -5  -4    0.00    0.03
   1  -5  -4    0.04    0.02
  -1   5   4    0.03    0.02
  -1   5   4    0.04    0.02
   0  -5  -4    0.67    0.06
   0   5   4    0.69    0.05
   0   5   4    0.64    0.05
  -1  -5  -4    2.75    0.10
   1   5   4    2.90    0.09
   1   5   4    2.92    0.11
  -2  -5  -4    1.60    0.08
   2   5   4    1.62    0.09
   2   5   4    1.60    0.07
  -3  -5  -4   17.75    0.39
   3   5   4   17.01    0.43
  -4  -5  -4    0.96    0.07
   4   5   4    1.06    0.08
  -5  -5  -4    0.63    0.07
   5   5   4    0.62    0.07
  -6  -5  -4    1.85    0.10
   6   5   4    1.80    0.11
  -7  -5  -4    0.09    0.04
   7   5   4    0.08    0.04
   8  -6  -4    4.00    0.17
   8  -6  -4    4.11    0.18
  -8   6   4    4.33    0.19
   7  -6  -4    0.00    0.04
   7  -6  -4    0.03    0.03
  -7   6   4   -0.01    0.03
   6  -6  -4    0.67    0.07
   6  -6  -4    0.56    0.07
  -6   6   4    0.53    0.07
   5  -6  -4    0.03    0.03
   5  -6  -4    0.00    0.02
  -5   6   4   -0.01    0.03
   4  -6  -4    0.06    0.03
   4  -6  -4    0.03    0.03
  -4   6   4    0.06    0.03
   3  -6  -4    0.05    0.03
   3  -6  -4   -0.03    0.02
  -3   6   4   -0.04    0.02
   2  -6  -4    0.62    0.06
  -2   6   4    0.59    0.06
   1  -6  -4    0.91    0.07
  -1   6   4    0.96    0.06
  -1   6   4    0.89    0.06
   0  -6  -4   18.03    0.39
   0   6   4   18.10    0.42
   0   6   4   18.32    0.39
  -1  -6  -4    4.09    0.14
   1   6   4    4.21    0.13
   1   6   4    4.09    0.15
  -2  -6  -4   10.65    0.26
   2   6   4   10.69    0.29
  -3  -6  -4    0.10    0.04
   3   6   4    0.12    0.04
  -4  -6  -4    0.05    0.03
   4   6   4    0.00    0.03
  -5  -6  -4    0.13    0.04
   5   6   4    0.19    0.05
  -6  -6  -4    0.05    0.04
   6   6   4    0.05    0.04
   7  -7  -4    1.25    0.09
   7  -7  -4    1.26    0.10
  -7   7   4    1.22    0.11
   6  -7  -4    3.85    0.16
   6  -7  -4    3.70    0.15
  -6   7   4    3.74    0.17
   5  -7  -4    0.07    0.03
   5  -7  -4    0.06    0.03
  -5   7   4    0.03    0.03
   4  -7  -4    7.73    0.22
   4  -7  -4    7.93    0.23
  -4   7   4    7.68    0.24
   3  -7  -4    0.21    0.04
  -3   7   4    0.19    0.05
   2  -7  -4    0.23    0.04
  -2   7   4    0.23    0.05
   1  -7  -4    0.09    0.04
  -1   7   4    0.06    0.03
  -1   7   4    0.14    0.04
   0  -7  -4    0.04    0.04
   0   7   4    0.04    0.03
   0   7   4    0.02    0.03
  -1  -7  -4    0.64    0.06
   1   7   4    0.65    0.07
  -2  -7  -4    1.31    0.08
   2   7   4    1.43    0.09
  -3  -7  -4    0.09    0.04
   3   7   4    0.20    0.05
  -4  -7  -4    0.30    0.05
   4   7   4    0.41    0.07
  -5  -7  -4    1.17    0.09
   5   7   4    1.02    0.10
   6  -8  -4    0.14    0.05
  -6   8   4    0.15    0.05
   5  -8  -4    0.88    0.08
  -5   8   4    0.75    0.09
   4  -8  -4    0.18    0.04
  -4   8   4    0.14    0.05
   3  -8  -4   -0.01    0.03
  -3   8   4    0.03    0.03
   2  -8  -4    3.87    0.14
  -2   8   4    3.89    0.15
   1  -8  -4    0.41    0.06
  -1   8   4    0.39    0.06
   0  -8  -4    1.33    0.09
   0   8   4    1.32    0.09
   0   8   4    1.18    0.08
  -1  -8  -4    1.88    0.10
   1   8   4    2.00    0.11
  -2  -8  -4    4.93    0.17
   2   8   4    5.15    0.20
  -3  -8  -4    0.50    0.07
   3   8   4    0.60    0.08
  -4  -8  -4    0.13    0.05
   4   8   4    0.15    0.05
  -5   9   4    1.34    0.12
   4  -9  -4    0.62    0.07
  -4   9   4    0.42    0.07
   3  -9  -4    0.23    0.05
  -3   9   4    0.23    0.05
   2  -9  -4    1.44    0.09
  -2   9   4    1.41    0.10
   1  -9  -4    0.39    0.06
  -1   9   4    0.39    0.06
   0  -9  -4    2.48    0.12
  -1  -9  -4    0.25    0.05
   1   9   4    0.21    0.05
  -2  -9  -4    0.29    0.06
   2   9   4    0.34    0.06
  -3  -9  -4    6.73    0.22
   3   9   4    6.55    0.25
  -3  10   4    4.34    0.18
   2 -10  -4    0.78    0.08
  -2  10   4    0.48    0.07
   1 -10  -4    0.94    0.09
   0 -10  -4    0.17    0.05
  -1 -10  -4    4.01    0.16
   1  10   4    3.66    0.17
   2  10   4    0.12    0.05
  -3 -10   5    0.07    0.04
   2  10  -5    1.81    0.13
  -2 -10   5    1.72    0.11
   1  10  -5    0.63    0.09
  -1 -10   5    0.76    0.08
   0  10  -5    0.11    0.05
   0 -10   5    0.23    0.05
   1 -10   5    4.18    0.17
  -5  -9   5    1.05    0.10
  -4  -9   5    5.28    0.19
   3   9  -5    0.22    0.06
  -3  -9   5    0.11    0.05
   2   9  -5    1.18    0.12
  -2  -9   5    1.51    0.09
   1   9  -5    1.02    0.10
  -1  -9   5    0.91    0.08
   0   9  -5    0.16    0.05
   0  -9   5    0.13    0.04
   1  -9   5    0.38    0.06
  -2   9  -5    0.13    0.05
   2  -9   5    0.16    0.04
  -3   9  -5    0.80    0.09
   3  -9   5    0.75    0.08
   6   8  -5    2.08    0.14
  -6  -8   5    1.99    0.12
   5   8  -5    0.92    0.10
  -5  -8   5    0.72    0.08
   4   8  -5    0.39    0.07
  -4  -8   5    0.31    0.06
   3   8  -5    5.42    0.22
  -3  -8   5    5.06    0.18
   2   8  -5   -0.01    0.03
  -2  -8   5   -0.03    0.03
   1   8  -5    2.78    0.14
  -1  -8   5    2.56    0.11
   0   8  -5    1.96    0.12
   0  -8   5    1.88    0.10
  -1   8  -5    9.02    0.26
  -1   8  -5    8.86    0.28
   1  -8   5    9.04    0.25
  -2   8  -5   -0.02    0.03
   2  -8   5    0.00    0.03
  -3   8  -5    0.24    0.06
   3  -8   5    0.33    0.06
  -4   8  -5    0.30    0.06
   4  -8   5    0.17    0.05
   7   7  -5    0.68    0.09
  -7  -7   5    0.71    0.09
  -7  -7   5    0.79    0.08
   6   7  -5    0.52    0.08
  -6  -7   5    0.46    0.07
  -6  -7   5    0.47    0.06
   5   7  -5    0.11    0.04
  -5  -7   5    0.07    0.04
   4   7  -5    0.14    0.05
  -4  -7   5    0.13    0.05
   3   7  -5    0.23    0.05
  -3  -7   5    0.23    0.05
   2   7  -5    4.25    0.17
  -2  -7   5    4.25    0.15
   1   7  -5    2.11    0.12
  -1  -7   5    2.22    0.10
   0   7  -5    1.65    0.09
   0   7  -5    1.61    0.10
   0  -7   5    1.54    0.08
  -1   7  -5    0.63    0.07
  -1   7  -5    0.66    0.07
   1  -7   5    0.61    0.06
  -2   7  -5    1.25    0.09
  -2   7  -5    1.25    0.09
   2  -7   5    1.19    0.08
  -3   7  -5    3.53    0.15
   3  -7   5    3.38    0.14
  -4   7  -5    1.19    0.11
   4  -7   5    1.15    0.09
  -5   7  -5    2.61    0.15
   5  -7   5    2.73    0.14
   7   6  -5    1.92    0.12
   7   6  -5    1.99    0.11
  -7  -6   5    1.81    0.11
   6   6  -5    2.14    0.10
   6   6  -5    1.94    0.12
  -6  -6   5    1.88    0.11
   5   6  -5    0.12    0.03
   5   6  -5    0.10    0.04
  -5  -6   5    0.07    0.04
   4   6  -5   22.17    0.55
  -4  -6   5   22.63    0.50
   3   6  -5    1.68    0.10
  -3  -6   5    1.64    0.09
   2   6  -5    0.52    0.07
  -2  -6   5    0.64    0.06
   1   6  -5   10.99    0.26
   1   6  -5   10.55    0.30
  -1  -6   5   10.53    0.26
   0   6  -5    7.42    0.23
   0   6  -5    7.37    0.20
   0  -6   5    7.28    0.20
  -1   6  -5    1.44    0.08
  -1   6  -5    1.51    0.09
   1  -6   5    1.47    0.08
  -2   6  -5   23.22    0.53
  -2   6  -5   24.22    0.55
   2  -6   5   24.08    0.52
  -3   6  -5   28.37    0.63
   3  -6   5   28.38    0.62
  -4   6  -5    0.09    0.04
   4  -6   5    0.14    0.04
  -5   6  -5    5.55    0.21
   5  -6   5    5.10    0.19
  -6   6  -5    0.30    0.07
   6  -6   5    0.29    0.06
  -8  -5   5    3.34    0.16
   7   5  -5    0.39    0.06
   7   5  -5    0.39    0.07
  -7  -5   5    0.34    0.06
   6   5  -5    0.33    0.05
   6   5  -5    0.47    0.07
  -6  -5   5    0.36    0.06
   5   5  -5    0.20    0.05
   5   5  -5    0.20    0.04
  -5  -5   5    0.24    0.05
   4   5  -5   58.60    1.11
   4   5  -5   56.84    1.23
  -4  -5   5   60.05    1.16
   3   5  -5    9.66    0.28
   3   5  -5   10.16    0.23
  -3  -5   5   10.09    0.25
   2   5  -5    3.15    0.13
  -2  -5   5    3.15    0.09
  -2  -5   5    3.10    0.11
   1   5  -5   14.96    0.33
   1   5  -5   15.08    0.37
  -1  -5   5   14.85    0.34
   0   5  -5    0.57    0.05
   0   5  -5    0.49    0.06
   0  -5   5    0.53    0.05
  -1   5  -5    0.16    0.04
  -1   5  -5    0.11    0.03
   1  -5   5    0.20    0.04
  -2   5  -5    1.05    0.07
  -2   5  -5    0.95    0.07
   2  -5   5    0.91    0.06
  -3   5  -5    2.31    0.10
  -3   5  -5    2.09    0.11
   3  -5   5    2.11    0.10
  -4   5  -5    0.28    0.05
   4  -5   5    0.28    0.05
  -5   5  -5    3.44    0.15
   5  -5   5    2.81    0.14
  -6   5  -5    3.04    0.15
   6  -5   5    3.08    0.14
  -7   5  -5    0.05    0.04
   7  -5   5    0.08    0.04
   8   4  -5    0.11    0.04
  -8  -4   5    0.05    0.04
   7   4  -5    1.92    0.10
   7   4  -5    2.31    0.12
  -7  -4   5    1.97    0.11
   6   4  -5    7.56    0.22
   6   4  -5    7.63    0.24
  -6  -4   5    7.14    0.22
   5   4  -5    1.85    0.09
   5   4  -5    1.61    0.10
  -5  -4   5    1.85    0.09
   4   4  -5    5.65    0.16
   4   4  -5    5.53    0.19
  -4  -4   5    5.54    0.17
   3   4  -5   18.30    0.37
   3   4  -5   17.77    0.43
  -3  -4   5   17.92    0.39
   2   4  -5    2.80    0.12
   2   4  -5    2.85    0.08
  -2  -4   5    2.91    0.10
  -2  -4   5    3.07    0.09
   1   4  -5    0.64    0.06
  -1  -4   5    0.65    0.03
  -1  -4   5    0.61    0.04
  -1  -4   5    0.63    0.05
   0   4  -5    1.15    0.07
   0  -4   5    1.29    0.06
   0  -4   5    1.26    0.06
  -1   4  -5   29.02    0.63
   1  -4   5   28.29    0.59
   1  -4   5   30.01    0.59
  -2   4  -5    0.00    0.02
   2  -4   5    0.01    0.02
   2  -4   5    0.00    0.02
  -3   4  -5    3.00    0.12
  -3   4  -5    2.81    0.11
   3  -4   5    3.27    0.12
  -4   4  -5    2.49    0.12
   4  -4   5    2.54    0.11
  -5   4  -5    5.08    0.18
   5  -4   5    4.56    0.17
  -6   4  -5    0.45    0.07
   6  -4   5    0.36    0.06
  -7   4  -5    0.04    0.04
   7  -4   5    0.01    0.04
   8   3  -5    4.35    0.17
  -8  -3   5    4.12    0.17
   7   3  -5    5.22    0.18
  -7  -3   5    5.62    0.19
   6   3  -5    0.77    0.07
   6   3  -5    0.63    0.07
  -6  -3   5    0.77    0.07
   5   3  -5    4.82    0.15
   5   3  -5    4.77    0.16
  -5  -3   5    4.83    0.16
   4   3  -5    3.72    0.14
   4   3  -5    4.08    0.12
  -4  -3   5    3.95    0.13
   3   3  -5    5.32    0.14
   3   3  -5    5.75    0.17
  -3  -3   5    5.62    0.15
  -3  -3   5    5.56    0.12
   2   3  -5   35.79    0.68
   2   3  -5   36.17    0.76
  -2  -3   5   35.98    0.71
  -2  -3   5   36.10    0.68
   1   3  -5    5.96    0.17
   1   3  -5    5.95    0.12
  -1  -3   5    5.98    0.14
  -1  -3   5    5.81    0.15
   0   3  -5   96.24    1.89
   0  -3   5   91.15    1.81
   0  -3   5   97.85    1.76
  -1   3  -5   16.11    0.37
   1  -3   5   16.24    0.35
   1  -3   5   15.98    0.34
  -2   3  -5    1.12    0.07
   2  -3   5    1.28    0.06
   2  -3   5    1.30    0.07
  -3   3  -5    5.67    0.17
   3  -3   5    6.03    0.17
   3  -3   5    5.43    0.17
  -4   3  -5    5.69    0.17
   4  -3   5    5.08    0.17
  -5   3  -5    0.53    0.07
   5  -3   5    0.51    0.06
  -6   3  -5    1.10    0.10
   6  -3   5    1.04    0.08
  -7   3  -5    2.37    0.13
   7  -3   5    2.13    0.12
   9   2  -5    1.40    0.10
  -9  -2   5    1.29    0.10
   8   2  -5    0.25    0.05
  -8  -2   5    0.29    0.05
   7   2  -5    7.71    0.23
  -7  -2   5    7.93    0.24
   6   2  -5   13.91    0.34
   6   2  -5   13.40    0.33
  -6  -2   5   13.76    0.34
   5   2  -5    6.99    0.20
   5   2  -5    7.08    0.19
  -5  -2   5    6.70    0.19
   4   2  -5    2.37    0.09
   4   2  -5    2.50    0.10
  -4  -2   5    2.47    0.09
   3   2  -5   31.35    0.66
   3   2  -5   30.85    0.60
  -3  -2   5   30.92    0.62
  -3  -2   5   31.20    0.58
   2   2  -5   87.63    1.71
   2   2  -5   83.33    1.56
  -2  -2   5   86.81    1.64
  -2  -2   5   85.50    1.63
   1   2  -5   46.72    0.96
   1   2  -5   47.54    0.86
  -1  -2   5   47.26    0.90
  -1  -2   5   47.41    0.89
   0   2  -5    0.28    0.01
   0   2  -5    0.23    0.03
   0  -2   5    0.23    0.03
   0  -2   5    0.27    0.03
  -1   2  -5   39.68    0.82
  -1   2  -5   39.64    0.71
   1  -2   5   39.30    0.77
   1  -2   5   39.90    0.77
  -2   2  -5    8.31    0.21
  -2   2  -5    8.14    0.17
   2  -2   5    8.58    0.21
   2  -2   5    8.44    0.20
  -3   2  -5   30.80    0.66
   3  -2   5   30.88    0.58
   3  -2   5   30.65    0.63
   3  -2   5   30.68    0.63
  -4   2  -5    1.34    0.07
   4  -2   5    1.33    0.07
   4  -2   5    1.42    0.08
  -5   2  -5    1.76    0.09
   5  -2   5    1.89    0.09
  -6   2  -5    0.02    0.03
   6  -2   5    0.02    0.03
  -7   2  -5    1.42    0.10
   7  -2   5    1.47    0.10
   8  -2   5    0.26    0.06
   9   1  -5    1.08    0.10
  -9  -1   5    0.95    0.10
   8   1  -5    1.33    0.09
  -8  -1   5    1.45    0.10
   7   1  -5   35.35    0.75
  -7  -1   5   36.68    0.77
   6   1  -5    4.50    0.16
  -6  -1   5    4.69    0.16
   5   1  -5    2.83    0.11
   5   1  -5    2.95    0.11
  -5  -1   5    3.12    0.11
   4   1  -5    7.52    0.19
   4   1  -5    7.47    0.20
  -4  -1   5    7.78    0.17
  -4  -1   5    7.39    0.19
   3   1  -5   17.07    0.38
   3   1  -5   16.68    0.35
  -3  -1   5   17.30    0.36
  -3  -1   5   17.43    0.34
   2   1  -5   35.19    0.73
   2   1  -5   35.84    0.67
  -2  -1   5   36.10    0.69
  -2  -1   5   35.36    0.67
   1   1  -5   65.06    1.17
   1   1  -5   64.06    1.28
  -1  -1   5   64.51    1.23
  -1  -1   5   63.58    1.19
   0   1  -5   -0.03    0.02
   0   1  -5   -0.01    0.01
   0  -1   5    0.00    0.02
   0  -1   5   -0.05    0.01
  -1   1  -5   90.89    1.68
  -1   1  -5   89.99    1.81
   1  -1   5   92.35    1.72
   1  -1   5   92.02    1.76
  -2   1  -5    0.05    0.01
  -2   1  -5    0.04    0.02
   2  -1   5    0.02    0.02
   2  -1   5    0.04    0.02
  -3   1  -5    0.72    0.04
  -3   1  -5    0.66    0.05
   3  -1   5    0.71    0.05
   3  -1   5    0.75    0.05
  -4   1  -5   15.58    0.37
   4  -1   5   15.70    0.36
   4  -1   5   16.04    0.33
   4  -1   5   15.62    0.36
  -5   1  -5    0.80    0.06
   5  -1   5    0.94    0.06
   5  -1   5    0.85    0.07
   5  -1   5    0.97    0.07
  -6   1  -5    5.09    0.18
   6  -1   5    5.08    0.18
   7  -1   5    6.79    0.22
   9   0  -5    0.05    0.04
  -9   0   5    0.02    0.04
   8   0  -5    0.47    0.07
  -8   0   5    0.62    0.08
   7   0  -5    2.36    0.12
  -7   0   5    2.44    0.12
   6   0  -5    0.07    0.03
  -6   0   5    0.12    0.03
   5   0  -5    4.16    0.14
  -5   0   5    4.13    0.12
  -5   0   5    3.88    0.13
   4   0  -5   95.15    1.93
   4   0  -5   99.20    1.82
  -4   0   5   99.63    1.81
  -4   0   5   99.91    1.87
   3   0  -5   13.66    0.30
  -3   0   5   13.38    0.28
  -3   0   5   13.47    0.29
   2   0  -5  100.98    1.99
   2   0  -5   98.27    1.90
  -2   0   5   97.60    1.88
  -2   0   5   98.56    1.81
   1   0  -5   57.24    1.10
   1   0  -5   57.79    1.15
  -1   0   5   58.36    1.08
  -1   0   5   58.25    1.08
   0   0  -5   14.06    0.32
   0   0  -5   14.22    0.28
   0   0   5   14.30    0.28
   0   0   5   14.40    0.29
  -1   0  -5   23.89    0.45
  -1   0  -5   24.09    0.52
   1   0   5   24.25    0.48
   1   0   5   24.04    0.46
  -2   0  -5  100.51    1.89
   2   0   5  104.86    1.92
   2   0   5   99.83    1.99
   2   0   5   97.47    1.90
  -3   0  -5    9.04    0.20
   3   0   5    9.08    0.23
   3   0   5    9.29    0.22
   3   0   5    9.27    0.22
  -4   0  -5    1.43    0.07
   4   0   5    1.40    0.07
   4   0   5    1.45    0.07
   4   0   5    1.36    0.07
   5   0   5    4.79    0.14
   5   0   5    4.91    0.16
   5   0   5    4.80    0.16
   5   0   5    4.85    0.16
   6   0   5    4.53    0.16
   6   0   5    4.41    0.14
   9  -1  -5    0.08    0.04
  -9   1   5    0.04    0.04
   8  -1  -5    3.14    0.15
  -8   1   5    3.28    0.15
   7  -1  -5    0.10    0.04
  -7   1   5    0.06    0.03
   6  -1  -5    0.01    0.03
  -6   1   5    0.01    0.03
  -6   1   5    0.02    0.02
   5  -1  -5    2.33    0.10
  -5   1   5    2.32    0.10
  -5   1   5    2.19    0.09
   4  -1  -5    8.49    0.20
   4  -1  -5    8.78    0.22
  -4   1   5    8.43    0.21
  -4   1   5    8.31    0.20
   3  -1  -5   15.39    0.33
   3  -1  -5   15.81    0.33
  -3   1   5   15.22    0.32
  -3   1   5   15.42    0.33
   2  -1  -5    4.04    0.11
   2  -1  -5    3.98    0.11
  -2   1   5    3.96    0.11
  -2   1   5    4.00    0.10
   1  -1  -5   10.43    0.22
   1  -1  -5   10.54    0.24
  -1   1   5   10.82    0.21
  -1   1   5   10.17    0.23
   0  -1  -5    5.99    0.14
   0   1   5    6.04    0.12
   0   1   5    5.99    0.15
   0   1   5    6.09    0.16
  -1  -1  -5    0.06    0.02
   1   1   5    0.03    0.02
   1   1   5    0.01    0.01
   1   1   5    0.04    0.02
  -2  -1  -5  270.92    7.16
   2   1   5  278.06    5.11
   2   1   5  259.72    5.53
   2   1   5  278.92    5.11
  -3  -1  -5    7.04    0.17
   3   1   5    7.07    0.20
   3   1   5    7.10    0.17
   3   1   5    7.47    0.18
  -4  -1  -5    0.33    0.04
   4   1   5    0.41    0.04
   4   1   5    0.45    0.05
  -5  -1  -5   14.33    0.33
   5   1   5   14.50    0.33
   5   1   5   14.55    0.36
  -6  -1  -5    5.33    0.16
   6   1   5    4.96    0.18
  -7  -1  -5    5.27    0.17
   9  -2  -5    0.91    0.09
  -9   2   5    0.86    0.09
   8  -2  -5    0.67    0.08
  -8   2   5    0.63    0.08
   7  -2  -5    1.45    0.09
  -7   2   5    1.49    0.09
   6  -2  -5    7.49    0.22
  -6   2   5    7.46    0.21
  -6   2   5    7.54    0.22
   5  -2  -5    4.85    0.16
  -5   2   5    5.05    0.16
  -5   2   5    4.73    0.15
   4  -2  -5    9.92    0.24
  -4   2   5    9.86    0.24
  -4   2   5    9.86    0.24
   3  -2  -5    1.26    0.05
   3  -2  -5    1.32    0.06
  -3   2   5    1.29    0.06
  -3   2   5    1.27    0.06
   2  -2  -5    0.42    0.04
   2  -2  -5    0.53    0.03
  -2   2   5    0.42    0.03
  -2   2   5    0.41    0.04
   1  -2  -5   26.60    0.52
  -1   2   5   26.96    0.53
  -1   2   5   27.13    0.56
  -1   2   5   27.14    0.51
   0  -2  -5   32.46    0.62
   0   2   5   32.52    0.63
   0   2   5   33.30    0.68
  -1  -2  -5   29.87    0.58
   1   2   5   30.06    0.63
   1   2   5   30.01    0.58
  -2  -2  -5   49.35    0.91
  -2  -2  -5   47.35    0.91
   2   2   5   49.22    0.92
   2   2   5   48.44    1.00
  -3  -2  -5    2.63    0.09
   3   2   5    2.63    0.10
   3   2   5    2.58    0.09
  -4  -2  -5    1.35    0.07
   4   2   5    1.46    0.08
   4   2   5    1.46    0.07
  -5  -2  -5    0.18    0.04
   5   2   5    0.17    0.04
  -6  -2  -5   13.98    0.34
   6   2   5   13.79    0.36
  -7  -2  -5    0.50    0.06
   7   2   5    0.40    0.06
   9  -3  -5    0.95    0.10
   8  -3  -5    4.14    0.17
  -8   3   5    4.10    0.17
   7  -3  -5    1.39    0.09
  -7   3   5    1.42    0.09
  -7   3   5    1.33    0.09
   6  -3  -5   15.39    0.37
  -6   3   5   14.95    0.37
  -6   3   5   15.58    0.37
   5  -3  -5   22.94    0.50
  -5   3   5   23.11    0.50
  -5   3   5   22.85    0.49
   4  -3  -5   21.98    0.47
  -4   3   5   21.94    0.47
   3  -3  -5    6.63    0.17
   3  -3  -5    6.60    0.18
   3  -3  -5    6.59    0.15
  -3   3   5    6.61    0.18
   2  -3  -5    3.64    0.11
   2  -3  -5    3.64    0.10
  -2   3   5    3.62    0.11
  -2   3   5    3.66    0.10
   1  -3  -5   28.96    0.57
  -1   3   5   29.07    0.58
  -1   3   5   29.57    0.60
   0  -3  -5    4.49    0.12
   0   3   5    4.47    0.12
   0   3   5    4.48    0.13
  -1  -3  -5   14.76    0.31
   1   3   5   14.97    0.31
   1   3   5   14.99    0.35
  -2  -3  -5   10.78    0.25
   2   3   5   11.18    0.24
   2   3   5   10.89    0.28
  -3  -3  -5   18.87    0.40
   3   3   5   19.15    0.39
   3   3   5   18.82    0.44
  -4  -3  -5    1.99    0.09
   4   3   5    2.05    0.10
  -5  -3  -5    0.92    0.07
   5   3   5    0.82    0.08
  -6  -3  -5    2.24    0.11
   6   3   5    2.04    0.11
  -7  -3  -5    0.04    0.04
   7   3   5    0.05    0.04
   8  -4  -5    1.15    0.10
  -8   4   5    1.26    0.10
  -8   4   5    1.31    0.09
   7  -4  -5    3.05    0.14
  -7   4   5    3.27    0.14
  -7   4   5    2.91    0.14
   6  -4  -5    5.58    0.19
  -6   4   5    5.86    0.19
   5  -4  -5    2.55    0.11
   5  -4  -5    2.66    0.11
  -5   4   5    2.42    0.11
   4  -4  -5   22.21    0.48
   4  -4  -5   22.81    0.48
  -4   4   5   22.81    0.49
   3  -4  -5    0.97    0.05
   3  -4  -5    0.95    0.06
  -3   4   5    0.89    0.06
   2  -4  -5    0.06    0.03
   2  -4  -5    0.07    0.02
  -2   4   5    0.05    0.02
  -2   4   5    0.06    0.02
   1  -4  -5    0.33    0.04
  -1   4   5    0.39    0.04
  -1   4   5    0.33    0.04
   0  -4  -5   19.80    0.41
   0   4   5   19.51    0.41
   0   4   5   19.47    0.44
  -1  -4  -5    4.64    0.14
   1   4   5    4.68    0.13
   1   4   5    4.64    0.15
  -2  -4  -5    0.26    0.04
   2   4   5    0.36    0.04
   2   4   5    0.32    0.05
  -3  -4  -5    3.14    0.11
   3   4   5    3.04    0.13
   3   4   5    3.24    0.10
  -4  -4  -5   16.15    0.36
   4   4   5   15.78    0.40
  -5  -4  -5    4.26    0.15
   5   4   5    4.36    0.17
  -6  -4  -5    0.30    0.05
   6   4   5    0.32    0.06
  -7  -4  -5    0.17    0.05
   7   4   5    0.15    0.05
   8  -5  -5    0.20    0.06
  -8   5   5    0.28    0.06
  -8   5   5    0.18    0.05
   7  -5  -5    0.26    0.05
  -7   5   5    0.17    0.05
   6  -5  -5    2.80    0.13
   6  -5  -5    2.72    0.12
  -6   5   5    2.87    0.13
   5  -5  -5    2.57    0.12
   5  -5  -5    2.85    0.12
  -5   5   5    2.69    0.12
   4  -5  -5   17.73    0.40
   4  -5  -5   18.43    0.40
  -4   5   5   17.24    0.41
   3  -5  -5    0.42    0.04
   3  -5  -5    0.52    0.05
  -3   5   5    0.64    0.06
   2  -5  -5    0.00    0.03
  -2   5   5    0.00    0.02
  -2   5   5    0.02    0.02
   1  -5  -5    0.04    0.03
  -1   5   5    0.02    0.02
  -1   5   5    0.05    0.02
   0  -5  -5    2.47    0.10
   0   5   5    2.66    0.11
   0   5   5    2.48    0.09
  -1  -5  -5    1.55    0.08
   1   5   5    1.56    0.08
   1   5   5    1.61    0.07
  -2  -5  -5    0.00    0.03
   2   5   5    0.05    0.02
   2   5   5    0.03    0.03
  -3  -5  -5    5.39    0.16
   3   5   5    5.10    0.18
  -4  -5  -5    3.69    0.14
   4   5   5    4.13    0.16
  -5  -5  -5    5.58    0.18
   5   5   5    5.34    0.20
  -6  -5  -5    2.52    0.13
   6   5   5    2.79    0.15
   8  -6  -5    0.14    0.05
   7  -6  -5    1.45    0.10
   7  -6  -5    1.11    0.10
  -7   6   5    1.58    0.11
   6  -6  -5    0.13    0.04
   6  -6  -5    0.15    0.04
  -6   6   5    0.04    0.03
   5  -6  -5    0.40    0.06
   5  -6  -5    0.42    0.06
  -5   6   5    0.41    0.06
   4  -6  -5    0.12    0.04
   4  -6  -5    0.17    0.04
  -4   6   5    0.16    0.04
   3  -6  -5    4.10    0.14
  -3   6   5    4.09    0.15
   2  -6  -5    6.02    0.18
  -2   6   5    6.03    0.18
   1  -6  -5   30.08    0.62
  -1   6   5   30.80    0.63
  -1   6   5   30.84    0.66
   0  -6  -5    0.62    0.06
   0   6   5    0.67    0.06
   0   6   5    0.65    0.06
  -1  -6  -5    1.71    0.09
   1   6   5    1.75    0.09
   1   6   5    1.67    0.08
  -2  -6  -5    9.74    0.25
   2   6   5    9.92    0.28
  -3  -6  -5    8.40    0.23
   3   6   5    7.75    0.25
  -4  -6  -5    8.85    0.24
   4   6   5    8.21    0.27
  -5  -6  -5    0.75    0.08
   5   6   5    0.91    0.09
  -6  -6  -5    0.55    0.07
   6   6   5    0.73    0.09
   7  -7  -5    0.33    0.06
   7  -7  -5    0.17    0.05
  -7   7   5    0.22    0.06
   6  -7  -5    2.10    0.11
  -6   7   5    1.75    0.12
   5  -7  -5    1.06    0.09
  -5   7   5    1.02    0.10
   4  -7  -5    0.24    0.05
  -4   7   5    0.23    0.05
   3  -7  -5    3.58    0.14
  -3   7   5    3.40    0.14
   2  -7  -5   12.34    0.31
  -2   7   5   12.63    0.32
   1  -7  -5    0.02    0.03
  -1   7   5    0.00    0.02
  -1   7   5    0.00    0.02
   0  -7  -5    9.81    0.26
   0   7   5   10.90    0.29
   0   7   5   10.61    0.26
  -1  -7  -5    0.14    0.04
   1   7   5    0.09    0.04
  -2  -7  -5    1.72    0.09
   2   7   5    1.68    0.10
  -3  -7  -5    6.76    0.21
   3   7   5    6.63    0.23
  -4  -7  -5    0.28    0.05
   4   7   5    0.41    0.07
  -5  -7  -5    1.23    0.10
   5   7   5    1.09    0.11
   6  -8  -5    0.17    0.05
  -6   8   5    0.24    0.06
   5  -8  -5    0.12    0.04
  -5   8   5    0.11    0.04
   4  -8  -5    1.85    0.10
  -4   8   5    1.88    0.11
   3  -8  -5    5.10    0.18
  -3   8   5    5.65    0.20
   2  -8  -5    4.60    0.16
  -2   8   5    4.80    0.17
   1  -8  -5   15.28    0.37
  -1   8   5   15.62    0.37
   0  -8  -5   16.36    0.39
   0   8   5   17.28    0.43
   0   8   5   17.05    0.39
  -1  -8  -5   14.37    0.35
   1   8   5   14.19    0.38
  -2  -8  -5    1.83    0.11
   2   8   5    1.93    0.12
  -3  -8  -5    0.62    0.07
   3   8   5    0.71    0.09
  -4  -8  -5    0.65    0.08
   4   8   5    0.91    0.10
   5  -9  -5    0.06    0.04
   4  -9  -5    0.12    0.04
  -4   9   5    0.04    0.04
   3  -9  -5    0.12    0.04
  -3   9   5    0.05    0.04
   2  -9  -5    0.09    0.04
  -2   9   5    0.12    0.04
   1  -9  -5    0.25    0.05
  -1   9   5    0.16    0.05
   0  -9  -5    0.22    0.05
  -1  -9  -5    3.79    0.15
   1   9   5    3.96    0.17
  -2  -9  -5    5.79    0.20
   2   9   5    5.62    0.22
   3   9   5    2.65    0.15
   3 -10  -5    0.71    0.08
  -3  10   5    0.71    0.09
   2 -10  -5    2.84    0.14
  -2  10   5    2.74    0.14
   1 -10  -5    1.03    0.10
   0 -10  -5    0.77    0.09
   1  10   5    1.59    0.11
   2  10  -6    4.66    0.22
   1  10  -6    0.13    0.06
  -1 -10   6    0.24    0.05
   0  10  -6    0.07    0.05
   0 -10   6    0.16    0.05
   4   9  -6    0.21    0.07
  -4  -9   6    0.23    0.06
   3   9  -6    0.98    0.11
  -3  -9   6    0.75    0.08
   2   9  -6    4.18    0.19
  -2  -9   6    4.26    0.16
   1   9  -6    0.02    0.04
  -1  -9   6    0.06    0.04
   0   9  -6    0.61    0.08
   0  -9   6    0.68    0.07
  -1   9  -6    0.44    0.07
   1  -9   6    0.36    0.06
  -2   9  -6    0.98    0.10
   2  -9   6    1.10    0.08
  -3   9  -6    0.84    0.10
   3  -9   6    0.59    0.08
   5   8  -6    0.96    0.11
  -5  -8   6    0.65    0.08
   4   8  -6    0.14    0.05
  -4  -8   6    0.12    0.05
   3   8  -6    0.31    0.07
  -3  -8   6    0.20    0.05
   2   8  -6    9.42    0.31
  -2  -8   6    9.86    0.27
   1   8  -6    5.56    0.21
  -1  -8   6    5.51    0.18
   0   8  -6    5.87    0.22
   0  -8   6    5.46    0.18
  -1   8  -6    0.32    0.06
  -1   8  -6    0.34    0.06
   1  -8   6    0.31    0.05
  -2   8  -6    1.11    0.10
   2  -8   6    1.25    0.09
  -3   8  -6    0.73    0.09
   3  -8   6    0.73    0.08
  -4   8  -6    0.41    0.07
   4  -8   6    0.31    0.06
   6   7  -6    0.26    0.06
  -6  -7   6    0.20    0.06
   5   7  -6   -0.03    0.03
  -5  -7   6   -0.02    0.04
   4   7  -6   15.50    0.43
  -4  -7   6   15.61    0.38
   3   7  -6    0.71    0.08
  -3  -7   6    0.58    0.07
   2   7  -6   13.56    0.38
  -2  -7   6   13.29    0.33
   1   7  -6   19.82    0.50
  -1  -7   6   19.86    0.45
   0   7  -6    1.01    0.07
   0   7  -6    0.86    0.09
   0  -7   6    0.87    0.07
  -1   7  -6    0.12    0.04
  -1   7  -6    0.16    0.04
   1  -7   6    0.15    0.04
  -2   7  -6    0.84    0.08
  -2   7  -6    0.76    0.08
   2  -7   6    0.61    0.07
  -3   7  -6    0.14    0.05
   3  -7   6    0.16    0.04
  -4   7  -6    0.08    0.04
   4  -7   6    0.04    0.03
  -5   7  -6    0.02    0.04
   5  -7   6    0.03    0.04
   7   6  -6    3.47    0.17
   7   6  -6    3.01    0.13
  -7  -6   6    2.87    0.14
   6   6  -6    0.93    0.07
   6   6  -6    1.06    0.10
  -6  -6   6    0.86    0.08
   5   6  -6    0.36    0.06
  -5  -6   6    0.38    0.06
   4   6  -6    1.44    0.10
  -4  -6   6    1.60    0.09
   3   6  -6   17.19    0.45
  -3  -6   6   17.78    0.41
   2   6  -6   12.15    0.34
  -2  -6   6   11.84    0.29
   1   6  -6   24.26    0.51
   1   6  -6   24.17    0.57
  -1  -6   6   24.39    0.52
   0   6  -6    0.26    0.05
   0   6  -6    0.27    0.04
   0  -6   6    0.25    0.04
  -1   6  -6    1.30    0.08
  -1   6  -6    1.23    0.08
   1  -6   6    1.04    0.07
  -2   6  -6    2.79    0.13
  -2   6  -6    2.66    0.13
   2  -6   6    2.77    0.12
  -3   6  -6    1.39    0.09
   3  -6   6    1.26    0.08
  -4   6  -6   11.74    0.34
   4  -6   6   11.43    0.32
  -5   6  -6    3.59    0.17
   5  -6   6    3.24    0.15
  -6   6  -6    1.36    0.12
   6  -6   6    1.37    0.10
   8   5  -6    0.00    0.03
   7   5  -6    0.09    0.04
   7   5  -6    0.07    0.04
  -7  -5   6    0.05    0.04
   6   5  -6    5.63    0.21
   6   5  -6    5.62    0.18
  -6  -5   6    5.62    0.19
   5   5  -6    0.26    0.04
   5   5  -6    0.26    0.05
  -5  -5   6    0.23    0.05
   4   5  -6    7.23    0.24
   4   5  -6    7.44    0.19
  -4  -5   6    7.41    0.21
   3   5  -6    4.77    0.18
  -3  -5   6    4.61    0.15
   2   5  -6    8.10    0.24
  -2  -5   6    8.03    0.21
   1   5  -6    9.53    0.27
  -1  -5   6    9.70    0.23
  -1  -5   6    9.84    0.24
   0   5  -6   25.06    0.58
   0  -5   6   25.83    0.54
   0  -5   6   25.85    0.53
  -1   5  -6   12.62    0.33
   1  -5   6   12.54    0.30
   1  -5   6   12.54    0.31
  -2   5  -6    0.26    0.05
  -2   5  -6    0.23    0.04
   2  -5   6    0.17    0.04
  -3   5  -6    4.38    0.15
  -3   5  -6    4.18    0.16
   3  -5   6    3.88    0.14
  -4   5  -6    4.77    0.18
   4  -5   6    4.66    0.17
  -5   5  -6   19.48    0.49
   5  -5   6   19.05    0.47
  -6   5  -6    1.36    0.12
   6  -5   6    1.36    0.10
   8   4  -6    0.14    0.04
  -8  -4   6    0.08    0.04
   7   4  -6    0.34    0.05
  -7  -4   6    0.29    0.05
   6   4  -6    0.27    0.04
   6   4  -6    0.26    0.05
  -6  -4   6    0.15    0.04
   5   4  -6    2.75    0.13
   5   4  -6    2.72    0.11
  -5  -4   6    2.59    0.11
   4   4  -6   25.45    0.52
   4   4  -6   24.92    0.59
  -4  -4   6   26.50    0.55
   3   4  -6   66.56    1.39
   3   4  -6   67.46    1.26
  -3  -4   6   68.89    1.31
   2   4  -6    5.91    0.19
   2   4  -6    6.15    0.14
  -2  -4   6    6.10    0.17
  -2  -4   6    6.03    0.15
   1   4  -6   16.14    0.39
  -1  -4   6   16.20    0.35
  -1  -4   6   16.38    0.35
   0   4  -6    0.31    0.05
   0  -4   6    0.35    0.04
   0  -4   6    0.37    0.04
  -1   4  -6    0.09    0.03
   1  -4   6    0.07    0.03
   1  -4   6    0.11    0.03
  -2   4  -6   17.39    0.41
   2  -4   6   17.49    0.39
   2  -4   6   17.25    0.40
  -3   4  -6    0.81    0.07
   3  -4   6    0.84    0.06
   3  -4   6    0.89    0.08
  -4   4  -6    1.76    0.10
  -4   4  -6    1.66    0.09
   4  -4   6    1.92    0.10
  -5   4  -6    0.19    0.05
   5  -4   6    0.09    0.04
  -6   4  -6   11.46    0.34
   6  -4   6   11.89    0.33
  -7   4  -6   11.91    0.36
   7  -4   6   12.02    0.35
   8   3  -6    0.17    0.05
  -8  -3   6    0.09    0.04
   7   3  -6    6.77    0.22
  -7  -3   6    7.13    0.22
   6   3  -6    0.07    0.03
  -6  -3   6    0.12    0.04
   5   3  -6    1.81    0.09
   5   3  -6    1.75    0.10
  -5  -3   6    1.86    0.09
   4   3  -6   17.06    0.37
   4   3  -6   16.87    0.41
  -4  -3   6   17.62    0.39
   3   3  -6    5.53    0.14
   3   3  -6    5.43    0.18
  -3  -3   6    5.60    0.16
  -3  -3   6    5.50    0.13
   2   3  -6   10.74    0.23
   2   3  -6   10.60    0.28
  -2  -3   6   10.96    0.23
  -2  -3   6   10.93    0.25
   1   3  -6    0.01    0.01
   1   3  -6    0.01    0.02
  -1  -3   6    0.02    0.02
  -1  -3   6   -0.03    0.01
   0   3  -6    1.37    0.08
   0  -3   6    1.57    0.07
   0  -3   6    1.54    0.06
  -1   3  -6    6.98    0.20
   1  -3   6    7.12    0.18
   1  -3   6    6.80    0.18
  -2   3  -6   12.83    0.32
   2  -3   6   13.07    0.31
   2  -3   6   12.67    0.29
  -3   3  -6   15.40    0.37
   3  -3   6   15.17    0.35
   3  -3   6   15.48    0.36
  -4   3  -6    1.26    0.08
   4  -3   6    1.10    0.07
   4  -3   6    1.09    0.08
  -5   3  -6    9.02    0.27
   5  -3   6    9.12    0.26
  -6   3  -6    0.14    0.05
   6  -3   6    0.17    0.05
  -7   3  -6    2.33    0.14
   7  -3   6    2.71    0.14
   8   2  -6    0.45    0.07
  -8  -2   6    0.44    0.07
   7   2  -6   10.98    0.30
  -7  -2   6   11.11    0.30
   6   2  -6    2.60    0.11
  -6  -2   6    2.49    0.11
   5   2  -6    2.43    0.10
   5   2  -6    2.52    0.11
  -5  -2   6    2.44    0.10
   4   2  -6   25.61    0.57
   4   2  -6   25.53    0.52
  -4  -2   6   25.95    0.54
   3   2  -6   14.15    0.30
   3   2  -6   14.23    0.34
  -3  -2   6   14.09    0.29
  -3  -2   6   14.10    0.31
   2   2  -6    0.46    0.03
   2   2  -6    0.36    0.04
  -2  -2   6    0.40    0.03
  -2  -2   6    0.41    0.04
   1   2  -6   50.17    1.03
   1   2  -6   49.56    0.92
  -1  -2   6   50.37    0.96
  -1  -2   6   50.77    0.95
   0   2  -6    4.58    0.09
   0   2  -6    4.59    0.14
   0  -2   6    4.60    0.12
   0  -2   6    4.50    0.13
  -1   2  -6    0.90    0.06
   1  -2   6    0.96    0.05
   1  -2   6    0.95    0.06
  -2   2  -6   20.97    0.47
   2  -2   6   20.89    0.44
   2  -2   6   21.22    0.45
  -3   2  -6    3.15    0.12
   3  -2   6    3.14    0.12
   3  -2   6    2.96    0.11
  -4   2  -6    2.32    0.10
   4  -2   6    2.34    0.10
   4  -2   6    2.22    0.10
  -5   2  -6    5.69    0.18
   5  -2   6    5.67    0.19
   5  -2   6    5.59    0.18
  -6   2  -6    3.73    0.16
   6  -2   6    3.82    0.15
  -7   2  -6    1.99    0.12
   7  -2   6    1.89    0.11
   9   1  -6   -0.04    0.03
  -9  -1   6    0.05    0.04
   8   1  -6    0.57    0.07
  -8  -1   6    0.57    0.07
   7   1  -6    1.90    0.10
  -7  -1   6    1.83    0.10
   6   1  -6    2.88    0.12
  -6  -1   6    2.80    0.12
   5   1  -6    0.18    0.03
   5   1  -6    0.14    0.03
  -5  -1   6    0.18    0.04
   4   1  -6    4.89    0.15
   4   1  -6    4.88    0.15
  -4  -1   6    5.39    0.13
  -4  -1   6    4.93    0.15
   3   1  -6   12.86    0.31
   3   1  -6   13.03    0.28
  -3  -1   6   13.16    0.27
  -3  -1   6   12.76    0.29
   2   1  -6    3.29    0.09
   2   1  -6    2.96    0.11
  -2  -1   6    3.26    0.09
  -2  -1   6    3.09    0.09
   1   1  -6   38.80    0.72
   1   1  -6   39.16    0.80
  -1  -1   6   38.43    0.74
  -1  -1   6   38.57    0.74
   0   1  -6    0.75    0.05
   0   1  -6    0.66    0.03
   0  -1   6    0.57    0.04
   0  -1   6    0.61    0.04
  -1   1  -6   86.35    1.73
  -1   1  -6   85.47    1.60
   1  -1   6   87.74    1.61
   1  -1   6   86.46    1.62
  -2   1  -6   15.12    0.30
  -2   1  -6   15.25    0.36
   2  -1   6   15.15    0.32
   2  -1   6   15.06    0.33
  -3   1  -6    1.01    0.05
  -3   1  -6    1.14    0.07
   3  -1   6    1.16    0.07
   3  -1   6    1.18    0.06
  -4   1  -6    0.20    0.04
   4  -1   6    0.20    0.04
   4  -1   6    0.24    0.04
  -5   1  -6    1.14    0.08
   5  -1   6    1.07    0.07
   5  -1   6    1.15    0.08
   6  -1   6    1.91    0.10
   9   0  -6    1.79    0.11
  -9   0   6    1.86    0.12
   8   0  -6   -0.02    0.03
  -8   0   6    0.01    0.03
   7   0  -6   16.15    0.40
  -7   0   6   16.45    0.40
   6   0  -6    1.42    0.08
  -6   0   6    1.31    0.08
   5   0  -6   20.91    0.46
  -5   0   6   21.67    0.44
  -5   0   6   21.76    0.47
   4   0  -6    1.62    0.07
   4   0  -6    1.62    0.08
  -4   0   6    1.80    0.08
  -4   0   6    1.57    0.06
   3   0  -6    0.65    0.05
   3   0  -6    0.55    0.05
  -3   0   6    0.64    0.04
  -3   0   6    0.64    0.04
   2   0  -6  107.72    1.95
   2   0  -6  105.07    2.07
  -2   0   6  102.60    2.01
  -2   0   6  105.62    2.04
   1   0  -6   71.13    1.43
   1   0  -6   72.14    1.31
  -1   0   6   71.92    1.35
  -1   0   6   71.37    1.33
   0   0  -6    4.71    0.14
   0   0  -6    4.58    0.11
   0   0   6    4.83    0.13
   0   0   6    4.78    0.11
  -1   0  -6   36.93    0.76
  -1   0  -6   36.09    0.68
   1   0   6   36.01    0.71
   1   0   6   36.68    0.69
  -2   0  -6   37.28    0.79
  -2   0  -6   36.67    0.70
   2   0   6   37.38    0.73
   2   0   6   38.84    0.73
  -4   0  -6    1.30    0.06
   4   0   6    1.53    0.08
   4   0   6    1.48    0.07
  -5   0  -6    5.61    0.16
   5   0   6    5.31    0.17
   9  -1  -6    0.83    0.09
  -9   1   6    0.68    0.09
   8  -1  -6    0.01    0.03
  -8   1   6    0.06    0.04
   7  -1  -6    0.01    0.03
  -7   1   6    0.04    0.03
   6  -1  -6    0.45    0.06
  -6   1   6    0.40    0.05
  -6   1   6    0.51    0.06
   5  -1  -6   47.03    0.93
  -5   1   6   46.39    0.94
  -5   1   6   47.55    0.91
   4  -1  -6    0.09    0.02
   4  -1  -6    0.04    0.02
  -4   1   6    0.07    0.02
  -4   1   6    0.11    0.03
   3  -1  -6    1.56    0.06
   3  -1  -6    1.41    0.07
  -3   1   6    1.44    0.06
  -3   1   6    1.48    0.06
   2  -1  -6    0.81    0.05
   2  -1  -6    0.85    0.05
  -2   1   6    0.93    0.04
  -2   1   6    0.77    0.04
   1  -1  -6    0.30    0.03
   1  -1  -6    0.31    0.04
  -1   1   6    0.39    0.04
  -1   1   6    0.37    0.02
   0  -1  -6    1.07    0.05
   0  -1  -6    1.20    0.06
   0   1   6    1.06    0.05
   0   1   6    1.13    0.03
  -1  -1  -6    5.05    0.13
   1   1   6    5.06    0.11
   1   1   6    5.10    0.14
   1   1   6    4.94    0.15
  -2  -1  -6    0.15    0.03
   2   1   6    0.14    0.03
   2   1   6    0.09    0.03
   2   1   6    0.19    0.02
  -3  -1  -6   31.83    0.61
   3   1   6   31.32    0.68
   3   1   6   31.20    0.63
  -4  -1  -6    1.69    0.07
   4   1   6    1.73    0.09
   4   1   6    1.63    0.08
  -5  -1  -6    2.37    0.10
   5   1   6    2.11    0.11
   5   1   6    2.09    0.10
  -6  -1  -6    0.07    0.03
   6   1   6    0.06    0.04
   9  -2  -6    0.30    0.06
  -9   2   6    0.30    0.06
   8  -2  -6    0.41    0.07
  -8   2   6    0.48    0.07
   7  -2  -6    5.34    0.19
  -7   2   6    5.22    0.19
   6  -2  -6   31.46    0.68
  -6   2   6   32.72    0.66
  -6   2   6   32.64    0.69
   5  -2  -6   67.79    1.29
  -5   2   6   66.62    1.30
  -5   2   6   65.94    1.27
   4  -2  -6   27.85    0.57
  -4   2   6   27.66    0.57
  -4   2   6   27.88    0.57
   3  -2  -6    2.83    0.09
   3  -2  -6    2.84    0.10
  -3   2   6    3.02    0.10
  -3   2   6    2.88    0.09
   2  -2  -6   36.95    0.76
   2  -2  -6   37.40    0.72
  -2   2   6   37.13    0.72
  -2   2   6   37.30    0.71
   1  -2  -6    2.97    0.09
  -1   2   6    2.93    0.07
  -1   2   6    2.96    0.10
   0  -2  -6    7.44    0.18
   0   2   6    7.36    0.18
   0   2   6    7.76    0.20
  -1  -2  -6   10.02    0.22
   1   2   6    9.51    0.23
   1   2   6   10.13    0.25
  -2  -2  -6   19.87    0.41
   2   2   6   20.68    0.42
   2   2   6   20.30    0.46
  -3  -2  -6    7.53    0.19
   3   2   6    7.82    0.22
   3   2   6    7.40    0.19
  -4  -2  -6   11.32    0.27
   4   2   6   11.58    0.27
   4   2   6   10.89    0.30
  -5  -2  -6    0.92    0.07
   5   2   6    0.87    0.08
  -6  -2  -6    3.67    0.14
   6   2   6    4.05    0.16
  -7  -2  -6    3.00    0.13
   7   2   6    2.95    0.14
   8  -3  -6    1.89    0.12
  -8   3   6    1.82    0.11
   7  -3  -6    0.12    0.04
  -7   3   6    0.03    0.03
  -7   3   6    0.06    0.03
   6  -3  -6    0.53    0.06
  -6   3   6    0.54    0.06
  -6   3   6    0.55    0.06
   5  -3  -6   44.08    0.88
  -5   3   6   43.75    0.89
  -5   3   6   43.66    0.87
   4  -3  -6   14.46    0.34
  -4   3   6   14.75    0.34
  -4   3   6   14.58    0.33
   2  -3  -6    0.17    0.03
  -2   3   6    0.15    0.03
  -2   3   6    0.12    0.02
   1  -3  -6   78.48    1.45
  -1   3   6   76.19    1.46
  -1   3   6   80.03    1.55
   0  -3  -6   37.17    0.71
   0   3   6   36.25    0.71
   0   3   6   36.43    0.76
  -1  -3  -6    6.11    0.16
   1   3   6    6.04    0.18
  -2  -3  -6    0.07    0.03
   2   3   6    0.04    0.02
   2   3   6    0.01    0.02
  -3  -3  -6    4.46    0.14
   3   3   6    5.06    0.17
   3   3   6    4.61    0.14
  -4  -3  -6   13.57    0.31
   4   3   6   13.44    0.35
  -5  -3  -6    0.95    0.07
   5   3   6    1.14    0.08
  -6  -3  -6    0.14    0.04
   6   3   6    0.18    0.05
  -7  -3  -6    3.64    0.15
   7   3   6    3.64    0.17
   8  -4  -6    0.61    0.08
  -8   4   6    0.52    0.07
  -8   4   6    0.58    0.07
   7  -4  -6    0.03    0.03
  -7   4   6   -0.06    0.02
  -7   4   6    0.02    0.03
   6  -4  -6    2.36    0.12
  -6   4   6    2.59    0.12
  -6   4   6    2.71    0.12
   5  -4  -6   22.51    0.50
  -5   4   6   22.94    0.50
  -5   4   6   22.45    0.50
   4  -4  -6    4.77    0.16
  -4   4   6    5.04    0.16
   3  -4  -6    0.48    0.04
   3  -4  -6    0.45    0.05
  -3   4   6    0.34    0.05
   2  -4  -6   20.23    0.43
  -2   4   6   21.16    0.44
  -2   4   6   20.65    0.44
   1  -4  -6    1.56    0.08
  -1   4   6    1.77    0.07
  -1   4   6    1.66    0.08
   0  -4  -6   17.53    0.38
   0   4   6   18.02    0.41
   0   4   6   17.87    0.38
  -1  -4  -6    0.00    0.03
   1   4   6    0.01    0.02
   1   4   6    0.02    0.02
  -2  -4  -6   10.19    0.25
   2   4   6   10.03    0.27
   2   4   6   10.08    0.24
  -3  -4  -6    2.65    0.11
   3   4   6    2.77    0.13
   3   4   6    3.10    0.10
  -4  -4  -6    9.76    0.25
   4   4   6   10.14    0.29
  -5  -4  -6    2.63    0.12
   5   4   6    2.75    0.13
  -6  -4  -6    0.03    0.04
   6   4   6    0.10    0.04
   8  -5  -6    0.01    0.03
  -8   5   6   -0.05    0.03
  -8   5   6    0.03    0.04
   7  -5  -6    4.12    0.17
  -7   5   6    4.05    0.17
  -7   5   6    4.17    0.17
   6  -5  -6    1.30    0.09
  -6   5   6    1.32    0.09
   5  -5  -6    1.99    0.10
   5  -5  -6    1.80    0.09
  -5   5   6    1.73    0.10
   4  -5  -6   17.22    0.40
  -4   5   6   17.49    0.41
   3  -5  -6    8.19    0.22
  -3   5   6    8.49    0.23
   2  -5  -6    6.35    0.18
  -2   5   6    6.17    0.17
  -2   5   6    6.28    0.18
   1  -5  -6   21.79    0.46
  -1   5   6   21.19    0.46
  -1   5   6   21.35    0.47
   0  -5  -6    0.04    0.03
   0   5   6    0.03    0.02
   0   5   6    0.09    0.03
  -1  -5  -6    0.06    0.03
   1   5   6    0.06    0.02
   1   5   6    0.03    0.03
  -2  -5  -6    3.05    0.12
   2   5   6    3.35    0.14
   2   5   6    3.15    0.11
  -3  -5  -6    0.33    0.05
   3   5   6    0.22    0.04
  -4  -5  -6    1.06    0.07
   4   5   6    1.02    0.09
  -5  -5  -6    0.08    0.04
   5   5   6    0.04    0.04
  -6  -5  -6    0.17    0.05
   6   5   6    0.17    0.05
   7  -6  -6    1.08    0.10
  -7   6   6    1.12    0.10
   6  -6  -6    0.16    0.04
  -6   6   6    0.19    0.05
   5  -6  -6    0.02    0.03
  -5   6   6    0.03    0.03
   4  -6  -6    6.73    0.20
  -4   6   6    6.36    0.21
   3  -6  -6    2.71    0.12
  -3   6   6    2.66    0.12
   2  -6  -6    0.51    0.06
  -2   6   6    0.48    0.06
   1  -6  -6    0.22    0.04
  -1   6   6    0.18    0.04
  -1   6   6    0.19    0.04
   0  -6  -6    7.88    0.21
   0   6   6    7.50    0.22
   0   6   6    7.71    0.21
  -1  -6  -6   10.01    0.26
   1   6   6   10.02    0.28
   1   6   6   10.24    0.25
  -2  -6  -6    7.49    0.21
   2   6   6    7.26    0.23
  -3  -6  -6    0.40    0.06
   3   6   6    0.42    0.06
  -4  -6  -6    1.12    0.09
   4   6   6    1.14    0.09
  -5  -6  -6    0.56    0.07
   5   6   6    0.48    0.08
   7  -7  -6    0.22    0.06
   6  -7  -6    0.35    0.06
  -6   7   6    0.31    0.06
   5  -7  -6    0.34    0.06
  -5   7   6    0.28    0.06
   4  -7  -6    6.48    0.21
  -4   7   6    6.55    0.22
   3  -7  -6    3.48    0.14
  -3   7   6    3.34    0.14
   2  -7  -6    1.33    0.08
  -2   7   6    1.12    0.08
   1  -7  -6    0.19    0.04
  -1   7   6    0.14    0.04
   0  -7  -6    0.33    0.05
   0   7   6    0.30    0.05
   0   7   6    0.29    0.05
  -1  -7  -6    2.81    0.12
   1   7   6    2.96    0.13
  -2  -7  -6    2.93    0.13
   2   7   6    3.17    0.14
  -3  -7  -6    4.65    0.17
   3   7   6    4.48    0.18
  -4  -7  -6    0.18    0.05
   4   7   6    0.14    0.05
   6  -8  -6    3.67    0.17
   5  -8  -6    0.19    0.05
  -5   8   6    0.21    0.05
   4  -8  -6    0.03    0.03
  -4   8   6    0.08    0.04
   3  -8  -6    1.34    0.09
  -3   8   6    1.34    0.09
   2  -8  -6    0.05    0.04
  -2   8   6    0.07    0.04
   1  -8  -6    4.25    0.16
  -1   8   6    4.28    0.16
   0  -8  -6    1.16    0.08
   0   8   6    1.08    0.08
   0   8   6    1.10    0.07
  -1  -8  -6    8.05    0.24
   1   8   6    8.21    0.26
  -2  -8  -6   -0.06    0.03
   2   8   6    0.04    0.04
  -3  -8  -6    4.29    0.17
   3   8   6    4.03    0.18
   4  -9  -6    1.13    0.10
  -4   9   6    1.11    0.11
   3  -9  -6    0.26    0.05
  -3   9   6    0.13    0.05
   2  -9  -6    0.02    0.04
  -2   9   6   -0.07    0.03
   1  -9  -6    0.05    0.04
  -1   9   6    0.11    0.04
   0  -9  -6    4.82    0.18
  -1  -9  -6    5.92    0.21
   1   9   6    5.78    0.22
  -2  -9  -6    2.41    0.13
   2   9   6    2.48    0.14
   1  10  -7    0.94    0.11
   0  10  -7    8.01    0.29
   3   9  -7    1.90    0.13
  -3  -9   7    1.89    0.11
   2   9  -7    1.64    0.13
  -2  -9   7    1.52    0.10
   1   9  -7    0.08    0.05
  -1  -9   7    0.08    0.04
   0   9  -7    8.93    0.30
   0  -9   7    8.66    0.26
  -1   9  -7    1.31    0.12
   1  -9   7    1.31    0.09
  -2   9  -7    1.28    0.12
   2  -9   7    1.26    0.09
   5   8  -7    0.55    0.09
  -5  -8   7    0.78    0.09
   4   8  -7    0.49    0.08
  -4  -8   7    0.62    0.08
   3   8  -7    0.37    0.07
  -3  -8   7    0.38    0.06
   2   8  -7    0.86    0.10
  -2  -8   7    0.79    0.08
   1   8  -7    0.23    0.06
  -1  -8   7    0.26    0.05
   0   8  -7    0.28    0.06
   0  -8   7    0.29    0.05
  -1   8  -7    4.79    0.20
  -1   8  -7    4.81    0.18
   1  -8   7    4.54    0.17
  -2   8  -7    2.82    0.14
   2  -8   7    2.74    0.13
  -3   8  -7    1.50    0.11
   3  -8   7    1.48    0.10
  -4   8  -7    0.23    0.06
   6   7  -7    1.44    0.12
  -6  -7   7    1.16    0.10
   5   7  -7    1.59    0.12
  -5  -7   7    1.52    0.10
   4   7  -7    0.24    0.06
  -4  -7   7    0.14    0.05
   3   7  -7    2.37    0.13
  -3  -7   7    2.15    0.11
   2   7  -7    0.10    0.04
  -2  -7   7   -0.01    0.03
   1   7  -7    1.96    0.12
  -1  -7   7    2.04    0.10
   0   7  -7    7.69    0.26
   0   7  -7    8.01    0.23
   0  -7   7    7.44    0.22
  -1   7  -7    0.85    0.08
  -1   7  -7    0.66    0.08
   1  -7   7    0.74    0.07
  -2   7  -7    4.20    0.17
  -2   7  -7    3.83    0.17
   2  -7   7    4.32    0.16
  -3   7  -7    1.55    0.11
   3  -7   7    1.83    0.10
  -4   7  -7    0.79    0.10
   4  -7   7    0.69    0.08
   7   6  -7    0.40    0.07
  -7  -6   7    0.22    0.06
   6   6  -7    2.02    0.13
  -6  -6   7    1.60    0.11
   5   6  -7    0.40    0.07
  -5  -6   7    0.40    0.06
   4   6  -7    2.89    0.15
  -4  -6   7    2.87    0.13
   3   6  -7    1.52    0.10
  -3  -6   7    1.40    0.09
   2   6  -7    0.66    0.08
  -2  -6   7    0.56    0.06
   1   6  -7    1.88    0.11
   1   6  -7    1.78    0.09
  -1  -6   7    1.97    0.09
   0   6  -7    5.54    0.18
   0   6  -7    5.45    0.19
   0  -6   7    5.11    0.17
  -1   6  -7    4.64    0.17
  -1   6  -7    4.86    0.18
   1  -6   7    4.40    0.15
  -2   6  -7    9.01    0.27
  -2   6  -7    8.52    0.26
   2  -6   7    8.61    0.24
  -3   6  -7    0.08    0.04
   3  -6   7    0.10    0.04
  -4   6  -7    1.53    0.11
   4  -6   7    1.45    0.10
  -5   6  -7    4.68    0.20
   5  -6   7    4.70    0.19
   8   5  -7    1.56    0.10
   7   5  -7    2.08    0.13
   7   5  -7    1.78    0.10
  -7  -5   7    1.99    0.12
   6   5  -7    1.29    0.10
   6   5  -7    1.17    0.08
  -6  -5   7    1.17    0.09
   5   5  -7    2.19    0.10
   5   5  -7    2.04    0.12
  -5  -5   7    2.12    0.11
   4   5  -7    0.06    0.04
  -4  -5   7    0.01    0.03
   3   5  -7    0.45    0.06
  -3  -5   7    0.46    0.06
   2   5  -7    0.47    0.06
  -2  -5   7    0.57    0.06
   1   5  -7    6.28    0.21
  -1  -5   7    5.97    0.17
  -1  -5   7    5.87    0.17
   0   5  -7   12.10    0.33
   0  -5   7   12.75    0.30
   0  -5   7   12.05    0.29
  -1   5  -7   46.55    0.99
   1  -5   7   45.23    0.92
   1  -5   7   45.94    0.92
  -2   5  -7   10.49    0.29
   2  -5   7   10.29    0.28
   2  -5   7   10.36    0.27
  -3   5  -7   35.96    0.79
  -3   5  -7   34.74    0.76
   3  -5   7   36.01    0.75
  -4   5  -7   28.67    0.65
   4  -5   7   28.22    0.63
  -5   5  -7    3.04    0.15
   5  -5   7    2.70    0.13
  -6   5  -7    0.64    0.09
   6  -5   7    0.69    0.08
   8   4  -7    1.75    0.11
  -8  -4   7    1.79    0.11
   7   4  -7    0.20    0.05
  -7  -4   7    0.18    0.05
   6   4  -7    0.27    0.05
   6   4  -7    0.24    0.05
  -6  -4   7    0.14    0.04
   5   4  -7    5.43    0.20
   5   4  -7    5.69    0.17
  -5  -4   7    5.39    0.18
   4   4  -7   16.42    0.36
   4   4  -7   16.09    0.41
  -4  -4   7   16.53    0.38
   3   4  -7    0.25    0.05
  -3  -4   7    0.27    0.04
   2   4  -7    4.07    0.16
  -2  -4   7    4.31    0.12
  -2  -4   7    4.13    0.13
   1   4  -7    1.42    0.09
  -1  -4   7    1.31    0.07
  -1  -4   7    1.41    0.07
   0   4  -7   11.15    0.29
   0  -4   7   10.74    0.26
   0  -4   7   10.51    0.25
  -1   4  -7   27.37    0.62
   1  -4   7   27.24    0.57
   1  -4   7   27.52    0.57
  -2   4  -7    0.17    0.04
   2  -4   7    0.09    0.03
   2  -4   7    0.15    0.04
  -3   4  -7    0.02    0.03
   3  -4   7    0.04    0.03
   3  -4   7    0.03    0.03
  -4   4  -7    0.44    0.06
   4  -4   7    0.50    0.06
  -5   4  -7    5.21    0.21
   5  -4   7    5.74    0.20
  -6   4  -7    0.09    0.05
   6  -4   7    0.10    0.04
  -8  -3   7    2.57    0.13
   7   3  -7    2.59    0.12
  -7  -3   7    2.57    0.12
   6   3  -7    8.28    0.23
   6   3  -7    8.09    0.25
  -6  -3   7    8.13    0.24
   5   3  -7    0.58    0.07
   5   3  -7    0.46    0.05
  -5  -3   7    0.51    0.06
   4   3  -7   15.28    0.33
   4   3  -7   14.83    0.38
  -4  -3   7   15.32    0.35
   3   3  -7    1.18    0.06
   3   3  -7    1.11    0.08
  -3  -3   7    1.00    0.06
  -3  -3   7    1.10    0.05
   2   3  -7    0.00    0.02
   2   3  -7    0.00    0.01
  -2  -3   7    0.00    0.02
  -2  -3   7   -0.03    0.02
   1   3  -7    6.74    0.20
  -1  -3   7    6.43    0.17
  -1  -3   7    6.41    0.17
   0   3  -7    8.72    0.24
   0  -3   7    8.69    0.21
   0  -3   7    8.71    0.22
  -1   3  -7   10.46    0.27
   1  -3   7   10.07    0.25
   1  -3   7   10.43    0.24
  -2   3  -7   20.94    0.48
   2  -3   7   20.47    0.44
   2  -3   7   20.41    0.45
  -3   3  -7    1.88    0.10
   3  -3   7    1.97    0.10
   3  -3   7    1.96    0.09
  -4   3  -7    0.48    0.06
   4  -3   7    0.37    0.06
   4  -3   7    0.43    0.06
   5  -3   7    0.39    0.06
  -6   3  -7    1.72    0.11
   6  -3   7    1.50    0.10
  -7   3  -7    0.13    0.05
   8   2  -7    2.57    0.13
  -8  -2   7    2.54    0.13
   7   2  -7    4.54    0.17
  -7  -2   7    4.33    0.17
   6   2  -7   49.45    0.98
  -6  -2   7   49.10    1.00
   5   2  -7    0.02    0.02
   5   2  -7    0.00    0.03
  -5  -2   7   -0.02    0.02
   4   2  -7    0.36    0.05
   4   2  -7    0.29    0.04
  -4  -2   7    0.40    0.05
   3   2  -7    5.34    0.17
   3   2  -7    5.30    0.14
  -3  -2   7    5.27    0.15
  -3  -2   7    5.28    0.13
   2   2  -7    1.29    0.05
   2   2  -7    1.39    0.08
  -2  -2   7    1.49    0.06
  -2  -2   7    1.41    0.06
   1   2  -7   33.62    0.71
   1   2  -7   32.89    0.62
  -1  -2   7   32.75    0.65
  -1  -2   7   32.91    0.65
   0   2  -7    8.30    0.23
   0  -2   7    8.39    0.21
   0  -2   7    8.68    0.20
  -1   2  -7    2.95    0.12
   1  -2   7    2.88    0.10
   1  -2   7    2.95    0.09
  -2   2  -7   17.77    0.43
   2  -2   7   18.47    0.41
   2  -2   7   18.63    0.39
  -3   2  -7    2.11    0.10
   3  -2   7    2.14    0.10
   3  -2   7    1.93    0.09
  -4   2  -7    6.32    0.20
   4  -2   7    6.41    0.20
   4  -2   7    6.73    0.19
  -5   2  -7    0.32    0.05
   5  -2   7    0.26    0.05
   5  -2   7    0.26    0.05
  -6   2  -7   -0.07    0.02
  -7   2  -7    0.03    0.04
   8   1  -7    0.35    0.06
  -8  -1   7    0.39    0.06
   7   1  -7    0.04    0.03
  -7  -1   7    0.04    0.03
   6   1  -7    3.63    0.14
  -6  -1   7    3.78    0.14
   5   1  -7    1.05    0.07
   5   1  -7    1.22    0.07
  -5  -1   7    1.35    0.08
   4   1  -7   20.41    0.43
   4   1  -7   19.68    0.45
  -4  -1   7   20.67    0.41
  -4  -1   7   19.32    0.43
   3   1  -7    8.16    0.22
   3   1  -7    8.08    0.20
  -3  -1   7    8.07    0.20
  -3  -1   7    8.36    0.19
   2   1  -7   21.00    0.47
   2   1  -7   20.95    0.42
  -2  -1   7   21.25    0.43
  -2  -1   7   20.93    0.43
   1   1  -7   24.30    0.46
   1   1  -7   23.54    0.52
  -1  -1   7   23.77    0.48
  -1  -1   7   23.83    0.47
   0   1  -7   70.94    1.30
   0   1  -7   70.97    1.44
   0  -1   7   72.39    1.34
   0  -1   7   71.19    1.36
  -1   1  -7    1.60    0.05
  -1   1  -7    1.56    0.08
   1  -1   7    1.54    0.07
   1  -1   7    1.51    0.06
  -2   1  -7   17.45    0.41
   2  -1   7   17.63    0.37
   2  -1   7   17.16    0.38
  -3   1  -7    2.24    0.11
   3  -1   7    2.16    0.10
   3  -1   7    2.36    0.09
  -4   1  -7    1.85    0.10
   4  -1   7    2.11    0.10
   4  -1   7    2.22    0.09
  -5   1  -7    8.95    0.26
   5  -1   7    8.74    0.25
   6  -1   7    4.98    0.18
   9   0  -7    1.68    0.11
  -9   0   7    1.66    0.12
   8   0  -7    4.06    0.17
  -8   0   7    4.04    0.17
   7   0  -7    0.30    0.05
  -7   0   7    0.27    0.05
   6   0  -7   23.00    0.51
  -6   0   7   23.03    0.51
   5   0  -7    1.92    0.09
  -5   0   7    1.97    0.09
  -5   0   7    1.89    0.08
   4   0  -7    0.32    0.04
   4   0  -7    0.27    0.04
  -4   0   7    0.28    0.04
  -4   0   7    0.38    0.04
   3   0  -7   11.54    0.26
   3   0  -7   11.65    0.28
  -3   0   7   11.72    0.26
  -3   0   7   11.75    0.26
   2   0  -7    1.49    0.06
   2   0  -7    1.45    0.07
  -2   0   7    1.52    0.06
  -2   0   7    1.49    0.06
   1   0  -7   19.09    0.38
   1   0  -7   19.22    0.42
  -1   0   7   18.56    0.39
  -1   0   7   18.71    0.37
   0   0  -7   59.55    1.11
   0   0  -7   61.02    1.23
   0   0   7   62.17    1.14
   0   0   7   59.76    1.14
  -1   0  -7    0.94    0.05
  -1   0  -7    0.89    0.06
   1   0   7    0.98    0.06
   1   0   7    0.92    0.04
  -2   0  -7   22.33    0.51
  -2   0  -7   22.60    0.44
   2   0   7   22.39    0.47
   2   0   7   22.92    0.46
  -3   0  -7    2.60    0.12
  -3   0  -7    2.61    0.09
   3   0   7    2.74    0.11
  -4   0  -7    0.39    0.06
   4   0   7    0.58    0.06
  -5   0  -7    7.78    0.24
   5   0   7    7.77    0.23
  -6   0  -7    0.01    0.03
  -9   1   7    2.75    0.15
   8  -1  -7    0.20    0.05
  -8   1   7    0.16    0.05
   7  -1  -7    0.68    0.08
  -7   1   7    0.60    0.07
   6  -1  -7    5.08    0.18
  -6   1   7    5.50    0.18
  -6   1   7    5.54    0.16
   5  -1  -7    6.67    0.20
  -5   1   7    6.63    0.18
  -5   1   7    6.31    0.19
   4  -1  -7    0.10    0.03
   4  -1  -7    0.12    0.03
  -4   1   7    0.02    0.02
  -4   1   7    0.11    0.03
   3  -1  -7   38.80    0.75
   3  -1  -7   38.81    0.79
  -3   1   7   37.85    0.75
  -3   1   7   39.14    0.76
   2  -1  -7    0.81    0.05
   2  -1  -7    0.71    0.05
  -2   1   7    0.75    0.04
  -2   1   7    0.69    0.05
   1  -1  -7    1.77    0.08
   1  -1  -7    1.77    0.07
  -1   1   7    1.75    0.07
  -1   1   7    1.69    0.05
   0  -1  -7    6.52    0.19
   0  -1  -7    6.57    0.16
   0   1   7    6.43    0.17
  -1  -1  -7    6.02    0.15
   1   1   7    6.05    0.16
  -2  -1  -7    0.07    0.02
   2   1   7    0.06    0.02
   2   1   7    0.02    0.02
  -3  -1  -7   12.51    0.28
   3   1   7   12.49    0.30
   3   1   7   12.29    0.32
  -4  -1  -7    0.31    0.04
   4   1   7    0.31    0.05
   4   1   7    0.29    0.05
  -5  -1  -7    0.45    0.05
   5   1   7    0.52    0.06
   5   1   7    0.49    0.06
   6   1   7    0.65    0.07
  -9   2   7    3.63    0.17
   8  -2  -7    0.08    0.04
  -8   2   7   -0.03    0.03
   7  -2  -7    3.25    0.15
  -7   2   7    3.60    0.15
   6  -2  -7    0.12    0.04
  -6   2   7    0.16    0.04
  -6   2   7    0.13    0.03
   5  -2  -7    0.53    0.06
  -5   2   7    0.54    0.05
  -5   2   7    0.45    0.05
   4  -2  -7    2.75    0.11
  -4   2   7    2.64    0.10
  -4   2   7    2.77    0.10
   3  -2  -7    2.14    0.08
   3  -2  -7    2.39    0.10
  -3   2   7    2.43    0.08
  -3   2   7    2.33    0.09
   2  -2  -7   32.89    0.68
   2  -2  -7   33.20    0.64
  -2   2   7   31.74    0.64
  -2   2   7   32.34    0.62
   1  -2  -7    0.72    0.05
   1  -2  -7    0.70    0.05
  -1   2   7    0.72    0.05
   0  -2  -7    2.83    0.10
   0   2   7    3.06    0.11
   0   2   7    2.98    0.10
  -1  -2  -7   30.59    0.60
   1   2   7   30.00    0.61
   1   2   7   31.77    0.67
  -2  -2  -7    2.08    0.08
   2   2   7    1.93    0.08
   2   2   7    1.91    0.09
  -3  -2  -7  115.95    2.16
   3   2   7  118.31    2.35
   3   2   7  118.14    2.18
  -4  -2  -7   34.43    0.69
   4   2   7   34.38    0.70
   4   2   7   34.21    0.76
  -5  -2  -7    0.00    0.03
   5   2   7    0.06    0.04
  -6  -2  -7    1.49    0.09
   6   2   7    1.36    0.10
   7   2   7    0.01    0.04
   8  -3  -7    1.86    0.12
  -8   3   7    1.89    0.12
   7  -3  -7    0.33    0.06
  -7   3   7    0.40    0.06
  -7   3   7    0.45    0.06
   6  -3  -7   10.50    0.29
  -6   3   7   10.75    0.28
  -6   3   7   10.24    0.28
   5  -3  -7   26.76    0.58
  -5   3   7   27.49    0.58
  -5   3   7   27.22    0.58
   4  -3  -7   38.46    0.78
  -4   3   7   39.19    0.78
  -4   3   7   39.41    0.78
   3  -3  -7    5.60    0.15
   3  -3  -7    5.31    0.16
  -3   3   7    5.21    0.16
  -3   3   7    5.35    0.14
   2  -3  -7    9.31    0.23
   2  -3  -7    8.97    0.22
  -2   3   7    9.00    0.23
   1  -3  -7   23.79    0.48
  -1   3   7   23.51    0.49
  -1   3   7   23.99    0.52
   0  -3  -7    0.48    0.05
   0   3   7    0.43    0.05
   0   3   7    0.46    0.05
  -1  -3  -7   19.81    0.42
   1   3   7   20.13    0.43
   1   3   7   20.69    0.46
  -2  -3  -7    0.00    0.03
   2   3   7    0.05    0.02
   2   3   7    0.02    0.03
  -3  -3  -7    0.04    0.03
   3   3   7    0.02    0.03
   3   3   7    0.03    0.02
  -4  -3  -7    0.19    0.04
   4   3   7    0.16    0.04
  -5  -3  -7    0.63    0.06
   5   3   7    0.51    0.07
  -6  -3  -7    0.97    0.08
   6   3   7    0.79    0.09
   8  -4  -7    0.13    0.04
  -8   4   7    0.10    0.05
  -8   4   7    0.16    0.05
   7  -4  -7    0.38    0.06
  -7   4   7    0.28    0.05
  -7   4   7    0.29    0.05
   6  -4  -7    0.93    0.09
  -6   4   7    0.99    0.08
  -6   4   7    0.94    0.07
   5  -4  -7    5.64    0.18
  -5   4   7    5.67    0.17
  -5   4   7    5.41    0.18
   4  -4  -7    5.47    0.17
  -4   4   7    5.57    0.17
   3  -4  -7    0.44    0.05
  -3   4   7    0.44    0.05
   2  -4  -7    2.93    0.11
  -2   4   7    2.70    0.11
  -2   4   7    2.93    0.10
   1  -4  -7    4.07    0.13
  -1   4   7    4.11    0.13
  -1   4   7    3.97    0.13
   0  -4  -7    2.10    0.10
   0   4   7    2.19    0.10
   0   4   7    2.19    0.09
  -1  -4  -7    0.09    0.04
   1   4   7    0.10    0.03
   1   4   7    0.05    0.02
  -2  -4  -7    3.12    0.12
   2   4   7    3.28    0.13
   2   4   7    3.28    0.11
  -3  -4  -7    6.58    0.19
   3   4   7    6.24    0.21
   3   4   7    6.75    0.18
  -4  -4  -7    1.16    0.08
   4   4   7    1.14    0.08
  -5  -4  -7    0.56    0.07
   5   4   7    0.46    0.07
  -6  -4  -7    0.90    0.09
   6   4   7    0.86    0.09
  -8   5   7   11.35    0.33
  -8   5   7   11.36    0.33
   7  -5  -7    0.84    0.09
  -7   5   7    0.85    0.09
  -7   5   7    0.83    0.08
   6  -5  -7   -0.02    0.03
  -6   5   7   -0.01    0.03
   5  -5  -7    5.63    0.19
  -5   5   7    6.14    0.20
   4  -5  -7    0.64    0.07
  -4   5   7    0.72    0.07
   3  -5  -7    3.05    0.12
  -3   5   7    3.07    0.12
   2  -5  -7    0.92    0.07
  -2   5   7    0.93    0.06
   1  -5  -7    3.56    0.13
  -1   5   7    3.28    0.12
  -1   5   7    3.28    0.12
   0  -5  -7    0.64    0.06
   0   5   7    0.56    0.05
   0   5   7    0.58    0.06
  -1  -5  -7    3.42    0.13
   1   5   7    3.55    0.12
   1   5   7    3.47    0.14
  -2  -5  -7    0.09    0.04
   2   5   7    0.15    0.04
   2   5   7    0.10    0.03
  -3  -5  -7    5.04    0.17
   3   5   7    4.82    0.18
  -4  -5  -7    0.79    0.08
   4   5   7    0.91    0.09
  -5  -5  -7    1.83    0.10
   5   5   7    1.50    0.11
   7  -6  -7    0.21    0.05
  -7   6   7    0.16    0.05
   6  -6  -7    0.54    0.07
  -6   6   7    0.62    0.08
   5  -6  -7    6.91    0.22
  -5   6   7    6.71    0.22
   4  -6  -7    1.31    0.09
  -4   6   7    1.34    0.09
   3  -6  -7    6.66    0.20
  -3   6   7    6.42    0.20
   2  -6  -7    9.49    0.25
  -2   6   7    9.19    0.25
   1  -6  -7    4.54    0.15
  -1   6   7    4.59    0.15
  -1   6   7    4.59    0.15
   0  -6  -7    9.40    0.25
   0   6   7    9.37    0.24
   0   6   7    9.63    0.26
  -1  -6  -7    2.38    0.11
   1   6   7    2.47    0.12
   1   6   7    2.35    0.10
  -2  -6  -7    3.37    0.13
   2   6   7    3.57    0.15
  -3  -6  -7    0.58    0.07
   3   6   7    0.57    0.07
  -4  -6  -7    7.04    0.22
   4   6   7    6.87    0.24
  -5  -6  -7    1.21    0.10
   5   6   7    1.27    0.10
   6  -7  -7    0.13    0.04
  -6   7   7    0.07    0.04
   5  -7  -7    2.10    0.12
  -5   7   7    2.11    0.12
   4  -7  -7    0.23    0.05
  -4   7   7    0.21    0.05
   3  -7  -7    4.36    0.16
  -3   7   7    4.08    0.16
   2  -7  -7    0.03    0.03
  -2   7   7   -0.03    0.03
   1  -7  -7    9.00    0.25
  -1   7   7    8.76    0.24
   0  -7  -7    0.03    0.04
   0   7   7    0.06    0.03
   0   7   7   -0.01    0.03
  -1  -7  -7   15.93    0.39
   1   7   7   16.89    0.43
  -2  -7  -7    0.18    0.05
   2   7   7    0.18    0.05
  -3  -7  -7    7.83    0.24
   3   7   7    8.12    0.27
  -4  -7  -7    0.66    0.08
   4   7   7    0.57    0.08
   5  -8  -7    0.01    0.03
  -5   8   7   -0.03    0.03
   4  -8  -7    0.10    0.04
  -4   8   7    0.07    0.04
   3  -8  -7    4.29    0.16
  -3   8   7    4.00    0.17
   2  -8  -7    0.16    0.05
  -2   8   7    0.12    0.04
   1  -8  -7    1.13    0.08
  -1   8   7    1.00    0.09
   0  -8  -7    0.95    0.09
   0   8   7    0.86    0.08
   0   8   7    0.93    0.07
  -1  -8  -7    3.80    0.15
   1   8   7    3.39    0.15
  -2  -8  -7    2.34    0.12
   2   8   7    2.30    0.13
   3   8   7    1.83    0.12
   4  -9  -7    1.66    0.11
   3  -9  -7    0.20    0.05
  -3   9   7    0.18    0.05
   2  -9  -7    0.02    0.04
  -2   9   7   -0.02    0.03
   1  -9  -7    0.04    0.04
  -1   9   7    0.07    0.04
   0  -9  -7    2.26    0.13
  -1  -9  -7    3.72    0.16
   1   9   7    3.40    0.16
   3   9  -8    0.15    0.06
   2   9  -8    1.77    0.13
  -2  -9   8    1.68    0.11
   1   9  -8    0.80    0.10
  -1  -9   8    0.90    0.09
   0   9  -8    0.11    0.05
   0  -9   8    0.21    0.05
  -1   9  -8    1.79    0.13
   1  -9   8    1.89    0.11
  -2   9  -8    2.46    0.15
   4   8  -8    2.34    0.15
  -4  -8   8    2.54    0.13
   3   8  -8    6.11    0.24
  -3  -8   8    6.06    0.21
   2   8  -8    0.01    0.04
  -2  -8   8    0.12    0.04
   1   8  -8    0.75    0.10
  -1  -8   8    0.68    0.07
   0   8  -8    5.50    0.22
   0  -8   8    5.12    0.18
  -1   8  -8    0.58    0.08
  -1   8  -8    0.49    0.08
   1  -8   8    0.69    0.07
  -2   8  -8    4.49    0.19
   2  -8   8    4.73    0.18
  -3   8  -8    0.86    0.10
   3  -8   8    0.61    0.08
   6   7  -8    8.75    0.31
  -6  -7   8    8.68    0.27
   5   7  -8    0.70    0.09
  -5  -7   8    0.60    0.08
   4   7  -8    1.69    0.12
  -4  -7   8    1.64    0.10
   3   7  -8    4.38    0.19
  -3  -7   8    4.29    0.16
   2   7  -8    3.87    0.18
  -2  -7   8    3.70    0.15
   1   7  -8    8.94    0.29
  -1  -7   8    8.30    0.24
   0   7  -8    5.26    0.21
   0   7  -8    5.05    0.18
   0  -7   8    5.09    0.17
  -1   7  -8   11.05    0.31
  -1   7  -8   10.42    0.32
   1  -7   8   10.15    0.28
  -2   7  -8    2.25    0.13
  -2   7  -8    2.38    0.13
   2  -7   8    2.31    0.12
  -3   7  -8    2.29    0.14
   3  -7   8    2.16    0.12
  -4   7  -8    0.40    0.07
   4  -7   8    0.43    0.07
   7   6  -8    8.27    0.29
   6   6  -8    0.82    0.10
  -6  -6   8    0.81    0.09
   5   6  -8    0.91    0.10
  -5  -6   8    0.77    0.08
   4   6  -8    5.11    0.21
  -4  -6   8    5.29    0.18
   3   6  -8    2.51    0.14
  -3  -6   8    2.47    0.11
   2   6  -8    1.98    0.12
  -2  -6   8    2.08    0.10
   1   6  -8    2.03    0.12
  -1  -6   8    2.01    0.10
  -1  -6   8    2.04    0.10
   0   6  -8   10.19    0.31
   0  -6   8   10.91    0.28
   0  -6   8   10.16    0.27
  -1   6  -8    1.06    0.08
   1  -6   8    0.95    0.07
  -2   6  -8    0.45    0.07
  -2   6  -8    0.35    0.06
   2  -6   8    0.26    0.05
  -3   6  -8    0.71    0.08
  -3   6  -8    0.75    0.08
   3  -6   8    0.73    0.08
  -4   6  -8    0.15    0.05
   4  -6   8    0.14    0.04
  -5   6  -8    0.02    0.04
   5  -6   8    0.05    0.04
   7   5  -8    1.32    0.10
  -7  -5   8    1.27    0.10
   6   5  -8   16.97    0.45
  -6  -5   8   16.58    0.41
   5   5  -8    5.09    0.20
  -5  -5   8    5.28    0.18
   4   5  -8    2.12    0.12
  -4  -5   8    2.09    0.10
   3   5  -8   34.21    0.78
  -3  -5   8   34.00    0.71
   2   5  -8    0.05    0.03
  -2  -5   8    0.03    0.03
   1   5  -8   30.45    0.70
  -1  -5   8   30.52    0.64
  -1  -5   8   30.85    0.63
   0   5  -8   15.74    0.41
   0  -5   8   15.52    0.36
   0  -5   8   15.37    0.36
  -1   5  -8    3.47    0.15
   1  -5   8    3.61    0.13
   1  -5   8    3.88    0.14
  -2   5  -8    7.74    0.24
   2  -5   8    7.81    0.24
   2  -5   8    8.02    0.22
  -3   5  -8    3.18    0.14
   3  -5   8    3.19    0.13
  -4   5  -8    1.75    0.12
   4  -5   8    1.98    0.11
  -5   5  -8    2.74    0.15
   5  -5   8    3.02    0.14
   6  -5   8    1.03    0.10
   8   4  -8    4.55    0.18
   7   4  -8    2.99    0.13
  -7  -4   8    3.03    0.14
   6   4  -8    2.84    0.12
   6   4  -8    3.06    0.14
  -6  -4   8    2.91    0.13
   5   4  -8    0.28    0.05
   5   4  -8    0.20    0.04
  -5  -4   8    0.20    0.04
   4   4  -8    0.35    0.06
  -4  -4   8    0.35    0.05
   3   4  -8   56.92    1.22
  -3  -4   8   58.83    1.14
   2   4  -8   14.55    0.37
  -2  -4   8   14.09    0.33
  -2  -4   8   13.90    0.31
   1   4  -8    1.60    0.10
  -1  -4   8    1.58    0.08
  -1  -4   8    1.57    0.08
   0   4  -8    0.05    0.03
   0  -4   8    0.02    0.03
   0  -4   8    0.05    0.03
  -1   4  -8   11.02    0.31
   1  -4   8   11.34    0.27
   1  -4   8   11.12    0.28
  -2   4  -8    0.78    0.08
   2  -4   8    0.92    0.08
   2  -4   8    1.05    0.07
  -3   4  -8    7.51    0.24
   3  -4   8    7.79    0.22
   3  -4   8    7.48    0.23
  -4   4  -8    5.16    0.18
   4  -4   8    4.67    0.18
   4  -4   8    5.19    0.18
  -5   4  -8    0.95    0.10
   5  -4   8    1.03    0.09
  -6   4  -8    1.53    0.12
   6  -4   8    1.58    0.11
   8   3  -8    1.20    0.09
  -8  -3   8    1.14    0.10
   7   3  -8    0.98    0.09
  -7  -3   8    0.78    0.08
   6   3  -8    0.56    0.06
   6   3  -8    0.62    0.07
  -6  -3   8    0.54    0.06
   5   3  -8    2.83    0.13
   5   3  -8    2.69    0.11
  -5  -3   8    2.65    0.11
   4   3  -8    0.12    0.03
   4   3  -8    0.08    0.04
  -4  -3   8    0.07    0.03
   3   3  -8    1.05    0.08
  -3  -3   8    1.16    0.07
  -3  -3   8    1.18    0.06
   2   3  -8   16.74    0.42
  -2  -3   8   17.14    0.36
  -2  -3   8   16.92    0.37
   1   3  -8   15.47    0.39
  -1  -3   8   15.47    0.34
  -1  -3   8   15.50    0.34
   0   3  -8   -0.05    0.02
   0  -3   8    0.00    0.02
   0  -3   8    0.03    0.02
  -1   3  -8   40.42    0.87
   1  -3   8   40.32    0.80
   1  -3   8   40.27    0.81
  -2   3  -8    0.44    0.06
   2  -3   8    0.51    0.06
   2  -3   8    0.46    0.05
  -3   3  -8   12.20    0.33
   3  -3   8   12.73    0.31
   3  -3   8   12.44    0.32
  -4   3  -8    0.63    0.07
   4  -3   8    0.67    0.08
   4  -3   8    0.68    0.07
   5  -3   8    1.09    0.08
   5  -3   8    1.03    0.10
  -6   3  -8    8.35    0.28
   8   2  -8    4.93    0.19
  -8  -2   8    4.72    0.19
   7   2  -8    0.28    0.05
  -7  -2   8    0.29    0.05
   6   2  -8    0.22    0.04
  -6  -2   8    0.22    0.04
   5   2  -8    8.36    0.24
   5   2  -8    7.98    0.22
  -5  -2   8    8.33    0.23
   4   2  -8   37.63    0.73
   4   2  -8   36.74    0.80
  -4  -2   8   36.98    0.75
   3   2  -8    1.44    0.08
   3   2  -8    1.44    0.07
  -3  -2   8    1.49    0.06
  -3  -2   8    1.23    0.07
   2   2  -8    0.04    0.02
   2   2  -8    0.04    0.03
  -2  -2   8    0.05    0.02
   1   2  -8   19.00    0.45
  -1  -2   8   19.65    0.40
  -1  -2   8   18.87    0.40
   0   2  -8   15.37    0.39
   0  -2   8   16.12    0.34
   0  -2   8   16.15    0.35
  -1   2  -8    6.84    0.21
   1  -2   8    7.12    0.18
  -2   2  -8    0.46    0.06
   2  -2   8    0.39    0.04
   2  -2   8    0.34    0.05
  -3   2  -8    3.46    0.14
   3  -2   8    3.45    0.14
   3  -2   8    3.71    0.13
  -4   2  -8    1.27    0.09
   4  -2   8    1.24    0.08
   4  -2   8    1.15    0.07
  -5   2  -8    0.10    0.04
   5  -2   8    0.14    0.04
   8   1  -8    1.50    0.10
  -8  -1   8    1.53    0.10
   7   1  -8    0.93    0.09
  -7  -1   8    1.07    0.08
   6   1  -8    0.14    0.04
  -6  -1   8    0.08    0.03
   5   1  -8    6.75    0.20
   5   1  -8    6.87    0.20
  -5  -1   8    6.84    0.20
   4   1  -8    3.03    0.12
   4   1  -8    2.99    0.11
  -4  -1   8    3.07    0.10
  -4  -1   8    3.05    0.11
   3   1  -8    2.47    0.09
   3   1  -8    2.51    0.11
  -3  -1   8    2.59    0.09
  -3  -1   8    2.52    0.09
   2   1  -8   18.43    0.37
   2   1  -8   17.59    0.42
  -2  -1   8   17.98    0.38
  -2  -1   8   18.22    0.38
   1   1  -8   73.27    1.32
   1   1  -8   70.96    1.46
  -1  -1   8   71.44    1.35
  -1  -1   8   71.44    1.35
   0   1  -8    0.03    0.02
   0   1  -8    0.03    0.03
   0  -1   8    0.04    0.02
   0  -1   8    0.05    0.02
  -1   1  -8    2.53    0.11
   1  -1   8    2.48    0.10
   1  -1   8    2.72    0.08
  -2   1  -8    1.94    0.10
   2  -1   8    1.84    0.09
   2  -1   8    1.93    0.08
  -3   1  -8    2.34    0.11
   3  -1   8    2.32    0.10
  -4   1  -8    3.18    0.14
   4  -1   8    3.13    0.13
  -5   1  -8    1.17    0.09
   5  -1   8    1.19    0.09
   6  -1   8    3.71    0.16
   8   0  -8    1.67    0.11
  -8   0   8    1.65    0.11
   7   0  -8    0.91    0.09
  -7   0   8    0.73    0.08
   6   0  -8    0.11    0.04
  -6   0   8    0.07    0.03
   5   0  -8   15.50    0.37
  -5   0   8   15.80    0.34
  -5   0   8   15.59    0.36
   4   0  -8   21.22    0.48
   4   0  -8   21.45    0.46
  -4   0   8   20.85    0.44
  -4   0   8   21.24    0.45
   3   0  -8   36.68    0.78
   3   0  -8   36.65    0.72
  -3   0   8   36.90    0.73
  -3   0   8   36.90    0.72
   2   0  -8   18.79    0.39
   2   0  -8   18.58    0.43
  -2   0   8   19.26    0.40
  -2   0   8   18.78    0.38
   1   0  -8    1.78    0.08
   1   0  -8    1.73    0.07
  -1   0   8    1.82    0.06
  -1   0   8    1.87    0.08
   0   0  -8   60.65    1.26
   0   0  -8   62.06    1.14
   0   0   8   61.46    1.17
   0   0   8   62.73    1.16
  -1   0  -8    7.43    0.17
  -1   0  -8    7.14    0.21
   1   0   8    7.38    0.20
  -2   0  -8    0.48    0.06
  -2   0  -8    0.50    0.04
   2   0   8    0.66    0.06
  -3   0  -8    6.34    0.20
   3   0   8    5.86    0.18
  -4   0  -8    0.09    0.04
   4   0   8    0.08    0.03
  -5   0  -8    0.11    0.04
   5   0   8    0.15    0.04
  -6   0  -8    2.65    0.14
   8  -1  -8    1.71    0.11
  -8   1   8    1.68    0.11
   7  -1  -8    2.64    0.13
  -7   1   8    2.46    0.12
   6  -1  -8   13.37    0.34
  -6   1   8   13.74    0.31
  -6   1   8   12.95    0.33
   5  -1  -8   10.21    0.27
  -5   1   8   10.39    0.26
  -5   1   8   10.60    0.25
   4  -1  -8    2.42    0.10
   4  -1  -8    2.54    0.10
  -4   1   8    2.58    0.10
  -4   1   8    2.42    0.09
   3  -1  -8   49.19    1.01
   3  -1  -8   50.08    0.95
  -3   1   8   49.28    0.95
  -3   1   8   49.81    0.96
   2  -1  -8   17.32    0.37
   2  -1  -8   17.11    0.40
  -2   1   8   17.48    0.35
  -2   1   8   17.53    0.37
   1  -1  -8   33.86    0.73
   1  -1  -8   35.05    0.67
  -1   1   8   34.62    0.68
   0  -1  -8    3.73    0.11
   0  -1  -8    3.76    0.13
   0   1   8    3.87    0.12
  -1  -1  -8    5.99    0.15
  -1  -1  -8    6.16    0.19
   1   1   8    5.66    0.16
  -2  -1  -8    4.80    0.13
  -2  -1  -8    4.75    0.17
   2   1   8    4.72    0.15
  -3  -1  -8   10.19    0.23
   3   1   8    9.56    0.25
   4   1   8    0.19    0.04
   5   1   8    1.54    0.09
  -6  -1  -8    1.12    0.10
   8  -2  -8    3.82    0.17
  -8   2   8    4.08    0.17
   7  -2  -8    4.33    0.17
  -7   2   8    4.55    0.17
   6  -2  -8    5.22    0.18
  -6   2   8    5.39    0.17
  -6   2   8    5.39    0.18
   5  -2  -8    3.11    0.13
  -5   2   8    3.00    0.11
  -5   2   8    2.77    0.11
   4  -2  -8   37.19    0.76
  -4   2   8   37.99    0.75
  -4   2   8   37.80    0.75
   3  -2  -8   13.49    0.31
   3  -2  -8   13.41    0.32
  -3   2   8   13.55    0.29
  -3   2   8   13.54    0.31
   2  -2  -8    0.62    0.06
   2  -2  -8    0.60    0.05
  -2   2   8    0.68    0.05
   1  -2  -8   23.88    0.53
   1  -2  -8   24.19    0.49
  -1   2   8   24.07    0.50
   0  -2  -8    2.03    0.10
   0  -2  -8    2.04    0.09
   0   2   8    2.22    0.09
  -1  -2  -8    0.53    0.05
   1   2   8    0.49    0.05
   1   2   8    0.42    0.05
  -2  -2  -8   50.84    0.97
   2   2   8   49.92    0.99
   2   2   8   51.54    1.07
  -3  -2  -8   27.07    0.55
   3   2   8   26.97    0.62
   3   2   8   27.29    0.57
  -4  -2  -8   12.15    0.29
   4   2   8   11.59    0.33
   4   2   8   12.03    0.30
  -5  -2  -8    3.18    0.12
   5   2   8    2.68    0.13
   6   2   8    0.48    0.07
   8  -3  -8    0.00    0.03
  -8   3   8    0.08    0.04
   7  -3  -8    0.18    0.05
  -7   3   8    0.18    0.05
  -7   3   8    0.17    0.04
   6  -3  -8    5.61    0.20
  -6   3   8    6.05    0.19
  -6   3   8    5.88    0.19
   5  -3  -8   27.11    0.59
  -5   3   8   26.73    0.58
  -5   3   8   28.51    0.58
   4  -3  -8   15.74    0.37
  -4   3   8   16.19    0.37
   3  -3  -8    3.64    0.13
  -3   3   8    3.79    0.13
   2  -3  -8    4.51    0.14
   2  -3  -8    4.42    0.14
  -2   3   8    4.41    0.14
   1  -3  -8   15.12    0.34
  -1   3   8   15.26    0.34
   0  -3  -8    0.25    0.04
   0   3   8    0.24    0.04
   0   3   8    0.28    0.04
  -1  -3  -8    7.40    0.19
   1   3   8    7.27    0.22
   1   3   8    7.64    0.20
  -2  -3  -8    1.55    0.08
   2   3   8    1.47    0.08
   2   3   8    1.52    0.09
  -3  -3  -8    0.42    0.05
   3   3   8    0.51    0.05
   3   3   8    0.39    0.06
  -4  -3  -8    0.78    0.07
   4   3   8    0.81    0.08
  -5  -3  -8    7.38    0.22
   5   3   8    7.41    0.25
  -6  -3  -8    0.28    0.06
   6   3   8    0.28    0.06
   8  -4  -8    3.68    0.17
  -8   4   8    3.97    0.17
   7  -4  -8    1.89    0.12
  -7   4   8    2.05    0.11
  -7   4   8    2.03    0.11
   6  -4  -8    0.17    0.04
  -6   4   8    0.17    0.04
   5  -4  -8   14.40    0.36
  -5   4   8   14.80    0.36
   4  -4  -8    3.18    0.13
  -4   4   8    3.00    0.12
   3  -4  -8    7.54    0.21
  -3   4   8    7.31    0.21
   2  -4  -8    3.65    0.13
   2  -4  -8    3.50    0.13
  -2   4   8    3.54    0.13
   1  -4  -8    0.04    0.03
  -1   4   8    0.04    0.02
  -1   4   8    0.08    0.03
   0  -4  -8    9.13    0.23
   0   4   8    8.63    0.23
   0   4   8    8.87    0.24
  -1  -4  -8    0.22    0.04
   1   4   8    0.22    0.04
   1   4   8    0.25    0.05
  -2  -4  -8    9.99    0.26
   2   4   8   10.43    0.29
   2   4   8   10.37    0.26
  -3  -4  -8   -0.03    0.03
   3   4   8   -0.02    0.02
   3   4   8    0.00    0.03
  -4  -4  -8    0.06    0.04
   4   4   8    0.11    0.04
  -5  -4  -8    0.60    0.07
   5   4   8    0.47    0.07
   7  -5  -8    0.37    0.06
  -7   5   8    0.22    0.05
   6  -5  -8    0.33    0.06
  -6   5   8    0.33    0.06
   5  -5  -8    2.88    0.13
  -5   5   8    2.60    0.12
   4  -5  -8   26.34    0.58
  -4   5   8   26.99    0.58
   3  -5  -8    5.96    0.19
  -3   5   8    5.85    0.19
   2  -5  -8    3.92    0.14
  -2   5   8    3.82    0.14
   1  -5  -8    3.87    0.14
  -1   5   8    4.19    0.14
  -1   5   8    3.90    0.14
   0  -5  -8    6.11    0.18
   0   5   8    6.32    0.20
   0   5   8    6.19    0.18
  -1  -5  -8   38.44    0.77
   1   5   8   38.47    0.84
   1   5   8   38.66    0.77
  -2  -5  -8    0.57    0.06
   2   5   8    0.46    0.05
   2   5   8    0.61    0.07
  -3  -5  -8    3.54    0.14
   3   5   8    3.46    0.15
  -4  -5  -8    1.01    0.09
   4   5   8    1.17    0.09
  -5  -5  -8    0.28    0.06
   5   5   8    0.30    0.06
   7  -6  -8    0.43    0.07
  -7   6   8    0.41    0.07
   6  -6  -8    1.38    0.10
   5  -6  -8    0.05    0.03
  -5   6   8    0.08    0.04
   4  -6  -8    0.48    0.06
  -4   6   8    0.46    0.06
   3  -6  -8   10.90    0.29
  -3   6   8   10.86    0.29
   2  -6  -8    1.92    0.10
  -2   6   8    2.01    0.10
   1  -6  -8    0.01    0.03
  -1   6   8    0.02    0.03
  -1   6   8    0.01    0.02
   0  -6  -8    0.01    0.04
   0   6   8    0.06    0.03
   0   6   8    0.05    0.03
  -1  -6  -8    0.01    0.04
   1   6   8    0.03    0.03
   1   6   8    0.06    0.03
  -2  -6  -8    0.28    0.05
   2   6   8    0.20    0.05
  -3  -6  -8    0.20    0.05
   3   6   8    0.24    0.05
  -4  -6  -8    3.90    0.16
   4   6   8    3.69    0.17
   6  -7  -8    2.36    0.13
   5  -7  -8    0.13    0.05
  -5   7   8    0.16    0.05
   4  -7  -8    0.60    0.07
  -4   7   8    0.49    0.07
   3  -7  -8   11.63    0.32
  -3   7   8   12.31    0.32
   2  -7  -8   -0.02    0.03
  -2   7   8    0.00    0.03
   1  -7  -8    1.04    0.09
  -1   7   8    1.01    0.07
   0  -7  -8   12.78    0.33
   0   7   8   13.28    0.33
   0   7   8   13.50    0.35
  -1  -7  -8    5.29    0.18
   1   7   8    5.38    0.20
  -2  -7  -8    2.21    0.12
   2   7   8    2.32    0.13
  -3  -7  -8    0.13    0.05
   3   7   8    0.21    0.05
   4  -8  -8    0.03    0.04
  -4   8   8   -0.02    0.03
   3  -8  -8    0.52    0.07
  -3   8   8    0.32    0.06
   2  -8  -8    1.25    0.09
  -2   8   8    1.21    0.09
   1  -8  -8    6.31    0.21
  -1   8   8    6.81    0.21
   0  -8  -8    0.51    0.07
   0   8   8    0.54    0.06
  -1  -8  -8    0.92    0.09
   1   8   8    0.90    0.09
  -2  -8  -8    0.01    0.04
   2   8   8    0.01    0.04
  -2   9   8    1.06    0.10
  -1   9   8    0.08    0.04
   1   9  -9    0.16    0.06
   0   9  -9    0.39    0.08
   4   8  -9    0.84    0.11
  -4  -8   9    0.84    0.09
   3   8  -9    0.31    0.07
  -3  -8   9    0.21    0.05
   2   8  -9    0.17    0.06
  -2  -8   9    0.33    0.06
   1   8  -9    0.07    0.05
  -1  -8   9    0.20    0.05
   0   8  -9    1.39    0.11
   0  -8   9    1.40    0.09
  -1   8  -9    1.32    0.11
  -1   8  -9    1.40    0.11
   1  -8   9    1.31    0.09
  -2   8  -9    0.04    0.04
   2  -8   9    0.10    0.04
   5   7  -9    0.83    0.10
  -5  -7   9    0.84    0.09
   4   7  -9    0.06    0.05
  -4  -7   9    0.15    0.05
   3   7  -9    7.07    0.26
  -3  -7   9    7.19    0.22
   2   7  -9    0.02    0.04
  -2  -7   9    0.06    0.04
   1   7  -9    0.36    0.07
  -1  -7   9    0.42    0.06
   0   7  -9    2.48    0.13
   0   7  -9    2.49    0.14
   0  -7   9    2.58    0.12
  -1   7  -9    0.79    0.09
  -1   7  -9    0.75    0.08
   1  -7   9    0.66    0.07
  -2   7  -9    0.08    0.05
  -2   7  -9    0.16    0.05
   2  -7   9    0.15    0.04
  -3   7  -9    1.04    0.11
   3  -7   9    1.34    0.09
   6   6  -9    2.18    0.14
  -6  -6   9    1.92    0.12
   5   6  -9    8.72    0.29
  -5  -6   9    8.22    0.25
   4   6  -9    0.12    0.05
  -4  -6   9    0.05    0.04
   3   6  -9    5.08    0.21
  -3  -6   9    5.06    0.18
   2   6  -9   10.64    0.33
  -2  -6   9   10.93    0.28
   1   6  -9    0.73    0.08
  -1  -6   9    0.81    0.07
  -1  -6   9    0.76    0.07
   0   6  -9    3.13    0.15
   0  -6   9    2.87    0.13
   0  -6   9    2.70    0.12
  -1   6  -9    0.40    0.07
   1  -6   9    0.51    0.06
   1  -6   9    0.61    0.07
  -2   6  -9    1.75    0.11
   2  -6   9    1.80    0.10
  -3   6  -9    5.70    0.22
  -3   6  -9    5.92    0.22
   3  -6   9    5.77    0.20
  -4   6  -9    1.57    0.13
   4  -6   9    1.40    0.10
  -7  -5   9    9.45    0.29
   6   5  -9    1.87    0.12
  -6  -5   9    1.62    0.10
   5   5  -9    0.07    0.04
  -5  -5   9    0.10    0.04
   4   5  -9    0.12    0.05
  -4  -5   9    0.01    0.03
   3   5  -9    5.00    0.20
  -3  -5   9    5.33    0.17
   2   5  -9    3.63    0.16
  -2  -5   9    3.33    0.13
   1   5  -9    5.71    0.21
  -1  -5   9    5.94    0.18
  -1  -5   9    5.75    0.17
   0   5  -9   12.16    0.35
   0  -5   9   11.75    0.30
   0  -5   9   12.64    0.31
  -1   5  -9   14.73    0.40
   1  -5   9   15.50    0.36
   1  -5   9   15.09    0.37
  -2   5  -9    0.09    0.04
   2  -5   9    0.14    0.04
   2  -5   9    0.12    0.04
  -3   5  -9   11.80    0.33
   3  -5   9   11.05    0.32
   3  -5   9   11.73    0.31
  -4   5  -9    3.41    0.17
   4  -5   9    3.85    0.16
  -5   5  -9    7.52    0.27
   5  -5   9    7.44    0.25
   8   4  -9    2.50    0.13
   7   4  -9    5.18    0.18
  -7  -4   9    5.57    0.20
   6   4  -9    2.87    0.14
  -6  -4   9    2.57    0.13
   5   4  -9    0.94    0.09
  -5  -4   9    0.78    0.08
   4   4  -9    0.68    0.08
  -4  -4   9    0.47    0.06
   3   4  -9   12.15    0.34
  -3  -4   9   12.19    0.30
   2   4  -9    0.44    0.06
  -2  -4   9    0.41    0.05
  -2  -4   9    0.39    0.05
   1   4  -9   16.26    0.42
  -1  -4   9   16.32    0.37
  -1  -4   9   16.49    0.37
   0   4  -9    2.95    0.13
   0  -4   9    2.94    0.12
   0  -4   9    3.01    0.11
  -1   4  -9    0.44    0.06
   1  -4   9    0.42    0.05
   1  -4   9    0.44    0.06
  -2   4  -9   12.78    0.35
   2  -4   9   13.06    0.31
   2  -4   9   12.12    0.33
  -3   4  -9    0.60    0.07
   3  -4   9    0.71    0.07
   3  -4   9    0.77    0.08
  -4   4  -9    1.72    0.11
   4  -4   9    1.92    0.10
   4  -4   9    1.92    0.12
  -5   4  -9    1.20    0.11
  -8  -3   9    2.23    0.13
   7   3  -9    0.75    0.08
  -7  -3   9    0.69    0.08
   6   3  -9    0.42    0.06
   6   3  -9    0.23    0.04
  -6  -3   9    0.30    0.05
   5   3  -9    2.43    0.12
   5   3  -9    2.37    0.10
  -5  -3   9    2.19    0.11
   4   3  -9    5.21    0.18
  -4  -3   9    4.79    0.16
   3   3  -9   28.00    0.64
  -3  -3   9   27.94    0.59
  -3  -3   9   28.31    0.57
   2   3  -9   30.78    0.70
  -2  -3   9   31.24    0.63
  -2  -3   9   30.43    0.62
   1   3  -9   34.49    0.78
  -1  -3   9   35.29    0.71
  -1  -3   9   36.01    0.71
   0   3  -9    0.06    0.04
   0  -3   9    0.05    0.03
   0  -3   9    0.08    0.03
  -1   3  -9   17.38    0.44
   1  -3   9   17.77    0.39
   1  -3   9   17.80    0.41
  -2   3  -9    1.43    0.09
   2  -3   9    1.57    0.08
   2  -3   9    1.57    0.09
  -3   3  -9    0.02    0.03
   3  -3   9    0.02    0.03
   3  -3   9    0.02    0.03
  -4   3  -9    2.33    0.12
   4  -3   9    2.28    0.12
   5  -3   9    0.86    0.09
  -6   3  -9    5.04    0.21
   8   2  -9    0.50    0.07
  -8  -2   9    0.56    0.08
   7   2  -9    6.82    0.22
  -7  -2   9    6.92    0.22
   6   2  -9    1.96    0.10
  -6  -2   9    1.67    0.10
   5   2  -9    6.11    0.19
   5   2  -9    6.11    0.20
  -5  -2   9    6.20    0.19
   4   2  -9    3.90    0.13
   4   2  -9    4.10    0.15
  -4  -2   9    3.95    0.13
   3   2  -9   24.23    0.56
   3   2  -9   23.69    0.49
  -3  -2   9   23.99    0.49
  -3  -2   9   23.94    0.50
   2   2  -9    0.04    0.03
  -2  -2   9    0.09    0.03
  -2  -2   9    0.06    0.03
   1   2  -9    1.67    0.09
  -1  -2   9    1.69    0.08
  -1  -2   9    1.62    0.07
   0   2  -9   15.24    0.38
   0  -2   9   15.40    0.33
   0  -2   9   15.13    0.35
  -1   2  -9    7.90    0.24
   1  -2   9    7.82    0.20
   1  -2   9    8.32    0.22
  -2   2  -9    0.08    0.03
   2  -2   9    0.11    0.03
   2  -2   9    0.15    0.03
  -3   2  -9   12.61    0.34
   3  -2   9   12.85    0.33
  -4   2  -9    0.32    0.06
   4  -2   9    0.23    0.05
  -5   2  -9    3.19    0.15
   5  -2   9    2.91    0.14
   6  -2   9    0.01    0.04
   8   1  -9    0.23    0.05
  -8  -1   9    0.25    0.06
   7   1  -9    5.03    0.18
  -7  -1   9    4.85    0.18
   6   1  -9    2.55    0.12
  -6  -1   9    2.34    0.11
   5   1  -9   40.38    0.83
   5   1  -9   41.32    0.88
  -5  -1   9   41.71    0.84
   4   1  -9    3.57    0.12
   4   1  -9    3.24    0.13
  -4  -1   9    3.31    0.11
  -4  -1   9    3.41    0.12
   3   1  -9    5.74    0.18
   3   1  -9    5.68    0.16
  -3  -1   9    5.58    0.16
  -3  -1   9    6.00    0.16
   2   1  -9    0.78    0.06
   2   1  -9    0.97    0.05
  -2  -1   9    0.96    0.06
  -2  -1   9    1.15    0.06
   1   1  -9    1.41    0.08
  -1  -1   9    1.36    0.06
  -1  -1   9    1.36    0.07
   0   1  -9    5.09    0.17
   0  -1   9    5.07    0.13
   0  -1   9    5.21    0.16
  -1   1  -9   -0.02    0.03
   1  -1   9    0.00    0.02
  -2   1  -9    0.73    0.07
   2  -1   9    0.82    0.07
  -3   1  -9    4.17    0.17
   3  -1   9    4.18    0.15
  -4   1  -9    1.15    0.09
   4  -1   9    0.99    0.09
  -5   1  -9    0.76    0.09
   5  -1   9    0.62    0.07
   6  -1   9    0.67    0.08
   8   0  -9    0.01    0.03
  -8   0   9    0.02    0.03
   7   0  -9    4.37    0.17
  -7   0   9    4.19    0.16
   6   0  -9    3.06    0.13
  -6   0   9    2.88    0.12
   5   0  -9    2.14    0.10
  -5   0   9    2.14    0.09
  -5   0   9    2.21    0.10
   4   0  -9    0.06    0.03
   4   0  -9    0.06    0.03
  -4   0   9    0.09    0.03
  -4   0   9    0.12    0.03
   3   0  -9   21.21    0.48
   3   0  -9   21.27    0.45
  -3   0   9   20.58    0.44
  -3   0   9   21.16    0.44
   2   0  -9    4.62    0.15
   2   0  -9    4.35    0.13
  -2   0   9    4.45    0.12
  -2   0   9    4.48    0.14
   1   0  -9    5.31    0.14
   1   0  -9    5.59    0.18
  -1   0   9    5.29    0.16
   0   0  -9   14.85    0.37
   0   0  -9   14.97    0.31
   0   0   9   14.36    0.33
  -1   0  -9    7.75    0.24
   1   0   9    7.99    0.21
  -2   0  -9    4.89    0.18
   2   0   9    4.66    0.16
  -3   0  -9    0.10    0.04
   3   0   9    0.13    0.04
  -4   0  -9    2.59    0.13
   4   0   9    2.58    0.12
  -5   0  -9    0.26    0.06
   5   0   9    0.28    0.05
  -6   0  -9    0.75    0.09
   8  -1  -9    2.23    0.13
  -8   1   9    2.28    0.13
   7  -1  -9    0.85    0.09
  -7   1   9    0.92    0.08
   6  -1  -9    1.50    0.09
  -6   1   9    1.29    0.08
  -6   1   9    1.53    0.09
   5  -1  -9   33.65    0.71
  -5   1   9   34.35    0.69
  -5   1   9   34.63    0.71
   4  -1  -9   12.93    0.31
  -4   1   9   13.23    0.31
  -4   1   9   13.06    0.30
   3  -1  -9    0.80    0.06
   3  -1  -9    0.81    0.06
  -3   1   9    0.78    0.06
   2  -1  -9   14.76    0.32
   2  -1  -9   14.15    0.35
  -2   1   9   14.22    0.33
   1  -1  -9   41.40    0.80
   1  -1  -9   41.50    0.88
  -1   1   9   42.39    0.82
   0  -1  -9    1.58    0.09
   0  -1  -9    1.60    0.07
   0   1   9    1.69    0.08
  -1  -1  -9    2.79    0.12
  -1  -1  -9    2.80    0.10
   1   1   9    2.94    0.11
  -2  -1  -9    0.07    0.04
  -2  -1  -9    0.16    0.04
   2   1   9    0.16    0.04
  -3  -1  -9    0.19    0.05
   3   1   9    0.34    0.05
  -4  -1  -9    4.63    0.18
   4   1   9    4.33    0.16
  -5  -1  -9    0.11    0.04
   5   1   9    0.10    0.04
  -6  -1  -9    0.30    0.06
   8  -2  -9    0.40    0.07
  -8   2   9    0.37    0.06
   7  -2  -9    0.19    0.05
  -7   2   9    0.19    0.05
   6  -2  -9    2.54    0.12
  -6   2   9    2.52    0.11
  -6   2   9    2.62    0.11
   5  -2  -9    0.35    0.05
  -5   2   9    0.23    0.04
  -5   2   9    0.30    0.04
   4  -2  -9    8.97    0.24
  -4   2   9    9.29    0.24
   3  -2  -9    8.33    0.23
   3  -2  -9    8.44    0.22
  -3   2   9    8.66    0.22
   2  -2  -9    3.06    0.11
   2  -2  -9    3.21    0.12
  -2   2   9    3.27    0.12
   1  -2  -9    2.43    0.10
   1  -2  -9    2.46    0.11
  -1   2   9    2.33    0.10
   0  -2  -9    9.28    0.26
   0  -2  -9    9.02    0.22
   0   2   9    9.41    0.24
  -1  -2  -9    1.22    0.08
  -1  -2  -9    1.28    0.07
   1   2   9    1.19    0.07
  -2  -2  -9   25.42    0.52
   2   2   9   25.34    0.54
   2   2   9   25.62    0.59
  -3  -2  -9    0.04    0.03
   3   2   9    0.04    0.03
   3   2   9    0.01    0.03
   4   2   9   11.34    0.29
   4   2   9   10.92    0.32
   5   2   9    1.63    0.11
   8  -3  -9    0.03    0.04
  -8   3   9    0.02    0.04
   7  -3  -9    0.66    0.08
  -7   3   9    0.58    0.07
   6  -3  -9    9.51    0.28
  -6   3   9    9.79    0.26
   5  -3  -9    0.05    0.03
  -5   3   9   -0.01    0.02
   4  -3  -9   12.58    0.32
  -4   3   9   13.10    0.31
   3  -3  -9    0.23    0.04
  -3   3   9    0.27    0.04
   2  -3  -9    0.53    0.06
   2  -3  -9    0.61    0.06
  -2   3   9    0.58    0.06
   1  -3  -9    0.27    0.05
   1  -3  -9    0.37    0.05
  -1   3   9    0.31    0.04
   0  -3  -9    2.22    0.10
   0   3   9    2.30    0.10
   0   3   9    2.28    0.10
  -1  -3  -9    0.11    0.04
   1   3   9    0.07    0.03
   1   3   9    0.02    0.03
  -2  -3  -9   11.43    0.28
   2   3   9   11.27    0.28
   2   3   9   11.66    0.32
  -3  -3  -9    5.11    0.17
   3   3   9    5.61    0.18
   3   3   9    5.50    0.20
  -4  -3  -9   22.06    0.49
   4   3   9   22.85    0.56
  -5  -3  -9    0.08    0.04
   5   3   9    0.08    0.04
   7  -4  -9    0.33    0.06
  -7   4   9    0.27    0.05
   6  -4  -9    2.91    0.14
  -6   4   9    2.72    0.13
   5  -4  -9    1.10    0.09
  -5   4   9    0.86    0.08
   4  -4  -9   45.08    0.90
  -4   4   9   44.15    0.90
   3  -4  -9   16.34    0.38
  -3   4   9   16.70    0.39
   2  -4  -9    0.02    0.03
   2  -4  -9   -0.01    0.02
  -2   4   9   -0.01    0.02
   1  -4  -9    0.55    0.06
  -1   4   9    0.57    0.06
  -1   4   9    0.48    0.05
   0  -4  -9    4.79    0.16
   0   4   9    5.11    0.17
   0   4   9    4.93    0.16
  -1  -4  -9    9.58    0.25
   1   4   9    8.99    0.25
   1   4   9    9.66    0.27
  -2  -4  -9   19.57    0.44
   2   4   9   19.63    0.48
   2   4   9   19.84    0.44
  -3  -4  -9    1.46    0.09
   3   4   9    1.33    0.09
   3   4   9    1.44    0.08
  -4  -4  -9    0.54    0.07
   4   4   9    0.46    0.07
  -5  -4  -9    0.00    0.04
   5   4   9    0.00    0.04
   7  -5  -9    8.28    0.27
  -7   5   9    8.47    0.26
   6  -5  -9    5.46    0.20
  -6   5   9    5.66    0.20
   5  -5  -9    0.07    0.04
  -5   5   9    0.10    0.04
   4  -5  -9    0.08    0.04
  -4   5   9    0.06    0.04
   3  -5  -9    1.67    0.09
  -3   5   9    1.55    0.09
   2  -5  -9    0.82    0.07
  -2   5   9    0.74    0.07
   1  -5  -9    0.11    0.04
  -1   5   9    0.08    0.03
  -1   5   9    0.03    0.03
   0  -5  -9   -0.01    0.03
   0   5   9   -0.01    0.03
   0   5   9    0.02    0.02
  -1  -5  -9    0.67    0.07
   1   5   9    0.63    0.07
   1   5   9    0.67    0.07
  -2  -5  -9    0.01    0.04
   2   5   9    0.01    0.03
   2   5   9   -0.01    0.03
  -3  -5  -9    0.55    0.07
   3   5   9    0.63    0.07
  -4  -5  -9    0.41    0.07
   4   5   9    0.47    0.07
   6  -6  -9    2.25    0.13
  -6   6   9    2.42    0.13
   5  -6  -9    2.21    0.12
  -5   6   9    2.26    0.12
   4  -6  -9    0.06    0.04
  -4   6   9    0.03    0.03
   3  -6  -9    1.67    0.10
  -3   6   9    1.92    0.11
   2  -6  -9    3.02    0.13
  -2   6   9    3.25    0.13
   1  -6  -9    0.55    0.07
  -1   6   9    0.43    0.06
  -1   6   9    0.41    0.06
   0  -6  -9    1.59    0.10
   0   6   9    1.65    0.09
   0   6   9    1.42    0.09
  -1  -6  -9    0.32    0.06
   1   6   9    0.26    0.05
   1   6   9    0.27    0.05
  -2  -6  -9    0.03    0.04
   2   6   9    0.16    0.05
  -3  -6  -9    1.86    0.11
   3   6   9    1.99    0.12
   5  -7  -9    0.51    0.07
  -5   7   9    0.56    0.07
   4  -7  -9    1.97    0.12
  -4   7   9    2.00    0.12
   3  -7  -9    1.54    0.10
  -3   7   9    1.78    0.11
   2  -7  -9    2.74    0.13
  -2   7   9    2.65    0.12
   1  -7  -9   -0.03    0.04
  -1   7   9    0.02    0.03
   0  -7  -9    1.33    0.09
   0   7   9    1.48    0.09
   0   7   9    1.32    0.09
  -1  -7  -9    2.23    0.12
   1   7   9    2.12    0.12
  -2  -7  -9    0.47    0.07
   2   7   9    0.54    0.08
   3  -8  -9    1.84    0.11
  -3   8   9    1.98    0.12
   2  -8  -9    7.90    0.25
  -2   8   9    8.43    0.25
   1  -8  -9    0.50    0.07
  -1   8   9    0.46    0.06
   0  -8  -9    3.74    0.16
   0   8   9    3.99    0.15
   1   8   9    0.14    0.05
   3   8 -10    5.16    0.23
  -3  -8  10    5.54    0.20
   2   8 -10    3.46    0.18
  -2  -8  10    3.30    0.15
   1   8 -10    0.04    0.05
  -1  -8  10    0.02    0.04
   0   8 -10    0.80    0.10
   0  -8  10    1.16    0.09
  -1   8 -10    4.89    0.21
  -1   8 -10    4.58    0.19
   1  -8  10    4.93    0.19
   5   7 -10    0.86    0.11
   4   7 -10    0.02    0.04
  -4  -7  10    0.04    0.04
   3   7 -10    1.32    0.13
  -3  -7  10    1.28    0.09
   2   7 -10   -0.01    0.04
  -2  -7  10    0.07    0.04
   1   7 -10    3.35    0.17
  -1  -7  10    3.71    0.15
   0   7 -10    0.26    0.06
   0   7 -10    0.30    0.06
   0  -7  10    0.27    0.05
  -1   7 -10    6.13    0.22
  -1   7 -10    5.89    0.23
   1  -7  10    5.59    0.20
  -2   7 -10    0.03    0.04
  -2   7 -10    0.04    0.04
   2  -7  10    0.11    0.04
   3  -7  10    0.70    0.08
   6   6 -10    0.01    0.05
  -6  -6  10    0.03    0.05
   5   6 -10   11.62    0.37
  -5  -6  10   11.79    0.33
   4   6 -10    0.00    0.04
  -4  -6  10   -0.02    0.04
   3   6 -10    0.76    0.09
  -3  -6  10    0.75    0.08
   2   6 -10    0.46    0.07
  -2  -6  10    0.43    0.06
   1   6 -10    0.27    0.06
  -1  -6  10    0.10    0.04
   0   6 -10    0.07    0.04
   0  -6  10    0.07    0.03
   0  -6  10    0.04    0.03
  -1   6 -10   13.13    0.38
   1  -6  10   13.32    0.34
   1  -6  10   13.44    0.36
  -2   6 -10    2.44    0.14
   2  -6  10    2.79    0.13
   2  -6  10    2.76    0.14
  -3   6 -10    2.04    0.13
  -3   6 -10    1.82    0.12
   3  -6  10    1.91    0.11
   4  -6  10    0.03    0.04
   6   5 -10    4.22    0.19
  -6  -5  10    3.97    0.16
   5   5 -10    0.70    0.09
  -5  -5  10    0.59    0.07
   4   5 -10    1.06    0.11
  -4  -5  10    1.05    0.08
   3   5 -10    2.25    0.13
  -3  -5  10    2.37    0.11
   2   5 -10   10.18    0.32
  -2  -5  10   10.43    0.27
   1   5 -10    5.00    0.20
  -1  -5  10    4.42    0.15
  -1  -5  10    4.70    0.16
   0   5 -10    1.37    0.10
   0  -5  10    1.16    0.08
   0  -5  10    1.20    0.08
  -1   5 -10    0.52    0.07
   1  -5  10    0.57    0.06
   1  -5  10    0.55    0.07
  -2   5 -10    0.08    0.04
   2  -5  10    0.00    0.03
   2  -5  10   -0.01    0.03
  -3   5 -10    0.09    0.04
   3  -5  10    0.05    0.03
   3  -5  10    0.11    0.04
   4  -5  10    0.12    0.04
  -7  -4  10    0.09    0.05
   6   4 -10   11.03    0.33
  -6  -4  10   10.27    0.29
   5   4 -10    6.02    0.22
  -5  -4  10    5.80    0.19
   4   4 -10    7.27    0.25
  -4  -4  10    6.80    0.21
   3   4 -10    4.16    0.17
  -3  -4  10    4.20    0.15
   2   4 -10   22.44    0.56
  -2  -4  10   22.56    0.48
  -2  -4  10   22.71    0.49
   1   4 -10    1.47    0.10
  -1  -4  10    1.52    0.08
  -1  -4  10    1.53    0.08
   0   4 -10   21.50    0.53
   0  -4  10   21.52    0.48
   0  -4  10   21.92    0.47
  -1   4 -10    0.46    0.07
   1  -4  10    0.35    0.05
   1  -4  10    0.45    0.06
  -2   4 -10    0.00    0.04
   2  -4  10   -0.01    0.03
   2  -4  10    0.01    0.03
  -3   4 -10    0.08    0.04
   3  -4  10    0.08    0.04
   3  -4  10    0.06    0.03
  -4   4 -10    3.68    0.17
   4  -4  10    3.45    0.16
   8   3 -10    2.09    0.12
   7   3 -10    4.49    0.17
  -7  -3  10    4.46    0.17
  -6  -3  10    3.31    0.14
   5   3 -10    0.20    0.05
  -5  -3  10    0.12    0.04
   4   3 -10   17.87    0.46
  -4  -3  10   18.04    0.41
   3   3 -10    5.77    0.21
  -3  -3  10    5.76    0.18
  -3  -3  10    6.34    0.17
   2   3 -10   16.94    0.44
  -2  -3  10   17.70    0.39
  -2  -3  10   17.00    0.38
   1   3 -10   25.37    0.60
  -1  -3  10   25.18    0.54
  -1  -3  10   25.83    0.53
   0   3 -10    0.11    0.04
   0  -3  10    0.12    0.04
   0  -3  10    0.14    0.03
  -1   3 -10   -0.01    0.03
   1  -3  10    0.06    0.03
   1  -3  10    0.04    0.03
  -2   3 -10    0.02    0.04
   2  -3  10    0.08    0.04
  -3   3 -10    4.96    0.19
   3  -3  10    4.55    0.18
  -4   3 -10    0.17    0.05
   4  -3  10    0.06    0.04
   5  -3  10    1.26    0.11
   8   2 -10    7.01    0.24
  -8  -2  10    6.86    0.24
   7   2 -10    0.36    0.06
  -7  -2  10    0.31    0.06
   6   2 -10    5.93    0.19
  -6  -2  10    5.94    0.19
   5   2 -10    2.15    0.12
   5   2 -10    2.44    0.11
  -5  -2  10    2.14    0.10
   4   2 -10    4.18    0.16
  -4  -2  10    4.23    0.14
   3   2 -10    0.66    0.07
  -3  -2  10    0.53    0.06
  -3  -2  10    0.55    0.05
   2   2 -10    4.51    0.17
  -2  -2  10    4.20    0.14
  -2  -2  10    4.20    0.13
   1   2 -10   13.13    0.34
  -1  -2  10   12.38    0.30
  -1  -2  10   12.32    0.28
   0   2 -10   51.27    1.10
   0  -2  10   52.05    1.00
   0  -2  10   51.18    1.02
  -1   2 -10    0.42    0.06
   1  -2  10    0.39    0.05
  -2   2 -10   15.47    0.41
   2  -2  10   15.72    0.38
  -3   2 -10    1.09    0.09
   3  -2  10    0.98    0.09
  -4   2 -10    2.65    0.14
   4  -2  10    2.50    0.13
  -5   2 -10    0.00    0.04
   5  -2  10    0.06    0.04
   8   1 -10    1.14    0.10
  -8  -1  10    1.22    0.09
   7   1 -10    0.87    0.09
  -7  -1  10    0.70    0.08
   6   1 -10    0.22    0.05
  -6  -1  10    0.31    0.05
   5   1 -10    6.62    0.20
  -5  -1  10    6.69    0.20
   4   1 -10   12.47    0.33
   4   1 -10   12.40    0.30
  -4  -1  10   13.10    0.30
  -4  -1  10   12.32    0.30
   3   1 -10    4.71    0.17
   3   1 -10    4.84    0.15
  -3  -1  10    4.75    0.15
  -3  -1  10    4.62    0.14
   2   1 -10    0.06    0.03
  -2  -1  10    0.03    0.02
  -2  -1  10    0.00    0.03
   1   1 -10    3.73    0.15
  -1  -1  10    3.57    0.13
   0   1 -10   23.33    0.55
   0  -1  10   23.18    0.50
  -1   1 -10    0.24    0.05
   1  -1  10    0.26    0.05
  -2   1 -10    0.23    0.05
   2  -1  10    0.35    0.05
  -3   1 -10   16.38    0.44
   3  -1  10   17.03    0.41
  -4   1 -10    2.33    0.13
   4  -1  10    2.45    0.13
  -5   1 -10    0.03    0.04
   5  -1  10    0.03    0.04
   8   0 -10    4.26    0.18
  -8   0  10    4.34    0.18
   7   0 -10    3.44    0.15
  -7   0  10    3.33    0.14
   6   0 -10    0.00    0.03
  -6   0  10    0.00    0.03
   5   0 -10   10.37    0.28
  -5   0  10   10.52    0.26
  -5   0  10   10.11    0.26
   4   0 -10    1.58    0.09
   4   0 -10    1.42    0.08
  -4   0  10    1.57    0.08
  -4   0  10    1.53    0.08
   3   0 -10    0.03    0.03
   3   0 -10    0.03    0.02
  -3   0  10    0.01    0.02
   2   0 -10    8.21    0.20
   2   0 -10    7.88    0.23
  -2   0  10    8.02    0.21
   1   0 -10    0.40    0.06
   1   0 -10    0.38    0.04
  -1   0  10    0.42    0.05
   0   0 -10   19.57    0.47
   0   0  10   19.39    0.43
  -1   0 -10   15.65    0.40
   1   0  10   15.20    0.36
  -2   0 -10    9.43    0.28
   2   0  10    9.16    0.25
  -3   0 -10    0.15    0.05
   3   0  10    0.11    0.04
  -4   0 -10    2.48    0.14
   4   0  10    2.39    0.12
  -5   0 -10    0.36    0.07
   5   0  10    0.31    0.06
   8  -1 -10    1.44    0.12
  -8   1  10    1.49    0.10
   7  -1 -10    1.09    0.10
  -7   1  10    1.16    0.09
   6  -1 -10    7.01    0.22
  -6   1  10    7.21    0.21
   5  -1 -10    6.15    0.20
  -5   1  10    6.35    0.18
  -5   1  10    6.52    0.19
   4  -1 -10    2.91    0.12
  -4   1  10    3.00    0.11
   3  -1 -10    3.04    0.12
   3  -1 -10    3.07    0.12
  -3   1  10    2.97    0.11
   2  -1 -10    0.10    0.03
   2  -1 -10    0.04    0.03
  -2   1  10    0.08    0.03
   1  -1 -10    3.86    0.15
   1  -1 -10    4.21    0.13
  -1   1  10    4.08    0.14
   0  -1 -10    6.15    0.16
   0  -1 -10    5.87    0.20
   0   1  10    5.97    0.18
  -1  -1 -10    2.20    0.12
   1   1  10    2.33    0.10
  -2  -1 -10    0.77    0.08
   2   1  10    0.72    0.07
  -3  -1 -10    3.44    0.16
   3   1  10    3.58    0.14
  -4  -1 -10    0.56    0.08
   4   1  10    0.64    0.07
  -5  -1 -10    1.02    0.10
   5   1  10    0.93    0.09
   8  -2 -10    4.63    0.19
  -8   2  10    4.55    0.18
   7  -2 -10    0.01    0.03
   6  -2 -10    4.34    0.17
  -6   2  10    4.44    0.16
   5  -2 -10    0.14    0.04
  -5   2  10    0.21    0.04
   4  -2 -10   27.60    0.59
  -4   2  10   27.17    0.58
   3  -2 -10    7.56    0.22
   3  -2 -10    7.63    0.21
  -3   2  10    7.34    0.21
   2  -2 -10    8.78    0.22
   2  -2 -10    8.55    0.24
  -2   2  10    8.32    0.23
   1  -2 -10   12.31    0.29
   1  -2 -10   12.25    0.33
  -1   2  10   12.89    0.31
   0  -2 -10   15.18    0.33
   0  -2 -10   14.72    0.38
   0   2  10   15.24    0.35
  -1  -2 -10    0.15    0.04
  -1  -2 -10    0.14    0.04
   1   2  10    0.17    0.04
  -2  -2 -10   15.13    0.34
  -2  -2 -10   14.59    0.39
   2   2  10   14.80    0.36
  -3  -2 -10    1.03    0.10
   3   2  10    1.12    0.08
  -4  -2 -10    9.97    0.31
   4   2  10   10.07    0.28
  -5  -2 -10    0.17    0.05
   7  -3 -10    1.19    0.11
  -7   3  10    1.14    0.08
   6  -3 -10    0.61    0.07
  -6   3  10    0.59    0.07
   5  -3 -10    1.93    0.11
  -5   3  10    1.68    0.09
   4  -3 -10    1.65    0.09
  -4   3  10    1.51    0.09
   3  -3 -10    8.96    0.24
  -3   3  10    8.79    0.24
   2  -3 -10    7.32    0.21
   2  -3 -10    7.15    0.20
  -2   3  10    6.72    0.20
   1  -3 -10    6.30    0.18
   1  -3 -10    6.43    0.20
  -1   3  10    6.24    0.19
   0  -3 -10    4.17    0.14
   0  -3 -10    4.09    0.16
   0   3  10    4.19    0.15
  -1  -3 -10    0.48    0.06
   1   3  10    0.35    0.05
  -2  -3 -10    1.33    0.08
   2   3  10    1.33    0.09
   2   3  10    1.38    0.08
  -3  -3 -10   12.68    0.31
   3   3  10   12.57    0.36
   3   3  10   12.94    0.33
   4   3  10   18.40    0.48
   7  -4 -10    0.04    0.04
  -7   4  10    0.05    0.04
   6  -4 -10    0.97    0.09
  -6   4  10    0.84    0.08
   5  -4 -10    0.16    0.05
  -5   4  10    0.25    0.05
   4  -4 -10    3.81    0.15
  -4   4  10    3.81    0.15
   3  -4 -10    1.63    0.09
  -3   4  10    1.46    0.09
   2  -4 -10    2.68    0.11
   2  -4 -10    2.72    0.12
  -2   4  10    2.49    0.11
   1  -4 -10   12.16    0.32
   1  -4 -10   11.94    0.30
  -1   4  10   11.94    0.30
   0  -4 -10    4.20    0.15
   0   4  10    4.00    0.14
   0   4  10    4.14    0.16
  -1  -4 -10    0.43    0.06
   1   4  10    0.50    0.06
   1   4  10    0.40    0.06
  -2  -4 -10   -0.03    0.04
   2   4  10   -0.01    0.03
   2   4  10   -0.01    0.03
  -3  -4 -10   -0.02    0.03
   3   4  10    0.00    0.03
   3   4  10    0.04    0.04
  -4  -4 -10    0.68    0.08
   4   4  10    0.73    0.09
  -7   5  10    0.31    0.06
   6  -5 -10    1.79    0.11
  -6   5  10    2.11    0.12
   5  -5 -10    0.56    0.07
  -5   5  10    0.44    0.06
   4  -5 -10   10.87    0.30
  -4   5  10   10.43    0.29
   3  -5 -10    1.21    0.09
  -3   5  10    1.30    0.09
   2  -5 -10    0.07    0.04
  -2   5  10    0.13    0.04
   1  -5 -10   -0.05    0.03
  -1   5  10    0.00    0.02
  -1   5  10   -0.02    0.02
   0  -5 -10    0.55    0.07
   0   5  10    0.68    0.07
   0   5  10    0.56    0.07
  -1  -5 -10    0.16    0.05
   1   5  10    0.04    0.04
   1   5  10    0.12    0.04
  -2  -5 -10    2.95    0.13
   2   5  10    2.94    0.13
   2   5  10    2.97    0.14
  -3  -5 -10    0.59    0.07
   3   5  10    0.68    0.08
  -4  -5 -10    0.15    0.06
  -6   6  10    0.21    0.05
   5  -6 -10    0.48    0.07
  -5   6  10    0.46    0.07
   4  -6 -10    3.25    0.15
  -4   6  10    3.08    0.14
   3  -6 -10    4.58    0.17
  -3   6  10    4.52    0.17
   2  -6 -10   14.39    0.37
  -2   6  10   14.95    0.37
   1  -6 -10    0.03    0.04
  -1   6  10    0.10    0.04
   0  -6 -10    1.39    0.09
   0   6  10    1.64    0.09
   0   6  10    1.36    0.09
  -1  -6 -10    3.65    0.15
   1   6  10    3.51    0.14
   1   6  10    3.53    0.16
  -2  -6 -10    5.06    0.19
   2   6  10    5.17    0.20
  -3  -6 -10    0.30    0.07
   4  -7 -10    0.41    0.07
  -4   7  10    0.33    0.06
   3  -7 -10    0.72    0.08
  -3   7  10    0.59    0.07
   2  -7 -10    0.03    0.04
  -2   7  10    0.02    0.03
   1  -7 -10    8.94    0.27
   0  -7 -10    0.34    0.06
   0   7  10    0.26    0.05
   0   7  10    0.21    0.05
  -1  -7 -10    0.77    0.08
   1   7  10    0.50    0.07
   2   7  10    0.13    0.05
  -2   8  10    2.97    0.14
  -1   8  10    0.87    0.08
   0   8  10    1.89    0.11
   4   7 -11    3.25    0.18
  -4  -7  11    3.17    0.15
   3   7 -11    0.24    0.06
  -3  -7  11    0.32    0.06
   2   7 -11    5.50    0.23
  -2  -7  11    5.37    0.19
   1   7 -11    0.01    0.04
  -1  -7  11    0.04    0.04
   0   7 -11    1.48    0.13
   0  -7  11    1.44    0.09
  -1   7 -11    0.29    0.06
  -1   7 -11    0.26    0.07
   1  -7  11    0.21    0.05
  -2   7 -11    0.17    0.06
  -2   7 -11    0.10    0.05
   2  -7  11    0.20    0.05
   5   6 -11    0.31    0.07
  -5  -6  11    0.36    0.07
   4   6 -11    0.65    0.09
  -4  -6  11    0.40    0.06
   3   6 -11    2.46    0.15
  -3  -6  11    2.34    0.12
   2   6 -11    4.69    0.20
  -2  -6  11    4.25    0.16
   1   6 -11    1.75    0.12
  -1  -6  11    2.13    0.11
   0   6 -11   -0.02    0.04
   0  -6  11    0.01    0.03
   0  -6  11    0.05    0.03
  -1   6 -11    3.85    0.18
   1  -6  11    3.51    0.14
   1  -6  11    3.47    0.16
  -2   6 -11    0.09    0.05
   2  -6  11    0.09    0.04
   2  -6  11    0.05    0.04
  -3   6 -11   -0.01    0.04
   3  -6  11    0.08    0.04
   6   5 -11    6.85    0.26
  -6  -5  11    6.79    0.23
   5   5 -11    4.25    0.19
  -5  -5  11    3.90    0.16
   4   5 -11    0.03    0.04
  -4  -5  11    0.06    0.04
   3   5 -11    0.15    0.06
  -3  -5  11    0.14    0.05
   2   5 -11    1.02    0.10
  -2  -5  11    1.31    0.08
   1   5 -11    2.61    0.14
  -1  -5  11    2.44    0.11
  -1  -5  11    2.42    0.11
   0   5 -11    0.75    0.09
   0  -5  11    0.78    0.07
   0  -5  11    0.71    0.07
  -1   5 -11   12.12    0.36
   1  -5  11   11.77    0.31
   1  -5  11   11.58    0.32
  -2   5 -11    1.99    0.13
   2  -5  11    1.82    0.11
   2  -5  11    1.69    0.10
  -3   5 -11    0.42    0.07
   3  -5  11    0.38    0.07
  -7  -4  11    0.32    0.07
   6   4 -11    0.06    0.05
  -6  -4  11   -0.02    0.04
   5   4 -11    2.04    0.13
  -5  -4  11    1.95    0.11
   4   4 -11    1.52    0.11
  -4  -4  11    1.11    0.09
   3   4 -11    0.26    0.06
  -3  -4  11    0.25    0.05
   2   4 -11    0.25    0.06
  -2  -4  11    0.24    0.04
  -2  -4  11    0.18    0.04
   1   4 -11    0.79    0.09
  -1  -4  11    0.70    0.06
  -1  -4  11    0.68    0.07
   0   4 -11    2.87    0.14
   0  -4  11    2.71    0.12
   0  -4  11    3.12    0.12
  -1   4 -11    3.02    0.15
   1  -4  11    3.01    0.14
   1  -4  11    3.49    0.13
  -2   4 -11    2.15    0.13
   2  -4  11    2.19    0.12
  -3   4 -11    8.61    0.29
   3  -4  11    8.48    0.27
  -4   4 -11    1.76    0.12
   4  -4  11    1.88    0.12
  -7  -3  11    1.64    0.11
  -6  -3  11   -0.03    0.04
   5   3 -11    3.27    0.16
  -5  -3  11    3.31    0.13
   4   3 -11    2.34    0.13
  -4  -3  11    2.63    0.12
   3   3 -11   10.50    0.32
  -3  -3  11   10.77    0.27
  -3  -3  11   10.81    0.27
   2   3 -11   26.66    0.65
  -2  -3  11   27.47    0.58
  -2  -3  11   28.20    0.58
   1   3 -11    2.93    0.14
  -1  -3  11    2.98    0.12
  -1  -3  11    2.98    0.11
   0   3 -11    0.64    0.08
   0  -3  11    0.64    0.07
   0  -3  11    0.56    0.05
  -1   3 -11    0.01    0.04
   1  -3  11    0.03    0.03
  -2   3 -11    0.17    0.05
   2  -3  11    0.18    0.05
  -3   3 -11    0.65    0.08
   3  -3  11    0.84    0.09
  -4   3 -11    3.27    0.16
   4  -3  11    3.00    0.15
   7   2 -11    1.35    0.10
  -7  -2  11    1.31    0.10
  -6  -2  11    0.41    0.06
   5   2 -11    7.26    0.23
  -5  -2  11    6.46    0.20
   4   2 -11    2.77    0.14
  -4  -2  11    2.86    0.12
   3   2 -11    3.28    0.15
  -3  -2  11    3.14    0.12
  -3  -2  11    3.08    0.12
   2   2 -11    0.90    0.09
  -2  -2  11    0.87    0.06
  -2  -2  11    0.90    0.06
   1   2 -11   24.08    0.59
  -1  -2  11   25.08    0.53
   0   2 -11    5.09    0.19
   0  -2  11    5.60    0.18
  -1   2 -11    6.80    0.23
   1  -2  11    6.42    0.20
  -2   2 -11    0.05    0.04
   2  -2  11    0.08    0.04
  -3   2 -11    0.11    0.05
   3  -2  11    0.06    0.04
  -4   2 -11    0.20    0.06
   4  -2  11    0.31    0.06
   8   1 -11    0.89    0.09
  -8  -1  11    1.00    0.10
   7   1 -11    0.97    0.09
  -7  -1  11    1.06    0.09
   6   1 -11    4.13    0.16
  -6  -1  11    3.79    0.15
   5   1 -11    0.37    0.05
  -5  -1  11    0.40    0.05
   4   1 -11    2.55    0.13
  -4  -1  11    2.72    0.11
  -4  -1  11    2.72    0.11
   3   1 -11   20.40    0.50
  -3  -1  11   20.91    0.45
   2   1 -11    3.00    0.14
  -2  -1  11    3.02    0.12
   1   1 -11    0.01    0.03
  -1  -1  11    0.02    0.03
   0   1 -11    2.16    0.12
   0  -1  11    1.84    0.10
  -1   1 -11    0.73    0.08
   1  -1  11    0.56    0.06
  -2   1 -11    4.09    0.17
   2  -1  11    4.10    0.16
  -3   1 -11    0.70    0.08
   3  -1  11    0.64    0.07
  -4   1 -11    0.04    0.04
   4  -1  11    0.01    0.04
  -5   1 -11    0.05    0.05
   5  -1  11    0.01    0.04
   8   0 -11    4.62    0.19
  -8   0  11    4.82    0.19
   7   0 -11    1.34    0.10
  -7   0  11    1.45    0.10
   6   0 -11    0.02    0.03
  -6   0  11   -0.01    0.03
   5   0 -11    6.47    0.20
  -5   0  11    6.55    0.19
   4   0 -11   40.76    0.88
   4   0 -11   40.60    0.82
  -4   0  11   40.65    0.82
   3   0 -11   14.57    0.33
   3   0 -11   14.05    0.37
  -3   0  11   14.48    0.34
   2   0 -11    1.03    0.08
  -2   0  11    1.03    0.07
   1   0 -11   11.24    0.31
  -1   0  11   11.04    0.28
   0   0 -11    0.37    0.06
   0   0  11    0.41    0.05
  -1   0 -11    0.76    0.08
   1   0  11    0.96    0.07
  -2   0 -11    5.85    0.21
   2   0  11    5.91    0.20
  -3   0 -11    0.99    0.10
   3   0  11    0.89    0.08
  -4   0 -11    0.29    0.06
   4   0  11    0.40    0.06
  -5   0 -11   -0.03    0.04
   5   0  11    0.07    0.04
   7  -1 -11    1.43    0.10
   6  -1 -11    2.01    0.11
   5  -1 -11    0.86    0.08
  -5   1  11    0.91    0.07
   4  -1 -11    0.29    0.05
  -4   1  11    0.38    0.05
   3  -1 -11   10.28    0.28
   3  -1 -11   10.00    0.26
  -3   1  11   10.27    0.26
   2  -1 -11    0.56    0.07
   2  -1 -11    0.59    0.06
  -2   1  11    0.70    0.07
   1  -1 -11    4.97    0.18
   1  -1 -11    5.30    0.15
  -1   1  11    5.04    0.17
   0  -1 -11    0.05    0.04
   0   1  11    0.02    0.02
  -1  -1 -11    1.68    0.11
   1   1  11    1.75    0.10
  -2  -1 -11    2.63    0.14
   2   1  11    2.48    0.12
  -3  -1 -11   11.20    0.34
   3   1  11   10.78    0.30
  -4  -1 -11    0.36    0.07
   5   1  11    0.14    0.05
   7  -2 -11    0.66    0.08
   6  -2 -11    0.10    0.04
  -6   2  11    0.11    0.04
   5  -2 -11    6.61    0.21
  -5   2  11    7.21    0.21
   4  -2 -11    7.75    0.22
  -4   2  11    7.43    0.22
   3  -2 -11   27.83    0.59
   3  -2 -11   28.23    0.63
  -3   2  11   27.67    0.59
   2  -2 -11    1.12    0.08
   2  -2 -11    1.26    0.07
  -2   2  11    1.17    0.07
   1  -2 -11    3.54    0.12
   1  -2 -11    3.42    0.14
  -1   2  11    3.59    0.14
   0  -2 -11    0.56    0.07
   0  -2 -11    0.56    0.06
   0   2  11    0.58    0.06
  -1  -2 -11   -0.01    0.03
   1   2  11    0.01    0.03
  -2  -2 -11    0.00    0.03
   2   2  11    0.05    0.03
  -3  -2 -11    0.20    0.05
   3   2  11    0.18    0.05
  -4  -2 -11    1.43    0.11
   4   2  11    1.27    0.09
   7  -3 -11    0.40    0.07
  -7   3  11    0.32    0.05
   6  -3 -11   -0.02    0.03
  -6   3  11    0.01    0.03
   5  -3 -11    0.00    0.03
  -5   3  11    0.00    0.03
   4  -3 -11   11.28    0.30
  -4   3  11   11.29    0.30
   3  -3 -11   17.66    0.41
  -3   3  11   17.47    0.41
   2  -3 -11    1.45    0.09
   2  -3 -11    1.45    0.09
  -2   3  11    1.53    0.09
   1  -3 -11   -0.01    0.03
   1  -3 -11   -0.01    0.03
  -1   3  11   -0.01    0.02
   0  -3 -11    0.50    0.07
   0  -3 -11    0.60    0.06
   0   3  11    0.47    0.06
  -1  -3 -11   17.45    0.39
  -1  -3 -11   16.48    0.44
   1   3  11   17.13    0.40
  -2  -3 -11    0.15    0.05
  -2  -3 -11    0.16    0.05
   2   3  11    0.09    0.04
  -3  -3 -11    0.00    0.03
   3   3  11   -0.02    0.03
  -4  -3 -11    3.44    0.17
  -7   4  11    0.02    0.03
   6  -4 -11    0.36    0.06
  -6   4  11    0.53    0.07
   5  -4 -11    1.64    0.10
  -5   4  11    1.60    0.10
   4  -4 -11    0.07    0.04
  -4   4  11   -0.02    0.03
   3  -4 -11   28.80    0.62
  -3   4  11   29.37    0.63
   2  -4 -11   20.90    0.50
   2  -4 -11   20.45    0.46
  -2   4  11   20.47    0.47
   1  -4 -11    2.68    0.13
   1  -4 -11    2.59    0.12
  -1   4  11    2.70    0.12
   0  -4 -11    3.68    0.14
   0  -4 -11    3.58    0.16
   0   4  11    3.49    0.14
  -1  -4 -11    0.05    0.04
   1   4  11    0.10    0.04
  -2  -4 -11    0.48    0.07
   2   4  11    0.35    0.06
   2   4  11    0.45    0.07
  -3  -4 -11    0.97    0.09
   3   4  11    1.02    0.09
   3   4  11    0.92    0.10
   6  -5 -11    0.72    0.08
  -6   5  11    0.60    0.08
   5  -5 -11    0.27    0.06
  -5   5  11    0.33    0.06
   4  -5 -11    0.11    0.04
  -4   5  11   -0.01    0.03
   3  -5 -11   13.68    0.35
  -3   5  11   13.58    0.35
   2  -5 -11    1.11    0.09
  -2   5  11    1.12    0.08
   1  -5 -11    4.22    0.17
   1  -5 -11    3.79    0.15
  -1   5  11    3.81    0.15
   0  -5 -11    0.98    0.08
   0   5  11    0.88    0.08
   0   5  11    0.97    0.08
  -1  -5 -11    3.32    0.14
   1   5  11    3.51    0.16
   1   5  11    3.40    0.14
  -2  -5 -11    0.17    0.05
   2   5  11    0.17    0.05
   2   5  11    0.09    0.04
  -3  -5 -11    0.80    0.09
   5  -6 -11    6.03    0.22
  -5   6  11    5.98    0.21
   4  -6 -11    0.09    0.04
  -4   6  11    0.14    0.04
   3  -6 -11    3.88    0.16
  -3   6  11    3.83    0.16
   2  -6 -11    0.20    0.05
  -2   6  11    0.23    0.05
   1  -6 -11    3.66    0.15
  -1   6  11    3.42    0.15
   0  -6 -11    0.37    0.06
   0   6  11    0.40    0.06
   0   6  11    0.29    0.05
  -1  -6 -11    2.41    0.13
   1   6  11    2.30    0.13
   1   6  11    2.46    0.12
  -2  -6 -11    2.80    0.14
   2   6  11    2.74    0.15
   3  -7 -11    0.05    0.04
  -3   7  11   -0.02    0.04
   2  -7 -11    4.70    0.18
  -2   7  11    4.49    0.18
   1  -7 -11    0.00    0.04
  -1   7  11    0.03    0.04
   0  -7 -11    0.02    0.04
   0   7  11   -0.01    0.03
   1   7  11    0.14    0.05
  -2  -7  12    3.53    0.15
   1   7 -12    2.58    0.16
  -1  -7  12    2.60    0.13
   0  -7  12    0.03    0.03
   4   6 -12    0.62    0.10
  -4  -6  12    0.82    0.09
   3   6 -12    0.22    0.07
  -3  -6  12    0.30    0.06
   2   6 -12    0.50    0.08
  -2  -6  12    0.54    0.07
   1   6 -12    0.02    0.04
  -1  -6  12    0.09    0.04
   0   6 -12    0.41    0.08
   0  -6  12    0.25    0.05
   0  -6  12    0.20    0.05
  -1   6 -12    0.35    0.08
   1  -6  12    0.34    0.06
   1  -6  12    0.34    0.06
  -2   6 -12    0.28    0.07
   2  -6  12    0.41    0.06
   5   5 -12    0.41    0.08
  -5  -5  12    0.35    0.07
   4   5 -12    0.12    0.05
  -4  -5  12    0.10    0.05
   3   5 -12    4.45    0.20
  -3  -5  12    4.26    0.16
   2   5 -12    0.00    0.04
  -2  -5  12    0.09    0.04
   1   5 -12    1.39    0.11
  -1  -5  12    1.59    0.09
  -1  -5  12    1.60    0.10
   0   5 -12    0.04    0.04
   0  -5  12    0.07    0.03
   0  -5  12    0.04    0.03
  -1   5 -12    0.15    0.05
   1  -5  12    0.12    0.04
  -2   5 -12    3.18    0.17
   2  -5  12    2.66    0.14
   6   4 -12    7.25    0.27
  -6  -4  12    7.59    0.24
   5   4 -12    1.61    0.12
  -5  -4  12    1.55    0.10
   4   4 -12    0.46    0.07
  -4  -4  12    0.37    0.06
   3   4 -12    2.07    0.13
  -3  -4  12    2.25    0.11
   2   4 -12    0.18    0.05
  -2  -4  12    0.19    0.04
  -2  -4  12    0.11    0.04
   1   4 -12    3.26    0.16
  -1  -4  12    3.11    0.13
  -1  -4  12    3.22    0.12
   0   4 -12    0.69    0.09
   0  -4  12    0.82    0.08
  -1   4 -12    0.54    0.08
   1  -4  12    0.62    0.07
  -2   4 -12    1.32    0.11
   2  -4  12    1.29    0.11
  -3   4 -12    0.73    0.09
   3  -4  12    0.61    0.08
  -7  -3  12    1.40    0.10
  -6  -3  12    6.24    0.21
   5   3 -12    6.68    0.24
  -5  -3  12    6.87    0.21
   4   3 -12    0.06    0.05
  -4  -3  12    0.00    0.04
   3   3 -12   10.69    0.33
  -3  -3  12   11.06    0.28
  -3  -3  12   11.25    0.28
   2   3 -12   12.40    0.37
  -2  -3  12   13.16    0.32
   1   3 -12    4.47    0.19
  -1  -3  12    4.41    0.16
   0   3 -12   12.65    0.37
   0  -3  12   12.62    0.33
  -1   3 -12    1.68    0.11
   1  -3  12    1.60    0.10
  -2   3 -12    0.92    0.10
   2  -3  12    0.83    0.09
  -3   3 -12    0.47    0.08
   3  -3  12    0.38    0.07
  -7  -2  12    0.07    0.05
  -6  -2  12   -0.06    0.04
   5   2 -12   14.29    0.40
  -5  -2  12   14.65    0.36
   4   2 -12    0.54    0.07
  -4  -2  12    0.54    0.06
   3   2 -12    3.54    0.16
  -3  -2  12    3.65    0.13
   2   2 -12   15.58    0.42
  -2  -2  12   16.02    0.38
   1   2 -12    1.12    0.10
  -1  -2  12    1.14    0.08
   0   2 -12    0.15    0.05
   0  -2  12    0.17    0.04
  -1   2 -12    0.24    0.06
   1  -2  12    0.13    0.04
  -2   2 -12    0.12    0.05
   2  -2  12    0.07    0.04
  -3   2 -12    0.28    0.07
   3  -2  12    0.30    0.06
  -4   2 -12    3.35    0.17
   7   1 -12    0.76    0.08
  -7  -1  12    0.67    0.08
  -6  -1  12   -0.01    0.04
   4   1 -12    2.97    0.14
  -4  -1  12    2.98    0.12
   3   1 -12    0.74    0.08
  -3  -1  12    0.64    0.06
   2   1 -12    3.93    0.17
  -2  -1  12    4.08    0.14
   1   1 -12    2.25    0.12
  -1  -1  12    2.37    0.11
   0   1 -12    1.28    0.10
   0  -1  12    1.29    0.08
  -1   1 -12    6.82    0.24
   1  -1  12    6.47    0.21
  -2   1 -12    0.24    0.06
   2  -1  12    0.21    0.05
  -3   1 -12    3.17    0.16
   3  -1  12    3.00    0.15
  -4   1 -12    0.96    0.10
   4  -1  12    1.02    0.10
   7   0 -12    2.38    0.13
   6   0 -12    0.09    0.04
   5   0 -12    0.21    0.05
  -5   0  12    0.13    0.04
   4   0 -12    1.72    0.10
  -4   0  12    1.54    0.09
   3   0 -12    0.27    0.05
  -3   0  12    0.33    0.05
   2   0 -12    0.55    0.07
  -2   0  12    0.41    0.05
   1   0 -12    0.24    0.05
  -1   0  12    0.23    0.04
   0   0 -12    0.13    0.04
   0   0  12    0.17    0.04
  -1   0 -12    0.59    0.08
   1   0  12    0.54    0.06
  -2   0 -12    0.03    0.04
   2   0  12   -0.01    0.03
  -3   0 -12    0.00    0.04
   3   0  12    0.03    0.03
  -4   0 -12    2.20    0.14
   4   0  12    2.60    0.14
   7  -1 -12    8.72    0.28
   6  -1 -12    2.97    0.14
   5  -1 -12    0.85    0.08
  -5   1  12    0.70    0.07
   4  -1 -12    7.09    0.22
  -4   1  12    7.43    0.22
   3  -1 -12    3.72    0.15
   3  -1 -12    3.68    0.14
  -3   1  12    3.55    0.14
   2  -1 -12    0.16    0.04
  -2   1  12    0.14    0.04
   1  -1 -12    0.31    0.06
  -1   1  12    0.33    0.05
   0  -1 -12    0.07    0.04
   0   1  12    0.08    0.04
  -1  -1 -12    7.22    0.25
   1   1  12    7.31    0.23
  -2  -1 -12    1.10    0.11
   2   1  12    1.13    0.10
  -3  -1 -12   -0.03    0.04
   3   1  12    0.04    0.04
  -4  -1 -12    0.04    0.04
   4   1  12    0.00    0.04
   7  -2 -12    2.63    0.14
   6  -2 -12    1.79    0.11
  -6   2  12    1.92    0.10
   5  -2 -12    1.16    0.10
  -5   2  12    1.13    0.08
   4  -2 -12    0.25    0.05
  -4   2  12    0.24    0.05
   3  -2 -12    2.20    0.11
  -3   2  12    2.22    0.11
   2  -2 -12    0.96    0.07
   2  -2 -12    1.04    0.08
  -2   2  12    1.05    0.08
   1  -2 -12   10.00    0.29
   1  -2 -12    9.78    0.25
  -1   2  12    9.46    0.27
   0  -2 -12    6.06    0.22
   0   2  12    5.85    0.19
  -1  -2 -12    3.93    0.17
   1   2  12    3.74    0.15
  -2  -2 -12    0.64    0.08
   2   2  12    0.84    0.08
  -3  -2 -12    0.02    0.04
   3   2  12    0.00    0.03
   4   2  12    1.50    0.10
   6  -3 -12    1.69    0.11
  -6   3  12    1.67    0.10
   5  -3 -12    0.05    0.04
  -5   3  12   -0.03    0.02
   4  -3 -12    0.57    0.07
  -4   3  12    0.65    0.07
   3  -3 -12    0.74    0.08
  -3   3  12    0.79    0.08
   2  -3 -12    1.09    0.08
   2  -3 -12    0.99    0.09
  -2   3  12    1.01    0.08
   1  -3 -12    1.22    0.09
   1  -3 -12    1.36    0.08
  -1   3  12    1.31    0.09
   0  -3 -12    0.54    0.06
   0  -3 -12    0.62    0.08
   0   3  12    0.47    0.06
  -1  -3 -12    1.91    0.12
   1   3  12    2.03    0.11
  -2  -3 -12    0.45    0.07
   2   3  12    0.45    0.06
  -3  -3 -12    0.19    0.06
   3   3  12    0.21    0.05
   6  -4 -12    2.99    0.15
  -6   4  12    3.26    0.15
   5  -4 -12    0.41    0.06
  -5   4  12    0.36    0.06
   4  -4 -12    0.06    0.04
  -4   4  12    0.00    0.03
   3  -4 -12    0.05    0.04
  -3   4  12    0.03    0.03
   2  -4 -12    0.57    0.07
  -2   4  12    0.48    0.06
   1  -4 -12   -0.01    0.03
   1  -4 -12    0.04    0.03
  -1   4  12   -0.03    0.03
   0  -4 -12    0.07    0.04
   0  -4 -12    0.09    0.04
   0   4  12    0.09    0.04
  -1  -4 -12    0.33    0.06
  -1  -4 -12    0.22    0.05
   1   4  12    0.18    0.05
  -2  -4 -12    0.38    0.07
  -2  -4 -12    0.33    0.06
   2   4  12    0.34    0.06
   5  -5 -12    4.78    0.19
  -5   5  12    4.95    0.19
   4  -5 -12    0.23    0.05
  -4   5  12    0.12    0.04
   3  -5 -12    9.35    0.27
  -3   5  12    9.44    0.27
   2  -5 -12    5.78    0.20
  -2   5  12    5.46    0.19
   1  -5 -12    0.44    0.06
   1  -5 -12    0.42    0.07
  -1   5  12    0.41    0.06
   0  -5 -12    2.35    0.12
   0  -5 -12    2.29    0.13
   0   5  12    2.28    0.12
  -1  -5 -12    0.03    0.04
   1   5  12    0.05    0.03
  -2  -5 -12    1.10    0.10
   2   5  12    1.22    0.09
   3  -6 -12    0.66    0.08
  -3   6  12    0.48    0.07
   2  -6 -12    0.08    0.04
  -2   6  12   -0.02    0.03
   1  -6 -12    0.10    0.04
  -1   6  12    0.08    0.04
   0  -6 -12    0.46    0.07
   0   6  12    0.40    0.06
   1   6  12    0.20    0.05
   1   6  12    0.25    0.05
  -3  -6  13    0.15    0.05
  -2  -6  13    0.94    0.09
  -1  -6  13    0.05    0.04
   0  -6  13    1.85    0.12
   0  -6  13    2.08    0.11
  -5  -5  13    6.71    0.23
   4   5 -13    8.54    0.31
  -4  -5  13    8.45    0.26
   3   5 -13    0.87    0.10
  -3  -5  13    0.88    0.08
   2   5 -13    0.23    0.06
  -2  -5  13    0.24    0.05
   1   5 -13    2.31    0.15
  -1  -5  13    2.14    0.12
   0   5 -13    0.02    0.04
   0  -5  13    0.23    0.05
  -1   5 -13    0.43    0.08
   1  -5  13    0.53    0.08
   5   4 -13    0.11    0.06
  -5  -4  13    0.05    0.05
   4   4 -13    1.59    0.12
  -4  -4  13    1.59    0.10
   3   4 -13    0.06    0.05
  -3  -4  13    0.07    0.04
   2   4 -13    1.39    0.13
  -2  -4  13    1.57    0.09
   1   4 -13    6.96    0.26
  -1  -4  13    7.13    0.23
   0   4 -13    1.91    0.13
   0  -4  13    1.83    0.11
  -1   4 -13    1.00    0.11
   1  -4  13    0.79    0.09
  -2   4 -13    2.23    0.14
   2  -4  13    1.93    0.13
  -6  -3  13    1.05    0.10
   5   3 -13    1.33    0.11
  -5  -3  13    1.33    0.09
   4   3 -13    0.90    0.10
   3   3 -13    0.03    0.04
   2   3 -13    4.28    0.19
  -2  -3  13    4.78    0.17
   1   3 -13    6.33    0.24
  -1  -3  13    5.77    0.20
   0   3 -13    3.08    0.16
   0  -3  13    3.19    0.14
  -1   3 -13    0.38    0.07
   1  -3  13    0.31    0.06
  -2   3 -13    0.81    0.10
   2  -3  13    0.88    0.09
   4   2 -13    0.25    0.06
   3   2 -13    4.67    0.19
  -3  -2  13    4.70    0.16
   2   2 -13    3.94    0.18
  -2  -2  13    3.49    0.14
   1   2 -13    2.83    0.15
  -1  -2  13    2.65    0.12
   0   2 -13    8.73    0.29
   0  -2  13    8.80    0.26
  -1   2 -13    0.04    0.05
   1  -2  13    0.08    0.04
  -2   2 -13    0.94    0.10
   2  -2  13    0.81    0.09
  -3   2 -13    2.34    0.15
   4   1 -13    0.35    0.06
  -4  -1  13    0.34    0.05
   3   1 -13    2.90    0.14
  -3  -1  13    2.80    0.12
   2   1 -13    3.06    0.15
  -2  -1  13    2.95    0.13
   1   1 -13    3.43    0.16
  -1  -1  13    2.99    0.13
   0   1 -13    6.43    0.23
   0  -1  13    6.30    0.21
  -1   1 -13    6.01    0.23
   1  -1  13    6.33    0.21
  -2   1 -13    0.69    0.09
   2  -1  13    0.66    0.08
  -3   1 -13    3.64    0.18
   3  -1  13    3.62    0.17
   7   0 -13    0.74    0.09
  -4   0  13    0.26    0.05
   3   0 -13   21.34    0.54
  -3   0  13   22.20    0.49
   2   0 -13    1.98    0.12
  -2   0  13    2.03    0.10
   1   0 -13    6.25    0.22
  -1   0  13    5.99    0.20
   0   0 -13    1.13    0.11
   0   0  13    1.14    0.08
  -1   0 -13   -0.01    0.03
   1   0  13    0.02    0.03
  -2   0 -13    0.66    0.09
   2   0  13    0.68    0.08
  -3   0 -13    0.03    0.04
   3   0  13    0.01    0.03
   6  -1 -13    1.90    0.12
   5  -1 -13    2.06    0.11
  -5   1  13    1.95    0.10
  -4   1  13    0.73    0.07
   3  -1 -13    8.51    0.27
  -3   1  13    8.49    0.25
   2  -1 -13    7.30    0.25
  -2   1  13    7.54    0.23
   1  -1 -13    0.57    0.08
  -1   1  13    0.58    0.07
   0  -1 -13    0.49    0.07
   0   1  13    0.49    0.06
  -1  -1 -13    0.71    0.09
   1   1  13    0.66    0.07
  -2  -1 -13    1.00    0.11
   2   1  13    0.96    0.09
   3   1  13    0.54    0.07
   6  -2 -13    0.03    0.04
  -6   2  13    0.02    0.04
   5  -2 -13    1.79    0.11
  -5   2  13    1.65    0.10
   4  -2 -13    4.08    0.16
  -4   2  13    3.92    0.15
   3  -2 -13    1.49    0.09
  -3   2  13    1.23    0.08
   2  -2 -13    1.09    0.09
  -2   2  13    1.15    0.08
   1  -2 -13    0.17    0.05
  -1   2  13    0.26    0.05
   0  -2 -13    6.07    0.23
   0   2  13    5.87    0.20
  -1  -2 -13    0.72    0.09
   1   2  13    0.64    0.08
  -2  -2 -13    5.12    0.22
   2   2  13    4.83    0.19
   3   2  13    0.09    0.04
   6  -3 -13    0.32    0.06
  -6   3  13    0.34    0.06
   5  -3 -13    0.33    0.06
  -5   3  13    0.26    0.05
   4  -3 -13    0.91    0.09
  -4   3  13    0.88    0.08
   3  -3 -13    0.27    0.05
  -3   3  13    0.30    0.05
   2  -3 -13   14.36    0.36
   2  -3 -13   14.84    0.39
  -2   3  13   14.58    0.37
   1  -3 -13    1.18    0.11
   1  -3 -13    1.19    0.08
  -1   3  13    1.02    0.09
   0  -3 -13    0.34    0.07
   0   3  13    0.38    0.06
  -1  -3 -13    0.10    0.05
   1   3  13   -0.03    0.03
  -2  -3 -13   -0.04    0.04
   2   3  13   -0.01    0.03
   5  -4 -13   -0.01    0.03
  -5   4  13    0.02    0.04
   4  -4 -13    0.02    0.04
  -4   4  13    0.07    0.04
   3  -4 -13    2.01    0.11
  -3   4  13    1.97    0.11
   2  -4 -13    8.51    0.25
  -2   4  13    8.27    0.25
   1  -4 -13    2.55    0.12
   1  -4 -13    2.37    0.13
  -1   4  13    2.31    0.12
   0  -4 -13    0.65    0.09
   0  -4 -13    0.61    0.07
   0   4  13    0.70    0.08
  -1  -4 -13    0.79    0.10
   1   4  13    0.84    0.08
   4  -5 -13    0.01    0.03
   3  -5 -13   10.23    0.30
   2  -5 -13   16.84    0.42
  -2   5  13   17.46    0.43
   1  -5 -13    9.72    0.28
  -1   5  13    9.65    0.29
   0  -5 -13    1.15    0.11
   0  -5 -13    1.06    0.09
   0   5  13    1.37    0.10
  -1  -5  14    1.87    0.11
   4   4 -14    2.47    0.15
   3   4 -14    0.14    0.06
   2   4 -14    5.54    0.24
   1   4 -14    0.31    0.07
  -1  -4  14    0.22    0.05
   0   4 -14    0.39    0.08
   0  -4  14    0.36    0.06
   5   3 -14    1.77    0.13
   4   3 -14    1.59    0.12
   3   3 -14    0.85    0.10
   2   3 -14    0.88    0.10
  -2  -3  14    0.78    0.08
   1   3 -14    0.90    0.11
  -1  -3  14    0.95    0.09
   0   3 -14    0.31    0.07
   0  -3  14    0.15    0.05
  -1   3 -14    0.39    0.08
   1  -3  14    0.47    0.07
   4   2 -14    3.39    0.17
   3   2 -14    6.11    0.23
  -3  -2  14    5.89    0.20
   2   2 -14    0.83    0.10
  -2  -2  14    0.72    0.07
   1   2 -14   33.57    0.80
  -1  -2  14   32.99    0.72
   0   2 -14    0.22    0.06
   0  -2  14    0.25    0.05
  -1   2 -14    0.02    0.05
   1  -2  14   -0.02    0.03
   4   1 -14    0.01    0.04
  -4  -1  14    0.13    0.04
   3   1 -14    0.33    0.06
  -3  -1  14    0.31    0.05
   2   1 -14    0.00    0.04
  -2  -1  14    0.04    0.03
   1   1 -14    0.26    0.06
  -1  -1  14    0.26    0.05
   0   1 -14    0.95    0.10
   0  -1  14    0.91    0.09
  -1   1 -14    0.60    0.09
   1  -1  14    0.53    0.07
  -4   0  14    0.04    0.03
   3   0 -14    4.53    0.19
  -3   0  14    4.74    0.17
   2   0 -14   -0.01    0.04
  -2   0  14    0.02    0.03
   1   0 -14    0.76    0.09
  -1   0  14    0.68    0.08
   0   0 -14    0.54    0.08
   0   0  14    0.52    0.07
  -1   0 -14    0.02    0.04
   1   0  14    0.06    0.04
  -5   1  14    4.77    0.18
  -4   1  14    0.00    0.03
   3  -1 -14    2.74    0.14
  -3   1  14    2.53    0.12
   2  -1 -14    0.80    0.09
  -2   1  14    0.65    0.07
  -1   1  14    0.20    0.05
   0  -1 -14    2.22    0.13
   0   1  14    2.29    0.12
  -1  -1 -14    0.25    0.06
   1   1  14    0.27    0.05
   5  -2 -14    0.03    0.04
  -5   2  14   -0.01    0.03
  -4   2  14    0.16    0.05
  -3   2  14    3.40    0.15
   2  -2 -14    1.48    0.10
  -2   2  14    1.43    0.10
   1  -2 -14    0.63    0.08
  -1   2  14    0.64    0.08
   0  -2 -14    4.13    0.19
   0   2  14    4.29    0.17
  -1  -2 -14    2.51    0.15
   1   2  14    2.64    0.14
   5  -3 -14    0.54    0.08
  -5   3  14    0.42    0.06
   4  -3 -14    0.04    0.04
  -4   3  14   -0.03    0.03
   3  -3 -14    0.54    0.07
  -3   3  14    0.48    0.07
  -2   3  14    0.56    0.07
   1  -3 -14    1.83    0.12
  -1   3  14    1.64    0.10
   0  -3 -14    3.56    0.18
   4  -4 -14    0.07    0.04
   3  -4 -14    3.39    0.15
   2  -4 -14    1.70    0.10
   1  -4 -14    0.06    0.05
   3   3 -15    4.36    0.21
  -2  -3  15    1.43    0.10
  -1  -3  15    0.98    0.10
   4   2 -15    0.03    0.05
   3   2 -15    0.15    0.06
  -3  -2  15    0.23    0.05
   2   2 -15    0.77    0.10
  -2  -2  15    0.66    0.08
   1   2 -15    0.05    0.05
  -1  -2  15    0.01    0.04
  -4  -1  15    4.20    0.16
   3   1 -15    0.13    0.05
  -3  -1  15   -0.03    0.03
   2   1 -15    0.38    0.07
  -2  -1  15    0.41    0.06
   1   1 -15    0.38    0.07
  -1  -1  15    0.41    0.06
  -4   0  15    2.13    0.12
   3   0 -15    3.33    0.17
  -3   0  15    2.89    0.14
   2   0 -15    2.22    0.14
  -2   0  15    1.86    0.11
   1   0 -15    4.28    0.20
  -1   0  15    3.99    0.17
  -4   1  15    0.15    0.05
  -3   1  15    0.00    0.03
   2  -1 -15    1.37    0.11
  -2   1  15    1.30    0.09
   1  -1 -15    0.08    0.05
  -1   1  15    0.08    0.04
  -3   2  15    0.34    0.06
   2  -2 -15    1.11    0.11
   1  -2 -15   -0.01    0.04
   0   0   0    0.00    0.00
;
_shelx_hkl_checksum              1367
loop_
_space_group_symop_operation_xyz
'x, y, z'
'-x, -y, -z'
loop_
_atom_site_label
_atom_site_type_symbol
_atom_site_fract_x
_atom_site_fract_y
_atom_site_fract_z
_atom_site_U_iso_or_equiv
_atom_site_adp_type
_atom_site_occupancy
_atom_site_site_symmetry_order
_atom_site_calc_flag
_atom_site_refinement_flags_posn
_atom_site_refinement_flags_adp
N1 N -0.39056(16) -0.19924(13) 0.49851(10) 0.0151(2) Uani 1 1 d . .
C1 C -0.43065(18) -0.03725(16) 0.47941(11) 0.0139(3) Uani 1 1 d . .
C2 C -0.30273(18) 0.03023(16) 0.41152(11) 0.0142(3) Uani 1 1 d . .
C3 C -0.28412(19) 0.17831(16) 0.36343(11) 0.0151(3) Uani 1 1 d . .
H1 H -0.364(2) 0.265(2) 0.3714(13) 0.017(4) Uiso 1 1 d . .
C4 C -0.14729(19) 0.19724(16) 0.29995(11) 0.0159(3) Uani 1 1 d . .
C5 C -0.02645(19) 0.07227(17) 0.28495(11) 0.0162(3) Uani 1 1 d . .
C6 C -0.04241(19) -0.07453(17) 0.33347(11) 0.0156(3) Uani 1 1 d . .
H2 H 0.040(2) -0.155(2) 0.3255(13) 0.015(4) Uiso 1 1 d . .
C7 C -0.18367(18) -0.09253(16) 0.39506(11) 0.0146(3) Uani 1 1 d . .
C8 C -0.24457(18) -0.23143(16) 0.45187(11) 0.0148(3) Uani 1 1 d . .
N2 N -0.16550(18) -0.37425(15) 0.45450(11) 0.0186(3) Uani 1 1 d . .
H3 H -0.208(3) -0.452(2) 0.4920(17) 0.034(5) Uiso 1 1 d . .
O1 O -0.12541(14) 0.34627(11) 0.25564(8) 0.0186(2) Uani 1 1 d . .
C9 C -0.1586(2) 0.34976(18) 0.13341(12) 0.0222(3) Uani 1 1 d . .
H4 H -0.049(3) 0.323(2) 0.1054(15) 0.024(4) Uiso 1 1 d . .
C10 C -0.2093(2) 0.51674(18) 0.10055(13) 0.0220(3) Uani 1 1 d . .
H5 H 0.146(2) -0.118(2) 0.1692(14) 0.021(4) Uiso 1 1 d . .
H6 H -0.262(3) 0.277(2) 0.0965(16) 0.031(5) Uiso 1 1 d . .
H7 H 0.466(3) 0.517(3) 0.3251(19) 0.052(6) Uiso 1 1 d . .
H8 H -0.074(3) -0.390(2) 0.4206(15) 0.026(4) Uiso 1 1 d . .
F1 F -0.36816(15) 0.56229(14) 0.12847(9) 0.0452(3) Uani 1 1 d . .
F2 F -0.07352(15) 0.62485(11) 0.15012(9) 0.0362(3) Uani 1 1 d . .
F3 F -0.23204(14) 0.52912(12) -0.01363(8) 0.0329(2) Uani 1 1 d . .
O2 O 0.10250(14) 0.10758(11) 0.21919(8) 0.0193(2) Uani 1 1 d . .
C11 C 0.2190(2) -0.01862(18) 0.19890(13) 0.0198(3) Uani 1 1 d . .
H9 H 0.312(3) -0.040(2) 0.2679(16) 0.025(4) Uiso 1 1 d . .
C12 C 0.3190(2) 0.03395(18) 0.10778(13) 0.0212(3) Uani 1 1 d . .
F4 F 0.41366(12) 0.17428(11) 0.13422(8) 0.0287(2) Uani 1 1 d . .
F5 F 0.20016(13) 0.04911(12) 0.00567(7) 0.0314(2) Uani 1 1 d . .
F6 F 0.44373(14) -0.07614(12) 0.09339(9) 0.0366(3) Uani 1 1 d . .
C13 C 0.3331(2) 0.5311(2) 0.30720(14) 0.0239(3) Uani 1 1 d . .
H10 H 0.271(3) 0.434(3) 0.2941(19) 0.050(6) Uiso 1 1 d . .
H11 H 0.313(3) 0.596(3) 0.238(2) 0.057(6) Uiso 1 1 d . .
O3 O 0.27546(14) 0.61374(12) 0.40058(9) 0.0207(2) Uani 1 1 d . .
H12 H 0.3665 0.6717 0.4382 0.031 Uiso 1 1 calc R U
loop_
_atom_site_aniso_label
_atom_site_aniso_U_11
_atom_site_aniso_U_22
_atom_site_aniso_U_33
_atom_site_aniso_U_23
_atom_site_aniso_U_13
_atom_site_aniso_U_12
N1 0.0157(6) 0.0150(6) 0.0159(6) 0.0012(4) 0.0063(4) 0.0013(4)
C1 0.0141(6) 0.0152(6) 0.0126(6) 0.0001(5) 0.0034(5) -0.0008(5)
C2 0.0132(6) 0.0171(7) 0.0122(6) -0.0011(5) 0.0031(5) -0.0005(5)
C3 0.0158(6) 0.0155(7) 0.0144(6) -0.0019(5) 0.0043(5) 0.0005(5)
C4 0.0186(7) 0.0152(7) 0.0141(7) 0.0003(5) 0.0045(5) -0.0029(5)
C5 0.0140(6) 0.0215(7) 0.0140(6) -0.0013(5) 0.0062(5) -0.0029(5)
C6 0.0149(6) 0.0174(7) 0.0152(7) -0.0013(5) 0.0052(5) 0.0016(5)
C7 0.0143(6) 0.0166(7) 0.0126(6) -0.0009(5) 0.0026(5) -0.0003(5)
C8 0.0148(6) 0.0168(7) 0.0125(6) 0.0003(5) 0.0025(5) 0.0002(5)
N2 0.0195(6) 0.0170(6) 0.0230(6) 0.0034(5) 0.0117(5) 0.0045(5)
O1 0.0260(5) 0.0153(5) 0.0164(5) 0.0009(4) 0.0093(4) -0.0022(4)
C9 0.0298(8) 0.0220(8) 0.0168(7) 0.0000(6) 0.0102(6) -0.0044(6)
C10 0.0207(7) 0.0275(8) 0.0187(7) 0.0017(6) 0.0063(6) 0.0000(6)
F1 0.0348(6) 0.0656(8) 0.0426(6) 0.0176(5) 0.0195(5) 0.0257(5)
F2 0.0467(6) 0.0199(5) 0.0370(6) 0.0050(4) -0.0008(5) -0.0089(4)
F3 0.0411(6) 0.0373(5) 0.0209(5) 0.0097(4) 0.0070(4) 0.0020(4)
O2 0.0190(5) 0.0204(5) 0.0227(5) 0.0020(4) 0.0138(4) 0.0007(4)
C11 0.0172(7) 0.0234(8) 0.0212(8) 0.0019(6) 0.0091(6) 0.0025(6)
C12 0.0170(7) 0.0273(8) 0.0210(7) 0.0005(6) 0.0075(6) 0.0017(6)
F4 0.0240(5) 0.0356(5) 0.0283(5) 0.0031(4) 0.0103(4) -0.0085(4)
F5 0.0262(5) 0.0514(6) 0.0172(5) 0.0029(4) 0.0065(4) -0.0036(4)
F6 0.0363(5) 0.0416(6) 0.0432(6) 0.0107(4) 0.0300(5) 0.0156(4)
C13 0.0235(8) 0.0260(8) 0.0229(8) -0.0035(6) 0.0073(6) 0.0022(6)
O3 0.0215(5) 0.0194(5) 0.0228(5) -0.0030(4) 0.0092(4) -0.0025(4)
loop_
_atom_type_symbol
_atom_type_description
_atom_type_scat_dispersion_real
_atom_type_scat_dispersion_imag
_atom_type_scat_source
C C 0.0033 0.0016 'International Tables Vol C Tables 4.2.6.8 and 6.1.1.4'
H H 0.0000 0.0000 'International Tables Vol C Tables 4.2.6.8 and 6.1.1.4'
N N 0.0061 0.0033 'International Tables Vol C Tables 4.2.6.8 and 6.1.1.4'
O O 0.0106 0.0060 'International Tables Vol C Tables 4.2.6.8 and 6.1.1.4'
F F 0.0171 0.0103 'International Tables Vol C Tables 4.2.6.8 and 6.1.1.4'
loop_
_geom_angle_atom_site_label_1
_geom_angle_atom_site_label_2
_geom_angle_atom_site_label_3
_geom_angle
_geom_angle_site_symmetry_1
C8 N1 C1 106.88(11) .
C1 C1 N1 122.25(15) 2_456
C1 C1 C2 128.37(16) 2_456
N1 C1 C2 109.38(11) .
C7 C2 C3 119.62(12) .
C7 C2 C1 105.85(11) .
C3 C2 C1 134.51(12) .
C4 C3 C2 118.24(13) .
C3 C4 O1 117.90(12) .
C3 C4 C5 121.50(13) .
O1 C4 C5 120.52(12) .
O2 C5 C6 124.07(12) .
O2 C5 C4 115.25(12) .
C6 C5 C4 120.67(12) .
C5 C6 C7 117.02(13) .
C6 C7 C2 122.93(13) .
C6 C7 C8 131.17(12) .
C2 C7 C8 105.89(11) .
N1 C8 N2 123.79(13) .
N1 C8 C7 111.95(12) .
N2 C8 C7 124.25(12) .
C4 O1 C9 115.77(10) .
O1 C9 C10 107.40(12) .
F1 C10 F2 106.72(13) .
F1 C10 F3 107.62(12) .
F2 C10 F3 106.55(12) .
F1 C10 C9 113.32(13) .
F2 C10 C9 112.34(12) .
F3 C10 C9 109.95(12) .
C5 O2 C11 116.01(11) .
O2 C11 C12 107.11(12) .
F4 C12 F5 106.52(12) .
F4 C12 F6 107.82(11) .
F5 C12 F6 107.34(12) .
F4 C12 C11 113.26(12) .
F5 C12 C11 112.61(12) .
F6 C12 C11 109.02(12) .
loop_
_geom_bond_atom_site_label_1
_geom_bond_atom_site_label_2
_geom_bond_distance
_geom_bond_site_symmetry_2
N1 C8 1.3265(18) .
N1 C1 1.4066(18) .
C1 C1 1.365(3) 2_456
C1 C2 1.4704(18) .
C2 C7 1.3921(19) .
C2 C3 1.3961(19) .
C3 C4 1.3808(19) .
C4 O1 1.3871(17) .
C4 C5 1.410(2) .
C5 O2 1.3764(16) .
C5 C6 1.386(2) .
C6 C7 1.3911(19) .
C7 C8 1.4684(19) .
C8 N2 1.3345(18) .
O1 C9 1.4223(17) .
C9 C10 1.494(2) .
C10 F1 1.3256(17) .
C10 F2 1.3372(18) .
C10 F3 1.3400(17) .
O2 C11 1.4134(17) .
C11 C12 1.5021(19) .
C12 F4 1.3339(18) .
C12 F5 1.3350(17) .
C12 F6 1.3377(17) .
C13 O3 1.4331(18) .
loop_
_geom_torsion_atom_site_label_1
_geom_torsion_atom_site_label_2
_geom_torsion_atom_site_label_3
_geom_torsion_atom_site_label_4
_geom_torsion
_geom_torsion_site_symmetry_1
_geom_torsion_site_symmetry_4
C8 N1 C1 C1 -177.38(16) . 2_456
C8 N1 C1 C2 2.57(14) . .
C1 C1 C2 C7 177.85(17) 2_456 .
N1 C1 C2 C7 -2.09(14) . .
C1 C1 C2 C3 -3.8(3) 2_456 .
N1 C1 C2 C3 176.26(14) . .
C7 C2 C3 C4 0.40(19) . .
C1 C2 C3 C4 -177.78(14) . .
C2 C3 C4 O1 -177.91(11) . .
C2 C3 C4 C5 -1.0(2) . .
C3 C4 C5 O2 179.67(12) . .
O1 C4 C5 O2 -3.53(18) . .
C3 C4 C5 C6 0.3(2) . .
O1 C4 C5 C6 177.11(12) . .
O2 C5 C6 C7 -178.28(12) . .
C4 C5 C6 C7 1.03(19) . .
C5 C6 C7 C2 -1.7(2) . .
C5 C6 C7 C8 176.81(13) . .
C3 C2 C7 C6 1.0(2) . .
C1 C2 C7 C6 179.65(12) . .
C3 C2 C7 C8 -177.83(12) . .
C1 C2 C7 C8 0.82(14) . .
C1 N1 C8 N2 179.20(12) . .
C1 N1 C8 C7 -2.08(15) . .
C6 C7 C8 N1 -177.92(13) . .
C2 C7 C8 N1 0.78(15) . .
C6 C7 C8 N2 0.8(2) . .
C2 C7 C8 N2 179.49(13) . .
C3 C4 O1 C9 -118.91(14) . .
C5 C4 O1 C9 64.18(17) . .
C4 O1 C9 C10 156.48(12) . .
O1 C9 C10 F1 -62.91(16) . .
O1 C9 C10 F2 58.15(16) . .
O1 C9 C10 F3 176.63(11) . .
C6 C5 O2 C11 2.10(19) . .
C4 C5 O2 C11 -177.24(12) . .
C5 O2 C11 C12 168.89(11) . .
O2 C11 C12 F4 54.44(15) . .
O2 C11 C12 F5 -66.51(16) . .
O2 C11 C12 F6 174.47(11) . .
