#------------------------------------------------------------------------------
#$Date: 2019-11-25 06:38:44 +0200 (Mon, 25 Nov 2019) $
#$Revision: 240252 $
#$URL: file:///home/coder/svn-repositories/cod/cif/4/12/95/4129555.cif $
#------------------------------------------------------------------------------
#
# This file is available in the Crystallography Open Database (COD),
# http://www.crystallography.net/
#
# All data on this site have been placed in the public domain by the
# contributors.
#
data_4129555
loop_
_publ_author_name
'Tian, Di'
'Winter, Stephen M.'
'Mailman, Aaron'
'Wong, Joanne W. L.'
'Yong, Wenjun'
'Yamaguchi, Hiroshi'
'Jia, Yating'
'Tse, John S.'
'Desgreniers, Serge'
'Secco, Richard A.'
'Julian, Stephen R.'
'Jin, Changqing'
'Mito, Masaki'
'Ohishi, Yasuo'
'Oakley, Richard T.'
_publ_section_title
;
 The metallic state in neutral radical conductors: dimensionality,
 pressure and multiple orbital effects.
;
_journal_issue                   44
_journal_name_full               'Journal of the American Chemical Society'
_journal_page_first              14136
_journal_page_last               14148
_journal_paper_doi               10.1021/jacs.5b08254
_journal_volume                  137
_journal_year                    2015
_chemical_formula_moiety         'C6 F N2 O S4'
_chemical_formula_sum            'C6 F N2 O S4'
_chemical_formula_weight         263.32
_chemical_name_common            FBBO
_space_group_IT_number           36
_space_group_name_Hall           'C 2c -2'
_space_group_name_H-M_alt        'C m c 21'
_symmetry_cell_setting           orthorhombic
_symmetry_space_group_name_H-M   'C m c 21'
_audit_creation_date             2015-03-11T14:25
_audit_creation_method           'from EXP file using GSAS2CIF'
_audit_update_record
' 2015-03-11T14:25  Initial CIF as created by GSAS2CIF'
_cell_angle_alpha                90.0
_cell_angle_beta                 90.0
_cell_angle_gamma                90.0
_cell_formula_units_Z            4
_cell_length_a                   5.52240(9)
_cell_length_b                   7.5058(20)
_cell_length_c                   15.155(24)
_cell_measurement_temperature    293(2)
_cell_volume                     628.2(10)
_computing_structure_refinement  GSAS
_diffrn_ambient_temperature      293(2)
_diffrn_measurement_device_type  'SPring-8 BL10XU'
_diffrn_radiation_polarisn_ratio 0.95
_diffrn_radiation_probe          x-ray
_diffrn_radiation_wavelength     0.41244
_diffrn_source                   synchrotron
_exptl_absorpt_correction_T_max  1.00000
_exptl_absorpt_correction_T_min  1.00000
_exptl_absorpt_process_details
;   GSAS Absorption/surface roughness correction: function number 0
 No correction is applied.
;
_pd_block_id                     'SPring-8 PXRD for 2 (R = F) at 8.9 GPa'
_pd_calc_method                  'Rietveld Refinement'
_pd_instr_location               ' ?'
_pd_meas_2theta_range_inc        0.01
_pd_meas_2theta_range_max        28.23
_pd_meas_2theta_range_min        1.0
_pd_meas_number_of_points        2724
_pd_phase_name
'from C:/GSAS/MyWork/019/FBBO_RT_19b2_flat_shift.cif'
_pd_proc_2theta_range_inc        0.01
_pd_proc_2theta_range_max        28.24105
_pd_proc_2theta_range_min        1.01105
_pd_proc_info_datetime           2015-03-11T14:25:31
_pd_proc_info_excluded_regions   ' ?'
_pd_proc_ls_background_function
;   GSAS Background function number 1 with  4 terms.
 Shifted Chebyshev function of 1st kind
      1:    15990.7     2:    7700.89     3:   -853.627     4:   -94.2240    
;
_pd_proc_ls_peak_cutoff          0.00100
_pd_proc_ls_profile_function
;
 CW Profile function number 2 with  18 terms
 Profile coefficients for Simpson's rule integration of pseudovoigt function
 C.J. Howard (1982). J. Appl. Cryst.,15,615-620.
 P. Thompson, D.E. Cox & J.B. Hastings (1987). J. Appl. Cryst.,20,79-83.
 #1(GU)   = 8235.280 #2(GV)   = ******** #3(GW)   =   75.977
 #4(LX)   =    0.000 #5(LY)   =   26.381 #6(trns) =    1.566
 #7(asym) =  -0.1180 #8(shft) =   0.0005 #9(GP)   =    0.000
 #10(stec)=   622.71 #11(ptec)=    25.25 #12(sfec)=     0.00
 #13(L11) =    0.003 #14(L22) =    0.037 #15(L33) =    0.051
 #16(L12) =   -0.090 #17(L13) =   -0.028 #18(L23) =   -0.083
 Peak tails are ignored  where the intensity is below 0.0010 times the peak
   Aniso. broadening axis   0.0   0.0   1.0
;
_pd_proc_ls_prof_R_factor        0.0056
_pd_proc_ls_prof_wR_expected     0.0077
_pd_proc_ls_prof_wR_factor       0.0093
_pd_proc_number_of_points        2724
_pd_spec_mounting                ' ?'
_refine_ls_goodness_of_fit_all   1.22
_refine_ls_matrix_type           full
_refine_ls_number_parameters     28
_refine_ls_number_restraints     0
_refine_ls_R_Fsqd_factor         0.18404
_refine_ls_shift/su_max          0.01
_refine_ls_shift/su_mean         0.00
_reflns_d_resolution_high        1.322
_reflns_d_resolution_low         4.448
_reflns_limit_h_max              4
_reflns_limit_h_min              0
_reflns_limit_k_max              6
_reflns_limit_k_min              0
_reflns_limit_l_max              12
_reflns_limit_l_min              0
_reflns_number_total             89
_cod_data_source_file            ja5b08254_si_007.cif
_cod_data_source_block           2(R=F)_at_8.9GPa
_cod_depositor_comments
;
The following automatic conversions were performed:

data item '_geom_angle_publ_flag' value 'N' was changed to 'n' in
accordance with the
/home/saulius/struct/COD-crude-data/automatic-downloads/DataCite-retrospective/ACS/depositions/lib/dictionaries/cif_core.dic
dictionary named 'cif_core.dic' version 2.4.2 last updated on
2011-04-26 (24 times).

data item '_geom_bond_publ_flag' value 'N' was changed to 'n' in
accordance with the
/home/saulius/struct/COD-crude-data/automatic-downloads/DataCite-retrospective/ACS/depositions/lib/dictionaries/cif_core.dic
dictionary named 'cif_core.dic' version 2.4.2 last updated on
2011-04-26 (44 times).

Automatic conversion script
Id: cif_fix_values 6909 2019-04-08 15:41:33Z antanas 
;
_cod_original_cell_volume        628.2(9)
_cod_database_code               4129555
_gsas_exptl_extinct_corr_t_min   1.00000
_gsas_exptl_extinct_corr_t_max   1.00000
loop_
_symmetry_equiv_pos_site_id
_symmetry_equiv_pos_as_xyz
1 +x,+y,+z
2 -x,+y,+z
3 +x,-y,+z+1/2
4 -x,-y,+z+1/2
101 +x+1/2,+y+1/2,+z
102 -x+1/2,+y+1/2,+z
103 +x+1/2,-y+1/2,+z+1/2
104 -x+1/2,-y+1/2,+z+1/2
loop_
_atom_site_type_symbol
_atom_site_label
_atom_site_fract_x
_atom_site_fract_y
_atom_site_fract_z
_atom_site_occupancy
_atom_site_thermal_displace_type
_atom_site_U_iso_or_equiv
_atom_site_symmetry_multiplicity
S S1 0.0 1.16436 0.91579 1.0 Uiso 0.00032 4
S S4 0.0 0.49898 0.54623 1.0 Uiso 0.00032 4
F F1 0.0 0.52192 0.86433 1.0 Uiso 0.00032 4
O O1 0.0 1.07119 0.62497 1.0 Uiso 0.00032 4
N N1 0.0 1.1433 0.80794 1.0 Uiso 0.00032 4
N N2 0.0 0.71291 0.56711 1.0 Uiso 0.00032 4
C C6 0.0 0.97942 0.77664 1.0 Uiso 0.00032 4
C C3 0.0 0.6183 0.71697 1.0 Uiso 0.00032 4
C C4 0.0 0.6596 0.80641 1.0 Uiso 0.00032 4
C C2 0.0 0.75588 0.65265 1.0 Uiso 0.00032 4
C C5 0.0 0.83285 0.83786 1.0 Uiso 0.00032 4
S S2 0.0 0.89083 0.94983 1.0 Uiso 0.00032 4
S S3 0.0 0.3996 0.67706 1.0 Uiso 0.00032 4
C C1 0.0 0.94986 0.67858 1.0 Uiso 0.00032 4
loop_
_atom_type_symbol
_atom_type_number_in_cell
_atom_type_scat_dispersion_real
_atom_type_scat_dispersion_imag
_atom_type_scat_Cromer_Mann_a1
_atom_type_scat_Cromer_Mann_a2
_atom_type_scat_Cromer_Mann_a3
_atom_type_scat_Cromer_Mann_a4
_atom_type_scat_Cromer_Mann_b1
_atom_type_scat_Cromer_Mann_b2
_atom_type_scat_Cromer_Mann_b3
_atom_type_scat_Cromer_Mann_b4
_atom_type_scat_Cromer_Mann_c
_atom_type_scat_source
S 16.0 0.000 0.000 6.90530 1.46790 5.20340 22.2151 1.43790 0.25360 1.58630
56.1720 0.86690 International_Tables_Vol_C
F 4.0 0.000 0.000 3.53920 10.2825 2.64120 4.29440 1.51700 0.26150 1.02430
26.1476 0.27760 International_Tables_Vol_C
O 4.0 0.000 0.000 3.04850 13.2771 2.28680 5.70110 1.54630 0.32390 0.86700
32.9089 0.25080 International_Tables_Vol_C
N 8.0 0.000 0.000 12.2126 0.00570 3.13220 9.89330 2.01250 28.9975 1.16630
0.58260 -11.529 International_Tables_Vol_C
C 24.0 0.000 0.000 2.31000 20.8439 1.02000 10.2075 1.58860 0.56870 0.86500
51.6512 0.21560 International_Tables_Vol_C
loop_
_geom_angle_atom_site_label_1
_geom_angle_atom_site_label_2
_geom_angle_atom_site_label_3
_geom_angle
_geom_angle_site_symmetry_1
_geom_angle_site_symmetry_3
_geom_angle_publ_flag
N1 S1 S2 98.581(30) 1_555 1_555 n
N2 S4 S3 99.47(5) 1_555 1_555 n
S1 N1 C6 116.612(22) 1_555 1_555 n
S4 N2 C2 115.119(4) 1_555 1_555 n
N1 C6 C5 118.77(8) 1_555 1_555 n
N1 C6 C1 119.580(17) 1_555 1_555 n
C5 C6 C1 121.65(6) 1_555 1_555 n
C4 C3 C2 120.47(7) 1_555 1_555 n
C4 C3 S3 123.109(10) 1_555 1_555 n
C2 C3 S3 116.42(8) 1_555 1_555 n
F1 C4 C3 117.46(6) 1_555 1_555 n
F1 C4 C5 119.53(7) 1_555 1_555 n
C3 C4 C5 123.011(10) 1_555 1_555 n
N2 C2 C3 119.38(7) 1_555 1_555 n
N2 C2 C1 119.0754(16) 1_555 1_555 n
C3 C2 C1 121.55(7) 1_555 1_555 n
C6 C5 C4 119.73(7) 1_555 1_555 n
C6 C5 S2 115.76(7) 1_555 1_555 n
C4 C5 S2 124.513(7) 1_555 1_555 n
S1 S2 C5 90.28(4) 1_555 1_555 n
S4 S3 C3 89.61(6) 1_555 1_555 n
O1 C1 C6 123.25(6) 1_555 1_555 n
O1 C1 C2 123.16(7) 1_555 1_555 n
C6 C1 C2 113.596(10) 1_555 1_555 n
loop_
_geom_bond_atom_site_label_1
_geom_bond_atom_site_label_2
_geom_bond_distance
_geom_bond_site_symmetry_2
_geom_bond_publ_flag
S1 N1 1.6421(26) 1_555 n
S1 N2 2.4714(33) 3_575 n
S1 C6 2.5247(28) 1_555 n
S1 S2 2.1169(6) 1_555 n
S4 F1 2.761(4) 3_564 n
S4 N2 1.6366(4) 1_555 n
S4 C2 2.5138(17) 1_555 n
S4 S3 2.1184(29) 1_555 n
F1 S4 2.761(4) 3_565 n
F1 C3 2.3475(33) 1_555 n
F1 C4 1.3559(9) 1_555 n
F1 C5 2.3680(6) 1_555 n
O1 C1 1.2204(9) 1_555 n
N1 S1 1.6421(26) 1_555 n
N1 C6 1.3183(4) 1_555 n
N2 S1 2.4713(33) 3_574 n
N2 S4 1.6366(4) 1_555 n
N2 C2 1.3359(20) 1_555 n
C6 S1 2.5247(28) 1_555 n
C6 N1 1.3183(4) 1_555 n
C6 C5 1.4391(10) 1_555 n
C6 C1 1.5026(23) 1_555 n
C3 F1 2.3475(33) 1_555 n
C3 C4 1.3905(21) 1_555 n
C3 C2 1.4201(11) 1_555 n
C3 S3 1.7494(5) 1_555 n
C4 F1 1.3559(9) 1_555 n
C4 C3 1.3905(21) 1_555 n
C4 C5 1.3850(4) 1_555 n
C2 S4 2.5138(17) 1_555 n
C2 N2 1.3359(20) 1_555 n
C2 C3 1.4201(11) 1_555 n
C2 C1 1.5081(4) 1_555 n
C5 F1 2.3680(6) 1_555 n
C5 C6 1.4391(10) 1_555 n
C5 C4 1.3850(4) 1_555 n
C5 S2 1.7518(26) 1_555 n
S2 S1 2.1169(6) 1_555 n
S2 C5 1.7518(26) 1_555 n
S3 S4 2.1184(29) 1_555 n
S3 C3 1.7494(5) 1_555 n
C1 O1 1.2204(9) 1_555 n
C1 C6 1.5026(23) 1_555 n
C1 C2 1.5081(4) 1_555 n
loop_
_pd_meas_counts_total
_pd_proc_ls_weight
_pd_proc_intensity_bkg_calc
_pd_calc_intensity_total
0.0 0.0 3032.29858 .
0.0 0.0 3047.39771 .
0.0 0.0 3062.49634 .
0.0 0.0 3077.59351 .
0.0 0.0 3092.69141 .
0.0 0.0 3107.78906 .
0.0 0.0 3122.88623 .
0.0 0.0 3137.98291 .
0.0 0.0 3153.07910 .
0.0 0.0 3168.17505 .
0.0 0.0 3183.27051 .
0.0 0.0 3198.36450 .
0.0 0.0 3213.45923 .
0.0 0.0 3228.55322 .
0.0 0.0 3243.64697 .
0.0 0.0 3258.74023 .
0.0 0.0 3273.83301 .
0.0 0.0 3288.92529 .
0.0 0.0 3304.01587 .
0.0 0.0 3319.10718 .
0.0 0.0 3334.19824 .
0.0 0.0 3349.28833 .
0.0 0.0 3364.37842 .
0.0 0.0 3379.46753 .
0.0 0.0 3394.55640 .
0.0 0.0 3409.64478 .
0.0 0.0 3424.73145 .
0.0 0.0 3439.81860 .
0.0 0.0 3454.90503 .
0.0 0.0 3469.99121 .
0.0 0.0 3485.07666 .
0.0 0.0 3500.16187 .
0.0 0.0 3515.24634 .
0.0 0.0 3530.33008 .
0.0 0.0 3545.41211 .
0.0 0.0 3560.49487 .
0.0 0.0 3575.57690 .
0.0 0.0 3590.65820 .
0.0 0.0 3605.73901 .
0.0 0.0 3620.81934 .
0.0 0.0 3635.89868 .
0.0 0.0 3650.97681 .
0.0 0.0 3666.05493 .
0.0 0.0 3681.13257 .
0.0 0.0 3696.20972 .
0.0 0.0 3711.28613 .
0.0 0.0 3726.36182 .
0.0 0.0 3741.43677 .
0.0 0.0 3756.51123 .
0.0 0.0 3771.58374 .
0.0 0.0 3786.65674 .
0.0 0.0 3801.72900 .
0.0 0.0 3816.80054 .
0.0 0.0 3831.87134 .
0.0 0.0 3846.94165 .
0.0 0.0 3862.01099 .
0.0 0.0 3877.07837 .
0.0 0.0 3892.14648 .
0.0 0.0 3907.21362 .
0.0 0.0 3922.28003 .
0.0 0.0 3937.34570 .
0.0 0.0 3952.41064 .
0.0 0.0 3967.47485 .
0.0 0.0 3982.53833 .
0.0 0.0 3997.59961 .
0.0 0.0 4012.66138 .
0.0 0.0 4027.72241 .
0.0 0.0 4042.78271 .
0.0 0.0 4057.84204 .
0.0 0.0 4072.90063 .
0.0 0.0 4087.95850 .
0.0 0.0 4103.01514 .
0.0 0.0 4118.07031 .
0.0 0.0 4133.12549 .
0.0 0.0 4148.18018 .
0.0 0.0 4163.23340 .
0.0 0.0 4178.28613 .
0.0 0.0 4193.33789 .
2384.0 0.0 4208.38867 .
2394.0 0.0 4223.43750 .
2402.0 0.0 4238.48682 .
2431.0 0.0 4253.53516 .
2457.0 0.0 4268.58252 .
2488.0 0.0 4283.62891 .
2514.0 0.0 4298.67432 .
2556.0 0.0 4313.71924 .
2577.0 0.0 4328.76270 .
2600.0 0.0 4343.80566 .
2626.0 0.0 4358.84619 .
2666.0 0.0 4373.88672 .
2705.0 0.0 4388.92676 .
2732.0 0.0 4403.96582 .
2759.0 0.0 4419.00391 .
2783.0 0.0 4434.04053 .
2824.0 0.0 4449.07666 .
2860.0 0.0 4464.11182 .
2913.0 0.0 4479.14453 .
2948.0 0.0 4494.17773 .
2982.0 0.0 4509.20947 .
3002.0 0.0 4524.24072 .
3043.0 0.0 4539.27051 .
3068.0 0.0 4554.29932 .
3086.0 0.0 4569.32715 .
3114.0 0.0 4584.35303 .
3160.0 0.0 4599.37891 .
3194.0 0.0 4614.40332 .
3228.0 0.0 4629.42725 .
3271.0 0.0 4644.44971 .
3308.0 0.0 4659.47119 .
3335.0 0.0 4674.49170 .
3357.0 0.0 4689.50977 .
3397.0 0.0 4704.52832 .
3447.0 0.0 4719.54541 .
3464.0 0.0 4734.56152 .
3496.0 0.0 4749.57666 .
3540.0 0.0 4764.59033 .
3592.0 0.0 4779.60303 .
3631.0 0.0 4794.61475 .
3655.0 0.0 4809.62500 .
3686.0 0.0 4824.63330 .
3714.0 0.0 4839.64111 .
3754.0 0.0 4854.64795 .
3801.0 0.0 4869.65381 .
3831.0 0.0 4884.65869 .
3864.0 0.0 4899.66211 .
3904.0 0.0 4914.66406 .
3920.0 0.0 4929.66406 .
3956.0 0.0 4944.66406 .
3996.0 0.0 4959.66260 .
4048.0 0.0 4974.66016 .
4084.0 0.0 4989.65625 .
4113.0 0.0 5004.65137 .
4151.0 0.0 5019.64502 .
4173.0 0.0 5034.63623 .
4218.0 0.0 5049.62744 .
4268.0 0.0 5064.61768 .
4300.0 0.0 5079.60645 .
4342.0 0.0 5094.59375 .
4385.0 0.0 5109.58008 .
4435.0 0.0 5124.56494 .
4468.0 0.0 5139.54834 .
4499.0 0.0 5154.53076 .
4540.0 0.0 5169.51074 .
4563.0 0.0 5184.49072 .
4600.0 0.0 5199.46875 .
4638.0 0.0 5214.44580 .
4665.0 0.0 5229.42188 .
4704.0 0.0 5244.39600 .
4732.0 0.0 5259.36914 .
4764.0 0.0 5274.33984 .
4793.0 0.0 5289.31006 .
4821.0 0.0 5304.27930 .
4861.0 0.0 5319.24658 .
4888.0 0.0 5334.21289 .
4931.0 0.0 5349.17822 .
4950.0 0.0 5364.14160 .
4981.0 0.0 5379.10254 .
5024.0 0.0 5394.06348 .
5050.0 0.0 5409.02246 .
5067.0 0.0 5423.98047 .
5094.0 0.0 5438.93701 .
5129.0 0.0 5453.89209 .
5156.0 0.0 5468.84570 .
5172.0 0.0 5483.79785 .
5202.0 0.0 5498.74854 .
5235.0 0.0 5513.69678 .
5261.0 0.0 5528.64453 .
5288.0 0.0 5543.59082 .
5299.0 0.0 5558.53564 .
5314.0 0.0 5573.47900 .
5316.0 0.0 5588.42090 .
5326.0 0.0 5603.36133 .
5359.0 0.0 5618.30029 .
5379.0 0.0 5633.23682 .
5416.0 0.0 5648.17285 .
5450.0 0.0 5663.10693 .
5455.0 0.0 5678.04004 .
5471.0 0.0 5692.97119 .
5490.0 0.0 5707.90088 .
5504.0 0.0 5722.82910 .
5513.0 0.0 5737.75488 .
5522.0 0.0 5752.68018 .
5540.0 0.0 5767.60352 .
5571.0 0.0 5782.52539 .
5613.0 0.0 5797.44580 .
5623.0 0.0 5812.36475 .
5646.0 0.0 5827.28223 .
5638.0 0.0 5842.19678 .
5656.0 0.0 5857.11182 .
5679.0 0.0 5872.02295 .
5722.0 0.0 5886.93408 .
5743.0 0.0 5901.84326 .
5759.0 0.0 5916.75049 .
5783.0 0.0 5931.65674 .
5791.0 0.0 5946.56055 .
5799.0 0.0 5961.46338 .
5804.0 0.0 5976.36328 .
5824.0 0.0 5991.26270 .
5851.0 0.0 6006.16016 .
5860.0 0.0 6021.05615 .
5896.0 0.0 6035.95020 .
5912.0 0.0 6050.84277 .
5924.0 0.0 6065.73389 .
5944.0 0.0 6080.62207 .
5954.0 0.0 6095.50928 .
5971.0 0.0 6110.39502 .
5985.0 0.0 6125.27881 .
5997.0 0.0 6140.16113 .
6009.0 0.0 6155.04199 .
6031.0 0.0 6169.92090 .
6062.0 0.0 6184.79639 .
6101.0 0.0 6199.67188 .
6114.0 0.0 6214.54541 .
6155.0 0.0 6229.41699 .
6182.0 0.0 6244.28711 .
6177.0 0.0 6259.15527 .
6171.0 0.0 6274.02197 .
6167.0 0.0 6288.88623 .
6172.0 0.0 6303.74902 .
6188.0 0.0 6318.60889 .
6219.0 0.0 6333.46826 .
6252.0 0.0 6348.32568 .
6248.0 0.0 6363.18115 .
6267.0 0.0 6378.03467 .
6282.0 0.0 6392.88672 .
6302.0 0.0 6407.73633 .
6306.0 0.0 6422.58350 .
6307.0 0.0 6437.42969 .
6341.0 0.0 6452.27441 .
6379.0 0.0 6467.11670 .
6391.0 0.0 6481.95752 .
6407.0 0.0 6496.79590 .
6432.0 0.0 6511.63281 .
6437.0 0.0 6526.46680 .
6455.0 0.0 6541.29980 .
6474.0 0.0 6556.13086 .
6489.0 0.0 6570.95996 .
6511.0 0.0 6585.78760 .
6529.0 0.0 6600.61279 .
6536.0 0.0 6615.43604 .
6544.0 0.0 6630.25781 .
6570.0 0.0 6645.07715 .
6581.0 0.0 6659.89355 .
6604.0 0.0 6674.70898 .
6633.0 0.0 6689.52246 .
6643.0 0.0 6704.33398 .
6669.0 0.0 6719.14404 .
6687.0 0.0 6733.95166 .
6702.0 0.0 6748.75684 .
6711.0 0.0 6763.55957 .
6718.0 0.0 6778.36084 .
6749.0 0.0 6793.16064 .
6759.0 0.0 6807.95801 .
6764.0 0.0 6822.75391 .
6770.0 0.0 6837.54736 .
6786.0 0.0 6852.33838 .
6814.0 0.0 6867.12695 .
6843.0 0.0 6881.91406 .
6847.0 0.0 6896.69922 .
6858.0 0.0 6911.48242 .
6873.0 0.0 6926.26367 .
6895.0 0.0 6941.04248 .
6909.0 0.0 6955.81934 .
6932.0 0.0 6970.59424 .
6944.0 0.0 6985.36670 .
6950.0 0.0 7000.13721 .
6956.0 0.0 7014.90479 .
6966.0 0.0 7029.67090 .
6980.0 0.0 7044.43506 .
7000.0 0.0 7059.19727 .
7026.0 0.0 7073.95703 .
7057.0 0.0 7088.71484 .
7082.0 0.0 7103.47021 .
7086.0 0.0 7118.22266 .
7095.0 0.0 7132.97363 .
7113.0 0.0 7147.72266 .
7128.0 0.0 7162.46973 .
7164.0 0.0 7177.21436 .
7198.0 0.0 7191.95654 .
7201.0 0.0 7206.69678 .
7205.0 0.0 7221.43408 .
7218.0 0.0 7236.16992 .
7253.0 0.0 7250.90332 .
7263.0 0.0 7265.63477 .
7275.0 0.0 7280.36377 .
7275.0 0.0 7295.09033 .
7290.0 0.0 7309.81494 .
7297.0 0.0 7324.53662 .
7317.0 0.0 7339.25781 .
7341.0 0.0 7353.97412 .
7357.0 0.0 7368.68994 .
7378.0 0.0 7383.40332 .
7392.0 0.0 7398.11426 .
7405.0 0.0 7412.82275 .
7415.0 0.0 7427.52881 .
7455.0 0.0 7442.23291 .
7476.0 0.0 7456.93359 .
7488.0 0.0 7471.63281 .
7502.0 0.0 7486.33008 .
7505.0 0.0 7501.02490 .
7524.0 0.0 7515.71680 .
7532.0 0.0001328 7530.40723 7549.28662
7551.0 0.0001324 7545.09424 7564.06885
7587.0 0.0001318 7559.77930 7578.85205
7594.0 0.0001317 7574.46240 7593.63330
7613.0 0.0001314 7589.14258 7608.41406
7622.0 0.0001312 7603.82031 7623.19385
7640.0 0.0001309 7618.49609 7637.97266
7667.0 0.0001304 7633.16895 7652.75146
7681.0 0.0001302 7647.84033 7667.52881
7689.0 0.0001301 7662.50830 7682.30518
7705.0 0.0001298 7677.17432 7697.08154
7715.0 0.0001296 7691.83740 7711.85596
7746.0 0.0001291 7706.49951 7726.63281
7764.0 0.0001288 7721.15771 7741.40479
7778.0 0.0001286 7735.81396 7756.17822
7780.0 0.0001285 7750.46729 7770.95117
7784.0 0.0001285 7765.11865 7785.72119
7809.0 0.0001281 7779.76758 7800.49268
7823.0 0.0001278 7794.41406 7815.26514
7839.0 0.0001276 7809.05762 7831.19775
7866.0 0.0001271 7823.69922 7845.97803
7880.0 0.0001269 7838.33789 7860.75879
7889.0 0.0001268 7852.97461 7875.53955
7903.0 0.0001265 7867.60840 7890.31934
7906.0 0.0001265 7882.23975 7905.09961
7931.0 0.0001261 7896.86914 7919.88037
7957.0 0.0001257 7911.49512 7934.65674
7960.0 0.0001256 7926.11914 7949.43652
7970.0 0.0001255 7940.74023 7964.21533
7978.0 0.0001253 7955.35889 7978.97705
8003.0 0.0001250 7969.97510 7993.75830
8027.0 0.0001246 7984.58887 8008.53613
8048.0 0.0001243 7999.19971 8024.43359
8066.0 0.0001240 8013.80811 8039.22266
8079.0 0.0001238 8028.41357 8053.95898
8088.0 0.0001236 8043.01758 8068.75146
8112.0 0.0001233 8057.61816 8083.53955
8137.0 0.0001229 8072.21631 8098.32910
8147.0 0.0001227 8086.81152 8113.12158
8155.0 0.0001226 8101.40527 8127.91309
8178.0 0.0001223 8115.99512 8142.69678
8195.0 0.0001220 8130.58252 8157.48779
8207.0 0.0001218 8145.16748 8172.27881
8225.0 0.0001216 8159.75000 8187.07080
8239.0 0.0001214 8174.32959 8201.86133
8257.0 0.0001211 8188.90723 8216.65430
8259.0 0.0001211 8203.48145 8231.44922
8262.0 0.0001210 8218.05273 8246.24414
8286.0 0.0001207 8232.62207 8261.03711
8305.0 0.0001204 8247.18848 8275.83691
8328.0 0.0001201 8261.75293 8290.63574
8352.0 0.0001197 8276.31348 8305.43164
8361.0 0.0001196 8290.87207 8320.20215
8374.0 0.0001194 8305.42773 8334.99902
8401.0 0.0001190 8319.98047 8349.80176
8422.0 0.0001187 8334.53027 8364.60254
8439.0 0.0001185 8349.07813 8379.40918
8458.0 0.0001182 8363.62207 8394.21387
8461.0 0.0001182 8378.16504 8409.02051
8488.0 0.0001178 8392.70410 8423.82617
8484.0 0.0001179 8407.24023 8438.63770
8505.0 0.0001176 8421.77441 8453.44922
8525.0 0.0001173 8436.30566 8468.26172
8530.0 0.0001172 8450.83398 8483.07715
8550.0 0.0001170 8465.35938 8497.89258
8558.0 0.0001168 8479.88184 8512.71191
8580.0 0.0001166 8494.40234 8527.53223
8598.0 0.0001163 8508.91895 8542.35742
8596.0 0.0001163 8523.43359 8557.18164
8619.0 0.0001160 8537.94434 8572.01074
8638.0 0.0001158 8552.45313 8586.83984
8672.0 0.0001153 8566.95898 8601.67090
8689.0 0.0001151 8581.46191 8616.50391
8700.0 0.0001149 8595.96191 8631.34473
8706.0 0.0001149 8610.45898 8646.18555
8722.0 0.0001147 8624.95410 8661.02832
8727.0 0.0001146 8639.44531 8675.87988
8762.0 0.0001141 8653.93457 8690.73242
8776.0 0.0001139 8668.41992 8705.58789
8797.0 0.0001137 8682.90332 8720.44629
8808.0 0.0001135 8697.38379 8735.30566
8818.0 0.0001134 8711.86133 8750.16797
8845.0 0.0001131 8726.33496 8765.03809
8859.0 0.0001129 8740.80664 8779.93555
8870.0 0.0001127 8755.27441 8794.81445
8900.0 0.0001124 8769.74121 8809.91211
8901.0 0.0001123 8784.20313 8824.79980
8908.0 0.0001123 8798.66309 8839.69434
8928.0 0.0001120 8813.11914 8854.59180
8925.0 0.0001120 8827.57422 8869.49609
8965.0 0.0001115 8842.02441 8884.40234
8973.0 0.0001114 8856.47266 8899.31641
8984.0 0.0001113 8870.91699 8914.23535
9006.0 0.0001110 8885.35938 8929.16309
9021.0 0.0001109 8899.79883 8944.09375
9039.0 0.0001106 8914.23438 8959.03223
9056.0 0.0001104 8928.66699 8973.98047
9064.0 0.0001103 8943.09766 8988.93066
9096.0 0.0001099 8957.52441 9003.89355
9092.0 0.0001100 8971.94922 9018.86133
9105.0 0.0001098 8986.37012 9033.83496
9113.0 0.0001097 9000.78809 9048.81836
9126.0 0.0001096 9015.20313 9063.80957
9153.0 0.0001093 9029.61523 9078.80859
9168.0 0.0001091 9044.02441 9093.95508
9190.0 0.0001088 9058.42969 9108.97656
9198.0 0.0001087 9072.83301 9124.00488
9227.0 0.0001084 9087.23242 9139.04102
9250.0 0.0001081 9101.62988 9154.08789
9252.0 0.0001081 9116.02246 9169.14648
9246.0 0.0001082 9130.41406 9184.21582
9269.0 0.0001079 9144.80078 9199.29590
9280.0 0.0001078 9159.18555 9214.38867
9299.0 0.0001075 9173.56641 9229.49414
9313.0 0.0001074 9187.94531 9244.60840
9318.0 0.0001073 9202.31934 9259.73633
9338.0 0.0001071 9216.69238 9274.88574
9364.0 0.0001068 9231.06055 9290.04004
9386.0 0.0001065 9245.42676 9305.21191
9399.0 0.0001064 9259.78809 9320.40332
9410.0 0.0001063 9274.14746 9335.61133
9420.0 0.0001062 9288.50391 9350.83691
9432.0 0.0001060 9302.85742 9366.08105
9445.0 0.0001059 9317.20703 9381.35059
9472.0 0.0001056 9331.55371 9396.63379
9490.0 0.0001054 9345.89844 9411.93945
9505.0 0.0001052 9360.23828 9427.26172
9514.0 0.0001051 9374.57520 9442.60449
9535.0 0.0001049 9388.90918 9457.96875
9553.0 0.0001047 9403.23926 9473.33789
9570.0 0.0001045 9417.56738 9488.72852
9591.0 0.0001043 9431.89160 9504.12695
9601.0 0.0001042 9446.21289 9519.55469
9622.0 0.0001039 9460.53027 9534.99707
9637.0 0.0001038 9474.84473 9550.94824
9648.0 0.0001036 9489.15625 9566.49023
9665.0 0.0001035 9503.46387 9582.12305
9689.0 0.0001032 9517.76953 9597.94727
9702.0 0.0001031 9532.07031 9614.12695
9710.0 0.0001030 9546.36914 9630.96680
9732.0 0.0001028 9560.66406 9648.96680
9751.0 0.0001026 9574.95605 9668.89355
9769.0 0.0001024 9589.24414 9691.78320
9792.0 0.0001021 9603.52930 9718.91309
9815.0 0.0001019 9617.81152 9751.56152
9852.0 0.0001015 9632.08984 9790.68652
9866.0 0.0001014 9646.36426 9836.46973
9884.0 0.0001012 9660.63672 9887.85449
9907.0 0.0001009 9674.90527 9942.27832
9918.0 0.0001008 9689.17090 9995.81055
9925.0 0.0001008 9703.43262 10043.70020
9942.0 0.0001006 9717.69043 10081.34375
9966.0 0.0001003 9731.94629 10105.37305
9983.0 0.0001002 9746.19824 10114.50195
9996.0 0.0001000 9760.44629 10109.87891
10032.0 0.0000997 9774.69141 10094.79102
10053.0 0.0000995 9788.93262 10073.79102
10072.0 0.0000993 9803.17090 10051.65234
10105.0 0.0000990 9817.40625 10032.38086
10138.0 0.0000986 9831.63770 10018.60449
10145.0 0.0000986 9845.86523 10011.48242
10149.0 0.0000985 9860.08984 10010.89844
10151.0 0.0000985 9874.31152 10015.93164
10148.0 0.0000985 9888.52930 10025.32617
10147.0 0.0000986 9902.74316 10037.80078
10138.0 0.0000986 9916.95410 10052.30566
10158.0 0.0000984 9931.16211 10068.06934
10163.0 0.0000984 9945.36523 10084.58008
10161.0 0.0000984 9959.56641 10101.53027
10181.0 0.0000982 9973.76270 10118.74707
10185.0 0.0000982 9987.95605 10136.14551
10211.0 0.0000979 10002.14648 10153.69922
10221.0 0.0000978 10016.33301 10171.38574
10231.0 0.0000977 10030.51563 10189.30371
10236.0 0.0000977 10044.69531 10207.26855
10245.0 0.0000976 10058.87207 10225.38672
10249.0 0.0000976 10073.04395 10243.65918
10274.0 0.0000973 10087.21387 10262.22363
10286.0 0.0000972 10101.37891 10280.85352
10295.0 0.0000971 10115.54102 10299.68555
10312.0 0.0000970 10129.69922 10318.72949
10326.0 0.0000968 10143.85449 10338.00781
10359.0 0.0000965 10158.00488 10357.54590
10368.0 0.0000965 10172.15234 10377.36328
10366.0 0.0000965 10186.29688 10397.49219
10385.0 0.0000963 10200.43750 10417.96289
10407.0 0.0000961 10214.57422 10438.81543
10440.0 0.0000958 10228.70801 10460.09082
10450.0 0.0000957 10242.83691 10481.85742
10460.0 0.0000956 10256.96387 10504.18750
10485.0 0.0000954 10271.08594 10527.15918
10498.0 0.0000953 10285.20508 10550.96191
10514.0 0.0000951 10299.32031 10575.63867
10532.0 0.0000949 10313.43164 10601.44434
10548.0 0.0000948 10327.54004 10628.66602
10575.0 0.0000946 10341.64453 10657.67188
10601.0 0.0000943 10355.74512 10688.94434
10626.0 0.0000941 10369.84180 10723.10059
10661.0 0.0000938 10383.93555 10760.90234
10668.0 0.0000937 10398.02539 10803.28613
10687.0 0.0000936 10412.11230 10851.30957
10729.0 0.0000932 10426.19434 10906.17383
10761.0 0.0000929 10440.27344 10969.15332
10832.0 0.0000923 10454.34766 11041.50488
10903.0 0.0000917 10468.41895 11124.37598
11016.0 0.0000908 10482.48633 11218.73242
11183.0 0.0000894 10496.55078 11324.89941
11416.0 0.0000876 10510.61035 11442.81836
11717.0 0.0000853 10524.66699 11571.45703
12033.0 0.0000831 10538.71973 11708.53711
12307.0 0.0000813 10552.76855 11850.04395
12451.0 0.0000803 10566.81348 11989.78711
12440.0 0.0000804 10580.85547 12119.33398
12334.0 0.0000811 10594.89258 12228.92773
12223.0 0.0000818 10608.92676 12309.87305
12126.0 0.0000825 10622.95703 12357.68066
12071.0 0.0000828 10636.98340 12374.29590
12065.0 0.0000829 10651.00586 12367.75195
12105.0 0.0000826 10665.02441 12349.41211
12196.0 0.0000820 10679.03906 12330.68457
12328.0 0.0000811 10693.05078 12320.72754
12471.0 0.0000802 10707.05762 12325.46387
12586.0 0.0000795 10721.06152 12347.44238
12599.0 0.0000794 10735.06055 12385.84277
12542.0 0.0000797 10749.05664 12436.35645
12419.0 0.0000805 10763.04980 12491.02930
12270.0 0.0000815 10777.03711 12538.63672
12136.0 0.0000824 10791.02148 12566.41309
12038.0 0.0000831 10805.00195 12563.31152
12036.0 0.0000831 10818.97852 12523.86816
12293.0 0.0000813 10832.95117 12450.12500
12757.0 0.0000784 10846.91992 12350.25879
13172.0 0.0000759 10860.88477 12235.07910
13193.0 0.0000758 10874.84570 12114.73926
12704.0 0.0000787 10888.80273 11997.02344
12085.0 0.0000827 10902.75586 11887.11035
11623.0 0.0000860 10916.70508 11787.99805
11419.0 0.0000876 10930.65039 11701.10938
11332.0 0.0000882 10944.59180 11626.76172
11286.0 0.0000886 10958.52930 11564.51270
11252.0 0.0000889 10972.46289 11513.44629
11234.0 0.0000890 10986.39258 11472.36133
11221.0 0.0000891 11000.31738 11439.95020
11233.0 0.0000890 11014.24023 11414.96484
11252.0 0.0000889 11028.15723 11396.30664
11274.0 0.0000887 11042.07129 11383.10449
11289.0 0.0000886 11055.98047 11374.70898
11313.0 0.0000884 11069.88672 11370.57813
11333.0 0.0000882 11083.78809 11370.19141
11348.0 0.0000881 11097.68652 11372.92969
11390.0 0.0000878 11111.58008 11378.10156
11434.0 0.0000875 11125.46973 11385.05469
11466.0 0.0000872 11139.35547 11393.22949
11461.0 0.0000873 11153.23730 11402.19043
11448.0 0.0000874 11167.11523 11411.65039
11425.0 0.0000875 11180.98828 11421.42090
11410.0 0.0000876 11194.85840 11431.37305
11421.0 0.0000876 11208.72363 11441.44238
11443.0 0.0000874 11222.58496 11451.58594
11451.0 0.0000873 11236.44238 11461.79688
11455.0 0.0000873 11250.29590 11472.07520
11477.0 0.0000871 11264.14453 11482.44141
11500.0 0.0000870 11277.99023 11492.91309
11509.0 0.0000869 11291.83105 11503.50098
11529.0 0.0000867 11305.66797 11514.23145
11535.0 0.0000867 11319.50000 11525.11426
11543.0 0.0000866 11333.33008 11536.17773
11562.0 0.0000865 11347.15430 11547.42383
11577.0 0.0000864 11360.97461 11558.86230
11588.0 0.0000863 11374.79004 11570.50684
11601.0 0.0000862 11388.60254 11582.36621
11606.0 0.0000862 11402.41113 11594.44922
11618.0 0.0000861 11416.21484 11606.77246
11633.0 0.0000860 11430.01465 11619.34961
11649.0 0.0000858 11443.80957 11632.19434
11660.0 0.0000858 11457.60156 11645.33008
11670.0 0.0000857 11471.38867 11658.78320
11687.0 0.0000856 11485.17188 11672.59473
11694.0 0.0000855 11498.95020 11686.79102
11703.0 0.0000854 11512.72461 11701.41895
11724.0 0.0000853 11526.49512 11716.53320
11754.0 0.0000851 11540.26172 11732.20117
11776.0 0.0000849 11554.02344 11748.47266
11811.0 0.0000847 11567.78125 11765.43066
11857.0 0.0000843 11581.53418 11783.15527
11914.0 0.0000839 11595.28418 11801.73633
11976.0 0.0000835 11609.02930 11821.25879
12020.0 0.0000832 11622.76953 11841.81445
11966.0 0.0000836 11636.50586 11863.49219
11914.0 0.0000839 11650.23926 11886.37598
11894.0 0.0000841 11663.96680 11910.51758
11890.0 0.0000841 11677.69043 11935.95020
11880.0 0.0000842 11691.40918 11962.65234
11896.0 0.0000841 11705.12500 11990.52539
11915.0 0.0000839 11718.83594 12019.34863
11925.0 0.0000839 11732.54199 12048.74707
11943.0 0.0000837 11746.24414 12078.15723
11958.0 0.0000836 11759.94238 12106.79590
11967.0 0.0000836 11773.63574 12133.68555
11988.0 0.0000834 11787.32520 12157.75684
11998.0 0.0000833 11801.00977 12177.98145
12009.0 0.0000833 11814.69043 12193.60645
12057.0 0.0000829 11828.36719 12204.31152
12103.0 0.0000826 11842.03809 12210.32031
12162.0 0.0000822 11855.70605 12212.29199
12225.0 0.0000818 11869.36914 12211.23828
12257.0 0.0000816 11883.02734 12208.25195
12265.0 0.0000815 11896.68164 12204.35449
12245.0 0.0000817 11910.33203 12200.38672
12201.0 0.0000820 11923.97754 12197.12793
12202.0 0.0000820 11937.61816 12194.69141
12182.0 0.0000821 11951.25488 12193.47070
12187.0 0.0000821 11964.88770 12193.58105
12198.0 0.0000820 11978.51465 12195.08008
12194.0 0.0000820 11992.13867 12197.86328
12214.0 0.0000819 12005.75684 12201.90527
12220.0 0.0000818 12019.37207 12207.48730
12232.0 0.0000818 12032.98242 12213.76660
12260.0 0.0000816 12046.58789 12221.00586
12266.0 0.0000815 12060.18848 12229.11133
12265.0 0.0000815 12073.78516 12237.99707
12280.0 0.0000814 12087.37793 12247.55957
12289.0 0.0000814 12100.96582 12257.73145
12304.0 0.0000813 12114.54883 12268.43945
12324.0 0.0000811 12128.12695 12279.61035
12338.0 0.0000811 12141.70215 12291.19727
12344.0 0.0000810 12155.27148 12303.15527
12350.0 0.0000810 12168.83691 12315.43750
12367.0 0.0000809 12182.39746 12328.01074
12389.0 0.0000807 12195.95410 12340.84766
12404.0 0.0000806 12209.50488 12353.91992
12419.0 0.0000805 12223.05273 12367.21680
12434.0 0.0000804 12236.59473 12380.71777
12454.0 0.0000803 12250.13281 12394.86719
12454.0 0.0000803 12263.66602 12408.74805
12464.0 0.0000802 12277.19531 12422.81250
12479.0 0.0000801 12290.71875 12437.05078
12520.0 0.0000799 12304.23828 12451.46387
12535.0 0.0000798 12317.75293 12466.04785
12549.0 0.0000797 12331.26465 12480.80566
12547.0 0.0000797 12344.76953 12495.74316
12556.0 0.0000796 12358.27148 12510.86133
12576.0 0.0000795 12371.76758 12526.15625
12598.0 0.0000794 12385.25977 12541.64746
12608.0 0.0000793 12398.74707 12557.34766
12630.0 0.0000792 12412.22949 12573.24805
12642.0 0.0000791 12425.70801 12589.37109
12646.0 0.0000791 12439.18066 12605.72852
12670.0 0.0000789 12452.65039 12622.32715
12679.0 0.0000789 12466.11426 12639.18066
12679.0 0.0000789 12479.57422 12656.31543
12691.0 0.0000788 12493.02832 12673.74512
12715.0 0.0000786 12506.47852 12691.48438
12731.0 0.0000785 12519.92383 12709.56543
12746.0 0.0000785 12533.36426 12728.00000
12759.0 0.0000784 12546.80078 12746.81738
12777.0 0.0000783 12560.23242 12766.04980
12785.0 0.0000782 12573.65820 12785.71680
12798.0 0.0000781 12587.08008 12805.86230
12816.0 0.0000780 12600.49707 12826.50879
12825.0 0.0000780 12613.91016 12847.68750
12848.0 0.0000778 12627.31738 12869.45020
12855.0 0.0000778 12640.72070 12891.81250
12856.0 0.0000778 12654.11816 12914.82129
12873.0 0.0000777 12667.51172 12938.50098
12889.0 0.0000776 12680.90039 12962.89063
12872.0 0.0000777 12694.28418 12988.00488
12900.0 0.0000775 12707.66309 13013.87305
12913.0 0.0000774 12721.03711 13040.48535
12927.0 0.0000774 12734.40625 13067.84766
12947.0 0.0000772 12747.77148 13095.91309
12973.0 0.0000771 12761.13086 13124.64063
12994.0 0.0000770 12774.48633 13153.92871
13008.0 0.0000769 12787.83594 13183.65234
13001.0 0.0000769 12801.18164 13213.65918
13025.0 0.0000768 12814.52246 13243.71289
13054.0 0.0000766 12827.85742 13273.68555
13077.0 0.0000765 12841.18848 13303.01367
13106.0 0.0000763 12854.51465 13331.48828
13117.0 0.0000762 12867.83594 13358.76270
13142.0 0.0000761 12881.15137 13384.48242
13163.0 0.0000760 12894.46387 13408.35938
13199.0 0.0000758 12907.76953 13430.13086
13257.0 0.0000754 12921.07129 13449.65234
13357.0 0.0000749 12934.36816 13466.88574
13530.0 0.0000739 12947.66016 13481.87695
13862.0 0.0000721 12960.94629 13494.81836
14339.0 0.0000697 12974.22852 13505.96777
14692.0 0.0000681 12987.50586 13515.64355
14746.0 0.0000678 13000.77734 13524.21582
14465.0 0.0000691 13014.04492 13532.05664
14018.0 0.0000713 13027.30664 13539.50684
13672.0 0.0000731 13040.56445 13546.89844
13487.0 0.0000741 13053.81641 13554.49512
13413.0 0.0000746 13067.06348 13562.52051
13400.0 0.0000746 13080.30664 13571.15039
13377.0 0.0000748 13093.54395 13580.52051
13368.0 0.0000748 13106.77637 13590.70801
13383.0 0.0000747 13120.00293 13601.76563
13393.0 0.0000747 13133.22656 13613.70020
13415.0 0.0000745 13146.44336 13626.50000
13407.0 0.0000746 13159.65625 13661.07617
13431.0 0.0000745 13172.86328 13676.27344
13451.0 0.0000743 13186.06543 13692.21289
13446.0 0.0000744 13199.26367 13708.81152
13450.0 0.0000743 13212.45605 13725.96973
13486.0 0.0000742 13225.64258 13743.56348
13499.0 0.0000741 13238.82520 13761.49121
13532.0 0.0000739 13252.00293 13779.60742
13575.0 0.0000737 13265.17480 13797.78418
13603.0 0.0000735 13278.34082 13815.88184
13650.0 0.0000733 13291.50293 13833.76074
13692.0 0.0000730 13304.66113 13851.29004
13742.0 0.0000728 13317.81250 13868.33984
13854.0 0.0000722 13330.95801 13884.78906
13938.0 0.0000717 13344.10059 13900.54004
14055.0 0.0000711 13357.23730 13915.51855
14140.0 0.0000707 13370.36914 13929.65234
14196.0 0.0000704 13383.49414 13942.90918
14227.0 0.0000703 13396.61523 13957.61816
14217.0 0.0000703 13409.73242 13969.16113
14216.0 0.0000703 13422.84277 13979.88672
14226.0 0.0000703 13435.94824 13989.88574
14248.0 0.0000702 13449.04883 13999.25879
14264.0 0.0000701 13462.14453 14008.11426
14312.0 0.0000699 13475.23535 14016.61426
14309.0 0.0000699 13488.32031 14024.91016
14278.0 0.0000700 13501.39941 14033.17578
14222.0 0.0000703 13514.47461 14041.61426
14153.0 0.0000707 13527.54395 14050.42188
14090.0 0.0000710 13540.60840 14059.81641
14054.0 0.0000712 13553.66699 14070.03516
14019.0 0.0000713 13566.72070 14081.34473
14021.0 0.0000713 13579.77051 14094.03418
14028.0 0.0000713 13592.81348 14108.42578
14046.0 0.0000712 13605.85059 14124.92871
14046.0 0.0000712 13618.88477 14144.00586
14049.0 0.0000712 13631.91211 14166.24121
14073.0 0.0000711 13644.93555 14192.37793
14120.0 0.0000708 13657.95117 14223.34766
14153.0 0.0000707 13670.96387 14260.42676
14222.0 0.0000703 13683.97070 14305.31543
14301.0 0.0000699 13696.97266 14360.36328
14395.0 0.0000695 13709.96777 14428.92578
14507.0 0.0000689 13722.95801 14515.93848
14619.0 0.0000684 13735.94434 14628.61523
14817.0 0.0000675 13748.92480 14779.20020
15123.0 0.0000661 13761.89844 14992.22754
15574.0 0.0000642 13774.86816 15330.84473
16333.0 0.0000612 13787.83301 15969.63086
17697.0 0.0000565 13800.79199 17319.14844
20221.0 0.0000495 13813.74609 20068.49023
24796.0 0.0000403 13826.69336 24836.54102
31092.0 0.0000322 13839.63672 31270.64453
36389.0 0.0000275 13852.57422 36808.61328
37263.0 0.0000268 13865.50684 37091.62109
32554.0 0.0000307 13878.43262 31877.54688
25554.0 0.0000391 13891.35449 25412.06250
20093.0 0.0000498 13904.27051 20477.35742
17178.0 0.0000582 13917.18164 17578.86328
15820.0 0.0000632 13930.08594 16145.60938
15192.0 0.0000658 13942.98633 15475.95508
14859.0 0.0000673 13955.88086 15133.44238
14664.0 0.0000682 13968.77051 14927.00000
14577.0 0.0000686 13981.65234 14786.68555
14544.0 0.0000688 13994.53125 14685.73535
14528.0 0.0000688 14007.40430 14611.20801
14537.0 0.0000688 14020.27148 14555.40527
14554.0 0.0000687 14033.13281 14513.26563
14547.0 0.0000687 14045.98926 14481.32715
14508.0 0.0000689 14058.83984 14457.17480
14466.0 0.0000691 14071.68555 14439.08008
14422.0 0.0000693 14084.52539 14425.72266
14402.0 0.0000694 14097.35938 14416.17090
14402.0 0.0000694 14110.18848 14409.70605
14389.0 0.0000695 14123.01270 14405.78027
14380.0 0.0000695 14135.83105 14403.96191
14392.0 0.0000695 14148.64258 14403.92383
14405.0 0.0000694 14161.44922 14405.38477
14399.0 0.0000694 14174.25098 14408.15430
14408.0 0.0000694 14187.04688 14412.04492
14425.0 0.0000693 14199.83691 14416.92480
14416.0 0.0000694 14212.62109 14422.68750
14424.0 0.0000693 14225.40137 14429.21484
14437.0 0.0000693 14238.17480 14436.43555
14445.0 0.0000692 14250.94238 14444.28711
14482.0 0.0000691 14263.70508 14452.68945
14514.0 0.0000689 14276.46191 14461.58887
14566.0 0.0000687 14289.21387 14470.93555
14629.0 0.0000684 14301.95898 14480.67480
14690.0 0.0000681 14314.69922 14490.76172
14738.0 0.0000679 14327.43359 14501.16211
14759.0 0.0000678 14340.16309 14511.82031
14711.0 0.0000680 14352.88574 14522.69043
14662.0 0.0000682 14365.60352 14533.75391
14616.0 0.0000684 14378.31641 14544.97656
14603.0 0.0000685 14391.02246 14556.32031
14595.0 0.0000685 14403.72266 14567.76563
14603.0 0.0000685 14416.41797 14579.29590
14617.0 0.0000684 14429.10742 14590.91602
14638.0 0.0000683 14441.79199 14602.62598
14636.0 0.0000683 14454.47070 14614.56348
14641.0 0.0000683 14467.14160 14626.53418
14659.0 0.0000682 14479.80859 14638.70020
14679.0 0.0000681 14492.47070 14651.14844
14707.0 0.0000680 14505.12598 14663.95215
14711.0 0.0000680 14517.77441 14677.21289
14720.0 0.0000679 14530.41895 14691.04004
14729.0 0.0000679 14543.05762 14705.51758
14729.0 0.0000679 14555.69043 14720.70996
14746.0 0.0000678 14568.31641 14736.96289
14779.0 0.0000677 14580.93750 14753.70020
14787.0 0.0000676 14593.55371 14771.17285
14786.0 0.0000676 14606.16309 14789.32227
14797.0 0.0000676 14618.76563 14808.04297
14810.0 0.0000675 14631.36426 14827.16699
14808.0 0.0000675 14643.95703 14846.72168
14825.0 0.0000675 14656.54395 14866.53125
14844.0 0.0000674 14669.12402 14886.50098
14851.0 0.0000673 14681.69922 14906.55957
14867.0 0.0000673 14694.26855 14926.62207
14884.0 0.0000672 14706.83203 14946.65234
14894.0 0.0000671 14719.38867 14966.60352
14915.0 0.0000670 14731.94043 14986.44043
14919.0 0.0000670 14744.48633 15006.14844
14944.0 0.0000669 14757.02734 15025.69727
14951.0 0.0000669 14769.56152 15045.06543
14976.0 0.0000668 14782.08887 15064.25000
14989.0 0.0000667 14794.61133 15083.20898
15002.0 0.0000667 14807.12891 15101.94141
15024.0 0.0000666 14819.63965 15120.41895
15037.0 0.0000665 14832.14355 15138.62402
15048.0 0.0000665 14844.64355 15156.52344
15075.0 0.0000663 14857.13672 15174.11133
15152.0 0.0000660 14869.62402 15191.34863
15223.0 0.0000657 14882.10449 15208.25684
15243.0 0.0000656 14894.58105 15224.73438
15268.0 0.0000655 14907.05078 15240.80176
15277.0 0.0000655 14919.51465 15256.43750
15287.0 0.0000654 14931.97168 15271.62305
15314.0 0.0000653 14944.42383 15286.34766
15337.0 0.0000652 14956.86914 15300.59375
15385.0 0.0000650 14969.30957 15314.37305
15421.0 0.0000648 14981.74316 15327.67090
15446.0 0.0000647 14994.17090 15340.49609
15455.0 0.0000647 15006.59375 15352.85156
15472.0 0.0000646 15019.00977 15364.76465
15480.0 0.0000646 15031.41895 15376.23730
15509.0 0.0000645 15043.82324 15387.30371
15538.0 0.0000644 15056.22168 15397.97852
15571.0 0.0000642 15068.61426 15408.29883
15579.0 0.0000642 15081.00098 15418.28418
15558.0 0.0000643 15093.37988 15427.97754
15508.0 0.0000645 15105.75488 15437.40527
15463.0 0.0000647 15118.12305 15446.59863
15417.0 0.0000649 15130.48535 15455.60156
15403.0 0.0000649 15142.84082 15464.43359
15385.0 0.0000650 15155.19141 15473.14648
15368.0 0.0000651 15167.53516 15481.74707
15379.0 0.0000650 15179.87305 15490.28320
15388.0 0.0000650 15192.20410 15498.76660
15407.0 0.0000649 15204.53027 15507.24316
15405.0 0.0000649 15216.85059 15515.71680
15419.0 0.0000649 15229.16406 15524.21680
15430.0 0.0000648 15241.47070 15532.75879
15449.0 0.0000647 15253.77246 15541.36621
15459.0 0.0000647 15266.06836 15550.04785
15472.0 0.0000646 15278.35742 15558.82031
15491.0 0.0000646 15290.63965 15567.69434
15507.0 0.0000645 15302.91699 15576.67383
15509.0 0.0000645 15315.18848 15585.87988
15524.0 0.0000644 15327.45313 15595.10449
15536.0 0.0000644 15339.71094 15604.45703
15538.0 0.0000644 15351.96387 15613.95898
15576.0 0.0000642 15364.21094 15623.58203
15607.0 0.0000641 15376.45117 15633.35449
15611.0 0.0000641 15388.68555 15643.27734
15615.0 0.0000640 15400.91211 15653.33496
15605.0 0.0000641 15413.13379 15663.54688
15618.0 0.0000640 15425.34961 15673.89844
15641.0 0.0000639 15437.55957 15684.40723
15653.0 0.0000639 15449.76172 15695.05566
15661.0 0.0000639 15461.95898 15705.85938
15659.0 0.0000639 15474.14941 15716.81152
15669.0 0.0000638 15486.33398 15727.90820
15671.0 0.0000638 15498.51172 15739.15430
15677.0 0.0000638 15510.68359 15750.55078
15694.0 0.0000637 15522.84961 15762.09766
15727.0 0.0000636 15535.00879 15773.78516
15737.0 0.0000635 15547.16113 15785.63770
15758.0 0.0000635 15559.30859 15797.63379
15768.0 0.0000634 15571.45020 15809.78223
15793.0 0.0000633 15583.58398 15822.08203
15794.0 0.0000633 15595.71191 15834.54199
15810.0 0.0000633 15607.83398 15847.15820
15825.0 0.0000632 15619.94922 15859.93555
15832.0 0.0000632 15632.05957 15872.85645
15857.0 0.0000631 15644.16113 15885.94727
15857.0 0.0000631 15656.25781 15899.20410
15866.0 0.0000630 15668.34863 15912.62402
15883.0 0.0000630 15680.43262 15926.20703
15905.0 0.0000629 15692.51074 15939.96289
15941.0 0.0000627 15704.58105 15953.88965
15989.0 0.0000625 15716.64648 15967.98340
16005.0 0.0000625 15728.70508 15982.25195
16019.0 0.0000624 15740.75781 15996.69043
16062.0 0.0000623 15752.80273 16011.35645
16091.0 0.0000621 15764.84277 16026.14063
16114.0 0.0000621 15776.87598 16041.12012
16116.0 0.0000621 15788.90332 16056.26660
16109.0 0.0000621 15800.92285 16071.59375
16079.0 0.0000622 15812.93652 16087.12012
16062.0 0.0000623 15824.94434 16102.81836
16050.0 0.0000623 15836.94629 16118.72168
16055.0 0.0000623 15848.93945 16134.41113
16067.0 0.0000622 15860.92773 16150.70117
16085.0 0.0000622 15872.91016 16167.19629
16114.0 0.0000621 15884.88574 16183.90039
16128.0 0.0000620 15896.85449 16201.08105
16129.0 0.0000620 15908.81641 16218.22754
16156.0 0.0000619 15920.77344 16235.60645
16180.0 0.0000618 15932.72266 16253.22461
16188.0 0.0000618 15944.66504 16271.10742
16231.0 0.0000616 15956.60254 16289.26660
16258.0 0.0000615 15968.53223 16307.70898
16281.0 0.0000614 15980.45703 16326.47559
16318.0 0.0000613 15992.37402 16345.55957
16345.0 0.0000612 16004.28418 16365.00586
16394.0 0.0000610 16016.18848 16384.86719
16449.0 0.0000608 16028.08594 16405.14648
16490.0 0.0000606 16039.97754 16425.92188
16519.0 0.0000605 16051.86133 16447.31055
16550.0 0.0000604 16063.73926 16470.20898
16567.0 0.0000604 16075.61133 16499.06641
16578.0 0.0000603 16087.47656 16545.01758
16605.0 0.0000602 16099.33398 16611.58984
16617.0 0.0000602 16111.18652 16667.88867
16648.0 0.0000601 16123.03125 16679.05664
16690.0 0.0000599 16134.87012 16665.73633
16741.0 0.0000597 16146.70215 16668.83008
16809.0 0.0000595 16158.52734 16696.26563
16910.0 0.0000591 16170.34668 16738.54492
16987.0 0.0000589 16182.15918 16791.26563
17039.0 0.0000587 16193.96387 16855.11523
17073.0 0.0000586 16205.76367 16931.47656
17091.0 0.0000585 16217.55566 17019.47266
17097.0 0.0000585 16229.34180 17112.17773
17104.0 0.0000585 16241.12012 17192.39258
17107.0 0.0000585 16252.89355 17237.00586
17142.0 0.0000583 16264.65918 17236.63477
17178.0 0.0000582 16276.41895 17206.35742
17178.0 0.0000582 16288.17188 17169.27148
17191.0 0.0000582 16299.91699 17139.85547
17207.0 0.0000581 16311.65625 17123.21875
17219.0 0.0000581 16323.38867 17119.51172
17230.0 0.0000580 16335.11523 17127.06445
17261.0 0.0000579 16346.83301 17143.75195
17306.0 0.0000578 16358.54590 17167.86328
17368.0 0.0000576 16370.25195 17199.16992
17416.0 0.0000574 16381.95117 17241.29297
17456.0 0.0000573 16393.64258 17300.35156
17476.0 0.0000572 16405.32813 17370.35938
17475.0 0.0000572 16417.00781 17427.55273
17473.0 0.0000572 16428.67969 17460.35156
17470.0 0.0000572 16440.34375 17488.97852
17449.0 0.0000573 16452.00391 17534.10352
17422.0 0.0000574 16463.65625 17596.62109
17420.0 0.0000574 16475.30078 17670.89258
17409.0 0.0000574 16486.93750 17754.80078
17437.0 0.0000573 16498.57031 17849.10352
17505.0 0.0000571 16510.19531 17955.35938
17607.0 0.0000568 16521.81250 18075.39453
17788.0 0.0000562 16533.42383 18210.92188
18081.0 0.0000553 16545.02734 18363.37695
18438.0 0.0000542 16556.62500 18533.80664
18890.0 0.0000529 16568.21680 18722.89063
19385.0 0.0000516 16579.80078 18929.84961
19811.0 0.0000505 16591.37695 19150.77930
20086.0 0.0000498 16602.94727 19377.10547
20198.0 0.0000495 16614.50977 19594.56445
20180.0 0.0000496 16626.06641 19783.44531
20062.0 0.0000498 16637.61523 19921.42969
19946.0 0.0000501 16649.15820 19989.16602
19825.0 0.0000504 16660.69531 19977.00000
19666.0 0.0000508 16672.22461 19888.69141
19486.0 0.0000513 16683.74609 19739.91406
19251.0 0.0000519 16695.25977 19552.47266
18986.0 0.0000527 16706.76953 19347.86523
18744.0 0.0000534 16718.27148 19143.01953
18524.0 0.0000540 16729.76367 18949.15039
18386.0 0.0000544 16741.25195 18772.40234
18302.0 0.0000546 16752.73242 18615.31641
18272.0 0.0000547 16764.20703 18478.10352
18265.0 0.0000547 16775.67188 18359.69531
18304.0 0.0000546 16787.13281 18258.47852
18355.0 0.0000545 16798.58594 18172.58594
18421.0 0.0000543 16810.03125 18100.19727
18503.0 0.0000540 16821.47070 18039.61719
18556.0 0.0000539 16832.90234 17989.32227
18550.0 0.0000539 16844.32813 17947.98047
18479.0 0.0000541 16855.74609 17914.41406
18352.0 0.0000545 16867.15625 17887.50000
18202.0 0.0000549 16878.56055 17866.17578
18031.0 0.0000555 16889.95703 17849.33203
17877.0 0.0000559 16901.34766 17835.71289
17752.0 0.0000563 16912.73047 17823.95703
17673.0 0.0000566 16924.10547 17812.73047
17619.0 0.0000568 16935.47461 17801.00000
17574.0 0.0000569 16946.83594 17788.27344
17551.0 0.0000570 16958.19141 17774.69336
17522.0 0.0000571 16969.53711 17760.86719
17505.0 0.0000571 16980.87891 17747.59570
17498.0 0.0000571 16992.21289 17735.53906
17489.0 0.0000572 17003.53906 17725.20898
17481.0 0.0000572 17014.85742 17716.79102
17509.0 0.0000571 17026.16992 17710.40430
17526.0 0.0000571 17037.47656 17706.03125
17517.0 0.0000571 17048.77344 17703.56836
17527.0 0.0000571 17060.06445 17702.95508
17554.0 0.0000570 17071.34766 17704.06250
17571.0 0.0000569 17082.62500 17706.76563
17590.0 0.0000569 17093.89453 17711.15234
17604.0 0.0000568 17105.15625 17716.89648
17601.0 0.0000568 17116.41211 17724.04688
17620.0 0.0000568 17127.66211 17732.54883
17640.0 0.0000567 17138.90234 17742.33203
17640.0 0.0000567 17150.13672 17753.35547
17670.0 0.0000566 17161.36328 17765.51953
17694.0 0.0000565 17172.58203 17778.73047
17720.0 0.0000564 17183.79492 17792.90234
17768.0 0.0000563 17195.00000 17807.86914
17812.0 0.0000561 17206.19727 17823.38477
17858.0 0.0000560 17217.38867 17839.23633
17921.0 0.0000558 17228.57227 17855.11914
17953.0 0.0000557 17239.75000 17870.74414
17968.0 0.0000557 17250.91797 17885.80273
17974.0 0.0000556 17262.08008 17900.10742
17943.0 0.0000557 17273.23438 17913.42188
17924.0 0.0000558 17284.38281 17925.74023
17937.0 0.0000558 17295.52148 17937.16797
17951.0 0.0000557 17306.65430 17947.90820
17983.0 0.0000556 17317.78125 17958.25391
18075.0 0.0000553 17328.90039 17968.63867
18206.0 0.0000549 17340.00977 17979.39648
18500.0 0.0000541 17351.11328 17990.94922
18841.0 0.0000531 17362.21094 18003.65234
18820.0 0.0000531 17373.30078 18017.76367
18581.0 0.0000538 17384.38086 18033.52734
18408.0 0.0000543 17395.45703 18051.08008
18325.0 0.0000546 17406.52344 18070.49219
18294.0 0.0000547 17417.58398 18091.71484
18301.0 0.0000546 17428.63672 18114.63672
18309.0 0.0000546 17439.68164 18139.00195
18307.0 0.0000546 17450.72070 18164.40625
18301.0 0.0000546 17461.75195 18190.34766
18290.0 0.0000547 17472.77539 18216.14844
18257.0 0.0000548 17483.79102 18240.97266
18241.0 0.0000548 17494.79883 18263.93750
18223.0 0.0000549 17505.80078 18284.10938
18202.0 0.0000549 17516.79492 18300.62500
18209.0 0.0000549 17527.77930 18312.80273
18210.0 0.0000549 17538.75977 18320.24023
18214.0 0.0000549 17549.73242 18322.82617
18221.0 0.0000549 17560.69531 18320.82422
18214.0 0.0000549 17571.65234 18314.77148
18204.0 0.0000549 17582.60156 18305.43359
18203.0 0.0000549 17593.54492 18293.66602
18231.0 0.0000549 17604.47852 18280.36328
18234.0 0.0000548 17615.40625 18266.32031
18245.0 0.0000548 17626.32617 18252.24414
18262.0 0.0000548 17637.23828 18238.66797
18275.0 0.0000547 17648.14258 18226.03516
18303.0 0.0000546 17659.03906 18214.61719
18337.0 0.0000545 17669.92969 18204.59375
18343.0 0.0000545 17680.81250 18196.05859
18360.0 0.0000545 17691.68750 18189.08594
18368.0 0.0000544 17702.55469 18183.61914
18370.0 0.0000544 17713.41406 18179.62109
18367.0 0.0000544 17724.26758 18177.03711
18371.0 0.0000544 17735.11133 18175.81055
18355.0 0.0000545 17745.94922 18175.83203
18322.0 0.0000546 17756.77930 18177.06641
18317.0 0.0000546 17767.60156 18179.41797
18292.0 0.0000547 17778.41602 18182.81055
18270.0 0.0000547 17789.22461 18187.24219
18263.0 0.0000548 17800.02344 18192.53711
18257.0 0.0000548 17810.81445 18198.69727
18251.0 0.0000548 17821.59961 18205.67383
18263.0 0.0000548 17832.37695 18213.41211
18270.0 0.0000547 17843.14648 18221.88086
18283.0 0.0000547 17853.90820 18231.04688
18311.0 0.0000546 17864.66211 18240.86523
18307.0 0.0000546 17875.41016 18251.29883
18314.0 0.0000546 17886.14844 18262.31055
18340.0 0.0000545 17896.87891 18273.90039
18349.0 0.0000545 17907.60352 18286.02344
18347.0 0.0000545 17918.32031 18298.60352
18357.0 0.0000545 17929.02734 18311.64063
18365.0 0.0000545 17939.72852 18325.06250
18379.0 0.0000544 17950.42188 18338.83789
18392.0 0.0000544 17961.10742 18352.89844
18403.0 0.0000543 17971.78711 18367.16016
18396.0 0.0000544 17982.45703 18381.56445
18399.0 0.0000544 17993.11914 18396.00977
18392.0 0.0000544 18003.77344 18410.42578
18403.0 0.0000543 18014.42188 18424.72461
18418.0 0.0000543 18025.06055 18438.79492
18438.0 0.0000542 18035.69336 18452.56836
18453.0 0.0000542 18046.31641 18465.96289
18454.0 0.0000542 18056.93359 18478.91992
18461.0 0.0000542 18067.54102 18491.42383
18467.0 0.0000542 18078.14258 18503.42969
18472.0 0.0000541 18088.73633 18514.95313
18485.0 0.0000541 18099.32227 18526.02344
18514.0 0.0000540 18109.90039 18536.69141
18527.0 0.0000540 18120.47070 18546.99023
18538.0 0.0000539 18131.03320 18556.96094
18538.0 0.0000539 18141.58789 18566.78906
18555.0 0.0000539 18152.13281 18576.48633
18587.0 0.0000538 18162.67188 18586.13672
18604.0 0.0000538 18173.20508 18595.82617
18618.0 0.0000537 18183.72852 18605.58789
18642.0 0.0000536 18194.24219 18615.46875
18649.0 0.0000536 18204.75000 18625.50195
18663.0 0.0000536 18215.25195 18635.75781
18678.0 0.0000535 18225.74414 18646.20117
18676.0 0.0000535 18236.22852 18656.88477
18680.0 0.0000535 18246.70508 18667.80078
18679.0 0.0000535 18257.17383 18678.94141
18671.0 0.0000536 18267.63477 18690.30859
18663.0 0.0000536 18278.08789 18701.88086
18660.0 0.0000536 18288.53125 18713.66406
18666.0 0.0000536 18298.96875 18725.62109
18669.0 0.0000536 18309.39844 18737.77734
18667.0 0.0000536 18319.82031 18750.08398
18684.0 0.0000535 18330.23438 18762.55273
18680.0 0.0000535 18340.64063 18775.16602
18692.0 0.0000535 18351.03906 18787.92773
18731.0 0.0000534 18361.42773 18800.82813
18734.0 0.0000534 18371.81055 18813.86133
18725.0 0.0000534 18382.18359 18827.01953
18736.0 0.0000534 18392.55078 18840.31836
18738.0 0.0000534 18402.91016 18853.75195
18757.0 0.0000533 18413.25977 18867.33984
18791.0 0.0000532 18423.60156 18881.09180
18795.0 0.0000532 18433.93555 18895.03516
18821.0 0.0000531 18444.26367 18909.20508
18836.0 0.0000531 18454.58008 18923.67188
18860.0 0.0000530 18464.89258 18938.49023
18868.0 0.0000530 18475.19531 18953.82031
18891.0 0.0000529 18485.49023 18969.83789
18901.0 0.0000529 18495.77734 18986.82617
18941.0 0.0000528 18506.05469 19005.26953
18989.0 0.0000527 18516.32617 19025.76172
19065.0 0.0000525 18526.58789 19049.20703
19123.0 0.0000523 18536.84375 19076.61523
19167.0 0.0000522 18547.08984 19108.96484
19197.0 0.0000521 18557.32813 19146.31445
19176.0 0.0000521 18567.55859 19185.79883
19123.0 0.0000523 18577.78125 19219.17969
19102.0 0.0000524 18587.99609 19236.02930
19080.0 0.0000524 18598.20117 19234.75000
19073.0 0.0000524 18608.40039 19224.76758
19102.0 0.0000524 18618.59180 19215.61523
19160.0 0.0000522 18628.77344 19211.39453
19243.0 0.0000520 18638.94727 19212.39258
19387.0 0.0000516 18649.11328 19217.42188
19550.0 0.0000512 18659.27148 19224.88867
19661.0 0.0000509 18669.41992 19233.12305
19691.0 0.0000508 18679.56250 19240.84570
19623.0 0.0000510 18689.69727 19247.14453
19498.0 0.0000513 18699.82227 19251.81641
19381.0 0.0000516 18709.93945 19255.20117
19303.0 0.0000518 18720.04883 19257.88086
19257.0 0.0000519 18730.15039 19260.47266
19229.0 0.0000520 18740.24414 19263.40430
19226.0 0.0000520 18750.32813 19266.91602
19230.0 0.0000520 18760.40430 19271.09375
19231.0 0.0000520 18770.47266 19275.93555
19231.0 0.0000520 18780.53320 19281.36328
19207.0 0.0000521 18790.58594 19287.25977
19174.0 0.0000522 18800.62891 19293.89258
19156.0 0.0000522 18810.66602 19300.44531
19161.0 0.0000522 18820.69336 19307.14648
19161.0 0.0000522 18830.71289 19313.88477
19159.0 0.0000522 18840.72266 19320.57031
19161.0 0.0000522 18850.72656 19327.26563
19175.0 0.0000522 18860.72070 19333.56445
19186.0 0.0000521 18870.70703 19339.56445
19215.0 0.0000520 18880.68555 19345.18555
19234.0 0.0000520 18890.65625 19350.40234
19216.0 0.0000520 18900.61719 19355.24609
19234.0 0.0000520 18910.57031 19359.74805
19251.0 0.0000519 18920.51563 19363.99805
19279.0 0.0000519 18930.45313 19368.17383
19316.0 0.0000518 18940.38086 19372.42969
19338.0 0.0000517 18950.30273 19376.98242
19361.0 0.0000517 18960.21289 19382.02344
19371.0 0.0000516 18970.11719 19387.65625
19383.0 0.0000516 18980.01367 19393.94336
19378.0 0.0000516 18989.90039 19400.76953
19401.0 0.0000515 18999.77930 19408.05859
19412.0 0.0000515 19009.64844 19415.60547
19415.0 0.0000515 19019.51172 19423.20117
19448.0 0.0000514 19029.36523 19430.67188
19503.0 0.0000513 19039.21094 19437.86133
19535.0 0.0000512 19049.04883 19444.70313
19567.0 0.0000511 19058.87695 19451.30664
19568.0 0.0000511 19068.69727 19457.36133
19558.0 0.0000511 19078.50977 19463.01758
19542.0 0.0000512 19088.31250 19468.36133
19541.0 0.0000512 19098.10742 19473.96875
19533.0 0.0000512 19107.89648 19478.84180
19527.0 0.0000512 19117.67383 19483.59375
19537.0 0.0000512 19127.44336 19488.29688
19539.0 0.0000512 19137.20508 19493.02930
19528.0 0.0000512 19146.95898 19497.91211
19518.0 0.0000512 19156.70313 19503.04297
19532.0 0.0000512 19166.43945 19508.61133
19529.0 0.0000512 19176.16797 19515.11914
19536.0 0.0000512 19185.88672 19528.07227
19550.0 0.0000512 19195.59961 19593.02148
19551.0 0.0000511 19205.30078 19745.19141
19564.0 0.0000511 19214.99609 19733.36719
19582.0 0.0000511 19224.68164 19598.72070
19580.0 0.0000511 19234.35938 19558.97070
19580.0 0.0000511 19244.02734 19561.43945
19580.0 0.0000511 19253.68750 19569.14453
19588.0 0.0000511 19263.33984 19578.12109
19599.0 0.0000510 19272.98242 19587.80859
19614.0 0.0000510 19282.61719 19597.70898
19629.0 0.0000509 19292.24219 19607.16211
19648.0 0.0000509 19301.86133 19615.63281
19632.0 0.0000509 19311.47070 19623.04102
19650.0 0.0000509 19321.07031 19629.82617
19660.0 0.0000509 19330.66211 19636.60742
19665.0 0.0000509 19340.24609 19643.92773
19676.0 0.0000508 19349.82031 19652.09766
19693.0 0.0000508 19359.38672 19661.16992
19714.0 0.0000507 19368.94531 19671.22852
19727.0 0.0000507 19378.49414 19682.28125
19730.0 0.0000507 19388.03516 19694.32617
19736.0 0.0000507 19397.56641 19707.38281
19753.0 0.0000506 19407.08984 19721.48828
19779.0 0.0000506 19416.60547 19736.67383
19801.0 0.0000505 19426.11133 19752.98047
19823.0 0.0000504 19435.60938 19770.49023
19859.0 0.0000504 19445.09766 19789.27930
19873.0 0.0000503 19454.57813 19809.36133
19890.0 0.0000503 19464.05078 19830.75391
19916.0 0.0000502 19473.51367 19853.41992
19942.0 0.0000501 19482.96875 19877.25000
19959.0 0.0000501 19492.41406 19901.98828
19977.0 0.0000501 19501.84961 19927.25195
19985.0 0.0000500 19511.27930 19952.45703
19971.0 0.0000501 19520.69922 19976.84766
19958.0 0.0000501 19530.10938 19999.50781
19970.0 0.0000501 19539.51172 20019.47852
19980.0 0.0000501 19548.90625 20035.89453
19973.0 0.0000501 19558.29102 20048.18750
19968.0 0.0000501 19567.66602 20056.12891
19988.0 0.0000500 19577.03516 20059.95313
20005.0 0.0000500 19586.39453 20060.29492
20022.0 0.0000499 19595.74414 20058.04688
20034.0 0.0000499 19605.08398 20054.16992
20031.0 0.0000499 19614.41797 20049.56641
20041.0 0.0000499 19623.74219 20044.97852
20072.0 0.0000498 19633.05664 20040.98633
20097.0 0.0000498 19642.36328 20037.97070
20100.0 0.0000498 19651.66016 20036.14258
20101.0 0.0000497 19660.94922 20035.64844
20081.0 0.0000498 19670.23047 20036.49805
20061.0 0.0000498 19679.50000 20038.68359
20053.0 0.0000499 19688.76367 20042.16992
20083.0 0.0000498 19698.01758 20046.83398
20117.0 0.0000497 19707.26172 20052.65625
20119.0 0.0000497 19716.49805 20059.53125
20105.0 0.0000497 19725.72461 20067.38672
20097.0 0.0000498 19734.94336 20076.16602
20079.0 0.0000498 19744.15234 20085.88477
20078.0 0.0000498 19753.35352 20096.29883
20089.0 0.0000498 19762.54492 20107.44922
20099.0 0.0000498 19771.72852 20119.31250
20100.0 0.0000498 19780.90234 20131.81445
20111.0 0.0000497 19790.06836 20144.93555
20122.0 0.0000497 19799.22461 20158.62500
20123.0 0.0000497 19808.37109 20172.83984
20137.0 0.0000497 19817.50977 20187.56055
20137.0 0.0000497 19826.64063 20202.75781
20142.0 0.0000496 19835.75977 20218.36523
20161.0 0.0000496 19844.87305 20234.36133
20180.0 0.0000496 19853.97656 20250.66211
20201.0 0.0000495 19863.07031 20267.23047
20229.0 0.0000494 19872.15430 20283.98828
20244.0 0.0000494 19881.23047 20300.88086
20256.0 0.0000494 19890.29883 20317.79883
20268.0 0.0000493 19899.35742 20334.64258
20272.0 0.0000493 19908.40625 20351.30664
20307.0 0.0000492 19917.44727 20367.66211
20328.0 0.0000492 19926.47852 20383.60352
20315.0 0.0000492 19935.50000 20398.96680
20327.0 0.0000492 19944.51367 20413.65625
20323.0 0.0000492 19953.51758 20427.52539
20328.0 0.0000492 19962.51367 20440.46680
20340.0 0.0000492 19971.50000 20452.35352
20356.0 0.0000491 19980.47852 20463.11719
20380.0 0.0000491 19989.44531 20472.69531
20409.0 0.0000490 19998.40625 20481.07813
20436.0 0.0000489 20007.35547 20488.24805
20480.0 0.0000488 20016.29883 20494.30078
20540.0 0.0000487 20025.23047 20499.19336
20627.0 0.0000485 20034.15234 20503.09961
20737.0 0.0000482 20043.06836 20506.09766
20852.0 0.0000480 20051.97266 20508.33789
21022.0 0.0000476 20060.86914 20509.94922
21173.0 0.0000472 20069.75586 20511.07422
21235.0 0.0000471 20078.63477 20511.83203
21185.0 0.0000472 20087.50195 20512.36523
21068.0 0.0000475 20096.36133 20512.81641
20884.0 0.0000479 20105.21289 20513.26563
20719.0 0.0000483 20114.05469 20513.82422
20622.0 0.0000485 20122.88672 20514.56445
20563.0 0.0000486 20131.71094 20515.56445
20525.0 0.0000487 20140.52539 20516.88477
20521.0 0.0000487 20149.33008 20518.53906
20517.0 0.0000487 20158.12695 20520.58984
20497.0 0.0000488 20166.91211 20523.02539
20496.0 0.0000488 20175.68945 20525.89648
20522.0 0.0000487 20184.45898 20529.35938
20533.0 0.0000487 20193.21875 20533.10938
20535.0 0.0000487 20201.96875 20537.29297
20554.0 0.0000487 20210.70898 20541.92578
20555.0 0.0000486 20219.44141 20546.95703
20571.0 0.0000486 20228.16406 20552.41797
20574.0 0.0000486 20236.87695 20558.30078
20591.0 0.0000486 20245.58008 20564.57422
20584.0 0.0000486 20254.27539 20571.23828
20568.0 0.0000486 20262.96094 20578.27930
20582.0 0.0000486 20271.63867 20585.68750
20595.0 0.0000486 20280.30469 20593.46875
20609.0 0.0000485 20288.96289 20601.58984
20615.0 0.0000485 20297.61328 20610.04688
20617.0 0.0000485 20306.25195 20618.82813
20633.0 0.0000485 20314.88086 20627.93164
20626.0 0.0000485 20323.50391 20637.34375
20640.0 0.0000484 20332.11523 20647.05273
20629.0 0.0000485 20340.71680 20657.05664
20640.0 0.0000484 20349.31055 20667.33008
20659.0 0.0000484 20357.89453 20677.89648
20686.0 0.0000483 20366.46875 20688.68555
20697.0 0.0000483 20375.03516 20699.72852
20701.0 0.0000483 20383.58984 20711.00391
20734.0 0.0000482 20392.13672 20722.48242
20743.0 0.0000482 20400.67383 20734.16211
20769.0 0.0000481 20409.20313 20746.02148
20780.0 0.0000481 20417.72070 20758.02344
20791.0 0.0000481 20426.23047 20770.18750
20796.0 0.0000481 20434.73047 20782.45508
20803.0 0.0000481 20443.22070 20794.82031
20816.0 0.0000480 20451.70117 20807.26758
20813.0 0.0000480 20460.17383 20819.78320
20818.0 0.0000480 20468.63672 20832.31836
20821.0 0.0000480 20477.08984 20844.90234
20828.0 0.0000480 20485.53320 20857.48828
20847.0 0.0000480 20493.96680 20870.08789
20860.0 0.0000479 20502.39258 20882.68555
20871.0 0.0000479 20510.80859 20895.26953
20869.0 0.0000479 20519.21484 20907.87500
20880.0 0.0000479 20527.60938 20920.45898
20888.0 0.0000479 20535.99805 20933.03320
20903.0 0.0000478 20544.37500 20945.62500
20908.0 0.0000478 20552.74414 20958.20313
20917.0 0.0000478 20561.10156 20970.80469
20926.0 0.0000478 20569.45117 20983.38281
20940.0 0.0000478 20577.79297 20995.96484
20938.0 0.0000478 20586.12305 21008.55078
20938.0 0.0000478 20594.44336 21021.13281
20938.0 0.0000478 20602.75391 21033.68555
20923.0 0.0000478 20611.05664 21046.21289
20921.0 0.0000478 20619.34961 21058.71094
20937.0 0.0000478 20627.63281 21071.16016
20936.0 0.0000478 20635.90625 21083.55664
20940.0 0.0000478 20644.16992 21095.91797
20961.0 0.0000477 20652.42578 21108.18750
20974.0 0.0000477 20660.66992 21120.40430
20990.0 0.0000476 20668.90430 21132.54297
21017.0 0.0000476 20677.13086 21144.63672
21027.0 0.0000476 20685.34766 21156.69922
21039.0 0.0000475 20693.55469 21168.64648
21073.0 0.0000475 20701.75000 21180.53125
21109.0 0.0000474 20709.93945 21192.37891
21189.0 0.0000472 20718.11719 21204.17969
21259.0 0.0000470 20726.28516 21215.93359
21399.0 0.0000467 20734.44336 21227.65430
21596.0 0.0000463 20742.59375 21239.35156
21575.0 0.0000463 20750.73242 21251.02344
21495.0 0.0000465 20758.86328 21262.67773
21401.0 0.0000467 20766.98242 21274.32031
21306.0 0.0000469 20775.09375 21285.93945
21239.0 0.0000471 20783.19531 21297.54492
21186.0 0.0000472 20791.28711 21309.12109
21173.0 0.0000472 20799.36914 21320.67969
21180.0 0.0000472 20807.44141 21332.19922
21205.0 0.0000472 20815.50391 21343.68750
21219.0 0.0000471 20823.55664 21355.12891
21239.0 0.0000471 20831.59961 21366.49609
21284.0 0.0000470 20839.63281 21377.81641
21309.0 0.0000469 20847.65820 21389.07031
21336.0 0.0000469 20855.67188 21400.22070
21373.0 0.0000468 20863.67578 21411.27344
21411.0 0.0000467 20871.66992 21422.21680
21440.0 0.0000466 20879.65625 21433.07813
21462.0 0.0000466 20887.63086 21443.83008
21486.0 0.0000465 20895.59766 21454.48633
21503.0 0.0000465 20903.55273 21465.14648
21527.0 0.0000465 20911.50000 21475.96289
21574.0 0.0000464 20919.43555 21487.37695
21608.0 0.0000463 20927.36328 21500.10547
21636.0 0.0000462 20935.27930 21515.32031
21687.0 0.0000461 20943.18750 21534.38086
21721.0 0.0000460 20951.08398 21558.34570
21753.0 0.0000460 20958.97266 21587.26758
21746.0 0.0000460 20966.84961 21618.92188
21750.0 0.0000460 20974.71680 21649.36328
21736.0 0.0000460 20982.57617 21673.42773
21698.0 0.0000461 20990.42383 21686.87695
21666.0 0.0000462 20998.26367 21688.57617
21648.0 0.0000462 21006.09180 21681.29688
21639.0 0.0000462 21013.91211 21669.92773
21621.0 0.0000463 21021.72070 21659.15430
21603.0 0.0000463 21029.51953 21651.86133
21594.0 0.0000463 21037.30859 21648.69531
21594.0 0.0000463 21045.08789 21648.63867
21587.0 0.0000463 21052.85938 21650.01367
21587.0 0.0000463 21060.61914 21651.41797
21585.0 0.0000463 21068.36914 21652.10742
21594.0 0.0000463 21076.10938 21651.94922
21615.0 0.0000463 21083.83984 21651.17578
21636.0 0.0000462 21091.56055 21650.00977
21648.0 0.0000462 21099.26953 21648.65430
21664.0 0.0000462 21106.97070 21647.23438
21674.0 0.0000461 21114.66211 21645.80273
21688.0 0.0000461 21122.34375 21644.33984
21694.0 0.0000461 21130.01367 21642.85938
21698.0 0.0000461 21137.67383 21641.31055
21722.0 0.0000460 21145.32617 21639.65820
21713.0 0.0000461 21152.96680 21637.84766
21704.0 0.0000461 21160.59766 21635.86914
21689.0 0.0000461 21168.21875 21633.71094
21675.0 0.0000461 21175.83008 21631.45898
21667.0 0.0000462 21183.43164 21629.13477
21645.0 0.0000462 21191.02344 21626.91797
21642.0 0.0000462 21198.60352 21624.98633
21630.0 0.0000462 21206.17578 21623.64063
21634.0 0.0000462 21213.73633 21623.14453
21633.0 0.0000462 21221.28906 21623.83008
21627.0 0.0000462 21228.83008 21625.92578
21613.0 0.0000463 21236.36133 21629.62500
21615.0 0.0000463 21243.88086 21634.92969
21621.0 0.0000463 21251.39258 21641.75586
21632.0 0.0000462 21258.89453 21649.85938
21639.0 0.0000462 21266.38477 21658.95313
21638.0 0.0000462 21273.86719 21668.75586
21643.0 0.0000462 21281.33789 21678.95313
21653.0 0.0000462 21288.79883 21689.37500
21655.0 0.0000462 21296.25000 21699.82617
21663.0 0.0000462 21303.69141 21710.20898
21678.0 0.0000461 21311.12109 21720.44141
21686.0 0.0000461 21318.54102 21730.51563
21700.0 0.0000461 21325.95313 21740.39844
21712.0 0.0000461 21333.35352 21750.10547
21719.0 0.0000460 21340.74414 21759.64063
21722.0 0.0000460 21348.12305 21769.02148
21735.0 0.0000460 21355.49414 21778.30469
21756.0 0.0000460 21362.85352 21787.49805
21760.0 0.0000460 21370.20508 21796.61328
21779.0 0.0000459 21377.54492 21805.69336
21786.0 0.0000459 21384.87305 21815.39258
21834.0 0.0000458 21392.19336 21824.51172
21865.0 0.0000457 21399.50195 21833.66406
21897.0 0.0000457 21406.80078 21842.92969
21934.0 0.0000456 21414.08984 21852.27148
21974.0 0.0000455 21421.36914 21861.77344
21996.0 0.0000455 21428.63867 21871.42578
22003.0 0.0000454 21435.89648 21881.28711
22000.0 0.0000455 21443.14453 21891.43555
22001.0 0.0000455 21450.38281 21901.90625
22004.0 0.0000454 21457.61133 21912.83398
21972.0 0.0000455 21464.82813 21924.37695
21962.0 0.0000455 21472.03516 21936.72070
21950.0 0.0000456 21479.23242 21950.05664
21947.0 0.0000456 21486.41992 21964.55078
21956.0 0.0000455 21493.59570 21980.23633
21957.0 0.0000455 21500.76172 21997.00586
21961.0 0.0000455 21507.91797 22014.57617
21964.0 0.0000455 21515.06445 22032.49609
21959.0 0.0000455 21522.19922 22050.34766
21966.0 0.0000455 21529.32422 22067.86523
21993.0 0.0000455 21536.43945 22084.94141
22005.0 0.0000454 21543.54492 22101.76367
22024.0 0.0000454 21550.63867 22118.58203
22048.0 0.0000454 21557.72461 22135.61523
22068.0 0.0000453 21564.79688 22152.91016
22097.0 0.0000453 21571.86133 22170.30273
22135.0 0.0000452 21578.91406 22187.49219
22179.0 0.0000451 21585.95703 22204.23047
22205.0 0.0000450 21592.98828 22220.37305
22236.0 0.0000450 21600.01172 22236.10547
22275.0 0.0000449 21607.02344 22251.59961
22324.0 0.0000448 21614.02539 22267.10742
22351.0 0.0000447 21621.01563 22282.83594
22354.0 0.0000447 21627.99609 22298.93750
22381.0 0.0000447 21634.96680 22315.49805
22395.0 0.0000447 21641.92578 22332.56836
22422.0 0.0000446 21648.87500 22350.14648
22442.0 0.0000446 21655.81445 22368.23633
22481.0 0.0000445 21662.74414 22386.79688
22478.0 0.0000445 21669.66211 22405.75977
22493.0 0.0000445 21676.57031 22425.06836
22493.0 0.0000445 21683.46875 22444.65234
22503.0 0.0000444 21690.35352 22464.41992
22507.0 0.0000444 21697.23047 22484.32617
22507.0 0.0000444 21704.09766 22504.27539
22508.0 0.0000444 21710.95313 22524.22070
22513.0 0.0000444 21717.79883 22544.07617
22516.0 0.0000444 21724.63281 22563.83203
22530.0 0.0000444 21731.45703 22583.46875
22542.0 0.0000444 21738.27148 22602.98828
22580.0 0.0000443 21745.07617 22622.35156
22592.0 0.0000443 21751.86719 22641.41992
22620.0 0.0000442 21758.65039 22659.89648
22649.0 0.0000442 21765.42188 22677.14844
22688.0 0.0000441 21772.18359 22692.17773
22695.0 0.0000441 21778.93359 22703.59570
22703.0 0.0000440 21785.67383 22709.93359
22717.0 0.0000440 21792.40430 22710.26172
22725.0 0.0000440 21799.12500 22704.75000
22706.0 0.0000440 21805.83203 22694.72656
22686.0 0.0000441 21812.52930 22681.88672
22647.0 0.0000442 21819.21875 22667.72461
22619.0 0.0000442 21825.89453 22653.28516
22610.0 0.0000442 21832.56055 22639.14453
22595.0 0.0000443 21839.21680 22625.63281
22585.0 0.0000443 21845.86328 22612.95508
22588.0 0.0000443 21852.49805 22601.35547
22574.0 0.0000443 21859.12109 22591.18555
22576.0 0.0000443 21865.73438 22582.76953
22561.0 0.0000443 21872.33789 22576.38867
22562.0 0.0000443 21878.92969 22572.31836
22574.0 0.0000443 21885.51172 22570.67969
22605.0 0.0000442 21892.08398 22571.57813
22622.0 0.0000442 21898.64453 22574.99023
22628.0 0.0000442 21905.19336 22580.90234
22624.0 0.0000442 21911.73242 22589.23242
22621.0 0.0000442 21918.25977 22599.79688
22619.0 0.0000442 21924.77734 22612.40039
22622.0 0.0000442 21931.28516 22626.65430
22629.0 0.0000442 21937.78125 22642.16797
22654.0 0.0000441 21944.26758 22658.32422
22664.0 0.0000441 21950.74414 22674.46094
22671.0 0.0000441 21957.20703 22689.77344
22671.0 0.0000441 21963.66211 22703.41016
22670.0 0.0000441 21970.10352 22714.50586
22680.0 0.0000441 21976.53516 22722.29688
22683.0 0.0000441 21982.95703 22726.24805
22676.0 0.0000441 21989.36914 22726.06250
22675.0 0.0000441 21995.76953 22721.73828
22661.0 0.0000441 22002.15820 22713.62695
22651.0 0.0000441 22008.53711 22702.29883
22640.0 0.0000442 22014.90430 22688.48047
22651.0 0.0000441 22021.26172 22672.94922
22654.0 0.0000441 22027.60742 22656.47070
22656.0 0.0000441 22033.94336 22639.71484
22666.0 0.0000441 22040.26758 22623.22461
22669.0 0.0000441 22046.58203 22607.45313
22668.0 0.0000441 22052.88477 22592.71680
22671.0 0.0000441 22059.17773 22579.20313
22672.0 0.0000441 22065.45898 22567.07813
22679.0 0.0000441 22071.73047 22556.43555
22664.0 0.0000441 22077.98828 22547.26758
22649.0 0.0000442 22084.23828 22539.58594
22643.0 0.0000442 22090.47656 22533.38086
22636.0 0.0000442 22096.70313 22528.59570
22644.0 0.0000442 22102.91992 22525.14453
22639.0 0.0000442 22109.12695 22523.02539
22638.0 0.0000442 22115.32031 22522.11133
22638.0 0.0000442 22121.50586 22522.36328
22635.0 0.0000442 22127.67773 22523.72070
22610.0 0.0000442 22133.83984 22526.09961
22610.0 0.0000442 22139.99219 22529.45313
22600.0 0.0000442 22146.13086 22533.72070
22610.0 0.0000442 22152.26172 22538.84180
22612.0 0.0000442 22158.38086 22544.80859
22624.0 0.0000442 22164.48828 22551.54492
22630.0 0.0000442 22170.58398 22559.10547
22645.0 0.0000442 22176.66992 22567.51953
22641.0 0.0000442 22182.74414 22576.88281
22651.0 0.0000441 22188.80859 22587.40625
22662.0 0.0000441 22194.86133 22599.41211
22690.0 0.0000441 22200.90430 22613.41992
22703.0 0.0000440 22206.93555 22630.09961
22708.0 0.0000440 22212.95508 22650.41211
22712.0 0.0000440 22218.96484 22675.55273
22738.0 0.0000440 22224.96289 22706.95117
22774.0 0.0000439 22230.94922 22746.13867
22816.0 0.0000438 22236.92578 22794.59180
22861.0 0.0000437 22242.89063 22853.55273
22881.0 0.0000437 22248.84570 22923.66406
22924.0 0.0000436 22254.78906 23004.73047
22973.0 0.0000435 22260.72070 23095.41992
23035.0 0.0000434 22266.64258 23193.06836
23150.0 0.0000432 22272.55273 23293.45117
23325.0 0.0000429 22278.45117 23390.81641
23525.0 0.0000425 22284.33789 23477.88477
23730.0 0.0000421 22290.21484 23546.50977
23847.0 0.0000419 22296.08203 23588.89453
23847.0 0.0000419 22301.93750 23599.83594
23681.0 0.0000422 22307.78125 23578.63281
23442.0 0.0000427 22313.61328 23529.36719
23226.0 0.0000431 22319.43555 23459.34375
23070.0 0.0000433 22325.24414 23376.82422
22971.0 0.0000435 22331.04492 23289.39648
22912.0 0.0000436 22336.83203 23203.28516
22869.0 0.0000437 22342.60938 23123.13281
22838.0 0.0000438 22348.37695 23052.06250
22812.0 0.0000438 22354.13086 22991.77148
22792.0 0.0000439 22359.87500 22942.75000
22780.0 0.0000439 22365.60742 22904.54883
22786.0 0.0000439 22371.33008 22876.05859
22791.0 0.0000439 22377.03906 22855.89648
22791.0 0.0000439 22382.73828 22842.45703
22777.0 0.0000439 22388.42578 22834.26563
22776.0 0.0000439 22394.10352 22830.06836
22770.0 0.0000439 22399.76953 22828.79492
22756.0 0.0000439 22405.42383 22829.61914
22775.0 0.0000439 22411.06641 22831.98047
22783.0 0.0000439 22416.69922 22835.45703
22791.0 0.0000439 22422.31836 22839.75586
22801.0 0.0000439 22427.92969 22845.23828
22801.0 0.0000439 22433.52734 22850.76563
22825.0 0.0000438 22439.11523 22856.79102
22861.0 0.0000437 22444.69141 22863.22852
22905.0 0.0000437 22450.25586 22870.06836
22967.0 0.0000435 22455.80859 22877.26172
23056.0 0.0000434 22461.35156 22884.76172
23119.0 0.0000433 22466.88086 22892.48633
23050.0 0.0000434 22472.40234 22900.34766
22935.0 0.0000436 22477.91016 22908.26953
22882.0 0.0000437 22483.40820 22916.14648
22877.0 0.0000437 22488.89258 22923.86328
22879.0 0.0000437 22494.36914 22931.35156
22882.0 0.0000437 22499.83203 22938.49609
22892.0 0.0000437 22505.28320 22945.28320
22894.0 0.0000437 22510.72461 22951.62891
22890.0 0.0000437 22516.15234 22957.51172
22901.0 0.0000437 22521.57031 22962.95898
22902.0 0.0000437 22526.97852 22967.97266
22897.0 0.0000437 22532.37305 22972.58203
22909.0 0.0000437 22537.75781 22976.83594
22911.0 0.0000436 22543.13086 22980.79492
22918.0 0.0000436 22548.49219 22984.49609
22919.0 0.0000436 22553.84180 22988.01172
22936.0 0.0000436 22559.17969 22991.35547
22944.0 0.0000436 22564.50781 22994.59180
22951.0 0.0000436 22569.82227 22997.78320
22955.0 0.0000436 22575.12695 23000.93555
22949.0 0.0000436 22580.41992 23004.08398
22961.0 0.0000436 22585.70313 23007.24609
22960.0 0.0000436 22590.97266 23010.44922
22968.0 0.0000435 22596.23242 23013.66797
22983.0 0.0000435 22601.47852 23016.90430
22978.0 0.0000435 22606.71484 23020.18359
22978.0 0.0000435 22611.93945 23023.47461
22980.0 0.0000435 22617.15234 23026.76758
22982.0 0.0000435 22622.35352 23030.02930
22991.0 0.0000435 22627.54297 23033.24609
22999.0 0.0000435 22632.72266 23036.38086
23001.0 0.0000435 22637.89063 23039.45313
23021.0 0.0000434 22643.04492 23042.36719
23012.0 0.0000435 22648.18945 23045.13086
23009.0 0.0000435 22653.32227 23047.71875
23018.0 0.0000434 22658.44336 23050.10547
23031.0 0.0000434 22663.55273 23052.27930
23029.0 0.0000434 22668.65234 23054.16406
23055.0 0.0000434 22673.73828 23055.78906
23091.0 0.0000433 22678.81445 23057.08398
23138.0 0.0000432 22683.87695 23058.07031
23175.0 0.0000431 22688.92969 23058.68945
23212.0 0.0000431 22693.96875 23058.96094
23228.0 0.0000431 22698.99805 23058.87695
23209.0 0.0000431 22704.01563 23058.38477
23189.0 0.0000431 22709.02344 23057.48438
23157.0 0.0000432 22714.01758 23056.18945
23130.0 0.0000432 22719.00000 23054.46875
23100.0 0.0000433 22723.97070 23052.35742
23091.0 0.0000433 22728.92969 23049.82031
23089.0 0.0000433 22733.87695 23046.85547
23091.0 0.0000433 22738.81445 23043.49414
23088.0 0.0000433 22743.74023 23039.73633
23078.0 . . .
23086.0 . . .
23102.0 . . .
23089.0 . . .
23096.0 . . .
23116.0 . . .
23118.0 . . .
23130.0 . . .
23133.0 . . .
23160.0 . . .
23199.0 . . .
23226.0 . . .
23243.0 . . .
23256.0 . . .
23268.0 . . .
23287.0 . . .
23292.0 . . .
23299.0 . . .
23279.0 . . .
23268.0 . . .
23279.0 . . .
23276.0 . . .
23270.0 . . .
23250.0 . . .
23256.0 . . .
23271.0 . . .
23286.0 . . .
23294.0 . . .
23278.0 . . .
23276.0 . . .
23285.0 . . .
23295.0 . . .
23293.0 . . .
23290.0 . . .
23309.0 . . .
23306.0 . . .
23307.0 . . .
23309.0 . . .
23323.0 . . .
23318.0 . . .
23340.0 . . .
23344.0 . . .
23364.0 . . .
23398.0 . . .
23422.0 . . .
23411.0 . . .
23386.0 . . .
23370.0 . . .
23351.0 . . .
23339.0 . . .
23322.0 . . .
23307.0 . . .
23297.0 . . .
23292.0 . . .
23283.0 . . .
23274.0 . . .
23274.0 . . .
23272.0 . . .
23265.0 . . .
23269.0 . . .
23266.0 . . .
23270.0 . . .
23272.0 . . .
23269.0 . . .
23300.0 . . .
23301.0 . . .
23318.0 . . .
23331.0 . . .
23327.0 . . .
23326.0 . . .
23331.0 . . .
23338.0 . . .
23344.0 . . .
23361.0 . . .
23367.0 . . .
23374.0 . . .
23388.0 . . .
23404.0 . . .
23399.0 . . .
23405.0 . . .
23399.0 . . .
23414.0 . . .
23423.0 . . .
23427.0 . . .
23425.0 . . .
23425.0 . . .
23437.0 . . .
23447.0 . . .
23446.0 . . .
23455.0 . . .
23460.0 . . .
23465.0 . . .
23477.0 . . .
23489.0 . . .
23492.0 . . .
23484.0 . . .
23497.0 . . .
23496.0 . . .
23491.0 . . .
23492.0 . . .
23484.0 . . .
23477.0 . . .
23488.0 . . .
23524.0 . . .
23553.0 . . .
23574.0 . . .
23576.0 . . .
23548.0 . . .
23524.0 . . .
23512.0 . . .
23503.0 . . .
23496.0 . . .
23487.0 . . .
23470.0 . . .
23465.0 . . .
23466.0 . . .
23478.0 . . .
23458.0 . . .
23448.0 . . .
23437.0 . . .
23432.0 . . .
23441.0 . . .
23438.0 . . .
23447.0 . . .
23441.0 . . .
23434.0 . . .
23447.0 . . .
23462.0 . . .
23452.0 . . .
23447.0 . . .
23461.0 . . .
23482.0 . . .
23505.0 . . .
23529.0 . . .
23535.0 . . .
23553.0 . . .
23564.0 . . .
23557.0 . . .
23549.0 . . .
23548.0 . . .
23523.0 . . .
23510.0 . . .
23502.0 . . .
23483.0 . . .
23470.0 . . .
23468.0 . . .
23461.0 . . .
23448.0 . . .
23418.0 . . .
23405.0 . . .
23404.0 . . .
23386.0 . . .
23370.0 . . .
23362.0 . . .
23371.0 . . .
23367.0 . . .
23371.0 . . .
23384.0 . . .
23391.0 . . .
23387.0 . . .
23389.0 . . .
23412.0 . . .
23427.0 . . .
23449.0 . . .
23455.0 . . .
23478.0 . . .
23508.0 . . .
23531.0 . . .
23547.0 . . .
23529.0 . . .
23506.0 . . .
23469.0 . . .
23436.0 . . .
23413.0 . . .
23380.0 . . .
23355.0 . . .
23339.0 . . .
23327.0 . . .
23315.0 . . .
23293.0 . . .
23280.0 . . .
23277.0 . . .
23267.0 . . .
23251.0 . . .
23242.0 . . .
23233.0 . . .
23224.0 . . .
23231.0 . . .
23237.0 . . .
23222.0 . . .
23204.0 . . .
23196.0 . . .
23183.0 . . .
23154.0 . . .
23132.0 . . .
23072.0 . . .
23024.0 . . .
22967.0 . . .
22919.0 . . .
22851.0 . . .
22757.0 . . .
22671.0 . . .
22575.0 . . .
22540.0 . . .
22653.0 . . .
22717.0 . . .
22748.0 . . .
22752.0 . . .
22761.0 . . .
22784.0 . . .
22776.0 . . .
22794.0 . . .
22795.0 . . .
22799.0 . . .
22805.0 . . .
22794.0 . . .
22792.0 . . .
22802.0 . . .
22803.0 . . .
22792.0 . . .
22796.0 . . .
22796.0 . . .
22802.0 . . .
22791.0 . . .
22786.0 . . .
22777.0 . . .
22778.0 . . .
22789.0 . . .
22788.0 . . .
22784.0 . . .
22760.0 . . .
22757.0 . . .
22754.0 . . .
22743.0 . . .
22719.0 . . .
22719.0 . . .
22716.0 . . .
22705.0 . . .
22715.0 . . .
22726.0 . . .
22710.0 . . .
22691.0 . . .
22697.0 . . .
22704.0 . . .
22687.0 . . .
22676.0 . . .
22672.0 . . .
22637.0 . . .
22618.0 . . .
22619.0 . . .
22604.0 . . .
22589.0 . . .
22568.0 . . .
22540.0 . . .
22530.0 . . .
22515.0 . . .
22495.0 . . .
22481.0 . . .
22469.0 . . .
22470.0 . . .
22464.0 . . .
22459.0 . . .
22446.0 . . .
22448.0 . . .
22438.0 . . .
22410.0 . . .
22409.0 . . .
22415.0 . . .
22415.0 . . .
22394.0 . . .
22373.0 . . .
22368.0 . . .
22358.0 . . .
22354.0 . . .
22342.0 . . .
22322.0 . . .
22311.0 . . .
22302.0 . . .
22281.0 . . .
22272.0 . . .
22275.0 . . .
22264.0 . . .
22240.0 . . .
22242.0 . . .
22227.0 . . .
22195.0 . . .
22174.0 . . .
22160.0 . . .
22155.0 . . .
22154.0 . . .
22148.0 . . .
22127.0 . . .
22118.0 . . .
22098.0 . . .
22096.0 . . .
22107.0 . . .
22095.0 . . .
22083.0 . . .
22070.0 . . .
22061.0 . . .
22059.0 . . .
22035.0 . . .
22027.0 . . .
22039.0 . . .
22032.0 . . .
22020.0 . . .
22003.0 . . .
21992.0 . . .
21988.0 . . .
21963.0 . . .
21944.0 . . .
21927.0 . . .
21918.0 . . .
21912.0 . . .
21909.0 . . .
21896.0 . . .
21888.0 . . .
21878.0 . . .
21876.0 . . .
21873.0 . . .
21863.0 . . .
21874.0 . . .
21869.0 . . .
21854.0 . . .
21851.0 . . .
21830.0 . . .
21817.0 . . .
21812.0 . . .
21801.0 . . .
21781.0 . . .
21777.0 . . .
21767.0 . . .
21743.0 . . .
21711.0 . . .
21685.0 . . .
21658.0 . . .
21639.0 . . .
21597.0 . . .
21565.0 . . .
21556.0 . . .
21545.0 . . .
21534.0 . . .
21490.0 . . .
21445.0 . . .
21417.0 . . .
21410.0 . . .
21394.0 . . .
21364.0 . . .
21359.0 . . .
21346.0 . . .
21298.0 . . .
21273.0 . . .
21283.0 . . .
21270.0 . . .
21247.0 . . .
21217.0 . . .
21206.0 . . .
21194.0 . . .
21176.0 . . .
21156.0 . . .
21150.0 . . .
21136.0 . . .
21095.0 . . .
21095.0 . . .
21101.0 . . .
21081.0 . . .
21065.0 . . .
21051.0 . . .
21029.0 . . .
21006.0 . . .
20972.0 . . .
20942.0 . . .
20925.0 . . .
20910.0 . . .
20877.0 . . .
20853.0 . . .
20843.0 . . .
20804.0 . . .
20776.0 . . .
20754.0 . . .
20718.0 . . .
20702.0 . . .
20676.0 . . .
20661.0 . . .
20656.0 . . .
20639.0 . . .
20621.0 . . .
20585.0 . . .
20559.0 . . .
20537.0 . . .
20526.0 . . .
20503.0 . . .
20477.0 . . .
20453.0 . . .
20434.0 . . .
20392.0 . . .
20372.0 . . .
20361.0 . . .
20345.0 . . .
20323.0 . . .
20306.0 . . .
20286.0 . . .
20266.0 . . .
20224.0 . . .
20197.0 . . .
20185.0 . . .
20161.0 . . .
20142.0 . . .
20125.0 . . .
20103.0 . . .
20081.0 . . .
20055.0 . . .
20038.0 . . .
20018.0 . . .
19992.0 . . .
19970.0 . . .
19954.0 . . .
19949.0 . . .
19930.0 . . .
19914.0 . . .
19902.0 . . .
19889.0 . . .
19847.0 . . .
19836.0 . . .
19834.0 . . .
19827.0 . . .
19803.0 . . .
19775.0 . . .
19772.0 . . .
19781.0 . . .
19773.0 . . .
19751.0 . . .
19721.0 . . .
19697.0 . . .
19685.0 . . .
19658.0 . . .
19648.0 . . .
19655.0 . . .
19627.0 . . .
19590.0 . . .
19593.0 . . .
19591.0 . . .
19584.0 . . .
19542.0 . . .
19511.0 . . .
19500.0 . . .
19471.0 . . .
19455.0 . . .
19460.0 . . .
19454.0 . . .
19441.0 . . .
19422.0 . . .
19409.0 . . .
19381.0 . . .
19345.0 . . .
19332.0 . . .
19326.0 . . .
19285.0 . . .
19265.0 . . .
19258.0 . . .
19226.0 . . .
19203.0 . . .
19172.0 . . .
19164.0 . . .
19154.0 . . .
19102.0 . . .
19076.0 . . .
19038.0 . . .
19021.0 . . .
19020.0 . . .
18993.0 . . .
18967.0 . . .
18933.0 . . .
18909.0 . . .
18885.0 . . .
18859.0 . . .
18833.0 . . .
18818.0 . . .
18774.0 . . .
18774.0 . . .
18773.0 . . .
18757.0 . . .
18743.0 . . .
18713.0 . . .
18698.0 . . .
18673.0 . . .
18641.0 . . .
18626.0 . . .
18597.0 . . .
18561.0 . . .
18527.0 . . .
18478.0 . . .
18449.0 . . .
18415.0 . . .
18428.0 . . .
18432.0 . . .
18400.0 . . .
18374.0 . . .
18352.0 . . .
18341.0 . . .
18332.0 . . .
18291.0 . . .
18264.0 . . .
18222.0 . . .
18212.0 . . .
18213.0 . . .
18175.0 . . .
18149.0 . . .
18126.0 . . .
18093.0 . . .
18073.0 . . .
18049.0 . . .
18037.0 . . .
17992.0 . . .
17960.0 . . .
17948.0 . . .
17901.0 . . .
17874.0 . . .
17860.0 . . .
17835.0 . . .
17814.0 . . .
17750.0 . . .
17736.0 . . .
17733.0 . . .
17719.0 . . .
17715.0 . . .
17661.0 . . .
17637.0 . . .
17603.0 . . .
17593.0 . . .
17593.0 . . .
17551.0 . . .
17518.0 . . .
17492.0 . . .
17471.0 . . .
17466.0 . . .
17412.0 . . .
17385.0 . . .
17355.0 . . .
17353.0 . . .
17356.0 . . .
17319.0 . . .
17297.0 . . .
17267.0 . . .
17240.0 . . .
17208.0 . . .
17182.0 . . .
17160.0 . . .
17144.0 . . .
17149.0 . . .
17118.0 . . .
17075.0 . . .
17065.0 . . .
17051.0 . . .
17034.0 . . .
16981.0 . . .
16917.0 . . .
16905.0 . . .
16905.0 . . .
16893.0 . . .
16848.0 . . .
16816.0 . . .
16788.0 . . .
16776.0 . . .
16780.0 . . .
16725.0 . . .
16673.0 . . .
16644.0 . . .
16642.0 . . .
16640.0 . . .
16593.0 . . .
16568.0 . . .
16542.0 . . .
16525.0 . . .
16503.0 . . .
16471.0 . . .
16469.0 . . .
16450.0 . . .
16438.0 . . .
16410.0 . . .
16351.0 . . .
16352.0 . . .
16331.0 . . .
16317.0 . . .
16236.0 . . .
16209.0 . . .
16188.0 . . .
16178.0 . . .
16165.0 . . .
16099.0 . . .
16082.0 . . .
16053.0 . . .
16038.0 . . .
16007.0 . . .
15961.0 . . .
15954.0 . . .
15934.0 . . .
15925.0 . . .
15865.0 . . .
15819.0 . . .
15815.0 . . .
15822.0 . . .
15814.0 . . .
15773.0 . . .
15746.0 . . .
15716.0 . . .
15715.0 . . .
15650.0 . . .
15614.0 . . .
15622.0 . . .
15599.0 . . .
15593.0 . . .
15543.0 . . .
15492.0 . . .
15461.0 . . .
15466.0 . . .
15463.0 . . .
15409.0 . . .
15400.0 . . .
15387.0 . . .
15389.0 . . .
15345.0 . . .
15294.0 . . .
15263.0 . . .
15254.0 . . .
15262.0 . . .
15214.0 . . .
15190.0 . . .
15142.0 . . .
15148.0 . . .
15117.0 . . .
15050.0 . . .
15031.0 . . .
15005.0 . . .
15007.0 . . .
14930.0 . . .
14922.0 . . .
14906.0 . . .
14887.0 . . .
14844.0 . . .
14799.0 . . .
14804.0 . . .
14813.0 . . .
14825.0 . . .
14742.0 . . .
14729.0 . . .
14733.0 . . .
14741.0 . . .
14692.0 . . .
14619.0 . . .
14608.0 . . .
14601.0 . . .
14610.0 . . .
14553.0 . . .
14521.0 . . .
14495.0 . . .
14517.0 . . .
14462.0 . . .
14405.0 . . .
14395.0 . . .
14393.0 . . .
14349.0 . . .
14276.0 . . .
14270.0 . . .
14244.0 . . .
14252.0 . . .
14176.0 . . .
14125.0 . . .
14114.0 . . .
14118.0 . . .
14098.0 . . .
14037.0 . . .
14021.0 . . .
14004.0 . . .
14004.0 . . .
13934.0 . . .
13913.0 . . .
13887.0 . . .
13907.0 . . .
13843.0 . . .
13778.0 . . .
13757.0 . . .
13773.0 . . .
13742.0 . . .
13664.0 . . .
13636.0 . . .
13646.0 . . .
13670.0 . . .
13616.0 . . .
13571.0 . . .
13556.0 . . .
13574.0 . . .
13471.0 . . .
13425.0 . . .
13416.0 . . .
13440.0 . . .
13385.0 . . .
13330.0 . . .
13295.0 . . .
13323.0 . . .
13311.0 . . .
13222.0 . . .
13211.0 . . .
13203.0 . . .
13193.0 . . .
13120.0 . . .
13067.0 . . .
13082.0 . . .
13095.0 . . .
13026.0 . . .
12969.0 . . .
12948.0 . . .
12978.0 . . .
12940.0 . . .
12874.0 . . .
12857.0 . . .
12862.0 . . .
12832.0 . . .
12728.0 . . .
12713.0 . . .
12728.0 . . .
12711.0 . . .
12635.0 . . .
12608.0 . . .
12615.0 . . .
12619.0 . . .
12519.0 . . .
12484.0 . . .
12500.0 . . .
12519.0 . . .
12427.0 . . .
12376.0 . . .
12370.0 . . .
12388.0 . . .
12316.0 . . .
12243.0 . . .
12233.0 . . .
12245.0 . . .
12234.0 . . .
12177.0 . . .
12153.0 . . .
12153.0 . . .
12126.0 . . .
12060.0 . . .
12011.0 . . .
11997.0 . . .
11958.0 . . .
11880.0 . . .
11889.0 . . .
11888.0 . . .
11869.0 . . .
11766.0 . . .
11720.0 . . .
11733.0 . . .
11725.0 . . .
11632.0 . . .
11599.0 . . .
11612.0 . . .
11617.0 . . .
11508.0 . . .
11432.0 . . .
11456.0 . . .
11486.0 . . .
11410.0 . . .
11351.0 . . .
11340.0 . . .
11342.0 . . .
11254.0 . . .
11200.0 . . .
11192.0 . . .
11222.0 . . .
11132.0 . . .
11044.0 . . .
11045.0 . . .
11086.0 . . .
11009.0 . . .
10932.0 . . .
10906.0 . . .
10927.0 . . .
10859.0 . . .
10793.0 . . .
10798.0 . . .
10842.0 . . .
10779.0 . . .
10714.0 . . .
10714.0 . . .
10723.0 . . .
10644.0 . . .
10550.0 . . .
10526.0 . . .
10541.0 . . .
10456.0 . . .
10397.0 . . .
10388.0 . . .
10382.0 . . .
10286.0 . . .
10242.0 . . .
10215.0 . . .
10226.0 . . .
10134.0 . . .
10101.0 . . .
10094.0 . . .
10114.0 . . .
9992.0 . . .
9927.0 . . .
9901.0 . . .
9919.0 . . .
9842.0 . . .
9772.0 . . .
9752.0 . . .
9771.0 . . .
9664.0 . . .
9605.0 . . .
9614.0 . . .
9585.0 . . .
9467.0 . . .
9431.0 . . .
9407.0 . . .
9361.0 . . .
9270.0 . . .
9267.0 . . .
9301.0 . . .
9226.0 . . .
9058.0 . . .
9020.0 . . .
9058.0 . . .
9005.0 . . .
8923.0 . . .
8925.0 . . .
8977.0 . . .
8862.0 . . .
8783.0 . . .
8769.0 . . .
8781.0 . . .
8640.0 . . .
8602.0 . . .
8626.0 . . .
8635.0 . . .
8517.0 . . .
8496.0 . . .
8548.0 . . .
8558.0 . . .
8473.0 . . .
8469.0 . . .
8516.0 . . .
8443.0 . . .
8340.0 . . .
8359.0 . . .
8439.0 . . .
8334.0 . . .
8264.0 . . .
8284.0 . . .
8365.0 . . .
8233.0 . . .
8166.0 . . .
8155.0 . . .
8159.0 . . .
8063.0 . . .
8085.0 . . .
8125.0 . . .
8083.0 . . .
7982.0 . . .
7982.0 . . .
8017.0 . . .
7902.0 . . .
7834.0 . . .
7888.0 . . .
7943.0 . . .
7798.0 . . .
7779.0 . . .
7828.0 . . .
7828.0 . . .
7670.0 . . .
7657.0 . . .
7767.0 . . .
7730.0 . . .
7639.0 . . .
7625.0 . . .
7669.0 . . .
7530.0 . . .
7477.0 . . .
7564.0 . . .
7568.0 . . .
7394.0 . . .
7394.0 . . .
7488.0 . . .
7413.0 . . .
7335.0 . . .
7410.0 . . .
7475.0 . . .
7292.0 . . .
7246.0 . . .
7297.0 . . .
7243.0 . . .
7122.0 . . .
7159.0 . . .
7225.0 . . .
7092.0 . . .
7053.0 . . .
7128.0 . . .
7140.0 . . .
6989.0 . . .
7009.0 . . .
7071.0 . . .
6986.0 . . .
6900.0 . . .
6946.0 . . .
6964.0 . . .
6851.0 . . .
6833.0 . . .
6864.0 . . .
6833.0 . . .
6749.0 . . .
6775.0 . . .
6826.0 . . .
6747.0 . . .
6690.0 . . .
6708.0 . . .
6699.0 . . .
6591.0 . . .
6598.0 . . .
6626.0 . . .
6602.0 . . .
6555.0 . . .
6537.0 . . .
6537.0 . . .
6457.0 . . .
6429.0 . . .
6391.0 . . .
6394.0 . . .
6306.0 . . .
6320.0 . . .
6330.0 . . .
6318.0 . . .
6236.0 . . .
6223.0 . . .
6239.0 . . .
6207.0 . . .
6189.0 . . .
6169.0 . . .
6157.0 . . .
6106.0 . . .
6062.0 . . .
6068.0 . . .
6023.0 . . .
5988.0 . . .
5971.0 . . .
5990.0 . . .
5874.0 . . .
5835.0 . . .
5830.0 . . .
5852.0 . . .
5833.0 . . .
5767.0 . . .
5770.0 . . .
5765.0 . . .
5753.0 . . .
5732.0 . . .
5652.0 . . .
5596.0 . . .
5587.0 . . .
5570.0 . . .
5513.0 . . .
5441.0 . . .
5436.0 . . .
5452.0 . . .
5451.0 . . .
5465.0 . . .
5417.0 . . .
5369.0 . . .
5342.0 . . .
5281.0 . . .
5240.0 . . .
5243.0 . . .
5220.0 . . .
5228.0 . . .
5188.0 . . .
5188.0 . . .
5152.0 . . .
5093.0 . . .
5116.0 . . .
5102.0 . . .
5068.0 . . .
5023.0 . . .
4977.0 . . .
4956.0 . . .
4947.0 . . .
4820.0 . . .
4769.0 . . .
4758.0 . . .
4751.0 . . .
4805.0 . . .
4731.0 . . .
4654.0 . . .
4663.0 . . .
4611.0 . . .
4616.0 . . .
4504.0 . . .
4397.0 . . .
4459.0 . . .
4361.0 . . .
4334.0 . . .
4304.0 . . .
4264.0 . . .
4278.0 . . .
4195.0 . . .
4077.0 . . .
4078.0 . . .
3950.0 . . .
3831.0 . . .
3824.0 . . .
3719.0 . . .
3629.0 . . .
3562.0 . . .
3296.0 . . .
3237.0 . . .
2983.0 . . .
2626.0 . . .
2574.0 . . .
2199.0 . . .
1722.0 . . .
1762.0 . . .
3719.0 . . .
4577.0 . . .
loop_
_refln_index_h
_refln_index_k
_refln_index_l
_refln_observed_status
_refln_F_squared_meas
_refln_F_squared_calc
_refln_phase_calc
_refln_d_spacing
_gsas_i100_meas
0 0 4 o 6421.432 5553.213 -144.74 3.78875 25.19
0 0 6 o 324.099 321.041 28.64 2.52583 0.57
0 0 8 o 17680.406 17531.844 154.98 1.89437 17.39
0 0 10 o 2643.540 2619.770 -176.87 1.51550 1.67
1 1 9 o 0.000 2874.725 147.88 1.57482 0.00
1 1 8 o 0.000 254.183 -53.47 1.74290 0.00
1 1 10 o 0.000 2446.749 63.08 1.43453 0.00
1 1 7 o 0.000 2879.499 -129.89 1.94667 0.00
0 2 10 o 2770.644 2714.023 -145.37 1.40525 3.01
1 1 6 o 22805.535 22610.580 -107.74 2.19643 56.55
0 2 9 o 1232.524 1223.963 -168.06 1.53633 1.86
0 2 8 o 174.859 167.674 53.37 1.69114 0.34
2 0 10 o 2276.004 2258.663 -177.19 1.32855 2.68
2 0 8 o 14187.774 14142.521 154.70 1.56209 45.33
1 1 5 o 2568.132 2602.868 -118.89 2.50478 17.33
0 2 7 o 8234.675 8257.154 -174.98 1.87532 17.51
0 2 6 o 2621.091 2536.047 63.29 2.09544 3.57
2 0 6 o 188.117 188.826 40.45 1.86370 0.86
0 2 5 o 0.000 757.910 78.36 2.35800 0.00
1 1 4 o 3875.934 3764.809 -97.71 2.88429 22.48
1 3 9 o 3194.134 3218.061 111.33 1.35430 7.49
2 2 9 o 1025.498 1029.260 -169.19 1.34251 1.92
2 0 4 o 0.000 3680.539 -142.23 2.23147 0.00
0 2 4 o 0.000 523.825 51.46 2.66629 0.00
2 2 8 o 115.707 113.890 66.15 1.44215 0.17
1 1 3 o 0.000 163.474 73.68 3.33841 0.00
1 3 8 o 1075.183 1063.013 -39.52 1.45679 2.29
0 2 3 o 7444.548 7346.161 -80.45 3.01255 11.91
1 3 7 o 80.082 80.325 -67.38 1.56963 0.14
2 2 7 o 6774.454 6744.754 -175.22 1.55135 2.76
2 2 6 o 0.000 1989.535 63.05 1.66920 0.00
0 4 8 o 0.000 3556.066 27.59 1.33314 0.00
1 3 6 o 2037.427 1943.760 -46.75 1.69203 3.39
3 1 7 o 1689.122 1689.104 -130.64 1.37855 3.16
0 2 2 o 1085.424 1147.846 80.53 3.36304 5.41
1 1 2 o 4595.363 4573.682 -85.32 3.83605 18.33
0 4 7 o 0.000 3022.012 135.63 1.41797 0.00
0 2 0 o 5595.196 5516.948 0.00 3.75290 18.36
2 0 2 o 0.000 40.795 -41.71 2.59433 0.00
2 2 5 o 0.000 466.548 79.25 1.79313 0.00
0 2 1 o 0.000 165.282 6.26 3.64287 0.00
0 4 6 o 4723.076 4706.663 95.86 1.50628 1.90
1 3 5 o 4152.125 4190.894 172.95 1.82152 11.97
1 1 0 o 13.012 6.133 180.00 4.44816 0.00
1 1 1 o 213.049 237.963 136.00 4.26811 1.77
3 1 6 o 13552.619 13447.587 -109.47 1.45926 36.15
1 3 4 o 1024.023 1006.846 -16.02 1.95289 5.31
3 1 5 o 1666.490 1656.724 -118.64 1.53990 4.51
2 2 4 o 406.945 422.051 56.53 1.91803 0.41
0 4 5 o 3319.854 3427.659 142.59 1.59545 4.31
1 3 3 o 868.861 796.004 88.65 2.07735 5.11
3 1 4 o 2118.413 2162.092 -96.58 1.61685 2.01
0 4 4 o 11810.625 10884.437 89.65 1.68152 14.78
2 2 3 o 5411.488 4948.738 -79.68 2.03553 14.92
2 4 6 o 4064.452 3967.189 95.74 1.32232 10.13
2 0 0 o 135577.61 135917.69 0.00 2.76120 100.00
0 4 3 o 0.000 912.913 -127.54 1.75902 0.00
1 3 2 o 14576.713 14598.416 133.89 2.18239 45.33
2 2 2 o 750.402 783.053 77.35 2.13405 1.56
3 1 3 o 0.000 93.413 69.34 1.68538 0.00
3 3 5 o 2928.029 2922.582 177.39 1.33190 3.10
2 4 5 o 2797.135 2814.787 140.92 1.38143 4.10
1 3 1 o 8241.593 8021.378 -71.20 2.25362 3.53
0 4 2 o 0.000 2490.261 56.87 1.82143 0.00
2 2 1 o 60.981 65.053 12.83 2.20051 0.03
0 4 1 o 2487.143 2269.866 -151.03 1.86223 1.17
2 4 4 o 9486.890 9369.054 88.85 1.43617 0.17
3 1 2 o 2446.467 2400.359 -81.74 1.74004 6.30
3 3 4 o 508.627 516.312 -15.25 1.38075 0.64
1 3 0 o 7535.287 7689.550 180.00 2.27896 0.24
2 2 0 o 3921.191 3675.529 0.00 2.22408 0.18
1 5 4 o 3547.091 3680.314 -100.72 1.35307 6.90
2 4 3 o 0.000 837.763 -129.04 1.48356 0.00
0 4 0 o 1391.608 1454.381 180.00 1.87645 1.14
3 1 1 o 23.974 22.870 87.51 1.77551 0.28
3 3 3 o 513.347 497.886 99.79 1.42270 0.48
1 5 3 o 534.376 510.574 163.42 1.39247 0.78
2 4 2 o 0.000 1964.617 57.67 1.52043 0.00
4 0 2 o 0.000 191.451 -17.08 1.35824 0.00
1 5 2 o 7351.261 7169.007 171.26 1.42283 10.41
3 3 2 o 8765.299 8758.969 136.20 1.45512 3.58
3 1 0 o 34.870 46.886 180.00 1.78782 0.30
2 4 1 o 1844.107 1881.666 -150.36 1.54392 0.49
1 5 1 o 1044.252 1047.721 -143.65 1.44202 2.02
3 3 1 o 4502.937 4656.200 -70.69 1.47567 0.48
2 4 0 o 1310.618 1235.290 180.00 1.55199 0.65
1 5 0 o 1183.808 1199.047 180.00 1.44859 1.35
4 0 0 o 51161.99 54343.33 0.00 1.38060 9.48
3 3 0 o 4438.576 5101.323 180.00 1.48272 0.09
