#------------------------------------------------------------------------------
#$Date: 2019-11-22 02:13:01 +0200 (Fri, 22 Nov 2019) $
#$Revision: 231151 $
#$URL: file:///home/coder/svn-repositories/cod/cif/4/12/91/4129189.cif $
#------------------------------------------------------------------------------
#
# This file is available in the Crystallography Open Database (COD),
# http://www.crystallography.net/
#
# All data on this site have been placed in the public domain by the
# contributors.
#
data_4129189
loop_
_publ_author_name
'Zhou, Zijun'
'Chen, Shuming'
'Hong, Yubiao'
'Winterling, Erik'
'Tan, Yuqi'
'Hemming, Marcel'
'Harms, Klaus'
'Houk, K. N.'
'Meggers, Eric'
_publ_section_title
;
 Non-C2-Symmetric Chiral-at-Ruthenium Catalyst for Highly Efficient
 Enantioselective Intramolecular C(sp3)--H Amidation
;
_journal_name_full               'Journal of the American Chemical Society'
_journal_paper_doi               10.1021/jacs.9b09301
_journal_year                    2019
_chemical_absolute_configuration ad
_chemical_formula_moiety         'C10 H10 Br N O'
_chemical_formula_sum            'C10 H10 Br N O'
_chemical_formula_weight         240.10
_space_group_crystal_system      monoclinic
_space_group_IT_number           4
_space_group_name_Hall           'P 2yb'
_space_group_name_H-M_alt        'P 1 21 1'
_atom_sites_solution_hydrogens   mixed
_atom_sites_solution_primary     dual
_atom_sites_solution_secondary   difmap
_audit_creation_method           SHELXL-2018/3
_cell_angle_alpha                90
_cell_angle_beta                 96.901(3)
_cell_angle_gamma                90
_cell_formula_units_Z            2
_cell_length_a                   4.8070(2)
_cell_length_b                   7.0174(2)
_cell_length_c                   14.3984(6)
_cell_measurement_reflns_used    15678
_cell_measurement_temperature    100(2)
_cell_measurement_theta_max      76.06
_cell_measurement_theta_min      3.09
_cell_volume                     482.18(3)
_computing_cell_refinement       'X-Area Recipe 1.33.0.0 (STOE, 2015)'
_computing_data_collection       'X-Area Pilatus3_SV 1.31.127.0 (STOE, 2016)'
_computing_data_reduction
'X-Area Integrate 1.71.0.0 (STOE, 2016) X-Area LANA 1.68.2.0 (STOE, 2016)'
_computing_molecular_graphics    'DIAMOND (Crystal Impact)'
_computing_publication_material  'X-Area 1.77'
_computing_structure_refinement  'SHELXL-2018/3 (Sheldrick, 2018)'
_computing_structure_solution    'XT V2014/1 (Bruker AXS Inc., 2014)'
_diffrn_ambient_temperature      100(2)
_diffrn_detector_area_resol_mean 5.81
_diffrn_measured_fraction_theta_full 1.000
_diffrn_measured_fraction_theta_max 0.996
_diffrn_measurement_device_type  'STOE STADIVARI'
_diffrn_measurement_method       'rotation method, \w scans'
_diffrn_radiation_type           CuK\a
_diffrn_radiation_wavelength     1.54186
_diffrn_reflns_av_R_equivalents  0.0289
_diffrn_reflns_av_unetI/netI     0.0151
_diffrn_reflns_Laue_measured_fraction_full 1.000
_diffrn_reflns_Laue_measured_fraction_max 0.996
_diffrn_reflns_limit_h_max       6
_diffrn_reflns_limit_h_min       -5
_diffrn_reflns_limit_k_max       8
_diffrn_reflns_limit_k_min       -6
_diffrn_reflns_limit_l_max       17
_diffrn_reflns_limit_l_min       -17
_diffrn_reflns_number            8380
_diffrn_reflns_point_group_measured_fraction_full 0.889
_diffrn_reflns_point_group_measured_fraction_max 0.869
_diffrn_reflns_theta_full        67.686
_diffrn_reflns_theta_max         75.455
_diffrn_reflns_theta_min         3.092
_diffrn_source                   'GeniX 3D HF Cu'
_exptl_absorpt_coefficient_mu    5.468
_exptl_absorpt_correction_T_max  0.0516
_exptl_absorpt_correction_T_min  0.0138
_exptl_absorpt_correction_type   multi-scan
_exptl_absorpt_process_details
'STOE LANA, absorption correction by scaling of reflection intensities.'
_exptl_crystal_colour            colourless
_exptl_crystal_density_diffrn    1.654
_exptl_crystal_density_method    'not measured'
_exptl_crystal_description       plate
_exptl_crystal_F_000             240
_exptl_crystal_size_max          0.18
_exptl_crystal_size_mid          0.17
_exptl_crystal_size_min          0.05
_refine_diff_density_max         0.324
_refine_diff_density_min         -0.590
_refine_diff_density_rms         0.083
_refine_ls_abs_structure_details
; 
 Flack x determined using 644 quotients [(I+)-(I-)]/[(I+)+(I-)] 
 (Parsons, Flack and Wagner, Acta Cryst. B69 (2013) 249-259). 
;
_refine_ls_abs_structure_Flack   -0.005(14)
_refine_ls_extinction_method     none
_refine_ls_goodness_of_fit_ref   1.098
_refine_ls_hydrogen_treatment    mixed
_refine_ls_matrix_type           full
_refine_ls_number_parameters     122
_refine_ls_number_reflns         1728
_refine_ls_number_restraints     1
_refine_ls_restrained_S_all      1.098
_refine_ls_R_factor_all          0.0235
_refine_ls_R_factor_gt           0.0235
_refine_ls_shift/su_max          0.000
_refine_ls_shift/su_mean         0.000
_refine_ls_structure_factor_coef Fsqd
_refine_ls_weighting_details
'w=1/[\s^2^(Fo^2^)+(0.0466P)^2^+0.1201P] where P=(Fo^2^+2Fc^2^)/3'
_refine_ls_weighting_scheme      calc
_refine_ls_wR_factor_gt          0.0625
_refine_ls_wR_factor_ref         0.0625
_reflns_Friedel_coverage         0.607
_reflns_Friedel_fraction_full    0.757
_reflns_Friedel_fraction_max     0.718
_reflns_number_gt                1725
_reflns_number_total             1728
_reflns_threshold_expression     'I > 2\s(I)'
_cod_data_source_file            ja9b09301_si_002.cif
_cod_data_source_block           ZZJLacBr
_cod_original_sg_symbol_H-M      'P 21'
_cod_database_code               4129189
_shelx_shelxl_version_number     2018/3
_shelx_space_group_comment
; 
The symmetry employed for this shelxl refinement is uniquely defined 
by the following loop, which should always be used as a source of 
symmetry information in preference to the above space-group names. 
They are only intended as comments. 
;
_shelx_estimated_absorpt_t_min   0.439
_shelx_estimated_absorpt_t_max   0.772
_shelx_res_file
; 
TITL ZZJLacBr_c.res in P2(1) 
    ZZJLacBr.res 
    created by SHELXL-2018/3 at 21:20:16 on 12-Mar-2019 
CELL  1.54186    4.8070   7.0174  14.3984   90.000   96.901   90.000 
ZERR     2.00    0.0002   0.0002   0.0006    0.000    0.003    0.000 
LATT -1 
SYMM -X, 1/2+Y, -Z 
SFAC C H N O BR 
UNIT 20 20 2 2 2 
L.S. 10 
BOND $H 
LIST 4 
acta 
conf 
temp -173.15 
FMAP 2 
htab 
EQIV $1 -x+2, y+1/2, -z+1 
HTAB N2 O1_$1 
  
SIZE    0.05  0.17   0.18 
PLAN 10 
WGHT    0.046600    0.120100 
FVAR       1.03245 
BR1   5    0.058741    0.958291    0.079671    11.00000    0.03345    0.03147 = 
         0.02808    0.00844    0.00354    0.00417 
O1    4    0.886059    0.200312    0.532165    11.00000    0.03790    0.02684 = 
         0.02131    0.00314    0.00428    0.00129 
N2    3    0.835448    0.356236    0.391883    11.00000    0.02748    0.02293 = 
         0.02131   -0.00002    0.00020   -0.00443 
H2    2    0.913419    0.470467    0.418914    11.00000    0.03787 
C1    1    0.809170    0.205687    0.447620    11.00000    0.02444    0.02324 = 
         0.02746   -0.00042    0.00564    0.00150 
C3    1    0.754880    0.319305    0.292104    11.00000    0.02590    0.02340 = 
         0.02089   -0.00076    0.00176    0.00035 
AFIX  13 
H3    2    0.926990    0.295362    0.261147    11.00000   -1.20000 
AFIX   0 
C4    1    0.584318    0.132252    0.293582    11.00000    0.03133    0.02298 = 
         0.02867   -0.00136   -0.00267   -0.00134 
AFIX  23 
H4A   2    0.380770    0.159393    0.286576    11.00000   -1.20000 
H4AB  2    0.624987    0.046298    0.242384    11.00000   -1.20000 
AFIX   0 
C5    1    0.679080    0.042178    0.389292    11.00000    0.03782    0.02418 = 
         0.02856   -0.00163    0.00146   -0.00618 
AFIX  23 
H5A   2    0.517529   -0.011621    0.417063    11.00000   -1.20000 
H5AB  2    0.817903   -0.060166    0.383790    11.00000   -1.20000 
AFIX   0 
C6    1    0.589089    0.479597    0.242290    11.00000    0.02377    0.02030 = 
         0.02090    0.00072    0.00323   -0.00346 
C7    1    0.611320    0.512937    0.147735    11.00000    0.02580    0.03113 = 
         0.02048   -0.00075    0.00423   -0.00002 
AFIX  43 
H7    2    0.736390    0.438124    0.116621    11.00000   -1.20000 
AFIX   0 
C8    1    0.452133    0.654724    0.098451    11.00000    0.02799    0.02784 = 
         0.01882   -0.00007    0.00217   -0.00292 
AFIX  43 
H8    2    0.469633    0.678447    0.034454    11.00000   -1.20000 
REM ##### 
REM ##### 
AFIX   0 
C9    1    0.268344    0.759928    0.144842    11.00000    0.02529    0.02313 = 
         0.02507    0.00260    0.00082   -0.00435 
C10   1    0.238915    0.727689    0.238694    11.00000    0.02683    0.02169 = 
         0.02508    0.00066    0.00564   -0.00024 
AFIX  43 
H10   2    0.110039    0.800479    0.269165    11.00000   -1.20000 
AFIX   0 
C11   1    0.401470    0.587083    0.287038    11.00000    0.02500    0.02595 = 
         0.01996    0.00049    0.00433   -0.00437 
AFIX  43 
H11   2    0.384187    0.564299    0.351130    11.00000   -1.20000 
AFIX   0 
HKLF 4 
  
  
  
  
REM  ZZJLacBr_c.res in P2(1) 
REM wR2 = 0.0625, GooF = S = 1.098, Restrained GooF = 1.098 for all data 
REM R1 = 0.0235 for 1725 Fo > 4sig(Fo) and 0.0235 for all 1728 data 
REM 122 parameters refined using 1 restraints 
  
END 
  
WGHT      0.0466      0.1201 
  
REM Instructions for potential hydrogen bonds 
HTAB N2 O1_$1 
EQIV $2 -x+2, y-1/2, -z+1 
HTAB C5 O1_$2 
  
REM Highest difference peak  0.324,  deepest hole -0.590,  1-sigma level  0.083 
Q1    1   0.2421 -0.0428  0.3434  11.00000  0.05    0.32 
Q2    1   0.0926  0.9468  0.2722  11.00000  0.05    0.27 
Q3    1   0.4348  0.6650 -0.0820  11.00000  0.05    0.24 
Q4    1   1.0005  0.4679  0.1062  11.00000  0.05    0.24 
Q5    1   0.5697  0.7484  0.0780  11.00000  0.05    0.22 
Q6    1   1.0233  0.1827  0.2616  11.00000  0.05    0.21 
Q7    1   0.0214  0.7469  0.2642  11.00000  0.05    0.21 
Q8    1  -0.1281  1.0565 -0.0227  11.00000  0.05    0.20 
Q9    1  -0.3526  0.9611  0.0771  11.00000  0.05    0.20 
Q10   1   0.5870  0.3098  0.1371  11.00000  0.05    0.20 
;
_shelx_res_checksum              74453
_shelx_hkl_file
; 
  -1   1  -2 4353.23    7.67   0 
  -1   2   1 1914.50    6.39   0 
   0  -1  -1  136.63    0.91   0 
  -1   2   0 2413.00    7.14   0 
   0  -1   7  114.87    1.59   0 
   0  -2   0 1199.75    4.58   0 
  -1   2  -1 4645.14   10.03   0 
  -1   1  -3 1344.88    4.41   0 
  -1  -3  -2 1711.13    6.14   0 
   0  -1   6  332.97    2.57   0 
   0   1   3 3983.34    4.45   0 
   0  -1   0    1.11    0.32   0 
  -1   2  -2  889.47    4.38   0 
   0  -2   3  277.05    2.68   0 
  -1   0  -4 1204.66    2.96   0 
   0   1   4 2459.63    2.75   0 
   0  -1   5  895.03    4.04   0 
  -1  -2  -3   76.27    0.94   0 
   0  -1   1  141.07    1.29   0 
   0   1   1   89.93    0.87   0 
  -1   1  -4 1333.98    4.50   0 
   0  -1   2 3339.32    6.72   0 
   0  -1   3 4062.23    7.98   0 
   0   1   0   -0.03    0.34   0 
  -1  -2  -2  950.93    4.00   0 
   0   2   2  344.42    2.53   0 
   0   2   3  319.66    2.25   0 
  -1   1  -5  205.78    1.91   0 
   0   1  -1   95.47    1.10   0 
   0   2   0 1192.29    4.91   0 
   0   2   4 1619.71    4.36   0 
  -1  -2  -1 4656.29    9.97   0 
   0   2  -1 2860.90    7.82   0 
  -1   0  -5 1387.37    3.24   0 
   0   3   2  890.34    5.20   0 
  -1  -2   1 1756.97    7.47   0 
   0   1  -2 3301.38    6.68   0 
   0   2  -2  365.98    2.97   0 
   0   3   3 3384.67    9.59   0 
  -1  -2   2  930.73    5.72   0 
   0   2  -3  329.51    3.13   0 
   0   2   5  433.73    1.71   0 
   0   1  -3 4101.31    8.15   0 
   0   1  -2 3344.74    8.04   0 
  -1  -1  -6  424.19    3.37   0 
   0   0  -1  537.44    1.71   0 
   0   1  -3 4045.72    9.32   0 
   0   2   0 1180.44    4.07   0 
   0   0  -2   40.02    0.72   0 
   0   2  -3  314.36    3.01   0 
   0   1  -4 2448.55    7.60   0 
  -1  -2   2  953.62    4.79   0 
  -1   1   6  259.69    2.46   0 
   0   0  -3    7.97    0.57   0 
   0   2   1 3035.94    4.24   0 
   0   1  -5  777.14    4.53   0 
   0   0  -4  490.99    2.88   0 
   0   3  -2  829.97    4.82   0 
  -1  -2   1 1810.63    5.86   0 
   0   3  -1  402.22    2.97   0 
   0   3   0    2.59    0.45   0 
  -1  -2   0 2617.14    6.33   0 
  -1   1   5 1836.21    5.67   0 
  -1   2   5  791.97    3.40   0 
   0   0  -6 5113.05   11.30   0 
  -1  -2  -1 4494.66    7.54   0 
  -1   0   4   28.28    0.84   0 
   0   3   1  417.49    1.78   0 
  -1  -2  -2  900.02    3.03   0 
  -1  -1   2 3721.95    7.61   0 
  -1   1   4 3588.98    7.44   0 
   0  -1  -5  705.17    3.47   0 
   0  -1  -4 2083.65    4.99   0 
  -1  -2  -3   74.03    0.80   0 
   0  -1  -6  296.65    2.61   0 
  -1   2   4  216.20    1.73   0 
  -1  -1   1  419.66    2.40   0 
   0  -1  -7  109.98    1.87   0 
   0  -1  -3 4048.28    5.28   0 
   1   1  -4 3258.52    9.63   0 
  -1   0   2 9999.99   11.79   0 
   1   1  -3 2391.86    7.34   0 
   1   2  -2  911.13    4.33   0 
  -1   2   3 1413.41    4.72   0 
   1   1  -2 3570.91    7.88   0 
  -1  -2   1 1895.36    3.83   0 
   0   1   6  264.39    2.48   0 
   2   1   0 1742.43    5.07   0 
   2   0  -2 3015.32    7.98   0 
   0  -2  -2  358.93    1.72   0 
  -1   0   4   19.63    0.84   0 
   0  -3  -2  903.30    3.17   0 
   2   1   1 1080.42    3.66   0 
  -1   0   3    1.77    0.49   0 
   2   0  -1 3852.99    8.72   0 
   1   0  -1  486.04    2.27   0 
   0   1   2 3225.63    4.80   0 
   0  -1  -1  143.19    0.83   0 
  -1   0   2 9561.47   10.81   0 
   1  -2  -2  896.73    4.15   0 
   0   2   6 2071.04    7.38   0 
   2   0   0  479.20    3.11   0 
   2   1   2 1677.52    4.71   0 
  -1   1   4 3330.01    8.45   0 
   0   2   5  441.80    2.96   0 
   0  -3  -1  361.02    2.17   0 
  -1   1   3 2226.32    6.27   0 
   0  -2  -1 3082.56    5.23   0 
   1  -1  -1  394.48    2.34   0 
   2   0   1  398.67    2.88   0 
   0   2   4 1468.74    4.72   0 
   1  -2  -1 1898.83    6.25   0 
   1   0   0  886.38    2.90   0 
  -1   0   1  484.94    2.34   0 
  -1   1   2 3708.75    8.09   0 
   2   0   2  104.40    1.68   0 
  -1   1   1  402.83    2.32   0 
  -2   0  -1  404.35    2.22   0 
   1  -2   1 4563.62    9.24   0 
   0  -1  -1  142.98    0.97   0 
  -2   1   0 1647.59    5.62   0 
   0   1   2 3261.67    4.90   0 
  -1  -3  -2 1670.29    5.49   0 
  -1   1   0 4766.72    7.23   0 
   0  -2  -1 2996.43    6.08   0 
   1  -2   3   74.07    1.35   0 
  -1   2   2  924.34    4.30   0 
   1  -1   4 1381.32    4.26   0 
   1  -2   4 2845.27    8.15   0 
  -1  -2  -2  874.62    2.94   0 
  -1  -1  -2 4467.73    3.62   0 
   0   2   6 1895.56    6.22   0 
   1  -1   5  201.34    1.77   0 
  -2   1  -1 1115.16    4.25   0 
   0   2   5  423.23    2.83   0 
  -1   2   1 1913.67    6.01   0 
  -2   0  -2   89.55    0.90   0 
   0   2   4 1526.15    5.14   0 
   0  -2   0 1160.73    4.06   0 
   0   1   1   96.82    0.84   0 
   0   2   3  334.84    2.36   0 
  -1   2   0 2499.46    6.79   0 
   0  -1   0    0.61    0.23   0 
  -2   1  -2 1640.91    4.68   0 
  -1  -2  -1 4608.30    7.32   0 
   1  -4   8  258.90    4.77   0 
   1  -3   8  837.82    7.79   0 
   2  -3   8 1157.90    9.40   0 
   0  -4   7 1262.69    8.49   0 
   0  -3   7  316.30    4.12   0 
   0  -1   5  852.66    5.15   0 
   2  -2   8   12.39    1.75   0 
   1  -2   8  245.01    4.00   0 
   2  -1   7  666.82    6.20   0 
   2   0   5 2593.91   10.06   0 
   1  -1   7  886.08    6.40   0 
   1   0   5 1390.88    6.72   0 
   3  -1   6  407.03    5.01   0 
   1  -3   9  869.07    7.86   0 
   0  -4   8  384.44    4.80   0 
   0  -3   8  773.26    6.35   0 
   0  -1   6  302.66    3.31   0 
   2  -2   9  287.93    4.60   0 
   2   0   6  714.92    5.48   0 
   1  -2   9  459.09    5.37   0 
   1  -1   8 1104.14    7.31   0 
   2  -1   8  951.25    7.40   0 
   3  -1   7 1182.74    8.22   0 
   1   0   6 1133.69    6.40   0 
   0   0   3    8.86    0.70   0 
   1  -3  10  672.76    6.82   0 
   0  -4   9  100.63    2.71   0 
   0  -3   9 1546.68    8.98   0 
  -1  -2   4  216.77    2.22   0 
   0  -1   7  116.51    2.27   0 
   2   0   7  694.54    5.59   0 
   0   0   4  538.04    3.50   0 
   1  -2  10  847.04    7.16   0 
   1  -1   9  844.32    6.61   0 
   1   0   7 2311.34    9.52   0 
   2  -1   9 1284.27    8.60   0 
  -1  -2   5  978.68    5.11   0 
   0  -1   8 1553.60    8.03   0 
   0  -3  10 1100.24    7.65   0 
   0   0   5 3437.41    9.66   0 
   1   0   8    6.10    1.12   0 
   2   0   8    9.38    1.30   0 
   2   1   4  316.41    3.02   0 
  -1  -2   6 1800.61    7.49   0 
   1  -2  11  731.35    6.71   0 
   1  -1  10  735.88    6.32   0 
   2  -1  10  224.12    3.78   0 
   0   0   6 4906.00   12.48   0 
   1   1   3 1304.73    4.97   0 
   0  -1   9 1771.51    8.92   0 
   1   1   4 1404.00    5.82   0 
   2   1   5  161.71    2.40   0 
  -1  -2   7  948.68    5.84   0 
   0  -3  11  243.00    3.78   0 
   0   0   7  334.53    3.56   0 
   1   0   9    1.11    1.00   0 
   1   1   5  224.06    2.64   0 
   2   0   9   62.38    2.09   0 
   1  -1  11  456.28    5.11   0 
   2   1   6  811.86    5.42   0 
   0  -2  11  181.31    3.27   0 
   0  -1  10 1012.32    7.06   0 
   1   1   6  423.46    3.85   0 
  -1  -2   8 1353.92    7.34   0 
   0   0   8  197.21    2.95   0 
   1   0  10  192.14    3.24   0 
  -1  -1   4 2829.10    7.23   0 
  -1  -1   5 1765.51    6.55   0 
   1   1   7 1116.33    6.54   0 
   2   0  10  756.64    6.20   0 
   2   1   7  727.17    5.42   0 
  -1  -1   6  276.66    2.96   0 
  -1  -2   9 1197.48    7.24   0 
   0  -1  11  494.96    5.12   0 
   0   0   9  328.61    3.93   0 
  -1  -1   7   40.48    1.46   0 
   1   1   8 1226.99    7.23   0 
   2   1   8  977.20    6.48   0 
   1   0  11 1097.97    7.57   0 
  -1  -1   8  749.52    5.49   0 
  -1  -2  10  191.76    3.17   0 
   0   0  10  105.91    2.51   0 
   0  -1  12   59.46    2.11   0 
   1   1   9  913.22    6.54   0 
   2   1   9 1217.06    7.41   0 
  -1  -1   9  618.92    5.30   0 
   0   1   5  772.42    4.59   0 
   0   1   6  304.21    3.23   0 
   0   0  11  575.46    5.55   0 
   0   1   4 2397.92    7.07   0 
   0   1   7  119.02    2.28   0 
  -1  -2  11  228.36    3.50   0 
   1   1  10  731.82    6.05   0 
  -1  -1  10  831.70    6.37   0 
   0   1   8 1463.84    7.94   0 
   2   1  10  183.26    3.13   0 
   0   0  12  308.15    4.20   0 
   0   1   3 4001.51    7.72   0 
   0   1   9 1979.31    9.68   0 
  -1  -1  11  883.15    6.82   0 
   1   1  11  447.79    4.87   0 
   0   1  10 1081.16    7.49   0 
   1   2   6 1553.29    7.23   0 
  -1  -1  12  309.86    4.16   0 
   1   2   5 2219.60    7.79   0 
   1   2   7 1422.75    7.48   0 
   0   1  11  492.80    5.26   0 
   1   2   8  259.65    3.55   0 
   1   2   4 2857.14    7.67   0 
   1   2   9  491.26    4.94   0 
   0   1  12   51.00    2.05   0 
   1   2  10  840.25    6.55   0 
  -1   0  12  489.59    5.29   0 
   0   2   7 1774.48    8.43   0 
  -1   1   7   29.73    1.37   0 
  -1   1   8  584.10    5.13   0 
   0   2   6 1988.83    8.20   0 
   0   2   8  280.20    3.70   0 
   1   2   3   95.87    1.26   0 
  -1   1   6  253.19    2.93   0 
  -1   1   9  564.03    5.31   0 
   0   2   9  284.18    3.94   0 
   1   2  11  650.58    5.80   0 
  -1   1  10  735.16    6.37   0 
   0   2   5  442.44    3.51   0 
   0   2  10  161.82    3.18   0 
  -1   1   5 2019.48    7.08   0 
  -1   1  11  853.97    7.06   0 
   0   2  11  194.70    3.53   0 
  -1   1  12  309.71    4.42   0 
   0   2   4 1424.13    5.44   0 
  -1   1   4 3385.87    8.02   0 
  -2   0   9  123.72    2.90   0 
  -1   2   8 1167.54    7.69   0 
  -1   2   9 1026.17    7.67   0 
   1   2   2  907.87    3.05   0 
   1   3   7  541.61    4.75   0 
   1   3   8  726.87    5.88   0 
   1   3   9  692.40    6.00   0 
  -2   0   8 1479.82    8.15   0 
  -2   0  10   94.18    2.64   0 
  -1   2   7  917.17    6.37   0 
  -1   2  10  177.53    3.54   0 
   1   3   6  124.26    2.30   0 
  -2   0  11   14.33    1.74   0 
  -1   2  11  246.60    4.21   0 
  -2   0   7 1184.55    6.74   0 
  -1   2   6 1669.74    7.86   0 
   0   3   8  826.54    6.68   0 
   0   3   9 1560.64    9.59   0 
  -1   1   3 2319.84    6.02   0 
   0   3   7  370.72    4.25   0 
   0   3  10 1234.58    8.80   0 
   1   3   5  111.67    1.95   0 
   0   3   6   66.43    1.96   0 
   0   3  11  195.26    3.80   0 
  -2   0   6  970.52    5.52   0 
  -1   2   5  939.30    5.36   0 
  -2   1   9  305.25    4.40   0 
  -2   1  10 1380.63    9.43   0 
  -2   1   8    7.70    1.37   0 
  -2   1  11  784.17    7.31   0 
  -2   1   7  302.19    3.85   0 
   0   3   5  747.81    4.97   0 
   1   3   4  890.22    4.50   0 
  -2   0   5  187.56    2.17   0 
  -1   2   4  226.86    2.43   0 
  -1   3   9  613.07    6.46   0 
  -1   3  10  823.90    7.68   0 
  -2   1   6 1249.02    6.71   0 
  -1   3   8  126.91    3.01   0 
  -1   3   7   13.41    1.40   0 
   0   3   4 2343.34    7.87   0 
  -2   2  11  109.67    3.18   0 
  -1   1   2 3708.03    7.38   0 
  -1   3   6  540.04    4.87   0 
  -2   1   5 1617.47    6.72   0 
  -1   2   3 1260.87    5.22   0 
   0   4   8  362.12    4.64   0 
   0   4   9   94.88    2.81   0 
  -2   0   4   94.84    1.40   0 
  -1   3   5 1432.75    7.07   0 
   0   3   3 3146.64    8.46   0 
   0   4   7 1234.85    7.81   0 
   0   4   6 1095.48    6.82   0 
  -2   1   4 2407.48    7.47   0 
  -2   3   9  293.55    4.65   0 
  -1   3   4 1253.85    6.18   0 
  -2   3   8   36.04    1.98   0 
   0   4   5  710.21    5.13   0 
  -1   4   7  903.11    7.19   0 
  -2   3   7  238.40    3.83   0 
  -1   2   2  969.66    4.51   0 
  -1   4   6  495.31    5.05   0 
  -2   3   6  380.78    4.41   0 
  -1   3   3 1447.57    6.57   0 
   0   3   2  925.19    4.37   0 
  -2   0   3  738.77    3.43   0 
  -1   1   1  361.73    2.11   0 
   0   4   4   47.83    1.47   0 
  -2   1   3  987.31    4.76   0 
  -1   4   5  746.36    5.77   0 
  -2   3   5  739.72    5.66   0 
  -3   2   9  474.66    5.84   0 
  -2   4   8  656.80    6.88   0 
  -3   2   8  451.56    5.61   0 
  -2   4   7  794.67    7.26   0 
  -1   3   2  538.76    3.99   0 
   0   4   3  489.59    3.92   0 
  -2   3   4 1145.58    6.70   0 
  -1   2   1 1825.78    5.80   0 
  -3   2   7  568.18    5.82   0 
  -2   4   6  390.49    4.88   0 
  -1   5   7  168.82    3.55   0 
   0   3   1  439.15    2.92   0 
  -2   1   2  754.67    4.07   0 
  -1   5   6  377.74    4.79   0 
  -3   2   6   37.54    1.82   0 
  -2   4   5    5.53    1.21   0 
  -2   3   3 1480.64    7.52   0 
  -3   3   7  159.57    3.52   0 
  -2   2   2 2227.99    8.18   0 
  -1   5   5  516.33    5.26   0 
   0   4   2 1095.41    5.51   0 
  -2   0   2 3074.18    6.52   0 
  -1   3   1  166.35    2.15   0 
  -3   2   5   49.33    1.79   0 
  -3   3   6  771.90    6.72   0 
  -2   4   4   24.12    1.46   0 
  -1   1   0 4695.26    7.64   0 
  -1   5   4  671.48    5.75   0 
  -2   3   2  104.35    2.19   0 
  -1   2   0 2568.49    7.18   0 
  -3   1   4  723.29    4.76   0 
  -3   2   4  687.24    5.25   0 
  -3   3   5 1370.20    8.41   0 
  -2   4   3  627.51    5.44   0 
  -2   5   5  876.87    7.18   0 
   0   3   0    0.62    0.47   0 
  -2   1   1  269.64    2.32   0 
  -2   2   1 2416.75    7.99   0 
  -1   5   3 1271.07    7.71   0 
   0   4   1 1189.92    5.51   0 
   2  -4  -2  779.62    5.95   0 
   3  -4  -3 1281.27    8.89   0 
   2   0   2  113.94    1.74   0 
   1  -2   1 4528.25    9.80   0 
   2  -1   2 1693.78    6.90   0 
   4  -2  -1  109.42    2.91   0 
   3  -3   0 1969.45   10.65   0 
   3  -2   1   55.55    1.91   0 
   4  -1   0  524.46    5.67   0 
   4   0   0    5.70    1.46   0 
   1  -3   0  281.07    2.72   0 
   3  -4  -2  540.92    5.84   0 
   2  -4  -1 1351.26    7.87   0 
   2   1   2 1786.35    5.84   0 
   1  -1   2 4454.44    8.96   0 
   2  -3   1 1908.68    8.77   0 
   2  -2   2  634.29    4.71   0 
   3   0   2  308.01    3.53   0 
   1   0   2  177.67    1.57   0 
   3  -4  -1  332.20    4.61   0 
   3  -3   1  830.95    6.82   0 
   3  -2   2  168.12    3.06   0 
   4  -1   1  913.57    7.13   0 
   2  -4   0  701.78    5.71   0 
   1  -2   2  862.28    4.43   0 
   2  -1   3 2205.52    8.18   0 
   2   0   3  332.14    2.98   0 
   1  -4  -1 1412.01    6.68   0 
   1  -3   1 1790.88    6.80   0 
   2  -3   2 3227.57   11.33   0 
   3  -4   0   92.34    2.67   0 
   2  -2   3 1014.87    5.99   0 
   3  -1   3  338.44    4.01   0 
   3  -3   2  171.75    3.22   0 
   3   0   3 1270.76    6.80   0 
   3  -2   3  696.45    6.07   0 
   4  -1   2  315.23    4.14   0 
   2  -4   1  126.61    2.59   0 
   1  -4   0 1632.16    7.16   0 
   1  -1   3 1205.00    4.81   0 
   1  -3   2 1663.86    6.77   0 
   2  -3   3  933.95    6.25   0 
   2  -1   4  351.46    3.49   0 
   2   1   3 2129.64    6.28   0 
   1  -2   3   71.06    1.45   0 
   3  -3   3  135.89    2.96   0 
   2  -4   2    6.68    1.21   0 
   2  -2   4  868.17    5.80   0 
   2   0   4  749.05    4.56   0 
   3  -1   4    2.03    1.07   0 
   3  -2   4 1039.91    7.49   0 
   1  -4   1   65.30    1.67   0 
   3   0   4 1560.43    7.70   0 
   2  -3   4   92.03    2.27   0 
   2  -4   3  150.32    2.93   0 
   3  -3   4   50.57    2.13   0 
   1  -1   4 1345.13    5.53   0 
   2  -5   1  692.53    6.26   0 
   1  -2   4 2837.85    8.97   0 
   2  -2   5  908.96    6.37   0 
   3  -1   5  137.46    2.73   0 
   1  -4   2  309.63    3.45   0 
   0  -2   1 3206.97    6.69   0 
   2   1   4  303.74    2.64   0 
   2  -3   5   15.95    1.43   0 
   2   0   5 2682.05    9.18   0 
   3  -3   5  337.47    4.80   0 
   3   0   5 1091.29    6.82   0 
   0  -3   0    2.64    0.60   0 
   2  -5   2  501.53    5.52   0 
   2  -4   4  872.62    6.92   0 
   1  -4   3  184.30    2.90   0 
   1  -2   5 2241.38    8.73   0 
   2  -2   6  995.98    7.19   0 
   3  -1   6  410.45    4.73   0 
   1  -1   5  188.69    2.35   0 
   2  -5   3  306.65    4.52   0 
   0  -2   2  415.02    2.91   0 
   2  -3   6  202.60    3.61   0 
   0  -3   1  401.34    3.04   0 
   1  -3   5  113.30    2.36   0 
   1  -4   4  415.57    4.47   0 
   2   0   6  706.22    5.14   0 
   1   0   5 1351.94    5.80   0 
   2  -2   7  205.31    3.64   0 
   1  -2   6 1653.46    8.16   0 
   2  -1   7  706.66    6.03   0 
   3  -1   7 1186.44    8.16   0 
   0  -3   2 1013.38    5.34   0 
   1  -1   6  396.19    3.75   0 
   2  -3   7 1026.39    8.12   0 
   1  -4   5 1319.53    8.24   0 
   1  -3   6  109.01    2.50   0 
   0  -1   3 4141.80    9.07   0 
   0  -3   3 2947.56    9.81   0 
   1   1   4 1310.11    4.82   0 
   2  -2   8   15.08    1.65   0 
   2   0   7  624.29    5.16   0 
   1  -2   7 1249.03    7.60   0 
   0  -2   4 1471.04    6.66   0 
   1  -4   6  736.43    6.48   0 
   1  -1   7  788.36    5.62   0 
   1   0   6  981.99    5.47   0 
   2  -3   8 1059.40    8.45   0 
   2  -1   8  913.20    7.14   0 
   1  -3   7  500.83    5.27   0 
   0  -3   4 2397.19    9.45   0 
   0  -1   4 2350.47    7.65   0 
   1  -5   5  195.06    3.75   0 
   0  -2   5  377.17    3.70   0 
   1  -4   7  234.16    3.93   0 
   1  -2   8  224.86    3.55   0 
   2   0   8    4.12    1.19   0 
   0  -4   3  498.15    4.64   0 
   0  -3   5  721.94    5.53   0 
   1  -3   8  725.21    6.54   0 
   1   0   7 2160.36    8.63   0 
   1   1   5  220.37    2.30   0 
   0  -1   5  860.49    5.08   0 
   1  -1   8 1024.33    6.76   0 
   2  -1   9 1121.20    8.05   0 
   1  -5   6    1.32    1.63   0 
   0  -4   4   36.52    1.76   0 
   0  -2   6 2176.67    9.21   0 
   0  -3   6   55.68    1.89   0 
   0   0   3    8.12    0.65   0 
   1  -4   8  229.50    3.97   0 
   1  -2   9  437.52    5.01   0 
   1  -3   9  811.35    7.07   0 
   0  -4   5  847.92    6.52   0 
   0  -1   6  316.90    3.37   0 
   2   0   9   65.59    2.09   0 
   0  -2   7 1965.83    9.15   0 
   0   0   4  535.90    3.40   0 
   1   0   8    4.61    0.98   0 
   1   1   6  398.91    3.26   0 
   2  -1  10  233.71    3.89   0 
   0  -4   6 1271.09    8.16   0 
   0  -1   7  110.12    2.21   0 
   0   0   5 3661.92    9.64   0 
   1  -3  10  653.00    6.42   0 
   1  -2  10  837.70    6.97   0 
   0  -4   7 1319.71    8.47   0 
   0  -2   8  274.02    3.69   0 
   1  -1  10  721.65    6.10   0 
   1   0   9    2.82    1.05   0 
   1   1   7 1064.99    5.61   0 
   0   0   6 5225.75   12.47   0 
   1  -2  11  701.70    6.44   0 
   0  -4   8  400.84    4.88   0 
   0  -3   9 1573.41    9.23   0 
   0  -2   9  285.89    3.91   0 
   1  -1  11  417.42    4.78   0 
   1   0  10  183.77    3.02   0 
   1   1   8 1147.88    6.16   0 
   0  -1   9 1763.16    8.95   0 
   0  -4   9   98.25    2.70   0 
   0  -3  10 1128.62    7.99   0 
   0  -2  10  149.14    3.01   0 
   0  -1  10  969.51    6.98   0 
   0  -2  11  170.78    3.28   0 
   1   0  11 1044.83    6.98   0 
  -1  -3   5  973.38    6.60   0 
  -1  -2   5  673.24    5.14   0 
   0  -1  11  457.56    5.03   0 
  -1  -3   4 1268.82    6.81   0 
  -1  -3   6  471.52    5.00   0 
  -1  -2   4  210.75    2.69   0 
   0   1   5  760.21    4.13   0 
  -1  -3   7   11.18    1.53   0 
   0   0  10  109.86    2.53   0 
   0   1   4 2294.81    6.21   0 
   0   1   6  299.79    2.94   0 
  -1  -3   8  153.74    3.46   0 
  -1  -2   3 1385.89    5.80   0 
  -1  -2   8 1252.07    8.32   0 
   0   1   7  113.83    2.16   0 
  -1  -3   3 1287.38    5.90   0 
  -1  -1   5 1743.79    7.68   0 
  -1  -1   6  237.53    3.21   0 
  -1  -2   9 1176.51    8.40   0 
  -1  -1   7   35.78    1.63   0 
  -1  -4   7  817.60    7.21   0 
  -1  -3   9  653.07    6.57   0 
  -1  -1   4 3284.85    9.45   0 
  -1  -1   8  684.74    5.98   0 
   0   0  11  566.47    5.51   0 
   0   1   8 1463.30    7.45   0 
  -1  -4   8  806.76    7.37   0 
  -1  -3  10  962.33    8.05   0 
  -1  -2  10  176.90    3.59   0 
  -1  -1   9  588.45    5.87   0 
  -1  -4   9  220.83    4.20   0 
  -1  -2   2  928.11    3.86   0 
  -1  -1   3 2396.71    7.01   0 
   0   1   9 1946.89    9.14   0 
   0   0  12  271.44    4.04   0 
  -1  -3  11  801.50    7.43   0 
  -1  -2  11  224.07    4.08   0 
  -1  -1  10  812.02    7.14   0 
  -1   0   6 1642.23    7.88   0 
  -1   0   7 1698.20    8.65   0 
   0   1  10  984.47    6.91   0 
  -1  -1  11  827.32    7.43   0 
  -1   0   5  119.90    2.08   0 
  -1   0   8 2944.24   12.12   0 
  -1   0   9   50.80    2.06   0 
  -1   0   4   22.42    0.99   0 
  -1   0  10   26.02    1.82   0 
   0   1  11  469.75    5.04   0 
  -1  -1  12  295.19    4.64   0 
  -1   0   3    1.61    0.56   0 
  -1   1   8  623.38    5.70   0 
  -2  -2   8  536.64    6.59   0 
  -1   1   9  638.57    6.11   0 
   0   2   7 1833.12    7.64   0 
  -2  -3   8   27.11    2.68   0 
  -2  -2   7 1035.35    8.37   0 
  -2  -2   9  322.20    5.34   0 
  -1   1  10  790.27    7.10   0 
   0   2   6 2102.22    7.38   0 
  -2  -3   7  190.32    4.00   0 
  -2  -3   9  240.53    4.83   0 
  -2  -2   6  583.31    5.91   0 
  -2  -3  10  326.58    5.57   0 
  -2  -1   7  263.90    4.24   0 
  -2  -1   8    7.64    1.68   0 
  -2  -1   9  368.49    5.51   0 
  -1   1   5 2021.88    7.79   0 
  -1   1  11  835.18    7.49   0 
  -2  -3   6  422.92    5.13   0 
  -2  -1  10 1531.33   11.18   0 
  -2  -2   5  269.67    3.63   0 
  -2  -1   6 1131.61    7.80   0 
  -2  -1  11  793.89    8.25   0 
   0   2   5  452.52    2.99   0 
  -1   1  12  300.37    4.73   0 
  -1   0   2 9549.15   11.78   0 
  -2   0   8 1605.78   10.49   0 
  -2   0   9  146.28    3.65   0 
  -1   1   4 3406.36    8.96   0 
  -2   0   7 1165.93    8.48   0 
  -2   0  10  101.89    3.11   0 
  -2  -2   4  458.97    4.08   0 
  -2   0  11   22.31    2.25   0 
  -2   0   6  979.54    7.22   0 
   2  -3  -2  104.91    2.24   0 
   3  -3  -4  369.04    4.86   0 
   3  -1  -2  231.92    3.58   0 
   1  -2   0 2544.41    6.75   0 
   4  -1  -5  625.42    6.65   0 
   4   0  -5  206.69    3.85   0 
   1  -3  -1  172.25    1.98   0 
   2  -1   0 1650.89    7.18   0 
   2   0   0  467.21    3.55   0 
   3  -2  -2 1469.01    9.00   0 
   3   1  -2  215.70    3.08   0 
   3  -3  -3   47.31    2.10   0 
   4   1  -5  641.76    6.14   0 
   2  -3  -1   96.51    2.19   0 
   3  -1  -1  385.82    4.37   0 
   4  -1  -4   38.65    2.06   0 
   4   0  -4  192.53    3.62   0 
   2  -2   0 1877.31    8.02   0 
   2   1   0 1575.35    6.13   0 
   2   2  -1 2430.01    6.88   0 
   3  -4  -4   53.46    2.71   0 
   3  -3  -2   84.25    2.59   0 
   3  -2  -1  600.95    5.77   0 
   4   1  -4   36.86    2.01   0 
   3   1  -1  414.21    4.13   0 
   4  -1  -3    6.45    1.48   0 
   4   0  -3  630.00    6.23   0 
   1  -1   1 4422.98    8.65   0 
   1   0   1  846.00    3.50   0 
   2  -1   1  985.19    5.51   0 
   2   0   1  393.70    3.31   0 
   3  -1   0  855.96    6.25   0 
   2  -3   0  102.21    2.15   0 
   3  -4  -3 1306.41    8.88   0 
   4  -1  -2  108.96    2.93   0 
   4   1  -3    8.15    1.58   0 
   1  -3   0  275.97    2.44   0 
   2  -2   1   95.50    2.00   0 
   3  -3  -1  512.87    5.61   0 
   3  -2   0  578.26    5.38   0 
   4   0  -2  330.10    4.66   0 
   1  -2   1 4655.66    9.51   0 
   4  -2  -2 1081.03    8.35   0 
   3  -4  -2  554.80    5.84   0 
   3   1   0  894.88    5.94   0 
   2   1   1 1122.86    5.21   0 
   3  -1   1 1519.50    8.46   0 
   4  -1  -1  407.80    5.27   0 
   4   1  -2  123.09    2.89   0 
   3  -3   0 1994.10   10.41   0 
   4   0  -1  643.04    6.31   0 
   2  -1   2 1686.38    7.06   0 
   2   2   0 1911.97    5.84   0 
   3  -2   1   51.87    1.85   0 
   4  -2  -1  101.10    2.89   0 
   2  -3   1 1875.97    8.33   0 
   2   0   2  119.77    1.95   0 
   3  -4  -1  334.98    4.54   0 
   2  -2   2  621.70    4.55   0 
   4  -1   0  507.93    5.75   0 
   4   1  -1  376.25    4.48   0 
   1  -1   2 4400.24    8.78   0 
   2  -4   0  691.21    5.14   0 
   3   1   1 1487.70    7.50   0 
   4   0   0    8.75    1.48   0 
   1  -3   1 1844.05    6.11   0 
   3  -3   1  774.91    6.29   0 
   3  -1   2  654.60    5.67   0 
   1  -2   2  853.75    4.12   0 
   1   0   2  181.72    1.67   0 
   3  -2   2  165.09    3.02   0 
   2   1   2 1677.45    6.30   0 
   3  -4   0   89.95    2.56   0 
   4  -1   1  931.18    7.38   0 
   2  -3   2 3227.78   10.67   0 
   2  -1   3 2200.05    8.32   0 
   4   1   0  509.50    5.01   0 
   4   0   1   54.11    2.08   0 
   2  -4   1  123.73    2.43   0 
   2  -2   3  981.98    5.75   0 
   2   0   3  319.60    3.12   0 
   3  -3   2  167.25    3.07   0 
   2   2   1   64.38    1.21   0 
   3  -1   3  340.39    4.11   0 
   3   1   2  601.41    4.82   0 
   3  -4   1  137.97    2.96   0 
   3  -2   3  702.33    6.12   0 
   4  -1   2  326.87    4.38   0 
   4   1   1  828.38    6.28   0 
   1  -3   2 1631.41    5.91   0 
   1  -1   3 1205.73    4.77   0 
   2  -3   3  906.15    5.83   0 
   4   0   2  338.01    4.35   0 
   2  -1   4  352.89    3.60   0 
   3  -3   3  140.76    2.94   0 
   1   1   2 4385.50    7.44   0 
   2  -4   2    5.74    1.14   0 
   2   1   3 2199.86    7.50   0 
   1   0   3  183.66    1.82   0 
   2  -2   4  862.16    5.69   0 
   2   0   4  752.75    4.99   0 
   3  -4   2  329.52    4.34   0 
   3  -1   4   14.39    1.34   0 
   3   1   3  309.53    3.62   0 
   3  -2   4 1056.33    7.66   0 
   2   2   2  633.95    3.67   0 
   2  -3   4   96.75    2.24   0 
   3  -3   4   45.11    2.07   0 
   1  -3   3 1868.20    6.89   0 
   1  -1   4 1364.96    5.69   0 
   2  -4   3  150.66    2.74   0 
   2  -1   5  154.63    2.67   0 
   3  -1   5  140.07    2.93   0 
   2  -2   5  913.84    6.42   0 
   2   1   4  312.01    3.17   0 
   3  -2   5  555.42    5.82   0 
   3   1   4    2.23    1.13   0 
   2   0   5 2873.22   10.54   0 
   1   0   4 1283.44    5.40   0 
   1   1   3 1408.28    5.08   0 
   2  -3   5   14.73    1.42   0 
   3  -3   5  339.70    4.83   0 
   2   2   3 1075.01    5.36   0 
   1  -3   4  856.25    5.25   0 
   2  -1   6  900.21    6.73   0 
   3  -2   6  465.51    5.58   0 
   3  -1   6  420.90    5.12   0 
   1  -1   5  212.45    2.63   0 
   2  -2   6 1095.84    7.67   0 
   3   1   5  109.73    2.65   0 
   2   0   6  785.60    6.09   0 
   2   1   5  153.69    2.53   0 
   1   0   5 1388.37    6.42   0 
   2  -3   6  206.07    3.62   0 
   1   1   4 1357.82    5.84   0 
   3  -1   7 1170.32    8.77   0 
   1  -3   5  110.10    2.31   0 
   2  -2   7  206.73    3.77   0 
   2  -1   7  698.88    6.36   0 
   2   2   4  759.52    4.99   0 
   3   1   6  395.55    4.89   0 
   1  -1   6  377.85    3.82   0 
   3   0   7   46.29    2.28   0 
   2   0   7  663.62    6.01   0 
   2   1   6  739.39    5.76   0 
   2  -3   7  963.73    7.77   0 
   1   0   6  926.71    5.76   0 
   2  -2   8   11.64    1.66   0 
   2  -1   8  897.99    7.63   0 
   2   2   5  800.27    5.55   0 
   1  -3   6   99.12    2.29   0 
   3   1   7 1084.98    8.08   0 
   1  -1   7  813.24    5.93   0 
   2   0   8   11.29    1.48   0 
   2   1   7  592.77    5.45   0 
   0  -1   3 4065.62    8.86   0 
   0  -2   3  287.72    2.52   0 
   2  -3   8 1049.34    8.21   0 
   1   0   7 2069.21    9.17   0 
   1   2   3  105.72    1.59   0 
   2  -1   9 1256.89    9.17   0 
   0  -1   4 2431.61    7.69   0 
   1  -3   7  539.74    5.09   0 
   2  -2   9  264.24    4.41   0 
   2   2   6  958.07    6.27   0 
   0  -2   4 1574.51    6.44   0 
   1  -1   8 1047.88    6.97   0 
   2   0   9   62.96    2.33   0 
   2   1   8  897.03    6.84   0 
   0   0   3    7.95    0.55   0 
   1   0   8    9.52    1.19   0 
   1   2   4 2925.79    8.44   0 
   0  -1   5  888.10    5.08   0 
   1  -3   8  714.41    5.95   0 
   2  -1  10  239.25    4.16   0 
   2   2   7  150.02    2.82   0 
   0  -2   5  409.91    3.59   0 
   0   0   4  528.87    3.51   0 
   1  -1   9  819.72    6.42   0 
   1   2   5 2393.38    8.25   0 
   2   0  10  719.14    6.57   0 
   2   1   9 1216.53    7.95   0 
   0  -3   4 2298.65    7.73   0 
   0  -2   6 2235.68    8.73   0 
   0  -1   6  316.43    3.29   0 
   0   0   5 3597.06    9.85   0 
   1   0   9    1.43    0.81   0 
   1  -3   9  796.66    6.36   0 
   1  -1  10  701.72    6.03   0 
   1   2   6 1687.62    7.39   0 
   0  -3   5  717.69    4.76   0 
   0  -1   7  113.61    2.19   0 
   0   0   6 5014.15   12.44   0 
   0  -2   7 1930.39    8.50   0 
   2   1  10  163.96    3.10   0 
   1   0  10  175.32    3.10   0 
   1   1   9  823.98    6.09   0 
   0  -3   6   57.71    1.78   0 
   0   0   7  315.93    3.43   0 
   1   2   7 1484.51    7.35   0 
   0  -1   8 1497.05    7.76   0 
   1  -3  10  614.52    5.61   0 
   0  -2   8  273.82    3.48   0 
   0   1   4 2134.59    6.64   0 
   1  -2  11  668.84    6.04   0 
   1  -1  11  410.40    4.76   0 
   0  -3   7  332.96    3.77   0 
   0   1   5  769.28    4.50   0 
   0   0   8  183.43    2.83   0 
   1   0  11 1069.34    7.46   0 
   1   1  10  686.24    5.79   0 
   1   2   8  257.76    3.45   0 
   0  -1   9 1769.65    8.89   0 
   0   1   6  292.40    3.11   0 
   0  -2   9  276.70    3.69   0 
   0  -3   8  796.63    5.93   0 
   0   0   9  325.43    3.95   0 
   0   1   7  143.05    2.44   0 
   1   2   9  489.64    4.86   0 
   0  -1  10  998.53    7.10   0 
   1   1  11  442.57    4.88   0 
   0  -3   9 1641.28    8.91   0 
   0  -2  10  162.08    3.07   0 
   0   1   8 1478.88    7.94   0 
   0   0  10  107.53    2.58   0 
   0  -1  11  503.17    5.35   0 
   0   1   9 2087.41   10.06   0 
   1   2  10  856.24    6.57   0 
   0  -3  10 1145.66    7.68   0 
   0  -2  11  174.97    3.30   0 
   0   0  11  562.19    5.70   0 
   0   1  10 1033.09    7.50   0 
   0  -1  12   56.99    2.16   0 
   1   2  11  656.15    5.87   0 
   0   2   5  429.88    3.40   0 
   0   2   6 2027.93    8.14   0 
   0   2   7 1844.64    8.38   0 
   0   0  12  270.59    4.06   0 
   3  -3   5  318.68    5.42   0 
   1  -2   6 1663.62    8.81   0 
   3   0   1  147.96    3.16   0 
   0  -2   5  343.77    2.95   0 
   1  -1   5  196.76    2.87   0 
   2  -2   6 1011.26    8.39   0 
   2  -1   5  142.12    3.12   0 
   2   0   3  326.38    3.96   0 
   1   0   3  196.31    2.51   0 
   3  -2   5  546.10    6.96   0 
   3  -1   4    3.57    1.74   0 
   4  -1   1  879.26    8.75   0 
   1  -3   7  603.24    6.21   0 
   2  -3   7 1040.72    9.11   0 
   3   0   2  301.95    4.68   0 
   0  -1   4 2331.02    7.14   0 
   4  -1   2  342.89    6.06   0 
   2  -1   6  845.17    7.78   0 
   2   0   4  721.55    6.34   0 
   2   1  -1  300.75    3.13   0 
   3  -2   6  458.69    6.83   0 
   1  -2   7 1403.89    9.04   0 
   3  -1   5  142.28    3.98   0 
   3   0   3 1339.72   10.07   0 
   1   0   4 1328.40    7.19   0 
   2   1   0 1580.21    7.68   0 
   2  -3   8 1145.87   10.07   0 
   0  -2   6 1996.78    8.10   0 
   1  -3   8  748.45    7.37   0 
   2   0   5 2651.45   12.87   0 
   2   1   1 1084.00    6.96   0 
   3   0   4 1567.27   11.42   0 
   2  -1   7  702.61    7.55   0 
   3  -1   6  423.16    6.62   0 
   2  -2   8   13.15    2.29   0 
   0  -1   5  854.49    5.08   0 
   1   0   5 1427.36    8.12   0 
   2   1   2 1711.75    9.28   0 
   1  -2   8  234.70    4.16   0 
   2   0   6  738.54    7.23   0 
   3   1   1 1456.69    9.83   0 
   3  -1   7 1272.94   11.24   0 
   2  -1   8  978.50    9.07   0 
   3   1   2  618.05    6.81   0 
   4   0   3  538.58    7.22   0 
   1   0   6 1094.82    7.49   0 
   2  -2   9  294.65    5.43   0 
   3   0   6   19.56    2.33   0 
   1  -1   8 1139.48    8.30   0 
   1   1   2 4010.92   11.37   0 
   2   0   7  697.19    7.21   0 
   3   1   3  340.13    5.31   0 
   0  -1   6  315.07    3.39   0 
   1  -2   9  456.57    5.66   0 
   1   1   3 1380.01    7.22   0 
   3   1   4    4.84    2.26   0 
   2   1   5  164.56    3.47   0 
   3   0   7   50.12    2.80   0 
   1   0   7 2371.44   11.29   0 
   1   1   4 1498.80    7.97   0 
   2   0   8    4.74    1.67   0 
   1  -1   9  852.11    7.22   0 
   3   1   5  114.80    3.46   0 
   0   0   4  518.79    3.70   0 
   2   1   6  821.52    7.37   0 
   0  -1   7  113.56    2.22   0 
   1  -2  10  823.61    7.21   0 
   1   1   5  232.55    3.44   0 
   2  -1  10  228.63    4.55   0 
   3   1   6  413.51    5.90   0 
   2   0   9   69.69    2.77   0 
   2   1   7  681.69    6.75   0 
   1   1   6  415.32    4.67   0 
   1  -1  10  746.19    6.74   0 
   0  -1   8 1525.35    7.61   0 
   0   0   6 5155.85   13.22   0 
   1   1   7 1086.39    7.63   0 
   2   0  10  726.97    7.28   0 
   2   1   8  916.53    7.86   0 
   2   2   2  648.71    5.33   0 
   2   2   3 1060.70    7.32   0 
   2   2   1   69.13    1.75   0 
   2   2   4  816.11    6.82   0 
   3   2   3  651.54    6.47   0 
   3   2   4  990.06    8.22   0 
   2   2   5  937.54    7.59   0 
   0   0   7  316.36    3.57   0 
   1  -1  11  420.61    5.13   0 
   1   0  10  191.09    3.60   0 
   1   1   8 1181.26    8.23   0 
   2   1   9 1230.61    9.20   0 
   3   2   5  486.72    6.01   0 
   0  -1   9 1781.37    8.46   0 
   3   2   6  468.51    5.96   0 
   0   0   8  185.06    2.94   0 
   1   1   9  880.78    7.32   0 
   2   1  10  172.54    3.70   0 
   2   2   7  158.68    3.54   0 
   1   0  11 1107.63    8.18   0 
   1   2   4 2664.15   10.60   0 
   1   2   5 2213.39   10.35   0 
   2   2   8   13.89    1.75   0 
   1   2   2  945.29    5.18   0 
   1   2   6 1640.04    9.42   0 
   0   0   9  319.86    3.95   0 
   0   1   4 2134.22    7.71   0 
   0   1   5  718.19    4.97   0 
   0   1   6  291.65    3.49   0 
   1   2   7 1495.98    9.41   0 
   0   1   3 4076.25    9.39   0 
   2   2   9  266.47    4.52   0 
   1   2   1 4441.56    9.45   0 
   1   2   8  258.06    4.27   0 
   0   0  10  105.58    2.70   0 
   0   1   2 3455.03    7.31   0 
   1   2   9  503.92    5.93   0 
   2   3   4  124.79    2.98   0 
   2   3   5   33.83    2.09   0 
   2   3   3 1014.22    6.96   0 
   2   3   6  221.30    4.18   0 
   0   1   9 2041.88   10.47   0 
   0   0  11  562.53    5.48   0 
   1   2  10  840.18    7.68   0 
   2   3   2 3531.20   11.45   0 
   2   3   7 1068.32    8.85   0 
   2   3   8 1263.76    9.69   0 
   0   1  10 1051.97    7.80   0 
   1   2   0 2316.69    5.51   0 
   0   2   6 1857.71    9.38   0 
   1   2  11  691.85    6.96   0 
   1   3   4  927.91    6.68   0 
   1   3   6  125.22    3.06   0 
   1   3   7  613.27    6.55   0 
   0   2   5  422.94    4.24   0 
   0   2   7 1776.14    9.73   0 
   0   1  11  499.89    5.55   0 
   0   2   4 1561.90    7.25   0 
   0   2   8  280.25    4.21   0 
   1   3   8  792.52    7.64   0 
   1   3   3 1771.28    8.21   0 
   0   2   9  299.04    4.53   0 
   1   3   9  754.29    7.57   0 
   0   1  12   52.67    2.29   0 
   0   2   3  321.92    2.94   0 
   1   3   2 1740.49    7.12   0 
   1   3  10  777.45    7.63   0 
   0   2  11  208.17    3.96   0 
   2   4   5 1048.57    8.16   0 
   2   4   6  427.16    5.66   0 
  -1   0   7 1238.11    6.31   0 
  -1   0   8 2473.97    9.55   0 
   0   2   2  357.21    2.68   0 
  -1   0   6 1652.26    6.66   0 
   0   3   6   61.28    2.22   0 
   0   3   7  336.03    4.74   0 
   0   3   8  779.22    7.35   0 
   1   3   1 1960.96    6.63   0 
   0   3   5  733.28    6.01   0 
   0   3   9 1621.84   10.79   0 
   1   4   6  826.26    7.57   0 
   1   4   5 1535.89    9.63   0 
  -1   0   5  124.00    1.72   0 
  -1   1   7   32.24    1.52   0 
  -1   1   8  513.96    4.97   0 
   0   3   4 2527.46    9.96   0 
   0   3  10 1226.04    9.56   0 
  -1   1   6  248.51    3.10   0 
  -1   1   9  546.08    5.35   0 
   1   4   4  433.43    4.80   0 
  -1   1  10  761.51    6.45   0 
  -1   1   5 2140.96    7.93   0 
   0   3   3 3118.74    9.90   0 
   1   4   3  212.40    3.07   0 
   0   2   1 2995.35    6.81   0 
  -1   2   8  959.79    7.42   0 
  -1   0   4   24.19    0.76   0 
  -1   2   9 1011.05    7.88   0 
   0   4   7 1171.96    9.14   0 
   0   4   8  351.26    5.34   0 
   1   3   0  316.41    2.46   0 
  -1   2  10  172.33    3.61   0 
   0   4   6 1100.24    8.42   0 
   0   4   9   97.87    3.16   0 
   1   4   2  279.50    3.16   0 
  -1   2   5  960.20    5.98   0 
  -1   2  11  235.51    4.08   0 
   0   4   5  746.46    6.46   0 
   1   5   6   -0.30    1.68   0 
  -1   2   4  234.18    2.73   0 
  -1   3   7    8.69    1.55   0 
  -1   3   8  101.91    2.93   0 
   1   5   5  187.33    3.61   0 
  -1   3   6  526.15    5.35   0 
  -1   3  10  788.29    7.52   0 
   1   4   1   70.24    1.57   0 
  -1   1   3 2302.53    6.25   0 
  -1   3  11  756.37    7.28   0 
   0   3   1  424.60    3.14   0 
   0   4   3  453.32    4.17   0 
   1   5   4  352.11    4.36   0 
  -1   3   5 1485.64    8.18   0 
  -1   2   3 1268.77    5.56   0 
  -1   3   4 1336.99    7.16   0 
  -1   4   8  725.62    7.51   0 
  -1   4   7  827.24    7.75   0 
  -1   4   9  189.29    4.15   0 
   0   4   2 1059.62    5.96   0 
   0   5   5  181.47    3.63   0 
  -1   4   6  531.85    6.02   0 
  -1   3   3 1342.69    6.75   0 
  -1   4   5  802.03    6.88   0 
   0   5   4  801.46    6.70   0 
  -1   1   2 3712.71    7.61   0 
  -1   2   2  938.27    4.64   0 
   0   3   0    0.29    0.58   0 
  -1   4   4    6.95    1.27   0 
   0   4   1 1230.37    6.45   0 
   0   5   3  762.98    6.10   0 
  -1   3   2  473.39    3.75   0 
   0  -1  10 1010.34    7.15   0 
   1   0   9    3.46    1.08   0 
   1  -1  11  436.32    4.92   0 
  -1  -3  10  905.20    6.84   0 
  -1  -2   9 1177.03    7.59   0 
   0   0   8  179.47    2.75   0 
   1   1   4 1326.76    4.91   0 
   1   1   5  206.80    2.25   0 
  -1  -2  10  179.31    3.14   0 
  -1  -1   8  670.42    5.31   0 
   0  -1  11  474.39    4.91   0 
   1   0  10  176.71    2.89   0 
   0   0   9  308.22    3.66   0 
   1   1   6  368.62    3.20   0 
  -1  -1   9  555.84    5.06   0 
   1   1   7 1043.53    5.71   0 
  -1  -2  11  214.89    3.47   0 
   0   0  10   96.43    2.30   0 
   0  -1  12   52.81    1.95   0 
   1   0  11 1029.31    6.78   0 
  -1  -1  10  764.43    6.20   0 
   1   1   8 1105.04    6.27   0 
  -1   0   6 1587.58    7.12   0 
   0   0  11  536.49    5.23   0 
  -1   0   5  116.02    1.85   0 
  -1   0   7 1783.68    8.18   0 
   0   1   5  755.40    4.34   0 
   0   1   6  290.51    3.03   0 
   1   1   9  878.47    6.01   0 
  -1  -1  11  829.68    6.74   0 
  -1   0   8 2921.71   11.23   0 
   0   1   4 2368.95    6.74   0 
   0   1   7  116.47    2.19   0 
  -1   0   4   22.05    0.88   0 
  -1   0   9   50.97    1.88   0 
   0   0  12  276.91    3.99   0 
  -1  -1  12  307.79    4.34   0 
   1   1  10  710.61    5.66   0 
  -1   0  10   26.34    1.68   0 
  -2  -2   8  656.33    5.77   0 
   0   1   3 3981.12    7.43   0 
  -2  -2   9  378.20    4.78   0 
  -1   0   3    2.26    0.47   0 
  -1   0  11   97.62    2.68   0 
   1   1  11  452.33    4.73   0 
  -2  -2  10  320.90    4.51   0 
   0   1  11  480.30    5.23   0 
  -2  -1   8    4.83    1.53   0 
  -1   0  12  494.05    5.61   0 
  -2  -1   7  239.50    3.37   0 
  -2  -1   9  405.33    4.90   0 
  -2  -1   6 1086.24    6.24   0 
  -1   1   7   41.15    1.61   0 
  -1   1   8  642.85    5.63   0 
   0   1  12   53.95    2.13   0 
  -2  -1  10 1615.42    9.84   0 
  -1   1   6  273.29    3.20   0 
  -1   1   9  626.17    5.90   0 
  -1   1  10  757.87    6.75   0 
  -2  -1   5 1714.06    6.77   0 
  -2  -1  11  835.04    7.25   0 
  -1   1   5 2064.54    7.57   0 
   1   2   6 1571.28    6.57   0 
   1   2   7 1394.52    6.83   0 
   1   2   8  258.44    3.34   0 
  -1   1  11  816.82    7.16   0 
   0   2   7 1851.82    8.50   0 
   0   2   8  272.07    3.63   0 
  -2   0   8 1446.43    8.58   0 
  -2   0   9  129.81    2.99   0 
   0   2   6 2062.49    8.19   0 
   0   2   9  286.08    3.94   0 
   1   2   5 2239.04    6.78   0 
  -2   0   7 1078.59    6.90   0 
  -2   0  10  100.67    2.83   0 
  -1   1   4 3339.19    8.35   0 
  -1   1  12  324.38    4.65   0 
   0   2  10  161.38    3.17   0 
  -2   0  11   15.82    2.01   0 
  -2   0   6  919.89    5.77   0 
   0   2   5  453.69    3.46   0 
   0   2  11  199.68    3.56   0 
   1   2   4 2754.00    6.39   0 
  -2   0   5  185.01    2.41   0 
  -1   2   8 1218.22    8.00   0 
  -1   2   9 1090.63    8.03   0 
  -1   2  10  177.50    3.59   0 
   0   2   4 1427.46    5.38   0 
  -1   1   3 2287.60    6.16   0 
  -2   1  10 1458.73    9.95   0 
  -1   2  11  251.61    4.30   0 
  -2   1  11  813.04    7.66   0 
  -1   2   6 1704.46    8.05   0 
  -2   0   4   99.05    1.56   0 
  -1   2   5  947.76    5.45   0 
   0   3   8  832.98    6.48   0 
   0   3   9 1541.30    9.22   0 
   0   3   7  367.50    4.13   0 
   0   3  10 1195.96    8.36   0 
  -1   2   4  219.89    2.44   0 
   0   3  11  197.78    3.66   0 
  -2   2   9  346.50    4.99   0 
  -2   2  10  269.10    4.61   0 
  -1   1   2 3770.53    7.62   0 
  -2   2   8  762.09    6.84   0 
  -2   2  11  121.30    3.35   0 
   0   3   6   64.72    1.72   0 
  -1   3   8  124.74    2.96   0 
  -2   0   3  715.02    3.57   0 
  -2   2   7 1288.00    8.12   0 
  -1   3   7   12.92    1.36   0 
  -2   1   4 2392.50    7.76   0 
   0   3   5  714.40    4.57   0 
  -2   2   6  535.91    4.84   0 
  -1   2   3 1305.19    5.42   0 
  -1   3   6  536.15    4.79   0 
  -3   1   9   99.32    3.12   0 
  -2   2   5  264.82    3.14   0 
  -1   3   5 1367.77    6.94   0 
   0   3   4 2367.34    7.62   0 
  -3   1   8   76.13    2.54   0 
  -2   3   9  292.98    4.69   0 
  -2   3  10  293.92    4.82   0 
  -2   1   3  945.81    4.71   0 
  -2   3   8   33.17    1.97   0 
  -3   1   7  348.13    4.39   0 
  -2   2   4  388.13    3.54   0 
  -2   3   7  236.80    3.86   0 
  -1   3   4 1308.21    6.45   0 
  -1   1   1  362.90    2.13   0 
  -1   2   2  928.29    4.40   0 
  -3   1   6 1303.69    7.56   0 
  -3   2   9  480.84    5.97   0 
  -2   0   2 3095.18    6.89   0 
  -2   3   6  392.60    4.52   0 
  -1   4   8  815.82    7.14   0 
  -1   4   9  201.36    3.91   0 
  -3   2   8  446.46    5.54   0 
   0   3   3 3112.18    8.28   0 
   0   4   7 1213.20    7.37   0 
  -1   4   7  922.37    7.22   0 
  -3   2   7  548.71    5.78   0 
   0   4   6 1112.11    6.65   0 
  -2   2   3  540.58    4.14   0 
  -2   3   5  741.56    5.74   0 
  -1   3   3 1429.70    6.62   0 
  -1   4   6  510.64    5.11   0 
  -3   1   5  511.47    4.43   0 
  -2   1   2  756.59    4.17   0 
  -3   2   6   36.23    1.79   0 
  -2   4   8  666.85    6.97   0 
   0   4   5  722.15    5.10   0 
  -2   3   4 1167.86    6.87   0 
  -2   4   7  803.47    7.31   0 
  -1   2   1 1924.62    6.15   0 
  -3   1   4  729.64    4.99   0 
  -3   2   5   48.56    1.80   0 
   0   3   2  926.01    4.32   0 
  -3   3   7  157.33    3.49   0 
  -2   2   2 2165.22    8.13   0 
  -2   4   6  387.81    4.90   0 
  -1   3   2  520.25    3.90   0 
   0   4   4   47.92    1.58   0 
  -3   3   6  776.44    6.79   0 
  -2   3   3 1518.84    7.75   0 
  -2   4   5    6.18    1.26   0 
  -3   2   4  678.63    5.28   0 
  -2   0   1 3809.53    7.03   0 
  -2   1   1  268.83    2.31   0 
  -1   1   0 4710.27    7.61   0 
  -1   5   7  159.46    3.39   0 
  -3   1   3  687.33    4.67   0 
  -3   3   5 1335.76    8.33   0 
  -2   4   4   30.20    1.59   0 
   0   4   3  472.86    3.74   0 
  -2   3   2  105.49    2.18   0 
  -1   3   1  179.52    2.27   0 
  -1   5   6  380.85    4.73   0 
  -3   2   3  477.58    4.38   0 
  -1   2   0 2391.21    6.74   0 
  -1   5   5  528.14    5.28   0 
   0   3   1  440.74    2.93   0 
  -3   3   4  392.83    4.41   0 
  -2   4   3  651.47    5.56   0 
  -2   5   5  853.97    7.10   0 
  -1   5   4  669.17    5.73   0 
   0   4   2 1119.61    5.49   0 
  -3   1   2  229.38    2.69   0 
  -3   3   3   49.88    1.83   0 
  -2   3   1   89.43    1.92   0 
  -3   2   2 1548.58    7.76   0 
  -2   4   2  885.84    6.50   0 
  -2   1   0 1650.45    5.73   0 
  -2   5   4  755.14    6.49   0 
  -1   3   0  315.49    2.92   0 
  -1   5   3 1277.90    7.68   0 
  -3   3   2   85.81    2.25   0 
   0   3   0    0.19    0.50   0 
  -2   5   3  410.81    4.79   0 
   0   4   1 1199.85    5.61   0 
  -2   3   0  134.40    2.25   0 
  -2   4   1 1428.22    8.06   0 
  -1   1  -1 4419.37    7.50   0 
  -1   2  -1 4475.31    9.02   0 
  -1   5   2  825.45    6.11   0 
  -3   2   1  546.97    4.55   0 
  -2   0   0  492.19    2.50   0 
  -3   1   1  417.28    3.39   0 
  -1   4   0 1575.78    7.30   0 
  -2   5   2    3.05    1.22   0 
  -1   3  -1 1864.47    6.86   0 
  -3   3   1  517.45    5.00   0 
  -2   4   0  639.75    5.25   0 
  -1   5   1   24.79    1.42   0 
  -2   1  -1 1109.44    4.59   0 
  -2   3  -1 1785.05    8.01   0 
  -2   5   1  355.55    4.40   0 
   0   4   0 2083.89    7.29   0 
  -3   2   0  618.75    4.57   0 
  -1   4  -1   72.19    1.70   0 
   0   3  -1  429.05    2.84   0 
  -3   3   0 1952.75    9.09   0 
  -1   2  -2  883.56    4.09   0 
  -1   1  -1 4452.87    8.12   0 
  -2   0  -2  101.63    1.45   0 
  -4   1   1  395.80    4.62   0 
  -1   2   0 2334.11    6.77   0 
  -4   2   2 1103.21    7.77   0 
  -3   1  -1 1465.87    7.18   0 
  -3   2   0  664.67    5.57   0 
  -3   3   2   82.46    2.33   0 
  -2   4   6  369.91    4.59   0 
  -2   3   1   89.54    2.02   0 
  -2   4   5    7.12    1.38   0 
  -1   3   2  509.35    3.70   0 
  -2   1  -2 1674.98    6.28   0 
  -2   2  -1   69.03    1.60   0 
  -2   4   4   25.06    1.60   0 
  -4   1   0  569.93    5.54   0 
  -3   3   1  489.45    5.13   0 
  -4   2   1   93.09    2.55   0 
  -3   4   4   52.61    2.29   0 
  -2   3   0  127.31    2.33   0 
  -2   4   3  649.84    5.62   0 
  -3   1  -2  619.53    4.89   0 
  -1   2  -1 4626.14    9.77   0 
  -3   3   0 2000.12   10.24   0 
  -2   4   2  813.05    6.21   0 
  -3   4   2  489.16    5.41   0 
  -2   2  -2  612.01    4.36   0 
  -1   1  -2 4451.40    8.27   0 
  -1   4   4    7.20    1.26   0 
  -2   0  -3  318.26    2.48   0 
  -2   3  -1 1664.19    7.94   0 
  -1   3   0  296.69    2.89   0 
  -3   2  -2  185.93    2.98   0 
  -2   1  -3 2276.65    7.54   0 
  -1   4   3  243.34    3.03   0 
  -3   3  -1  796.61    6.48   0 
  -3   4   1  297.52    4.28   0 
  -3   1  -3  330.31    3.64   0 
  -1   4   2  878.62    5.59   0 
  -2   4   0  657.74    5.61   0 
  -1   2  -2  914.51    4.51   0 
  -3   4   0  121.51    2.92   0 
  -2   3  -2 3296.99   11.30   0 
  -1   3  -1 1887.53    7.29   0 
  -3   2  -3  723.30    5.88   0 
  -2   5   3  408.14    4.90   0 
  -1   4   1 1374.37    6.98   0 
  -2   4  -1  104.07    2.45   0 
  -3   4  -1  138.44    3.10   0 
  -2   5   2    4.22    1.41   0 
  -1   1  -3 1286.35    4.66   0 
  -2   1  -4  318.60    3.07   0 
  -2   3  -3  976.86    6.36   0 
  -1   3  -2 1672.78    7.12   0 
  -1   4   0 1603.43    7.64   0 
   0   3   2  937.36    4.08   0 
  -3   1  -4    2.98    1.04   0 
  -2   5   1  322.91    4.39   0 
  -1   0  -3  178.49    1.43   0 
  -1   2  -3   91.58    1.60   0 
  -2   0  -4  730.19    3.81   0 
  -2   2  -4  796.80    5.34   0 
  -2   4  -2    6.48    1.20   0 
  -3   2  -4 1069.51    7.17   0 
  -3   4  -2  285.93    4.30   0 
  -2   5   0  224.89    3.76   0 
   0   3   1  434.76    2.97   0 
  -2   3  -4  114.67    2.46   0 
  -3   3  -4   46.85    2.06   0 
  -2   4  -3  173.67    3.18   0 
  -1   3  -3 1653.22    7.44   0 
  -2   1  -5  163.59    2.44   0 
  -2   2  -5  934.04    6.15   0 
  -1   2  -4 2710.26    8.62   0 
  -1   4  -2  296.07    3.63   0 
  -1   5   1   24.60    1.67   0 
   0   2  -1 2957.99    6.94   0 
  -3   2  -5  506.74    5.06   0 
   0   3   0    0.39    0.60   0 
  -2   5  -2  511.15    5.72   0 
  -1   5   0  206.33    3.56   0 
  -2   4  -4  827.93    6.89   0 
  -3   3  -5  339.68    4.73   0 
  -1   3  -4  881.55    5.82   0 
  -1   4  -3  170.26    2.89   0 
   0   3  -1  446.76    3.48   0 
  -2   5  -3  301.05    4.58   0 
  -1   5  -1  921.41    7.10   0 
   0   2  -2  365.02    2.79   0 
  -2   2  -6 1083.76    7.14   0 
  -1   0  -4 1263.30    4.36   0 
  -1   2  -5 2236.82    8.57   0 
   0   4   1 1193.92    6.27   0 
  -2   4  -5 1077.94    8.18   0 
  -1   4  -4  412.88    4.75   0 
  -1   5  -2  679.23    6.35   0 
  -2   1  -6  801.26    5.43   0 
  -2   3  -6  227.42    3.77   0 
  -1   1  -5  206.16    2.37   0 
  -1   3  -5  109.96    2.40   0 
   0   1  -2 3443.33    7.08   0 
   0   4   0 2037.95    8.61   0 
  -1   5  -3  869.48    7.43   0 
   0   2  -3  302.15    2.87   0 
   0   4  -1 1212.48    7.05   0 
  -2   4  -6  422.47    5.48   0 
  -1   4  -5 1480.95    9.36   0 
   0   3  -3 3080.36   10.42   0 
  -2   2  -7  160.97    3.20   0 
  -1   3  -6  117.20    2.70   0 
   0   4  -2 1104.08    7.08   0 
  -2   3  -7 1015.59    8.06   0 
  -1   1  -6  372.49    3.58   0 
   0   1  -3 4153.94    9.20   0 
  -1   4  -6  830.23    7.48   0 
   0   2  -4 1419.85    6.70   0 
   0   3  -4 2245.89    9.57   0 
   0   4  -3  484.29    5.01   0 
  -1   0  -5 1384.32    5.41   0 
  -1   5  -5  192.64    4.04   0 
  -1   2  -7 1321.25    7.90   0 
  -1   3  -7  533.30    5.71   0 
   0   5  -1  542.83    5.73   0 
  -2   3  -8 1179.57    9.05   0 
  -2   2  -8   13.13    1.73   0 
   0   3  -5  662.40    5.59   0 
   0   5  -2  486.69    5.65   0 
  -1   4  -7  239.64    4.41   0 
  -1   5  -6    1.67    1.78   0 
   0   1  -4 2393.26    7.94   0 
   0   2  -5  417.38    3.98   0 
  -1   1  -7  968.70    6.17   0 
   0   5  -3  750.76    7.13   0 
   0   4  -5  679.37    6.41   0 
  -1   2  -8  244.24    3.81   0 
   0   3  -6   61.33    2.12   0 
   0   5  -4  790.75    7.50   0 
  -1   0  -6 1188.55    5.66   0 
  -1   4  -8  256.02    4.69   0 
   0   1  -5  847.09    5.24   0 
   0   2  -6 2009.39    9.28   0 
   0   4  -6 1094.79    8.36   0 
   0   5  -5  172.92    3.84   0 
   0   3  -7  339.61    4.48   0 
  -1   1  -8 1112.49    6.93   0 
  -1   3  -9  717.93    7.15   0 
   0   2  -7 1926.05    9.57   0 
   0   4  -7 1223.51    9.02   0 
   0   5  -6    4.40    1.74   0 
  -1   2  -9  476.32    5.35   0 
   0   3  -8  803.77    6.99   0 
  -1   0  -7 2391.01    8.40   0 
   0   4  -8  352.76    5.07   0 
  -1   3 -10  756.93    7.35   0 
   0   2  -8  294.54    4.03   0 
   1   3  -2  466.01    4.37   0 
  -1   1  -9  854.06    6.24   0 
  -1   2 -10  826.48    6.98   0 
   1   3  -3 1341.28    7.74   0 
   0   3  -9 1530.30    9.70   0 
   1   3  -4 1341.95    8.16   0 
   1   3  -1  175.00    2.44   0 
   1   4  -3  240.67    3.84   0 
   1   4  -2  855.74    6.46   0 
   0   4  -9   94.48    2.88   0 
   1   4  -4    9.23    1.56   0 
   0   0  -5 3479.60    9.44   0 
   0   1  -8 1486.36    8.03   0 
   1   2  -4  257.97    3.32   0 
   1   2  -2  844.57    4.94   0 
   1   3   0  320.31    2.68   0 
   1   4  -5  828.36    7.30   0 
   1   3  -6  572.59    5.81   0 
   1   2  -5  964.80    6.58   0 
   1   2  -1 1913.04    6.37   0 
   1   4  -6  543.51    6.10   0 
   1   5  -4  698.86    7.00   0 
   0   0  -6 4938.02   12.07   0 
   0   2 -10  155.70    3.19   0 
   1   2  -6 1672.40    9.03   0 
   1   3  -7   14.54    1.62   0 
   1   5  -5  557.05    6.37   0 
   1   5  -6  387.93    5.47   0 
   0   1  -9 1929.10    9.47   0 
   0   3 -11  184.92    3.70   0 
   1   2  -7 1028.70    7.40   0 
   1   3  -8  133.62    3.17   0 
   1   4  -8  822.83    7.59   0 
   1   5  -7  164.83    3.97   0 
   0   0  -7  344.79    3.58   0 
   0   2 -11  198.59    3.66   0 
   1   1  -5 1992.19    8.82   0 
   1   1  -4 3065.83   10.09   0 
   1   1  -3 2271.62    7.93   0 
   1   2  -8 1423.26    9.06   0 
   1   3  -9  633.48    6.55   0 
   1   4  -9  212.73    4.11   0 
   0   1 -10 1008.30    7.23   0 
   1   1  -6  298.62    3.80   0 
  -2   3  -8 1121.71    7.89   0 
  -2   4  -6  426.76    5.45   0 
  -1   3   3 1359.15    5.51   0 
  -1   2  -8  255.16    3.29   0 
   0   1  -4 2384.30    6.85   0 
  -1   4  -2  274.35    4.13   0 
  -1   3  -7  556.86    5.32   0 
  -1   4  -3  174.88    3.45   0 
  -1   4   0 1562.05    8.58   0 
  -2   5  -1  689.12    7.17   0 
  -1   4  -4  430.10    5.24   0 
   0   2  -2  313.97    3.03   0 
  -2   5  -3  305.22    5.06   0 
  -2   5   0  224.67    4.16   0 
   0   1  -5  827.04    4.21   0 
   0   2  -3  301.29    3.07   0 
  -1   4  -5 1581.06    9.78   0 
  -1   4   1 1406.67    7.56   0 
   0   2  -4 1508.51    6.83   0 
   0   2  -1 2945.04    8.36   0 
  -2   5   1  330.18    4.62   0 
  -1   3  -8  757.54    6.13   0 
  -1   4  -6  857.41    7.17   0 
  -1   4   2  867.79    5.44   0 
   0   2   0 1263.78    4.97   0 
   0   1  -6  311.62    2.67   0 
  -1   4  -7  252.10    3.99   0 
   0   2  -6 2152.31    8.28   0 
   0   3  -3 2957.83   10.87   0 
   0   3  -2  860.29    5.71   0 
  -1   3  -9  688.67    5.74   0 
  -1   5  -3  876.28    7.78   0 
   0   3  -4 2492.08   10.19   0 
   0   3  -1  431.15    3.80   0 
  -1   5  -4  373.35    5.26   0 
  -1   5  -1  903.28    7.40   0 
   0   3  -5  730.49    5.64   0 
  -1   4  -8  246.70    3.87   0 
  -1   5  -5  206.92    3.99   0 
  -1   5   0  195.48    3.40   0 
   0   1  -7  118.07    1.72   0 
   0   2  -7 1909.82    7.74   0 
  -1   5  -6    0.57    1.45   0 
  -1   5   1   21.31    1.49   0 
   0   4  -3  448.71    4.86   0 
   0   3  -7  368.10    4.03   0 
   0   3   1  417.88    3.06   0 
   0   4  -4   50.03    1.96   0 
   0   4  -2 1062.60    7.06   0 
   0   2  -8  284.78    3.06   0 
   0   4  -5  753.37    6.45   0 
   0   4  -1 1140.51    6.86   0 
   0   2   2  343.25    1.96   0 
   0   4  -6 1190.87    8.03   0 
   0   4   0 2075.77    8.51   0 
   0   3  -8  832.41    5.93   0 
   0   4  -7 1273.88    8.28   0 
   0   3   2  889.12    4.06   0 
   0   4   1 1133.75    5.87   0 
   0   5  -4  789.03    7.28   0 
   0   5  -3  741.40    6.88   0 
  -1   6   0  244.77    3.94   0 
   0   3  -9 1508.57    7.91   0 
   0   4  -8  366.75    4.54   0 
   0   5  -5  179.97    3.74   0 
   0   5  -2  503.77    5.51   0 
   0   5  -6    2.06    1.50   0 
   0   5  -1  557.53    5.49   0 
   0   4  -9   99.33    2.60   0 
   0   4   2 1094.91    5.55   0 
   0   5   0    1.06    1.12   0 
   0   5   1  553.38    4.91   0 
   0   3   3 3211.21    7.51   0 
   0   6  -2   16.41    1.96   0 
   1   3  -4 1075.62    7.24   0 
   0   6  -1 1024.51    8.16   0 
   1   3  -5 1339.28    8.22   0 
   1   3  -3 1344.42    7.83   0 
   1   2  -5  809.87    5.53   0 
   1   2  -4  193.27    2.75   0 
   1   2  -3 1152.44    6.19   0 
   1   3  -6  558.77    5.47   0 
   1   3  -2  539.79    4.81   0 
   1   4  -4   54.24    2.31   0 
   0   4   3  529.03    3.87   0 
   0   5   2  519.29    4.61   0 
   1   4  -5  776.73    7.23   0 
   1   4  -3  234.29    3.97   0 
   0   6   0  465.37    5.33   0 
   1   2  -6 1629.79    7.97   0 
   1   2  -2  959.36    5.41   0 
   1   3  -7   12.30    1.47   0 
   1   4  -2  940.63    7.24   0 
   1   3  -1  194.65    2.80   0 
   1   4  -7  973.83    8.04   0 
   1   2  -7  996.19    6.31   0 
   1   4  -1 1471.88    8.44   0 
   1   3  -8  142.69    2.96   0 
   1   5  -5  529.33    6.67   0 
   1   5  -4  684.25    7.44   0 
   1   5  -3 1284.87    9.79   0 
   1   2  -1 2073.06    7.45   0 
   1   3   0  333.61    3.34   0 
   1   4  -8  859.26    7.39   0 
   1   5  -6  401.52    5.82   0 
   1   5  -2  882.65    7.76   0 
   1   1  -4 2904.37    8.66   0 
   1   2  -8 1381.40    7.41   0 
   1   5  -1   33.77    1.93   0 
   1   1  -5 1740.21    6.90   0 
   1   3  -9  655.07    5.79   0 
   1   4  -9  208.31    3.82   0 
   1   1  -3 2276.36    7.39   0 
   1   2   0 2508.97    7.69   0 
   1   1  -6  278.06    2.90   0 
   1   5   0  196.72    3.38   0 
   1   3   1 1884.52    7.25   0 
   1   4   1   70.52    1.82   0 
   1   1  -2 3764.99    9.10   0 
   1   1  -7   38.57    1.42   0 
   1   5   1  897.95    6.58   0 
   1   6  -1  894.19    7.74   0 
   1   4   2  294.76    3.35   0 
   1   1  -1  439.98    2.99   0 
   1   3   2 1618.24    6.59   0 
   1   6   0  233.73    4.02   0 
   1   5   2  684.24    5.83   0 
   2   4  -5    5.84    1.90   0 
   2   4  -4   23.97    2.23   0 
   2   4  -3  642.93    7.17   0 
   2   3  -6  360.60    5.19   0 
   2   3  -4 1021.22    8.22   0 
   2   3  -3 1519.45    9.79   0 
   2   4  -7  791.90    8.07   0 
   2   5  -5  830.36    8.95   0 
   2   3  -7  251.32    4.43   0 
   2   4  -2  880.02    7.93   0 
   2   5  -4  707.18    8.13   0 
   2   5  -3  433.51    6.40   0 
   1   1   0 4735.72    9.37   0 
   1   4   3  192.65    2.90   0 
   2   3  -2  122.14    2.91   0 
   2   4  -8  653.29    7.13   0 
   1   2   2  898.75    4.38   0 
   2   4  -1 1421.35    9.47   0 
   2   5  -2    3.20    1.81   0 
   2   2  -5  220.18    3.73   0 
   2   2  -4  373.08    4.68   0 
   2   3  -8   41.77    2.29   0 
   1   3   3 1758.60    7.06   0 
   2   2  -6  521.71    5.59   0 
   2   2  -3  540.22    5.42   0 
   2   5  -1  331.03    5.07   0 
   2   2  -7 1354.99    8.92   0 
   2   2  -2 2337.51   10.65   0 
   2   3   0  127.72    2.67   0 
   2   5   0  212.17    3.89   0 
   2   2  -8  816.35    6.83   0 
   2   2  -1 2722.43   11.02   0 
   1   1   1 4210.12    8.66   0 
   2   4   1  104.86    2.58   0 
   2   5   1  664.44    6.33   0 
   1   0  -5  124.08    1.67   0 
   1   0  -4   22.41    0.84   0 
   1   2   3  107.61    1.66   0 
   2   2   0 1992.29    9.03   0 
   1   0  -3   11.51    0.72   0 
   1   3   4  859.27    4.69   0 
   2   1  -5 1525.85    8.61   0 
   2   1  -4 2323.50   10.52   0 
   2   1  -6 1213.30    7.72   0 
   2   1  -3 1005.92    6.85   0 
   2   4   2    7.22    1.35   0 
   2   5   2  500.19    5.56   0 
   2   1  -7  314.00    3.99   0 
   2   1  -2  784.01    5.90   0 
   2   3   2 3202.52   11.65   0 
   3   4  -4   43.37    2.98   0 
   2   2   1   71.61    1.88   0 
   3   4  -3 1312.20   11.29   0 
   3   3  -6  716.21    8.17   0 
   3   3  -4  370.03    6.08   0 
   3   3  -3   47.95    2.75   0 
   3   4  -2  527.18    7.03   0 
   2   1  -1  310.04    3.65   0 
   3   3  -7  156.17    4.15   0 
   2   4   3  188.87    3.36   0 
   3   3  -2   85.24    3.14   0 
   3   4  -1  316.57    5.25   0 
   2   3   3 1038.67    6.82   0 
   3   2  -5   41.87    2.84   0 
   3   3  -1  497.13    6.19   0 
   1   0  -1  514.47    2.96   0 
   2   1   0 1612.83    7.70   0 
   2   2   2  630.00    4.87   0 
   3   2  -6   31.90    2.42   0 
   1   2   4 2757.15    7.34   0 
   3   2  -3  473.04    6.12   0 
   3   2  -7  548.85    6.54   0 
   3   2  -2 1513.03   10.45   0 
   3   3   0 1859.32   10.95   0 
   3   2  -1  597.08    6.38   0 
   3   4   1  122.11    3.04   0 
   2   1   1 1085.63    6.09   0 
   2   2   3 1087.14    6.40   0 
   1   0   0  869.35    3.70   0 
   2   3   4  113.46    2.33   0 
   3   2   0  643.55    6.31   0 
  -2   0   5  171.38    2.38   0 
  -2   0  11   16.35    1.62   0 
   0   1  12   46.72    1.84   0 
  -1   1   4 3256.33    8.21   0 
  -2   0   4  101.03    1.67   0 
  -1   1  12  302.36    4.25   0 
  -2  -1   2  622.79    2.82   0 
  -1   1   3 2271.37    6.23   0 
  -3  -1   8   71.61    2.53   0 
  -3  -1   9   81.81    2.81   0 
  -2   1   7  297.15    3.95   0 
  -2   1   8    6.87    1.02   0 
  -2   1   9  366.57    4.89   0 
  -2   1  10 1653.78   10.45   0 
   0   2   7 1837.98    7.89   0 
   0   2   8  274.59    3.38   0 
   0   2   9  284.28    3.73   0 
  -3  -1   7  349.53    4.51   0 
   0   2   6 2119.21    7.78   0 
  -2   0   3  722.68    3.78   0 
  -2   1   6 1235.36    7.23   0 
  -2   1  11  868.34    7.76   0 
   0   2  10  161.37    2.98   0 
  -1   2   7  992.54    6.66   0 
  -1   2  10  178.09    3.50   0 
   0   2   5  465.71    3.33   0 
  -2   1   5 1723.73    7.73   0 
  -1   2   6 1683.25    7.97   0 
  -1   2  11  249.13    4.22   0 
  -3   0   8  818.52    7.28   0 
  -3   0   9 1253.56    9.30   0 
  -3   0  10  713.60    7.29   0 
  -3   0   7  149.96    3.15   0 
  -1   1   2 3549.54    7.41   0 
  -1   2   5  933.22    5.40   0 
   0   2   4 1542.11    5.40   0 
  -3   0   6  200.12    3.21   0 
  -2   0   2 3158.71    7.42   0 
  -2   2   8  755.08    6.84   0 
  -2   2   9  375.47    5.16   0 
  -2   2  10  303.50    4.83   0 
  -2   2   7 1328.60    8.47   0 
  -2   2  11  126.68    3.35   0 
  -1   2   4  226.05    2.48   0 
  -3   0   5  147.75    2.48   0 
  -3   1   8   75.80    2.63   0 
  -3   1   9   96.22    2.99   0 
  -2   2   6  562.56    5.12   0 
  -3   1   7  345.03    4.59   0 
  -2   2   5  272.95    3.30   0 
  -1   3   9  627.70    6.12   0 
   0   2   3  288.31    2.14   0 
  -3   1   6 1361.66    8.10   0 
  -1   2   3 1283.67    5.40   0 
  -1   3   8  126.90    2.86   0 
  -1   3  10  836.18    7.17   0 
  -3   0   4  650.14    4.40   0 
  -1   3   7   14.68    1.38   0 
  -1   3  11  754.19    6.78   0 
   0   3   8  758.89    5.60   0 
   0   3   7  336.50    3.55   0 
  -2   2   4  419.85    3.75   0 
  -1   1   1  394.05    2.26   0 
  -3   1   5  525.75    4.65   0 
  -2   3   9  331.24    4.94   0 
  -2   3  10  328.28    5.00   0 
   0   3   6   61.95    1.57   0 
  -2   1   2  758.37    4.19   0 
  -2   3   8   37.81    2.04   0 
  -2   0   1 3681.34    6.97   0 
  -2   3   7  250.21    4.00   0 
  -3   2   7  552.44    5.90   0 
  -3   1   4  723.59    5.03   0 
  -2   3   6  402.45    4.62   0 
  -1   2   2  951.87    4.44   0 
   0   3   5  735.08    4.47   0 
  -3   2   6   36.07    1.82   0 
  -2   2   3  543.99    4.12   0 
   0   2   2  359.86    2.23   0 
  -1   3   4 1323.66    6.50   0 
  -2   3   5  750.78    5.81   0 
  -3   2   5   49.70    1.82   0 
   0   3   4 2425.60    7.56   0 
  -1   4   8  808.26    6.85   0 
  -1   4   9  190.70    3.67   0 
  -3   1   3  674.06    4.65   0 
  -2   1   1  279.40    2.34   0 
  -2   2   2 2126.23    7.90   0 
  -2   3   4 1165.46    6.86   0 
  -1   3   3 1411.45    6.47   0 
  -1   4   7  925.18    7.09   0 
  -3   2   4  680.61    5.27   0 
  -3   3   7  153.55    3.45   0 
  -2   4   8  631.20    6.63   0 
  -1   2   1 1854.42    5.91   0 
  -1   4   6  516.84    5.04   0 
  -2   4   7  778.85    7.09   0 
  -1   1   0 4785.81    7.42   0 
  -2   3   3 1506.37    7.59   0 
   0   3   3 3147.65    8.12   0 
  -2   4   6  377.39    4.78   0 
  -1   4   5  767.67    5.78   0 
  -3   2   3  458.70    4.24   0 
  -1   3   2  509.92    3.77   0 
  -3   1   2  239.44    2.80   0 
  -2   4   5   13.05    1.38   0 
  -2   0   0  484.46    2.42   0 
  -3   3   4  387.57    4.35   0 
  -2   3   2   99.71    2.07   0 
  -2   1   0 1708.23    5.77   0 
  -2   4   4   26.74    1.53   0 
   0   4   5  723.22    4.92   0 
  -3   2   2 1545.16    7.69   0 
   0   3   2  900.49    4.22   0 
  -1   2   0 2355.12    6.44   0 
  -1   3   1  175.47    2.20   0 
  -3   3   3   45.78    1.75   0 
  -2   4   3  626.47    5.43   0 
  -1   5   7  149.91    3.17   0 
   0   4   4   45.88    1.39   0 
  -3   1   1  412.21    3.31   0 
  -2   3   1   92.60    1.92   0 
  -1   5   6  368.62    4.54   0 
  -1   4   2  859.70    5.53   0 
  -3   2   1  550.59    4.47   0 
  -3   3   2   83.52    2.20   0 
  -3   4   4   47.16    1.77   0 
  -2   4   2  867.29    6.29   0 
  -2   5   5  862.81    7.08   0 
  -1   5   5  510.35    5.10   0 
   0   4   3  480.91    3.74   0 
   0   3   1  436.70    2.92   0 
  -1   1  -1 4467.48    7.28   0 
  -1   3   0  291.05    2.74   0 
  -2   5   4  721.27    6.30   0 
  -1   5   4  667.59    5.65   0 
   0   2   0 1226.64    3.86   0 
  -2   3   0  127.40    2.16   0 
  -1   4   1 1348.32    6.73   0 
  -2   1  -1 1076.95    4.29   0 
  -2   4   1 1395.96    7.78   0 
  -1   2  -1 4584.78    9.08   0 
  -3   3   1  507.32    4.81   0 
  -2   5   3  406.60    4.69   0 
  -1   5   3 1220.65    7.41   0 
   0   4   2 1063.28    5.31   0 
  -2   2  -1   70.80    1.49   0 
  -3   2   0  618.39    4.40   0 
  -2   5   2   11.17    1.39   0 
  -1   3  -1 1886.61    6.92   0 
  -1   4   0 1575.11    7.25   0 
  -1   5   2  801.62    5.96   0 
   0   3   0   15.08    0.72   0 
  -2   0  -1  410.74    2.06   0 
  -2   3  -1 1747.09    7.76   0 
  -2   4   0  656.22    5.30   0 
  -3   3   0 1978.12    9.07   0 
  -3   4   1  312.77    4.14   0 
   0   4   1 1185.29    5.62   0 
  -3   2   2 1576.44    8.84   0 
  -4   1   3    7.40    1.40   0 
  -3  -1   0  875.61    5.08   0 
  -3   0   0   80.56    1.81   0 
  -2  -1  -1  971.80    3.98   0 
  -2   0  -1  404.64    2.98   0 
  -1   3   2  519.68    3.52   0 
  -4   0   2  311.49    4.12   0 
  -3   3   3   47.58    1.92   0 
  -2   4   5    5.40    1.29   0 
  -3   2   1  584.61    5.37   0 
  -2   2   0 1983.03    7.75   0 
  -4   1   2  121.04    2.79   0 
  -2   1  -1 1143.95    5.46   0 
  -1   2   0 2390.46    6.62   0 
  -2   4   4   27.28    1.51   0 
  -1   1  -1 4414.18    8.09   0 
  -3   3   2   86.38    2.33   0 
  -4   0   1  628.70    5.56   0 
  -3   0  -1  158.95    2.43   0 
  -3   2   0  664.11    5.48   0 
  -4   1   1  396.63    4.71   0 
  -3   4   4   45.38    2.06   0 
  -2   4   3  627.45    5.16   0 
  -1   3   1  166.90    2.00   0 
  -3   1  -1 1439.15    7.34   0 
  -3   3   1  486.19    5.05   0 
  -2   2  -1   73.72    1.63   0 
  -2   0  -2   85.25    1.40   0 
  -3   4   3 1268.95    8.26   0 
  -2   3   0  124.72    2.23   0 
  -2   1  -2 1639.99    6.34   0 
  -2   4   2  816.69    5.82   0 
  -3   2  -1   55.43    1.76   0 
  -4   1   0  556.34    5.51   0 
  -3   3   0 2005.12   10.11   0 
  -2  -1  -2 1756.61    5.26   0 
  -3   4   2  487.28    5.17   0 
  -1   3   0  308.33    2.73   0 
  -3   0  -2  302.86    3.26   0 
  -3   1  -2  635.90    5.19   0 
  -2   2  -2  612.84    4.35   0 
  -2   3  -1 1625.90    7.63   0 
  -2   4   1 1359.96    7.51   0 
  -1   1  -2 4460.91    8.41   0 
  -1   4   2  854.23    4.87   0 
  -4   1  -1  902.08    6.79   0 
  -3   2  -2  187.53    3.05   0 
  -3   3  -1  794.70    6.38   0 
  -2   4   0  676.19    5.44   0 
  -2   0  -3  323.08    2.75   0 
  -1   2  -2  897.50    4.38   0 
  -2   3  -2 3277.50   11.03   0 
  -1   3  -1 1946.86    6.98   0 
  -1   4   1 1348.83    6.18   0 
  -3   1  -3  335.65    3.83   0 
  -2   2  -3 1029.17    5.82   0 
  -3   0  -3 1298.65    6.52   0 
  -3   3  -2  193.73    3.30   0 
  -4   1  -2  306.11    3.92   0 
  -3   2  -3  712.04    5.98   0 
  -2   4  -1  103.45    2.41   0 
  -3   4  -1  145.25    3.08   0 
  -1   4   0 1634.63    6.98   0 
  -2  -1  -3 2206.34    5.99   0 
  -1   1  -3 1307.27    4.81   0 
  -2   3  -3  982.49    6.28   0 
  -2   5   1  320.46    4.02   0 
  -3   1  -4    2.31    1.22   0 
  -3   3  -3  135.10    2.87   0 
  -1   2  -3   95.99    1.60   0 
  -3   4  -2  304.79    4.30   0 
  -2   0  -4  753.59    4.37   0 
  -2   2  -4  817.39    5.48   0 
  -3   0  -4 1550.61    7.32   0 
  -2   5   0  228.86    3.49   0 
  -1   4  -1   77.41    1.74   0 
   0   3   1  437.26    2.38   0 
  -3   3  -4   50.72    2.07   0 
  -2   3  -4  123.05    2.50   0 
  -1   3  -3 1643.80    7.07   0 
  -2   1  -5  158.14    2.48   0 
  -2   5  -1  700.91    6.02   0 
  -1   1  -4 1321.40    5.31   0 
  -3   1  -5  102.73    2.33   0 
  -3   2  -5  515.39    5.31   0 
  -2   2  -5  927.30    6.24   0 
  -1   2  -4 2787.70    8.66   0 
  -1   4  -2  288.06    3.28   0 
   0   2  -1 3038.67    6.33   0 
   0   3   0    0.88    0.56   0 
  -3   3  -5  341.01    4.74   0 
  -2   0  -5 2813.50    9.04   0 
  -2   3  -5   16.62    1.35   0 
  -2   4  -4  799.73    6.55   0 
  -2   5  -2  511.63    5.35   0 
  -1   3  -4  866.59    5.57   0 
  -1   0  -4 1246.79    4.76   0 
  -1   4  -3  166.10    2.73   0 
  -3   2  -6  465.83    5.25   0 
  -2   1  -6  833.50    6.00   0 
  -2   2  -6 1085.67    7.37   0 
  -2   5  -3  284.47    4.27   0 
  -1   2  -5 2191.80    8.50   0 
  -3   1  -6  394.63    4.55   0 
  -2   4  -5 1072.87    8.07   0 
  -1   1  -5  209.01    2.48   0 
   0   3  -1  450.34    3.14   0 
  -2   3  -6  215.30    3.72   0 
  -1   3  -5  100.44    2.28   0 
  -1   4  -4  406.60    4.50   0 
  -1   5  -2  665.80    5.84   0 
  -2   0  -6  729.55    5.22   0 
   0   3  -2  933.92    5.08   0 
  -2   4  -6  431.44    5.54   0 
  -1   0  -5 1426.92    6.08   0 
  -1   2  -6 1594.56    8.13   0 
   0   2  -3  304.65    2.84   0 
  -3   1  -7 1201.80    8.35   0 
  -2   1  -7  705.32    6.09   0 
  -2   3  -7 1019.77    8.32   0 
  -1   1  -6  353.99    3.64   0 
  -1   4  -5 1435.53    8.93   0 
  -1   5  -3  868.79    7.01   0 
  -1   3  -6  117.89    2.59   0 
   0   3  -3 3080.00   10.12   0 
   0   1  -3 4177.33    9.31   0 
  -1   5  -4  363.58    4.91   0 
  -1   2  -7 1335.41    8.13   0 
   0   2  -4 1459.80    6.76   0 
  -2   0  -7  651.68    5.39   0 
  -2   3  -8 1174.99    9.29   0 
  -1   3  -7  522.01    5.62   0 
   0   4  -2 1114.27    6.59   0 
  -2   1  -8  906.41    7.31   0 
  -1   0  -6 1006.08    5.75   0 
   0   3  -4 2288.11    9.40   0 
  -1  -1  -4 1402.79    5.08   0 
  -1   5  -5  186.33    3.81   0 
   0   1  -4 2405.50    8.00   0 
   0   4  -3  490.59    4.70   0 
   0   2  -5  436.98    4.06   0 
  -2   2  -9  262.51    4.61   0 
  -1   2  -8  241.99    3.82   0 
  -1   3  -8  716.05    6.79   0 
  -1   5  -6    0.81    1.67   0 
   0   4  -4   45.84    1.84   0 
   0   1  -5  846.24    5.18   0 
  -2   1  -9 1230.33    8.55   0 
  -1   0  -7 2262.57    9.08   0 
   0   2  -6 2059.16    9.08   0 
  -1   4  -8  253.11    4.37   0 
   0   4  -5  718.24    6.06   0 
  -2   4  -4  832.57    8.61   0 
  -1   3  -4  856.57    7.07   0 
  -1   2  -6 1635.81    9.08   0 
  -2   4  -5 1134.06   10.17   0 
  -1   4   0 1596.50   10.25   0 
  -2   2  -8   12.94    1.98   0 
  -2   3  -7 1142.21    9.69   0 
  -1   1  -7 1059.09    6.46   0 
  -1   3  -5  114.32    2.80   0 
  -1   4  -1   77.39    2.82   0 
  -1   4   1 1453.01    9.22   0 
  -2   5  -1  748.34    8.54   0 
  -2   5   0  256.00    5.25   0 
  -2   5   1  346.89    5.76   0 
  -1   4   2  947.33    6.86   0 
   0   1  -2 3247.63    8.43   0 
  -2   5  -2  572.80    7.64   0 
  -2   4  -6  482.98    6.58   0 
  -1   2  -7 1449.60    8.43   0 
  -1   4  -3  194.59    4.01   0 
  -1   3  -6  132.07    3.07   0 
   0   1  -3 4290.40    9.92   0 
   0   2  -1 2531.10    8.60   0 
  -2   3  -8 1289.62    9.61   0 
  -1   4  -4  455.86    5.78   0 
   0   2  -2  335.63    3.44   0 
   0   2  -3  316.09    3.34   0 
  -1   1  -8 1092.07    6.14   0 
  -1   4  -5 1593.55   10.24   0 
   0   2   1 3098.75    7.32   0 
  -1   2  -8  250.27    3.55   0 
   0   2  -4 1541.82    7.22   0 
  -1   4  -6  838.26    7.32   0 
  -1   5  -2  673.66    6.95   0 
  -1   5  -1  888.66    7.66   0 
  -1   5   0  191.82    3.57   0 
   0   3  -2  839.23    5.88   0 
  -1   3  -8  725.17    6.18   0 
   0   1  -5  807.97    4.42   0 
   0   2  -5  450.73    3.93   0 
   0   3  -3 3135.08   11.41   0 
   0   3   0    0.94    0.77   0 
  -1   4  -7  236.66    3.94   0 
  -1   5  -4  399.70    5.38   0 
   0   3  -4 2445.47   10.14   0 
  -1   2  -9  419.08    4.22   0 
   0   3   1  411.80    3.08   0 
  -1   5  -5  195.76    3.86   0 
   0   3  -5  732.71    5.68   0 
  -1   3  -9  665.53    5.84   0 
  -1   5  -6    5.84    1.52   0 
   0   1  -6  301.21    2.78   0 
   0   3  -6   63.80    1.93   0 
   0   4  -3  470.24    5.00   0 
   0   4  -1 1121.55    6.89   0 
   0   4  -4   50.29    2.02   0 
   0   4   0 2019.92    8.43   0 
   0   2  -7 1870.31    8.10   0 
   0   3   2  840.00    3.66   0 
   0   4  -5  748.67    6.49   0 
   0   1  -7  125.55    1.95   0 
  -1   3 -10  719.95    6.10   0 
   0   4  -6 1203.22    8.26   0 
   0   4   1 1102.20    5.57   0 
   0   2  -8  289.94    3.40   0 
   0   3  -8  788.65    6.18   0 
   0   4  -7 1298.25    8.68   0 
   0   5  -3  810.83    7.23   0 
   0   5  -2  490.24    5.45   0 
   0   5  -5  191.59    3.90   0 
   0   5  -1  555.50    5.42   0 
   0   0  -6 5218.58    9.38   0 
   0   1  -8 1480.59    6.68   0 
   0   5  -6    5.05    1.60   0 
   0   5   0    1.36    1.16   0 
   0   2  -9  273.54    3.46   0 
   0   3  -9 1553.11    8.81   0 
   0   5  -7   67.38    2.58   0 
   0   4  -9   95.15    2.72   0 
   0   3 -10 1151.59    7.73   0 
   0   6  -3   48.51    2.61   0 
   0   6  -2   18.56    2.07   0 
   1   3  -5 1363.92    8.64   0 
   1   3  -4 1138.20    7.66   0 
   1   3  -3 1333.82    7.91   0 
   1   2  -4  201.12    2.95   0 
   1   3  -6  562.03    5.77   0 
   1   3  -2  540.05    4.77   0 
   1   2  -5  879.00    6.15   0 
   1   2  -3 1208.85    6.53   0 
   1   4  -5  781.79    7.40   0 
   1   4  -4   30.58    1.97   0 
   1   2  -6 1624.31    8.59   0 
   1   3  -7   13.92    1.59   0 
   1   4  -6  536.80    6.28   0 
   1   4  -2  949.84    7.08   0 
   1   2  -2  978.56    5.47   0 
   1   2  -7 1002.19    6.94   0 
   1   4  -7 1000.91    8.47   0 
   1   4  -1 1423.44    7.83   0 
   1   5  -5  541.93    6.72   0 
   1   2  -1 1969.95    7.01   0 
   1   4  -8  887.11    7.90   0 
   1   5  -6  389.57    5.81   0 
   1   5  -3 1335.75    9.63   0 
   1   2  -8 1346.93    8.16   0 
   1   3   0  315.41    3.02   0 
   1   5  -2  839.56    7.13   0 
   1   1  -4 2899.30    9.27   0 
   1   3  -9  683.67    6.46   0 
   1   5  -7  177.46    4.07   0 
   1   1  -6  259.31    3.20   0 
   1   1  -3 2270.20    7.71   0 
   1   4   0 1561.40    7.32   0 
   1   5  -1   22.66    1.62   0 
   1   1  -7   39.23    1.70   0 
   1   2  -9 1174.44    7.75   0 
   1   3 -10  830.56    7.04   0 
   1   1  -2 3844.04    9.26   0 
   1   3   1 1799.93    6.33   0 
   1   4   1   68.78    1.68   0 
   1   1  -8  718.81    5.52   0 
   1   2 -10  175.93    3.30   0 
   1   1  -1  424.04    2.90   0 
   1   1  -9  665.02    5.49   0 
   1   2   1 4389.78    8.75   0 
   2   3  -6  349.76    5.40   0 
   2   3  -5  675.94    7.16   0 
   2   4  -6  376.00    6.05   0 
   2   4  -5   22.35    2.28   0 
   2   4  -4   30.37    2.33   0 
   2   3  -7  243.17    4.71   0 
   2   3  -4 1196.24    9.08   0 
   2   4  -7  784.71    8.44   0 
   2   3  -3 1621.40    9.98   0 
   2   4  -8  708.90    8.02   0 
   1   3   2 1774.26    6.24   0 
   2   5  -4  809.47    8.55   0 
   2   2  -6  501.20    5.93   0 
   2   2  -5  263.22    4.24   0 
   2   3  -9  378.56    5.63   0 
   2   4  -2  901.33    7.49   0 
   2   5  -3  448.28    6.07   0 
   1   0  -6 1745.06    7.32   0 
   1   0  -5  105.16    1.86   0 
   2   2  -4  428.37    5.06   0 
   1   0  -4   22.17    1.00   0 
   1   1   0 4602.25    8.53   0 
   2   2  -8  832.87    7.70   0 
   2   2  -3  570.99    5.37   0 
   2   3 -10  330.81    5.01   0 
   2   5  -2    1.50    1.56   0 
   3  -3  -2   74.23    2.16   0 
   3  -2  -1  584.44    5.28   0 
   3   2  -3  445.46    4.22   0 
   1  -1   1 4423.51    7.95   0 
   4  -1  -3   10.26    1.49   0 
   4   0  -3  673.73    6.45   0 
   4   1  -4   40.19    2.03   0 
   1   0   1  852.02    3.48   0 
   2  -1   1 1012.30    5.32   0 
   2   2  -1 2474.33    7.74   0 
   2  -3   0   98.27    1.86   0 
   2   0   1  392.74    3.29   0 
   3  -1   0  872.01    6.08   0 
   3  -3  -1  491.86    4.99   0 
   3   0   0   81.48    2.07   0 
   3   2  -2 1501.58    7.80   0 
   4  -1  -2  107.47    2.81   0 
   1  -2   1 4634.96    8.05   0 
   2  -2   1   92.11    1.78   0 
   3  -2   0  594.53    5.04   0 
   4   0  -2  328.59    4.58   0 
   4   1  -3    7.08    1.43   0 
   4  -2  -2 1050.64    7.67   0 
   2   1   1 1076.82    5.20   0 
   3  -1   1 1441.56    7.73   0 
   4  -1  -1  391.68    4.91   0 
   4   1  -2  120.52    2.81   0 
   3   0   1  154.25    2.65   0 
   3   2  -1  520.53    4.49   0 
   4   0  -1  631.98    6.09   0 
   2  -1   2 1669.04    6.51   0 
   2   2   0 1855.38    6.40   0 
   3  -3   0 1907.84    8.96   0 
   4  -2  -1  105.54    2.72   0 
   3  -2   1   50.68    1.66   0 
   2  -3   1 1817.59    6.91   0 
   2   0   2  170.30    2.20   0 
   2  -2   2  595.99    3.98   0 
   4  -1   0  509.73    5.50   0 
   4   1  -1  383.67    4.61   0 
   1  -1   2 4375.81    7.93   0 
   4   0   0    6.51    1.36   0 
   3  -1   2  646.14    5.39   0 
   3   2   0  639.64    4.95   0 
   4   2  -2 1111.19    7.33   0 
   1   0   2  181.34    1.64   0 
   3  -3   1  783.48    5.73   0 
   3   0   2  296.84    3.61   0 
   2   1   2 1735.61    6.73   0 
   3  -2   2  167.28    2.82   0 
   4  -1   1  924.34    7.16   0 
   4   1   0  548.60    5.43   0 
   2   2   1   66.56    1.37   0 
   4   0   1   52.25    2.04   0 
   1  -2   2  877.52    3.54   0 
   2  -1   3 2248.16    7.94   0 
   3   1   2  599.23    5.02   0 
   4   2  -1   91.49    2.42   0 
   2  -3   2 3253.59    9.20   0 
   2   0   3  329.75    3.11   0 
   3   2   1   59.85    1.75   0 
   3  -1   3  340.25    3.97   0 
   2  -2   3 1018.06    5.32   0 
   3   0   3 1325.16    7.45   0 
   4   1   1  878.36    6.75   0 
   3  -3   2  173.58    2.81   0 
   4  -1   2  336.05    4.27   0 
   1   1   2 4300.88    7.70   0 
   2   1   3 2350.00    8.02   0 
   3  -2   3  708.83    5.66   0 
   4   0   2  348.05    4.39   0 
   2   2   2  611.30    3.90   0 
   3   1   3  322.81    3.77   0 
   2  -1   4  339.77    3.29   0 
   3   2   2  174.94    2.73   0 
   1   0   3  184.49    1.76   0 
   2   0   4  750.46    4.84   0 
   3  -1   4    1.35    0.94   0 
   1   2   1 4613.91    7.54   0 
   3   0   4 1557.97    8.16   0 
   2  -2   4  840.91    5.06   0 
   3  -2   4 1017.08    6.89   0 
   1  -2   3   71.89    1.18   0 
   2   1   4  296.57    3.08   0 
   3   1   4    2.33    1.03   0 
   2   2   3 1010.04    5.32   0 
   3   2   3  644.70    5.19   0 
   1   1   3 1338.50    4.85   0 
   2  -1   5  147.09    2.43   0 
   2   0   5 2857.96   10.14   0 
   3  -1   5  125.27    2.62   0 
   3   0   5 1020.22    6.99   0 
   1   0   4 1242.94    5.08   0 
   3  -2   5  559.76    5.42   0 
   2  -2   5  886.55    5.76   0 
   3   1   5  114.82    2.68   0 
   1   2   2  928.75    4.04   0 
   2   1   5  152.62    2.53   0 
   3   2   4  981.78    6.84   0 
   2   2   4  789.19    5.27   0 
   1  -2   4 2763.56    7.72   0 
   3   0   6   17.82    1.34   0 
   1   1   4 1377.15    5.80   0 
   2   0   6  775.83    5.92   0 
   3  -2   6  461.20    5.32   0 
   1   0   5 1399.94    6.32   0 
   3   1   6  409.77    5.15   0 
   3   2   5  509.07    5.40   0 
   1   2   3  106.58    1.82   0 
   2  -2   6 1015.59    6.88   0 
   2   1   6  791.99    6.12   0 
   2   2   5  903.27    6.30   0 
   2   3   3  976.45    6.05   0 
   3   0   7   47.62    2.26   0 
   2   0   7  725.14    6.61   0 
   1  -2   5 2196.45    8.23   0 
   1   1   5  208.76    2.79   0 
   0  -2  -4 1554.84    5.01   0 
   1  -2  -9 1084.90    8.85   0 
   1  -2  -8 1177.16    8.67   0 
   1  -2 -10  186.29    4.17   0 
   1  -2  -7  865.36    6.79   0 
   2   0  -5  191.96    3.07   0 
   1  -1  -3 2348.49    7.09   0 
   2  -1  -9  396.47    5.96   0 
   2  -1  -8    6.50    1.77   0 
   1  -2  -6 1752.85    8.65   0 
   2  -1 -11  785.46    8.62   0 
   2  -1  -7  307.53    4.65   0 
   2   2  -3  510.43    3.67   0 
   2   0  -4   94.29    1.97   0 
   2   1  -3  878.16    4.91   0 
   1  -2  -5 1032.04    5.99   0 
   2  -1  -6 1209.16    8.15   0 
   1   0  -1  475.66    2.56   0 
   3   2  -9  492.19    6.83   0 
   3   2  -8  455.46    6.44   0 
   2  -1  -5 1690.91    8.79   0 
   3   1  -8   76.64    3.17   0 
   2   0  -3  693.91    4.62   0 
   3   2  -7  550.55    6.39   0 
   1  -1  -2 3603.41    8.32   0 
   3   1  -7  366.47    5.47   0 
   1  -2  -4  226.63    2.59   0 
   2  -2 -10  286.40    5.42   0 
   2  -2  -9  361.12    5.80   0 
   2  -2  -8  805.42    8.11   0 
   2   2  -2 2142.53    7.15   0 
   3   0 -10  707.63    8.39   0 
   3   0  -9 1452.21   11.79   0 
   2  -2 -11  121.49    3.94   0 
   2  -1  -4 2445.37    9.63   0 
   2   1  -2  720.93    4.41   0 
   3   0  -8  874.05    8.75   0 
   3   1  -6 1321.96    9.12   0 
   3   2  -6   44.30    2.18   0 
   2  -2  -7 1396.61    9.80   0 
   3   0  -7  157.45    3.82   0 
   3   0  -6  189.56    3.74   0 
   3  -1  -9  100.24    3.66   0 
   3   1  -5  497.22    5.12   0 
   3   2  -5   44.31    1.83   0 
   2   0  -2 3087.19    9.48   0 
   3  -1  -8   90.61    3.38   0 
   2  -1  -3 1099.49    6.14   0 
   1  -2  -3 1324.78    5.60   0 
   3  -1  -7  378.31    5.67   0 
   3   0  -5  137.34    2.96   0 
   3   1  -4  666.56    5.39   0 
   1  -3  -6  539.13    4.64   0 
   3  -1  -6 1310.41    9.51   0 
   1  -1  -1  393.65    2.56   0 
   2  -2  -4  433.97    4.31   0 
   2   1  -1  258.67    2.38   0 
   2  -3  -9  249.87    4.84   0 
   3  -1  -5  560.65    5.83   0 
   1  -3  -5 1332.83    6.59   0 
   2  -3  -8   30.82    2.32   0 
   2  -1  -2  657.19    4.68   0 
   2  -3  -7  208.20    4.04   0 
   3   1  -3  645.66    5.18   0 
   3  -2  -7  542.64    6.85   0 
   3  -1  -4  647.29    5.84   0 
   2  -3  -6  426.98    5.16   0 
   2  -2  -3  485.40    4.40   0 
   3  -2  -6   38.98    2.28   0 
   1  -3  -4 1375.43    6.28   0 
   2  -3  -5  703.64    6.09   0 
   3  -2  -5   39.70    2.10   0 
   2  -1  -1  239.33    2.69   0 
   3  -1  -3  654.32    5.72   0 
   3   1  -2  234.07    3.18   0 
   3   0  -2  231.75    3.35   0 
   2  -2  -2 2316.25    9.31   0 
   3  -2  -4  710.83    6.51   0 
   2  -3  -4 1250.15    7.60   0 
   2   1   0 1577.85    5.74   0 
   4   1  -5  641.83    6.17   0 
   3  -3  -7  151.92    4.04   0 
   4   0  -5  206.44    3.92   0 
   1  -3  -3 1253.23    5.82   0 
   1  -1   0 4816.48    8.65   0 
   3  -1  -2  235.78    3.57   0 
   3  -3  -6  821.77    8.14   0 
   3  -2  -3  443.47    5.06   0 
   4  -1  -5  660.10    6.95   0 
   2  -3  -3 1446.16    7.91   0 
   3  -3  -5 1374.82    9.95   0 
   3   0  -1  993.80    6.37   0 
   3   1  -1  416.81    3.90   0 
   4   0  -4  184.70    3.51   0 
   2  -2  -1 2402.32    9.16   0 
   2  -1   0 1640.33    6.99   0 
   3  -2  -2 1534.17    9.18   0 
   3  -1  -1  409.79    4.48   0 
   4   0  -3  617.76    5.89   0 
   1  -3  -2  555.42    3.81   0 
   2  -3  -2  102.83    2.25   0 
   1   0   1  818.45    3.20   0 
   2  -4  -5    6.21    1.54   0 
   2   0   1  375.87    3.01   0 
   3  -3  -3   45.13    2.10   0 
   3   0   0   74.04    1.92   0 
   2  -2   0 1809.33    7.83   0 
   1  -2   0 2631.02    7.19   0 
   2  -4  -4   27.76    1.85   0 
   2   1   1 1070.08    4.45   0 
   3  -2  -1  622.12    5.79   0 
   3   1   0  851.71    5.27   0 
   4   0  -2  314.03    4.25   0 
   2  -1   1  968.76    5.28   0 
   3  -1   0  804.14    5.70   0 
   1  -1   2 4376.87    8.90   0 
   2   0   2  111.76    1.89   0 
   3  -4   0   96.83    2.77   0 
   2  -3   2 3277.71   11.34   0 
   3  -2   2  164.92    3.10   0 
   3  -1   2  639.12    5.64   0 
   4   0   0    5.91    1.66   0 
   2  -4   1  130.09    2.54   0 
   1   0   2  176.65    1.65   0 
   3   0   2  308.01    3.67   0 
   3   1   1 1509.93    7.33   0 
   2  -2   3  991.13    5.92   0 
   2  -1   3 2240.22    8.53   0 
   1  -3   2 1709.13    6.50   0 
   3  -4   1  132.42    3.05   0 
   2   0   3  345.43    3.32   0 
   2   1   2 1691.91    6.30   0 
   3  -1   3  350.61    4.29   0 
   4   0   1   56.00    2.16   0 
   2  -3   3  959.34    6.33   0 
   3  -2   3  752.58    6.63   0 
   1  -1   3 1265.14    5.11   0 
   2  -4   2    5.92    1.20   0 
   3   0   3 1352.30    7.77   0 
   3   1   2  599.91    4.81   0 
   3  -4   2  334.69    4.54   0 
   2  -2   4  836.37    5.73   0 
   2  -1   4  346.77    3.64   0 
   4   0   2  329.75    4.32   0 
   3  -2   4  987.77    7.44   0 
   3  -1   4    1.70    1.10   0 
   1  -3   3 1763.76    6.68   0 
   1   0   3  174.17    1.76   0 
   1   1  -1  400.77    2.49   0 
   3  -2  -8  449.50    6.05   0 
   2   3  -6  412.59    4.62   0 
   3   0  -6  181.90    3.45   0 
   3   1  -7  355.52    5.02   0 
   2  -2  -3  500.28    3.69   0 
   3  -1  -6 1342.67    8.76   0 
   3  -2  -7  543.65    5.96   0 
   3   1  -6 1259.08    8.47   0 
   2   0  -2 3133.08    9.27   0 
   2  -1  -2  683.51    4.26   0 
   2   3  -5  748.53    5.66   0 
   3  -1  -5  574.76    5.35   0 
   3   0  -5  128.92    2.61   0 
   1   3  -3 1364.65    5.27   0 
   3  -2  -6   36.75    1.92   0 
   2   1  -2  722.90    4.57   0 
   3   1  -5  497.66    5.09   0 
   3   0  -4  642.52    5.38   0 
   3  -2  -5   40.38    1.88   0 
   3  -1  -4  650.89    5.23   0 
   2   3  -4 1167.97    6.56   0 
   3   1  -4  729.97    5.93   0 
   2  -2  -2 2306.76    7.32   0 
   3   2  -5   48.08    1.99   0 
   1   0   0  891.71    3.21   0 
   1   2  -1 1932.92    5.58   0 
   2   0  -1 3702.89    9.55   0 
   3   0  -3 2105.66    9.70   0 
   3   3  -7  154.62    3.44   0 
   2  -1  -1  225.12    2.23   0 
   2   1  -1  290.75    2.88   0 
   3  -2  -4  690.36    5.20   0 
   3  -1  -3  671.37    5.23   0 
   3   1  -3  718.95    5.83   0 
   3   2  -4  707.28    5.98   0 
   3   3  -6  715.02    6.46   0 
   1   1   0 4740.43    8.12   0 
   2   3  -3 1513.73    7.25   0 
   1  -3   5  104.91    2.09   0 
   2  -3   6  213.80    3.81   0 
   1   1   3 1315.89    4.94   0 
   2   0   6  696.37    5.63   0 
   3   0   6   27.97    1.83   0 
   1   0   5 1363.71    6.57   0 
   2  -2   7  204.59    3.79   0 
   2   1   5  160.17    2.66   0 
   3   1   5   99.19    2.54   0 
   2  -4   6  404.11    5.21   0 
   2  -1   7  720.35    6.66   0 
   3  -1   7 1225.42    9.24   0 
   1  -1   6  406.90    4.07   0 
   2  -3   7 1041.26    8.36   0 
   0  -2   3  303.11    2.55   0 
   1  -3   6  103.68    2.42   0 
   1   1   4 1325.34    5.97   0 
   2   0   7  638.02    5.95   0 
   3   0   7   48.15    2.32   0 
   0  -1   3 4184.49    8.97   0 
   2  -2   8   12.38    1.80   0 
   3   1   6  366.53    4.72   0 
   1   0   6 1065.03    6.45   0 
   2  -1   8  961.23    8.23   0 
   2   1   6  734.03    5.89   0 
   0  -3   3 3084.11    8.74   0 
   1  -1   7  859.26    6.40   0 
   2  -3   8 1148.15    9.19   0 
   0  -2   4 1589.50    6.62   0 
   1  -3   7  558.79    5.50   0 
   0  -1   4 2320.41    7.39   0 
   1   1   5  206.98    2.68   0 
   2  -2   9  308.45    5.05   0 
   3   1   7 1180.10    8.48   0 
   2   0   2  102.63    2.00   0 
   1  -1   8 1139.08    8.15   0 
   3  -2   6  447.27    5.70   0 
  -1  -2   8 1206.39    7.13   0 
   0   0   4  514.63    3.65   0 
   1   0   5 1436.60    7.34   0 
   2  -1   7  671.52    6.41   0 
   2   0   3  318.43    3.42   0 
   1  -2  10  843.52    7.79   0 
   2  -2   9  285.99    4.78   0 
   0  -2  10  158.27    3.41   0 
  -1  -1   6  315.00    3.18   0 
   0  -3  11  267.15    4.66   0 
   0   0   5 3337.24   10.39   0 
   1   0   6 1179.10    7.29   0 
   2   0   4  726.99    5.53   0 
   1  -1   9  866.11    7.37   0 
  -1  -2   9 1145.25    7.47   0 
   2   0   5 2881.14   11.85   0 
  -1  -1   7   51.38    1.77   0 
   0   0   6 4832.86   13.54   0 
   1  -2  11  770.28    7.74   0 
   1   0   7 2357.28   10.83   0 
   0  -2  11  182.87    3.67   0 
   1  -1  10  768.30    7.07   0 
   2   0   6  771.29    6.36   0 
   0   0   7  306.59    3.64   0 
   0  -1  10  961.13    7.17   0 
   1   0   8    6.79    1.18   0 
  -1  -1   8  680.63    5.01   0 
   2   0   7  686.05    6.04   0 
   0  -2  12  946.33    7.59   0 
   0   0   8  177.05    2.80   0 
   1  -1  11  417.33    5.12   0 
  -2   0   8 1524.22    8.09   0 
  -1   0  12  475.74    5.03   0 
  -2   0   9  160.78    3.21   0 
   0   1   9 1865.29    8.27   0 
  -3  -2   9  475.07    5.60   0 
  -1   1   6  284.11    3.22   0 
  -1   1   7   40.03    1.55   0 
  -1   1   8  685.83    5.49   0 
  -2   0   4  102.47    1.80   0 
  -2   0  10  118.46    2.92   0 
  -1   1   5 1927.26    7.14   0 
  -1   1   9  607.21    5.32   0 
   0   1  10  964.64    6.10   0 
  -2   0  11   14.44    1.50   0 
  -1   1   4 3226.72    8.21   0 
  -3  -1   8   72.20    2.50   0 
   0   1  11  476.78    4.56   0 
  -3  -1   7  311.60    4.26   0 
  -3  -1   9   96.28    2.86   0 
  -2   0   3  748.94    3.95   0 
  -1   1  11  830.87    6.72   0 
  -3  -1   6 1315.50    7.96   0 
  -2   1   8    5.68    1.25   0 
  -1   1   3 2285.44    6.28   0 
  -1   1  12  313.12    4.21   0 
  -2   1   7  289.88    3.83   0 
  -2   1   9  376.87    4.86   0 
  -2   1   6 1176.10    6.91   0 
  -2   1  10 1606.26    9.86   0 
  -3   0   8  772.49    7.00   0 
  -3   0   9 1384.91    9.58   0 
  -2   1   5 1660.63    7.59   0 
  -2   1  11  837.77    7.22   0 
  -3   0   7  138.71    3.03   0 
  -3   0  10  773.37    7.36   0 
  -2   0   2 3105.83    7.26   0 
  -2   4  -6  428.21    4.78   0 
  -1   3  -6  122.90    2.46   0 
   0   1  -3 4087.34    8.26   0 
   0   6  -2   20.09    1.84   0 
   1   4   0 1608.18    7.78   0 
   0   5  -4  795.44    6.77   0 
   0   3  -5  705.33    5.13   0 
   0   4  -5  748.75    6.02   0 
   1   3  -1  208.06    2.62   0 
   1   4  -1 1444.99    7.83   0 
  -1   1  -5  215.06    2.23   0 
  -1   2  -6 1626.26    7.36   0 
   0   6  -3   49.67    2.36   0 
  -1   5  -6    0.44    1.50   0 
   0   5  -5  189.71    3.66   0 
   1   2   0 2362.82    6.73   0 
   0   2  -5  463.50    3.85   0 
   1   3  -2  560.05    4.51   0 
   1   4  -2  931.85    6.62   0 
  -1   3  -7  586.96    5.48   0 
  -1   4  -7  249.22    4.12   0 
   1   5  -1   22.56    1.87   0 
   0   3  -6   62.01    1.87   0 
   0   4  -6 1129.31    7.82   0 
   1   2  -1 1886.22    6.61   0 
   0   1  -4 2344.27    7.11   0 
   1   4  -3  239.64    3.58   0 
   1   5  -2  810.69    6.99   0 
   0   5  -6    2.68    1.47   0 
  -1   2  -7 1419.07    7.48   0 
   1   5  -3 1269.57    9.01   0 
   0   2  -6 2049.76    8.73   0 
   0   4  -7 1202.54    8.63   0 
  -1   1  -6  364.76    3.17   0 
  -1   4  -8  266.96    4.43   0 
   0   3  -7  321.25    4.08   0 
   1   3  -4 1370.09    7.80   0 
  -1   3  -8  754.01    6.47   0 
   0   5  -7   57.23    2.44   0 
   1   2  -3 1298.54    6.44   0 
   1   5  -4  654.20    6.58   0 
  -1   5   2  838.08    6.39   0 
   0   2  -1 2982.01    6.50   0 
  -2   5   4  704.46    5.92   0 
   0   5   1  530.80    4.78   0 
   0   3  -1  424.39    3.08   0 
   0   6   3   50.17    2.09   0 
   1   4   0 1626.05    7.17   0 
  -2   4   2  856.50    5.78   0 
  -1   4   0 1557.77    7.36   0 
   1   2  -1 1926.39    5.12   0 
   1   5   1  942.94    6.47   0 
  -2   2   1 2470.56    6.49   0 
  -2   5   3  379.91    4.28   0 
  -1   5   1   22.04    1.49   0 
   1   3  -1  178.82    2.03   0 
  -2   3   1   93.28    1.73   0 
   0   4  -1 1150.75    5.96   0 
   0   5   0    0.45    0.95   0 
   0   6   2   19.35    1.55   0 
  -1   3  -1 1918.49    6.93   0 
  -2   4   1 1387.66    7.23   0 
   1   4  -1 1389.25    6.60   0 
   1   5   0  196.03    2.97   0 
  -2   5   2    5.87    1.19   0 
  -1   5   0  201.94    3.19   0 
   0   6   1  999.35    7.29   0 
  -1   4  -1   66.90    1.69   0 
   0   3  -2  894.51    4.50   0 
   0   5  -1  537.19    4.80   0 
  -1   6   1  870.48    6.84   0 
   0   2  -2  362.25    2.41   0 
   1   6   1  403.96    4.49   0 
  -2   3   0  131.78    1.99   0 
   0   6   0  468.58    5.01   0 
  -2   5   1  321.48    3.95   0 
   1   3  -2  522.00    3.48   0 
   1   5  -1   25.41    1.44   0 
  -2   4   0  671.02    5.04   0 
  -1   5  -1  896.71    6.39   0 
   0   1   7  112.14    2.44   0 
   1   1  10  736.48    6.86   0 
   0   0  11  567.17    5.77   0 
   0   1   3 4149.44    8.88   0 
   0   1   8 1464.50    8.50   0 
   2   2   5  832.02    6.51   0 
   1   1  11  461.44    5.57   0 
   2   2   4  804.50    5.87   0 
   2   2   6 1046.07    7.75   0 
   1   2   5 2157.35    9.73   0 
   1   2   6 1574.36    8.94   0 
   2   2   3 1107.95    6.16   0 
   2   2   7  170.91    3.55   0 
   0   0  12  295.03    4.36   0 
   1   2   7 1424.11    9.07   0 
   1   2   8  273.92    4.41   0 
   2   2   8   19.22    1.90   0 
  -1   0   6 1590.14    6.65   0 
  -1   0   7 1566.38    7.35   0 
   1   2   9  506.80    6.00   0 
   2   2   2  664.45    4.18   0 
   2   2   9  286.64    4.71   0 
  -1   0   8 2718.55   10.19   0 
   0   1   2 3345.96    6.54   0 
  -1   0   5  109.95    1.60   0 
   0   1  11  506.48    5.72   0 
  -1   0   9   44.21    1.70   0 
   1   2  10  846.97    7.52   0 
  -1   0  10   22.02    1.86   0 
   0   1  12   56.49    2.35   0 
   1   2   2  953.83    4.45   0 
   0   2   6 2045.14    9.64   0 
   0   2   7 1746.38    9.47   0 
   0   2   8  288.60    4.29   0 
   1   2  11  682.25    6.91   0 
  -1   0   4   21.67    0.66   0 
   0   2   5  439.48    3.96   0 
   0   2   9  272.38    4.13   0 
  -3   2  -6  364.24    5.88   0 
  -3   3  -6  350.60    5.76   0 
  -2   5  -3  308.26    4.90   0 
  -1   3   1  162.95    2.18   0 
  -3   2  -7   19.47    2.49   0 
  -2   1  -1 1079.87    5.71   0 
  -1   2   1 1939.85    6.59   0 
  -1   5  -1  902.33    6.48   0 
  -2   4  -2    4.93    1.39   0 
  -1   4   0 1571.83    7.50   0 
  -2   2  -1   65.52    1.77   0 
  -2   0  -3  320.57    3.07   0 
  -2   4  -3  180.24    3.65   0 
  -1   5  -2  652.79    5.75   0 
  -2   3  -2 3334.62   12.70   0 
  -2   2  -2  620.13    5.05   0 
  -1   3   0  317.86    3.05   0 
  -2   0  -4  724.71    4.92   0 
  -2   4  -4  868.43    8.00   0 
  -1   4  -1   70.53    1.96   0 
  -1   5  -3  901.21    7.29   0 
  -2   1  -3 2294.28    9.34   0 
  -2   3  -3 1036.39    7.71   0 
  -2   4  -5 1097.73    9.50   0 
  -1   2   0 2288.94    7.16   0 
  -2   4  -6  435.19    6.44   0 
  -2   0  -5 2800.35   10.68   0 
  -2   2  -3 1131.76    7.39   0 
  -2   4  -8    5.84    2.11   0 
  -2   4  -7  159.09    4.26   0 
  -2   3  -4  137.44    3.31   0 
  -1   5  -4  399.22    5.38   0 
  -2   0  -6  672.08    5.86   0 
  -2   1  -4  343.64    4.10   0 
  -1   4  -2  302.75    3.86   0 
  -2   2  -4  867.12    7.06   0 
  -2   3  -5   17.89    2.00   0 
  -1   5  -5  216.42    4.38   0 
  -2   3  -9  245.68    5.21   0 
  -2   3  -6  204.22    4.50   0 
  -2   1  -5  162.65    3.20   0 
  -2   2 -10   98.62    3.54   0 
  -2   3  -7  891.22    9.14   0 
  -1   5  -6    0.72    1.88   0 
  -1   5  -7  558.68    7.20   0 
   0   4  -1 1171.71    5.76   0 
  -2   1  -9 1221.24    9.99   0 
  -2   1  -6  721.43    6.83   0 
  -2   2  -9  252.02    5.16   0 
  -1   4  -3  179.99    3.29   0 
   0   3   0    1.93    0.50   0 
  -2   1  -8  733.99    7.70   0 
  -2   1  -7  495.75    6.10   0 
  -2   2  -8   17.64    2.29   0 
  -2   2  -7  125.39    3.64   0 
  -1   2  -1 4656.05   10.63   0 
  -1   3  -2 1737.61    7.92   0 
   0   5  -4  820.41    6.66   0 
  -1   4  -5 1560.71   10.21   0 
  -1   4  -6  835.84    7.91   0 
   0   4  -2 1066.00    5.82   0 
   0   5  -5  175.65    3.55   0 
  -1   2  -2  888.67    4.88   0 
  -1   3  -3 1717.52    8.35   0 
  -1   4  -9   32.77    2.42   0 
  -1   4  -8  233.01    4.71   0 
  -1   4  -7  220.66    4.47   0 
   0   5  -6    2.99    1.67   0 
   0   5  -8   66.94    3.07   0 
   0   5  -7   59.00    2.64   0 
  -1   1  -2 4395.16    9.21   0 
  -1   3  -4  878.75    6.44   0 
   0   3  -1  401.09    2.86   0 
  -1   2 -12  180.36    3.68   0 
  -1   3 -10  740.98    7.76   0 
   0   4  -3  483.42    4.35   0 
  -1   2  -3   97.75    1.90   0 
  -1   3  -5  107.33    2.67   0 
  -1   1 -12  178.11    3.67   0 
  -1   3  -9  708.43    7.75   0 
  -1   3  -6  114.75    3.07   0 
  -1   2 -11  710.87    7.45   0 
  -1   3  -8  736.35    7.88   0 
  -1   3  -7  523.01    6.41   0 
   0   1  -7  109.44    1.90   0 
   0   4  -6 1164.59    8.65   0 
   1   6  -3  412.85    5.96   0 
   1   6  -2  266.67    4.75   0 
   0   3  -7  354.38    4.38   0 
   0   3   2  922.12    4.59   0 
   1   5  -8  327.36    4.80   0 
   0   4  -5  757.03    7.10   0 
   0   4   0 1973.28    9.44   0 
   0   2  -7 1901.46    8.59   0 
   0   4  -4   46.46    2.21   0 
   1   3 -10  852.58    7.02   0 
   1   5  -7  151.13    3.57   0 
   0   4  -2  952.19    7.43   0 
   1   4  -9  193.67    3.64   0 
   0   1  -6  320.75    2.99   0 
   0   3   1  450.20    3.64   0 
   1   5  -6  383.97    5.53   0 
   1   5   1  925.27    6.93   0 
   0   2  -6 2161.72    9.12   0 
   0   3  -5  755.91    6.28   0 
   1   5  -5  551.15    6.67   0 
   1   5   0  203.45    3.87   0 
   0   3  -4 2505.69   11.06   0 
   1   3  -9  624.39    5.82   0 
   1   5  -4  701.50    7.48   0 
   0   3  -3 2904.57   11.59   0 
   1   5  -1   20.28    1.90   0 
   0   1  -5  882.45    4.82   0 
   0   3  -2  740.07    5.74   0 
   0   3  -1  390.25    3.98   0 
   1   5  -2  799.75    7.70   0 
   1   4  -7  884.26    7.39   0 
   2   5  -7  131.24    3.37   0 
   0   2  -4 1614.22    7.67   0 
   1   2  -9 1089.28    6.96   0 
   2   4  -9  408.92    5.40   0 
   1   3  -8  119.07    2.70   0 
   1   4  -6  506.33    5.76   0 
   2   5  -6  280.99    4.86   0 
   0   2  -3  325.16    3.44   0 
   2   3 -10  329.07    4.66   0 
   2   5  -5  943.14    8.78   0 
   1   4  -5  820.60    7.35   0 
   1   4   1   71.13    2.10   0 
   2   5  -4  765.35    8.10   0 
   2   5   0  225.81    4.22   0 
   1   2  -8 1253.32    7.26   0 
   1   4  -4    9.85    1.56   0 
   2   5  -3  426.66    6.19   0 
   2   5  -2    5.04    2.27   0 
   2   5  -1  338.86    5.28   0 
   1   4  -3  246.05    4.19   0 
   1   4   0 1614.52    9.14   0 
   1   4  -1 1289.90    8.58   0 
   2   3  -9  316.53    4.73   0 
   2   4  -7  764.51    7.29   0 
   1   3  -6  513.52    5.11   0 
   1   1  -8  636.93    4.59   0 
   1   2  -7  865.29    5.82   0 
   2   4  -6  374.57    5.25   0 
   1   3  -5 1409.84    8.37   0 
   2   3  -8   33.97    2.03   0 
   2   4  -5    6.07    1.65   0 
   3   3  -9   14.00    1.90   0 
   2   2  -9  386.73    4.85   0 
   1   3  -4 1344.12    8.27   0 
   3   4  -6   67.36    2.80   0 
   1   3   2 1694.41    7.45   0 
   2   4  -4   24.19    2.11   0 
   2   4   1  109.62    3.15   0 
   1   1  -7   32.67    1.27   0 
   1   3  -3 1390.76    8.38   0 
   2   4  -3  670.29    7.29   0 
   3   3  -8   19.02    2.01   0 
   3   4  -5   40.50    2.50   0 
   1   3   1 1854.31    8.55   0 
   2   4  -1 1352.48   10.04   0 
   2   4   0  621.41    6.61   0 
   1   3  -2  490.13    4.98   0 
   2   2  -8  827.74    7.33   0 
   3   4  -4   48.83    2.84   0 
   1   3   0  294.24    3.81   0 
   2   3  -6  383.91    5.25   0 
   3   2  -9  545.59    6.43   0 
  -4   0   7   58.06    2.65   0 
  -3   2  13  167.35    2.70   0 
  -4   1  10  123.95    2.58   0 
  -3   1  12  730.30    6.01   0 
  -4   2  11   55.12    1.64   0 
  -3   0  10  812.04    6.99   0 
  -3   3  13  349.06    3.47   0 
  -2   2  13  436.47    4.44   0 
  -2   1  12  249.50    3.79   0 
  -4   1   9   35.62    1.80   0 
  -4   4  11  131.21    1.72   0 
  -2   4  13  283.07    2.90   0 
  -4   3  11  106.62    1.91   0 
  -3   5  12  104.71    1.40   0 
  -2   3  13   26.70    1.29   0 
  -4   5  10   40.39    0.88   0 
  -3   1  11  226.36    3.68   0 
  -3   2  12    0.31    1.09   0 
  -4   1   8  373.44    4.81   0 
  -3   3  12  199.00    3.09   0 
  -3   4  12   57.78    1.55   0 
  -2   2  12  308.15    4.10   0 
  -2   5  12  166.81    2.13   0 
  -4   1   7  308.85    4.64   0 
  -4   2   9  357.10    4.45   0 
  -4   3  10   31.65    1.37   0 
  -4   4  10  143.79    2.11   0 
  -3   1  10  155.96    3.29   0 
  -2   6  11   -0.32    0.51   0 
  -3   2  11   19.08    1.55   0 
  -4   1   6  472.91    5.88   0 
  -4   5   9   56.11    1.29   0 
  -2   3  12  445.85    4.65   0 
  -2   4  12   18.28    1.25   0 
  -4   2   8  526.23    5.57   0 
  -4   4   9  191.28    2.73   0 
  -3   3  11  340.42    4.32   0 
  -2   2  11  114.58    2.83   0 
  -3   2  10  297.13    4.43   0 
  -3   4  11   75.35    1.99   0 
  -4   2   7  291.87    4.47   0 
  -4   3   8  141.35    2.95   0 
  -4   5   8   36.91    1.25   0 
  -2   5  11  276.87    3.29   0 
  -2   3  11  655.33    6.08   0 
  -4   2   6   85.20    2.85   0 
  -3   3  10  220.40    3.80   0 
  -3   5  10   82.93    1.90   0 
  -2   4  11   15.56    1.47   0 
  -2   6  10   24.82    1.17   0 
  -3   2   9  509.87    5.87   0 
  -3   6   9  162.57    2.13   0 
  -4   3   7  363.99    4.81   0 
  -3   4  10  149.55    2.94   0 
  -4   2   5  135.01    3.57   0 
  -3   7   7  190.06    1.89   0 
  -4   6   5   24.95    1.04   0 
  -4   3   6  294.95    4.57   0 
  -3   3   9   12.42    1.62   0 
  -2   3  10  310.28    4.58   0 
  -2   5  10  365.09    4.28   0 
  -2   7   8   21.29    0.87   0 
  -4   4   6   32.04    1.87   0 
  -4   6   4  111.49    1.92   0 
  -3   4   9  543.90    5.67   0 
  -3   6   8  218.56    2.79   0 
  -2   4  10   62.00    2.34   0 
  -4   3   5  219.06    4.17   0 
  -2   6   9  226.61    2.98   0 
  -4   5   5  190.76    3.22   0 
  -4   6   3   53.49    1.55   0 
  -3   7   6  171.85    2.11   0 
  -4   4   5  250.88    4.23   0 
  -3   3   8   18.15    1.77   0 
  -4   3   4  232.36    4.42   0 
  -4   6   1   51.48    1.44   0 
  -4   6   2  202.26    2.53   0 
  -3   5   8   19.25    1.62   0 
  -4   5   4  164.80    3.16   0 
  -3   4   8  501.06    5.66   0 
  -2   5   9  345.18    4.61   0 
  -4   4   4  140.96    3.33   0 
  -3   6   7  152.54    2.60   0 
  -2   4   9  404.61    5.28   0 
  -2   7   7    4.10    0.92   0 
  -3   7   5  119.59    1.97   0 
  -4   5   3   41.00    1.91   0 
  -3   3   7  145.96    3.43   0 
  -2   6   8  207.60    3.16   0 
  -4   4   3  446.40    5.59   0 
  -4   5   2   65.26    2.37   0 
  -3   5   7  275.00    4.02   0 
  -4   4   2  212.50    4.26   0 
  -3   4   7  122.39    3.09   0 
  -3   6   6   12.73    1.36   0 
  -4   5   1   91.77    2.43   0 
  -3   7   4  115.36    2.12   0 
  -2   5   8   18.53    1.71   0 
  -2   7   6   35.86    1.37   0 
  -3   5   6  248.56    3.95   0 
  -2   6   7  401.08    4.49   0 
  -1   5   8  341.24    4.42   0 
  -3   4   6   66.22    2.44   0 
  -3   6   5    1.84    1.06   0 
  -3   7   3   78.52    1.82   0 
  -2   8   3   69.70    1.43   0 
  -1   8   4   23.13    0.95   0 
  -1   7   6  111.97    2.09   0 
  -1   6   7  522.71    5.03   0 
  -3   5   5  341.46    4.64   0 
  -3   7   2   11.79    1.06   0 
  -3   4   5   42.48    2.12   0 
  -3   6   4  244.08    3.64   0 
  -3   7   1  121.13    2.32   0 
  -2   8   2  243.18    2.54   0 
  -1   5   7  153.02    3.15   0 
  -3   5   4  196.23    3.64   0 
  -3   6   3  179.07    3.24   0 
  -3   7  -3    6.89    0.82   0 
  -1   8   3    3.46    0.72   0 
  -3   7  -2  177.36    2.37   0 
  -3   7  -1  178.60    2.57   0 
  -2   5   6  273.43    4.13   0 
  -2   7   4  210.83    3.04   0 
  -2   8   1  111.45    1.82   0 
  -1   7   5  274.94    3.29   0 
  -1   6   6  185.79    3.20   0 
  -3   6   2  523.36    5.38   0 
  -2   6   5   -0.29    1.11   0 
  -2   8   0   50.46    1.33   0 
  -1   8   2  198.74    2.45   0 
  -2   7   3  191.24    3.01   0 
  -2   8  -1   73.39    1.52   0 
  -3   5   2   55.52    2.33   0 
  -2   5   5  821.29    6.84   0 
  -2   8  -3   89.83    1.51   0 
  -2   8  -2   42.34    1.24   0 
  -1   7   4  274.07    3.40   0 
  -3   6   0  129.25    2.89   0 
  -2   6   4   75.54    2.28   0 
  -1   6   5  172.86    3.23   0 
  -2   7   2  118.33    2.50   0 
  -3   5   1  141.69    3.31   0 
  -3   6  -4  216.19    3.03   0 
  -3   6  -1    7.65    1.36   0 
  -1   8   1  176.00    2.39   0 
  -3   6  -3  193.68    3.12   0 
  -3   6  -2   92.53    2.41   0 
   0   8   1   37.67    1.12   0 
  -3   5   0  323.05    4.88   0 
  -2   6   3  218.71    3.63   0 
  -1   7   3  142.10    2.63   0 
  -2   7   1   28.66    1.54   0 
  -3   5  -1  297.38    4.60   0 
  -1   6   4   94.43    2.46   0 
  -3   5  -3  117.97    3.20   0 
  -3   5  -2  498.32    5.77   0 
  -2   6   2  346.72    4.58   0 
  -2   7   0  191.61    3.24   0 
   0   8   0  340.11    3.08   0 
  -2   7  -7   85.45    1.40   0 
  -1   7   2   50.03    1.82   0 
  -1   8  -1   76.00    1.78   0 
  -2   7  -1  443.83    4.80   0 
  -1   8  -2   40.16    1.41   0 
   0   7   2  358.43    3.89   0 
  -2   6   1  463.96    5.37   0 
  -2   7  -6   81.52    1.76   0 
  -2   7  -2  286.18    3.90   0 
  -1   6   3  417.02    4.74   0 
   0   8  -1   43.75    1.44   0 
  -2   7  -3  143.97    2.78   0 
  -1   8  -6  168.70    1.92   0 
  -1   8  -3   21.48    1.14   0 
  -2   7  -5   54.71    1.68   0 
  -1   8  -5  197.42    2.36   0 
  -1   8  -4  189.55    2.49   0 
  -2   6   0  520.93    5.75   0 
   0   8  -2   91.23    1.84   0 
  -1   7   0  129.52    2.76   0 
   0   7   1    9.56    1.17   0 
  -2   6  -1    7.84    1.55   0 
   0   8  -3    9.80    1.05   0 
  -2   6  -8   20.19    1.16   0 
   1   8  -4   23.98    0.92   0 
  -2   6  -2   22.17    1.80   0 
  -1   7  -1  176.75    3.21   0 
   0   8  -7  143.42    1.72   0 
   0   8  -5  118.36    1.99   0 
   1   8  -6   86.30    1.33   0 
   1   8  -5   59.45    1.19   0 
  -2   6  -7   63.58    1.87   0 
  -1   6   1  841.88    6.72   0 
   0   7   0    0.28    1.01   0 
   0   8  -6  243.30    2.51   0 
  -2   6  -6  393.70    4.49   0 
  -2   6  -5  267.01    4.12   0 
  -2   6  -4  343.39    4.68   0 
  -1   7  -9  173.92    1.92   0 
  -1   7  -2  329.88    4.30   0 
  -1   7  -3  336.98    4.35   0 
  -1   6   0  238.84    3.78   0 
   0   7  -1   12.44    1.32   0 
  -1   7  -7  167.09    2.73   0 
  -1   7  -4  163.94    3.11   0 
  -2   5  -3  279.60    4.46   0 
  -1   6 -11  116.94    1.50   0 
  -1   7  -6   55.02    1.87   0 
  -1   7  -5   38.45    1.74   0 
  -1   6  -1  424.69    5.05   0 
   0   7  -2  374.12    4.43   0 
  -2   5  -7  264.90    3.97   0 
  -2   5  -4  136.30    3.31   0 
   1   7  -2   45.60    1.59   0 
  -2   5  -6   82.03    2.64   0 
  -2   5  -5   50.25    2.34   0 
  -1   6  -2   45.30    2.10   0 
   0   7 -10  171.08    1.98   0 
  -1   6 -10  127.88    2.09   0 
   1   7  -3  140.65    2.55   0 
  -1   6  -3  222.44    3.97   0 
   0   7  -9  230.84    2.72   0 
   0   7  -4  270.51    3.90   0 
  -1   6  -9   13.25    1.38   0 
   0   7  -5   76.73    2.29   0 
   2   7  -9   39.35    0.92   0 
   2   7  -6   33.72    1.21   0 
  -1   6  -4  274.73    4.41   0 
   0   7  -8  249.67    3.21   0 
   0   7  -7   14.92    1.25   0 
   0   7  -6   37.50    1.73   0 
   1   7  -4  276.53    3.55   0 
   2   7  -8   21.29    0.93   0 
   2   7  -7    3.51    0.80   0 
  -1   6  -8  126.83    2.77   0 
  -1   6  -5  155.77    3.45   0 
   1   7 -10  304.16    2.56   0 
  -1   6  -6  408.48    5.21   0 
   1   7  -5  306.36    3.76   0 
   0   6 -12  233.96    2.19   0 
   1   7  -9  111.36    1.89   0 
  -1   5 -11  123.45    2.11   0 
   1   7  -8   95.37    2.00   0 
   1   7  -6  110.80    2.37   0 
   1   6 -13   95.08    1.21   0 
   1   6  -2  254.34    3.54   0 
  -1   5 -10  478.66    4.69   0 
   0   6  -4   77.96    2.56   0 
  -1   5  -9  382.48    4.68   0 
   0   6 -10  105.96    2.25   0 
   1   6  -3  409.67    4.58   0 
  -1   5  -8  404.54    5.13   0 
  -1   5  -7  448.70    5.55   0 
  -1   5  -6    1.19    1.63   0 
   0   5 -13   15.91    0.82   0 
   0   6  -5  659.68    6.56   0 
   1   6 -12  175.18    2.05   0 
   2   6 -12   79.40    1.19   0 
   0   6  -9   27.75    1.62   0 
   0   6  -8  238.50    3.89   0 
   0   6  -6  426.45    5.39   0 
   0   6  -7  257.70    4.20   0 
   1   6  -4   89.67    2.48   0 
   1   6 -11   35.14    1.36   0 
   2   6  -5    0.68    1.34   0 
   2   6 -11    2.07    0.62   0 
  -1   4 -10  364.79    4.49   0 
   0   4 -14   46.70    1.24   0 
   0   5 -12  159.49    2.44   0 
   1   6  -5  169.90    3.33   0 
   1   6 -10   25.41    1.37   0 
   2   6  -6  322.86    3.97   0 
  -1   4  -9   28.53    2.00   0 
   1   6  -9  163.59    3.09   0 
   1   6  -8  206.34    3.62   0 
   1   6  -7  512.64    5.66   0 
   2   5 -14   38.46    0.85   0 
   2   6  -9  246.05    3.29   0 
   2   6  -7  387.82    4.34   0 
   0   5 -11  153.69    2.84   0 
   2   6  -8  204.94    3.16   0 
  -4   4   2  225.97    3.92   0 
  -3   7  -2  159.76    1.99   0 
  -4   3   2  227.31    4.07   0 
  -3   4   4   48.85    2.23   0 
  -4   5   0  465.51    4.98   0 
  -3   5   3   12.46    1.44   0 
  -4   2   1   89.01    2.90   0 
  -3   7  -3    7.62    0.80   0 
  -4   4   1  209.85    3.77   0 
  -3   6   1   94.80    2.30   0 
  -4   3   1  197.54    3.84   0 
  -4   5  -7  128.61    1.72   0 
  -4   5  -1  236.07    3.57   0 
  -4   1  -2  310.22    5.10   0 
  -4   1  -3   19.13    2.35   0 
  -4   4   0    5.10    1.42   0 
  -4   5  -2  197.31    3.26   0 
  -4   3   0  232.23    4.20   0 
  -4   4  -8  164.58    2.10   0 
  -4   5  -6  189.07    2.47   0 
  -4   5  -3    2.20    1.28   0 
  -3   5   2   52.09    2.02   0 
  -4   2  -1  257.16    4.58   0 
  -4   4  -1   75.24    2.54   0 
  -4   5  -5   74.50    1.89   0 
  -4   5  -4  164.28    2.82   0 
  -3   6   0  124.91    2.56   0 
  -4   3  -8  154.23    2.44   0 
  -4   3  -1  425.38    5.68   0 
  -4   2  -2  258.15    4.72   0 
  -4   4  -2  339.33    4.88   0 
  -4   2  -6   31.88    2.40   0 
  -4   2  -3  260.54    4.84   0 
  -4   3  -2  275.52    4.76   0 
  -4   4  -7   20.71    1.24   0 
  -3   5   1  128.85    2.92   0 
  -3   6  -1    8.31    1.46   0 
  -4   2  -5  202.62    4.21   0 
  -4   2  -4  321.28    5.33   0 
  -4   3  -7  320.74    4.10   0 
  -4   4  -3  205.08    3.89   0 
  -4   4  -5  103.46    2.72   0 
  -4   4  -4  212.54    3.87   0 
  -4   3  -6  235.96    4.07   0 
  -4   3  -5   50.14    2.43   0 
  -4   3  -4   19.23    2.01   0 
  -3   6  -2  111.48    2.70   0 
  -3   5   0  289.83    4.31   0 
  -3   6  -8   30.17    1.00   0 
  -3   6  -3  237.37    3.61   0 
  -2   7  -3  140.04    2.35   0 
  -3   6  -7   10.07    1.06   0 
  -3   6  -6  125.27    2.41   0 
  -3   6  -5  121.70    2.56   0 
  -2   7  -4   67.61    1.84   0 
  -3   4 -11   95.58    1.56   0 
  -2   7  -7   83.66    1.63   0 
  -2   7  -5   54.60    1.60   0 
  -2   7  -6   66.58    1.63   0 
  -2   6  -1    6.20    1.39   0 
  -3   3 -11   16.81    1.00   0 
  -3   5  -9   91.73    1.94   0 
  -3   5  -3  142.12    3.44   0 
  -3   4 -10  399.35    3.92   0 
  -3   4  -2  291.13    4.79   0 
  -3   5  -8  322.75    4.00   0 
  -3   5  -4   47.43    2.39   0 
  -2   6 -11  174.96    1.68   0 
  -3   5  -7  168.12    3.30   0 
  -3   5  -6  357.08    4.93   0 
  -3   5  -5   41.53    2.25   0 
  -2   6  -2   23.37    1.78   0 
  -3   3 -10   33.38    1.81   0 
  -3   4  -9  147.16    2.98   0 
  -3   4  -3  733.66    7.64   0 
  -2   6 -10  103.82    1.82   0 
  -2   6  -3   78.70    2.56   0 
  -3   3  -9  234.55    4.17   0 
  -3   4  -4  619.75    7.23   0 
  -3   2  -8   66.15    2.99   0 
  -3   4  -7   50.20    2.56   0 
  -3   4  -6   92.51    3.21   0 
  -3   4  -5  241.48    4.75   0 
  -1   7  -9  165.60    2.04   0 
  -3   2  -7   17.12    2.46   0 
  -3   3  -8  296.95    5.05   0 
  -2   5 -12   95.38    1.54   0 
  -2   6  -9  131.11    2.40   0 
  -2   6  -4  382.93    5.06   0 
  -1   7  -6   55.97    1.88   0 
  -3   3  -7  141.46    3.93   0 
  -3   3  -6  293.29    5.40   0 
  -2   4 -13   77.38    1.47   0 
  -2   6  -5  305.91    4.61   0 
  -1   7  -8  214.32    2.68   0 
  -1   7  -7  152.66    2.58   0 
  -2   6  -8   18.81    1.47   0 
  -2   6  -7   55.06    2.15   0 
  -2   5 -11   15.30    1.09   0 
  -2   3 -13  169.23    2.32   0 
  -1   6 -12  246.88    2.30   0 
  -2   4 -12  297.05    3.34   0 
  -2   5 -10  146.49    2.88   0 
   0   7  -9  214.28    2.44   0 
  -2   5  -9  211.09    3.86   0 
   0   7  -8  247.34    2.95   0 
  -2   3 -12  114.61    2.55   0 
  -2   5  -8  471.40    6.04   0 
  -2   5  -5   59.71    2.79   0 
  -1   6 -11  131.67    2.16   0 
  -2   5  -7  253.19    4.75   0 
  -2   5  -6   96.36    3.26   0 
  -1   6  -4  274.51    4.42   0 
  -1   3 -15  174.71    2.08   0 
   0   6 -13   63.95    1.10   0 
  -1   5 -13  193.20    2.33   0 
  -1   6 -10  125.56    2.52   0 
  -1   6  -5  155.21    3.70   0 
  -2   3 -11   63.09    2.34   0 
  -2   4  -9   10.27    1.86   0 
  -1   4 -14   75.48    1.58   0 
  -1   6  -7  165.07    3.74   0 
  -1   6  -6  423.63    5.54   0 
  -2   4  -8    2.51    1.82   0 
  -2   3 -10  156.31    3.73   0 
  -2   4  -7  123.67    3.71   0 
  -1   5 -12   12.79    1.09   0 
  -2   2 -10   80.57    3.04   0 
   0   6 -12  229.49    2.52   0 
  -2   3  -9  215.48    4.60   0 
  -1   3 -14  225.99    2.96   0 
  -1   5 -11  125.21    2.71   0 
   0   5 -14   86.75    1.55   0 
   0   3 -16  154.78    1.72   0 
  -1   5 -10  480.37    5.64   0 
  -1   5  -9  397.53    5.59   0 
   0   6 -10  112.25    2.53   0 
   1   6 -12  171.04    2.13   0 
  -1   4 -12  361.57    4.39   0 
  -1   5  -8  409.55    5.91   0 
  -1   5  -6    0.22    1.96   0 
   0   6  -9   29.12    1.84   0 
   0   6  -6  425.55    5.37   0 
  -1   3 -13   87.27    2.23   0 
   0   5 -13   14.78    1.02   0 
   0   6  -8  222.32    3.99   0 
   0   6  -7  255.99    4.33   0 
  -1   2 -13  302.01    3.91   0 
  -1   4 -11  365.14    4.99   0 
   1   6 -11   32.94    1.42   0 
   2   6 -11    1.25    0.68   0 
  -1   3 -12    6.57    1.41   0 
  -1   4 -10  396.29    5.66   0 
   0   4 -14   50.55    1.61   0 
   0   5 -12  157.86    2.84   0 
   1   5 -14   27.62    1.00   0 
   0   3 -15  273.44    3.20   0 
   1   6 -10   27.17    1.52   0 
  -1   4  -9   33.76    2.38   0 
   1   6  -9  166.16    3.24   0 
  -1   2 -12  170.69    3.42   0 
  -1   3 -11  103.59    3.05   0 
   0   5 -11  146.86    3.15   0 
   1   6  -8  205.26    3.59   0 
   0   2 -15   78.29    1.94   0 
   0   4 -13  436.54    4.60   0 
   0   5 -10  427.79    5.56   0 
   1   3 -16  203.19    2.23   0 
   1   4 -15  157.38    2.20   0 
   1   5 -13   13.01    1.03   0 
  -1   2 -11  645.46    6.76   0 
   0   3 -14  117.35    2.55   0 
   0   5  -8   70.85    2.93   0 
   0   5  -7   56.40    2.84   0 
   0   4 -12  586.26    5.88   0 
   1   5 -12  160.93    2.84   0 
   1   2 -16    6.74    0.92   0 
   2   4 -15  192.71    2.11   0 
   0   2 -14  257.05    3.73   0 
   1   4 -14  307.08    3.61   0 
   0   4 -11  258.54    4.39   0 
   2   3 -16  140.61    1.76   0 
   2   5 -12  177.30    2.69   0 
   0   4 -10  135.90    3.37   0 
   1   5 -10  199.01    3.81   0 
   3   4 -14   87.69    1.35   0 
   3   5 -11  264.79    2.60   0 
   0   2 -13  366.01    4.62   0 
   1   4 -13  458.92    4.79   0 
   2   4 -14  195.01    2.67   0 
   1   5  -9  379.52    5.34   0 
   2   5 -11  272.00    3.57   0 
   1   2 -15   74.60    1.95   0 
   1   5  -8  364.16    5.36   0 
   1   5  -7  160.93    3.82   0 
   3   5 -10   87.43    1.86   0 
   0   3 -11  186.97    3.76   0 
   1   3 -14   80.41    2.27   0 
   2   2 -16  158.81    2.14   0 
   1   4 -12   11.76    1.40   0 
   2   3 -15   17.32    1.02   0 
   2   5 -10  377.17    4.52   0 
   3   3 -15   28.77    0.86   0 
   0   2 -12  894.14    7.27   0 
   1   1 -15  243.71    3.11   0 
   2   1 -16  191.78    2.36   0 
   2   4 -13  294.94    3.61   0 
   2   5  -9  336.44    4.56   0 
   1   4 -11  414.50    5.18   0 
   2   5  -8   16.11    2.00   0 
   1   2 -14  465.18    5.12   0 
   1   3 -13    7.56    1.35   0 
   3   1 -16   73.28    1.19   0 
   1   4 -10  132.23    3.28   0 
   2   3 -14    7.17    1.08   0 
   2   4 -12   20.97    1.49   0 
   3   4 -12   58.85    1.63   0 
   4   4 -10  146.26    1.91   0 
   1   1 -14   77.54    2.25   0 
   1   3 -12  456.83    5.27   0 
   3   3 -14  106.04    1.83   0 
   3   2 -15  196.45    2.27   0 
   1   2 -13  132.34    3.05   0 
   2   1 -15  120.58    2.34   0 
   2   3 -13   29.81    1.62   0 
   3   4 -11   72.83    1.95   0 
   4   2 -14   76.73    1.21   0 
   1   3 -11  711.52    6.59   0 
   2   0 -15  222.53    2.85   0 
   2   2 -14  610.42    5.26   0 
   2   4 -10   59.04    2.31   0 
   3   3 -13  356.93    3.73   0 
   1   1 -13  138.01    3.06   0 
   3   4 -10  156.32    2.96   0 
   4   3 -12  152.42    1.99   0 
   2   4  -9  401.09    5.23   0 
   2   3 -12  480.37    5.30   0 
   3   2 -14  127.82    2.21   0 
   3   0 -15  250.69    2.57   0 
   3   4  -9  571.49    5.49   0 
   2   1 -14   39.30    1.66   0 
   2   4  -8  629.58    6.49   0 
   3   3 -12  208.52    3.24   0 
   2   2 -13  462.57    5.06   0 
   4   1 -14  143.04    1.79   0 
   4   2 -13   42.29    1.17   0 
   4   3 -11  108.08    1.94   0 
   2   3 -11  693.33    6.44   0 
   3   4  -8  521.52    5.37   0 
   2   0 -14  372.12    4.17   0 
   5   2 -10  303.13    2.25   0 
   3   2 -13  162.46    2.75   0 
   3   3 -11  338.93    4.24   0 
   4  -1 -14  127.39    1.45   0 
   4   3 -10   32.73    1.38   0 
   2   1 -13  163.93    3.05   0 
   2   2 -12  325.30    4.53   0 
   2   3 -10  311.53    4.45   0 
   4   2 -12   73.04    1.69   0 
   3  -1 -14   16.18    1.09   0 
   3   0 -14  328.24    3.40   0 
   4   1 -13  110.25    1.91   0 
   5   2  -9  201.56    2.13   0 
   3   2 -12    2.14    1.09   0 
   4   3  -9   18.51    1.32   0 
   5   1 -11   23.41    0.76   0 
   2   0 -13  253.08    3.64   0 
   2   2 -11  122.85    2.98   0 
   3   1 -13  199.36    3.12   0 
  -1   0  17    3.50    0.68   0 
   0  -3  12   37.12    2.13   0 
   0  -2  14  231.69    3.61   0 
  -2  -4  12   17.83    1.51   0 
  -2  -3  15   20.73    1.04   0 
  -1  -4  11  412.69    5.31   0 
  -1  -3  14   77.20    2.18   0 
   0   0  15   21.29    1.37   0 
  -3  -3  14  104.66    1.64   0 
  -2  -1  17  161.00    1.85   0 
  -1  -4  10  140.70    3.57   0 
   0  -3  11  251.31    4.56   0 
  -2  -2  16  154.54    2.19   0 
   0  -2  13  359.84    4.72   0 
  -1  -2  15   66.49    1.97   0 
  -1  -1  16  199.13    2.67   0 
  -2   1  17  168.41    1.67   0 
  -2  -3  14    7.17    1.05   0 
  -1   0  16    5.25    0.88   0 
  -1   1  16  212.45    2.58   0 
   0  -2  12  948.20    7.83   0 
   0   0  14  190.74    3.28   0 
  -3  -3  13  340.65    3.31   0 
  -3  -2  15  189.42    2.17   0 
  -1  -2  14  456.25    5.10   0 
  -3  -1  16   92.82    1.41   0 
  -2  -3  13   27.43    1.52   0 
  -2  -2  15  195.51    2.83   0 
  -2  -1  16  194.48    2.65   0 
  -1  -1  15  263.42    3.59   0 
  -4  -2  13   43.19    0.99   0 
  -2   2  16  148.33    1.73   0 
  -1  -3  11  757.28    7.16   0 
   0   0  13 1474.08    8.70   0 
  -3  -3  12  223.58    3.06   0 
  -2  -3  12  514.09    5.25   0 
  -1  -2  13  145.74    3.17   0 
  -1   0  15  564.08    4.89   0 
  -2   0  16   31.26    1.24   0 
  -1   1  15  245.20    3.13   0 
  -3  -2  14  136.21    2.17   0 
  -3   0  16  112.00    1.59   0 
  -2  -2  14  617.52    5.39   0 
  -2   1  16  176.35    2.22   0 
  -1  -1  14   78.16    2.38   0 
  -3   1  16   76.49    1.30   0 
  -2  -1  15   99.89    2.18   0 
  -4  -1  14  129.52    1.54   0 
  -3  -1  15   11.85    0.85   0 
  -2  -3  11  640.50    5.97   0 
  -1  -2  12  931.73    7.50   0 
  -4  -2  12   73.10    1.45   0 
  -2  -3  10  325.60    4.56   0 
  -1  -1  13  151.48    3.21   0 
  -1   1  14   73.35    2.17   0 
  -3  -2  13  144.56    2.51   0 
  -2   0  15  231.35    3.23   0 
  -2   2  15  164.08    2.28   0 
  -2  -1  14   34.45    1.61   0 
  -3   0  15  250.16    2.75   0 
  -2   1  15  120.31    2.28   0 
  -3  -1  14   14.21    1.06   0 
  -3   2  15  200.03    2.15   0 
  -4  -1  13   93.11    1.61   0 
  -4   0  14  151.41    1.83   0 
  -3   1  15   14.12    0.88   0 
  -3  -2  12    2.94    1.14   0 
  -2  -1  13  183.92    3.31   0 
  -2   0  14  362.83    4.26   0 
  -1   1  13  126.60    2.75   0 
  -4   1  14  143.12    1.78   0 
  -4   2  14   71.99    1.08   0 
  -2  -2  11  113.96    2.97   0 
  -3   3  14   99.89    1.50   0 
  -2   2  14  630.69    4.91   0 
  -3  -1  13  214.23    3.21   0 
  -3   0  14  341.74    3.65   0 
  -4  -1  12  325.18    3.30   0 
  -3  -2  11   15.38    1.47   0 
  -4   0  13    0.46    0.70   0 
  -2  -1  12  239.11    3.93   0 
  -4   3  13  104.05    1.26   0 
  -3   1  14   22.62    1.19   0 
  -2   0  13  243.42    3.70   0 
  -2   3  13   29.37    1.47   0 
  -3  -2  10  298.84    4.19   0 
  -4   1  13  114.96    1.96   0 
  -3   0  13   79.69    2.17   0 
  -2   2  13  472.28    4.92   0 
  -5   0  10  166.49    2.00   0 
  -4  -1  11  361.30    3.86   0 
  -4   2  13   43.24    1.17   0 
  -3   3  13  360.12    3.42   0 
  -2   0  12   61.12    2.19   0 
  -3  -2   9  500.10    5.43   0 
  -3   1  13  199.46    3.15   0 
  -3   4  12   56.96    1.37   0 
  -3  -1  11  282.09    4.24   0 
  -2   3  12  460.30    4.63   0 
  -4  -1  10  113.87    2.52   0 
  -3   0  12  198.05    3.52   0 
  -5   0   9  112.19    1.99   0 
  -4   1  12  317.10    3.66   0 
  -4   4  11  128.06    1.63   0 
  -2   2  12  346.18    4.62   0 
  -5   1  10    2.55    0.68   0 
  -4   2  12   77.25    1.83   0 
  -3  -1  10  186.58    3.70   0 
  -5   2  10  309.33    2.64   0 
  -3   1  12  733.09    6.43   0 
  -3   3  12  205.31    3.13   0 
  -4  -1   9   39.07    1.93   0 
  -3   0  11    0.52    1.36   0 
  -5   0   8   86.91    2.01   0 
  -3   4  11   76.12    1.86   0 
  -4   1  11  376.80    4.49   0 
  -2   3  11  683.15    6.15   0 
  -5   1   9   18.13    1.06   0 
  -4   0  10  246.06    3.87   0 
  -4   3  11  104.47    2.07   0 
  -2   2  11  123.09    3.18   0 
  -5   3   9   10.26    0.71   0 
  -4  -1   8  351.23    4.76   0 
  -4   2  11   56.01    1.89   0 
  -5   2   9  200.60    2.51   0 
  -4   4  10  137.80    2.07   0 
  -3   1  11  217.24    3.91   0 
  -5   0   7    6.55    1.13   0 
  -3   0  10  770.06    7.37   0 
  -3   3  11  339.09    4.41   0 
  -3   2  11   18.51    1.67   0 
  -5   1   8   82.30    1.99   0 
  -4   0   9  136.55    3.18   0 
  -4   1  10  122.91    2.97   0 
  -3   4  10  148.13    2.94   0 
  -4  -1   7  255.25    4.34   0 
  -4   3  10   30.45    1.50   0 
  -2   3  10  292.93    4.41   0 
  -5   0   6   44.94    1.98   0 
  -5   3   8  140.80    2.10   0 
  -4   2  10  117.16    2.79   0 
  -4   5   8   32.26    1.09   0 
  -5   2   8    8.03    0.99   0 
  -5   4   7    4.76    0.60   0 
  -3   1  10  139.68    3.39   0 
  -4   4   9  164.90    2.59   0 
  -3   3  10  218.35    4.02   0 
  -5   1   7  334.24    3.95   0 
  -4   0   8  239.64    4.17   0 
  -4   1   9   34.03    2.03   0 
  -3   2  10  269.26    4.43   0 
  -5   2   7   25.33    1.37   0 
  -5   3   7  274.03    3.13   0 
  -4   2   9  352.82    4.82   0 
  -4   3   9   17.11    1.46   0 
  -3   4   9  536.54    5.49   0 
  -5   1   6  238.80    3.61   0 
  -5   4   6    0.54    0.65   0 
  -4   5   7  141.12    2.19   0 
  -4   0   7   45.22    2.28   0 
  -4   1   8  372.68    5.20   0 
  -3   2   9  525.03    6.11   0 
  -3   3   9   15.56    1.77   0 
  -5   3   6  317.64    3.57   0 
  -4   6   4   62.84    1.26   0 
  -5   1   5  136.80    2.88   0 
  -5   4   5  219.69    2.66   0 
  -4   2   8  528.14    5.97   0 
  -4   3   8  131.12    2.96   0 
  -3   4   8  532.73    5.78   0 
  -3   5   7  278.23    3.71   0 
  -4   0   6   14.14    1.87   0 
  -4   5   6  239.59    2.99   0 
  -5   3   5   72.46    1.95   0 
  -3   3   8   19.29    1.85   0 
  -5   1   4    9.82    1.46   0 
  -5   4   4  237.77    2.87   0 
  -4   2   7  291.40    4.53   0 
  -4   3   7  348.67    4.63   0 
  -4   6   3   59.49    1.33   0 
  -5   1   3   44.44    1.98   0 
  -5   2   4  311.55    4.05   0 
  -4   5   5  187.34    2.81   0 
  -3   4   7  122.17    2.99   0 
  -3   5   6  233.92    3.45   0 
  -5   3   4   41.58    1.65   0 
  -5   4   3   80.89    1.83   0 
  -4   4   6   28.72    1.62   0 
  -5   1   2  187.90    3.51   0 
  -4   2   6   84.64    2.64   0 
  -4   3   6  300.40    4.41   0 
  -4   6   2  243.90    2.56   0 
  -5   2   3  172.55    3.12   0 
  -5   3   3   37.81    1.64   0 
  -5   4   2  122.36    2.21   0 
  -4   1   5  664.09    6.51   0 
  -4   5   4  154.78    2.65   0 
  -5   1   1  512.53    5.41   0 
  -4   4   5  221.94    3.49   0 
  -3   4   6   64.92    2.34   0 
  -5   2   2   57.44    2.23   0 
  -4   6   1   65.70    1.48   0 
  -3   5   5  310.43    3.98   0 
  -5   3   2  188.14    3.09   0 
  -5   4   1   36.52    1.39   0 
  -4   2   5  132.50    3.11   0 
  -5   1   0  294.85    4.11   0 
  -4   3   5  205.56    3.64   0 
  -5   2   1   14.09    1.70   0 
  -5   4   0   22.37    1.19   0 
  -4   6   0   24.33    1.14   0 
  -4   4   4  133.07    2.86   0 
  -5   4  -1   96.49    1.94   0 
  -5   2   0    8.47    1.40   0 
  -5   4  -2  166.39    2.41   0 
  -4   2   4  595.07    6.11   0 
  -4   6  -1   97.52    1.78   0 
  -3   4   5   38.82    2.03   0 
  -3   5   4  177.00    3.15   0 
  -3   6   2  468.26    4.34   0 
  -5   4  -3   94.61    1.70   0 
  -4   3   4  215.56    3.74   0 
  -5   2  -1   43.19    1.95   0 
  -4   6  -2   43.74    1.28   0 
  -5   2  -2  150.08    3.08   0 
  -5   3  -5  164.18    2.02   0 
  -4   4   3  422.80    4.92   0 
  -4   6  -3  125.07    1.80   0 
  -5   2  -4  111.78    2.24   0 
  -5   2  -3  252.91    3.61   0 
  -5   3  -4   61.38    1.71   0 
  -5   3  -2   29.99    1.53   0 
  -5   3  -3    7.89    1.09   0 
  -4   2   3  491.46    5.64   0 
  -4   3   3   75.41    2.48   0 
  -3   5   3   11.02    1.45   0 
  -3   6   1   98.11    2.36   0 
  -3   4   4   48.88    2.16   0 
  -4   4   2  215.04    3.74   0 
  -4   5   0  463.64    4.95   0 
  -4   3   2  220.19    3.96   0 
  -3   6   0  131.87    2.67   0 
  -4   4   1  211.00    3.81   0 
  -4   5  -1  257.41    3.87   0 
  -3   5   2   54.56    2.17   0 
  -4   3   1  208.29    3.98   0 
  -4   4   0    8.26    1.52   0 
  -4   5  -2  216.62    3.52   0 
  -3   6  -1    8.68    1.34   0 
  -4   5  -7  135.29    1.92   0 
  -4   5  -3    4.24    1.22   0 
  -3   5   1  130.90    3.07   0 
  -4   2   0   87.45    2.86   0 
  -4   3   0  227.23    4.18   0 
  -4   4  -1   76.69    2.60   0 
  -4   5  -6  192.58    2.60   0 
  -4   5  -5   81.06    2.08   0 
  -4   5  -4  198.54    3.15   0 
  -3   6  -2  111.88    2.56   0 
  -4   3  -1  407.80    5.35   0 
  -4   4  -2  332.27    4.69   0 
  -3   5   0  264.35    4.05   0 
  -3   6  -3  232.67    3.37   0 
  -4   1  -2  296.97    4.66   0 
  -4   2  -1  229.47    4.14   0 
  -3   6  -8   28.19    0.93   0 
  -4   4  -3  204.32    3.57   0 
  -3   6  -4  200.67    2.96   0 
   4  -3   2  254.51    4.02   0 
   3  -4   2  302.31    4.39   0 
   4  -3   3   34.42    1.89   0 
   4  -2   1  231.39    3.70   0 
   3  -4   3  730.47    6.72   0 
   4  -3   9   39.18    1.23   0 
   3  -4  10  346.25    3.11   0 
   4  -3   4   24.00    1.71   0 
   3  -4   4  553.96    6.01   0 
   4  -3   5   73.64    2.37   0 
   4  -3   8  150.26    2.56   0 
   4  -3   6  247.24    3.80   0 
   4  -3   7  274.75    3.75   0 
   4  -2   2  253.56    3.98   0 
   4  -2  11  202.61    1.86   0 
   3  -4   5  269.18    4.34   0 
   3  -4   9  115.96    2.34   0 
   3  -4   6  105.55    2.95   0 
   3  -4   7   47.23    2.31   0 
   3  -4   8  198.97    3.35   0 
   4  -2   3  312.40    4.52   0 
   4  -2  10  235.26    2.63   0 
   4  -1   2  285.96    4.10   0 
   3  -3  12   92.49    1.54   0 
   4  -2   4  389.24    5.10   0 
   4  -2   5  277.16    4.39   0 
   4  -2   9  189.03    2.87   0 
   4  -2   6   31.70    1.91   0 
   4  -2   8   86.78    2.30   0 
   4  -1   3   19.29    1.66   0 
   4  -1  11   96.97    1.52   0 
   4  -2   7  140.99    3.07   0 
   4   1  11  104.06    1.36   0 
   3  -3  11   15.68    1.22   0 
   4   0   3  458.64    5.06   0 
   4  -1  10   23.94    1.17   0 
   3  -3  10   33.81    1.71   0 
   4  -1   6  311.54    4.69   0 
   4  -1   9    5.29    1.08   0 
   4   0   4  267.14    4.10   0 
   4   1  10   19.87    1.10   0 
   3  -3   9  206.95    3.77   0 
   4  -1   7  337.78    4.72   0 
   4  -1   8  206.98    3.56   0 
   3  -3   8  281.26    4.69   0 
   3  -1  14   85.59    1.24   0 
   4   0   5  276.54    4.31   0 
   2  -3  13  162.63    2.16   0 
   4   0   6    5.76    1.51   0 
   4   0   9  223.79    3.34   0 
   4   1   6  340.70    4.46   0 
   4   1   9    2.80    1.00   0 
   2  -2  15   30.87    0.83   0 
   4   0   7    2.37    1.40   0 
   4   0   8   86.91    2.48   0 
   4   1   7  312.55    4.23   0 
   4   1   8  215.71    3.40   0 
   2  -3  12  113.88    2.50   0 
   3  -2  11  378.37    4.47   0 
   3  -1  13  324.77    3.07   0 
   3   0  14    6.83    0.55   0 
   2  -3  11   60.80    2.48   0 
   3  -2  10  210.72    3.92   0 
   2  -2  14    1.00    0.89   0 
   3  -2   7   26.59    2.28   0 
   3  -2   8   46.50    2.59   0 
   3  -2   9  510.50    6.38   0 
   2  -3  10  143.80    3.54   0 
   3  -1  12  226.91    3.24   0 
   3   2  13   55.91    1.16   0 
   2  -3   9  218.84    4.49   0 
   3   0  13   14.83    0.94   0 
   2   0  16  115.09    1.45   0 
   3  -1  11   65.06    2.30   0 
   2  -2  13  183.13    2.98   0 
   1  -2  15    8.29    0.97   0 
   2   1  16   33.43    0.84   0 
   3  -1  10  186.61    3.94   0 
   3   0  12   20.15    1.33   0 
   3   2  12  115.41    2.07   0 
   3  -1   8  230.81    4.75   0 
   3  -1   9  173.21    4.07   0 
   2  -2  12  357.89    4.84   0 
   3   0  11   16.87    1.81   0 
   1   0  17  171.24    1.64   0 
   3   0  10  728.66    7.36   0 
   3   2  11  367.37    4.14   0 
   1  -1  16  125.13    1.88   0 
   2  -2  11  641.13    6.96   0 
   2   0  15   64.78    1.51   0 
   1  -2  14  127.15    2.53   0 
   3   0   8  221.03    4.69   0 
   3   0   9  420.19    6.00   0 
   3   2  10  234.46    3.85   0 
   2  -2  10   59.86    2.83   0 
   3   1  10  191.41    3.87   0 
   2  -1  13  170.82    3.15   0 
   2   1  15  225.21    2.56   0 
   3   1   9  169.91    3.95   0 
   3   2   8   62.67    2.71   0 
   3   2   9  473.79    5.72   0 
   1   1  17   61.35    1.05   0 
   2   3  14  171.16    2.01   0 
   3   1   8  229.54    4.55   0 
   2   0  14    1.27    0.84   0 
   1  -2  13  331.93    4.32   0 
   2  -1  12   54.85    2.31   0 
   1  -1  15  364.02    3.83   0 
   2   1  14  203.10    2.83   0 
   1  -2  12  181.30    3.84   0 
   2  -1  11   64.52    2.72   0 
   2   0  13   13.54    1.34   0 
   0  -1  16  298.29    2.92   0 
   2  -1  10  217.08    4.55   0 
   2   3  13  157.30    2.29   0 
   0   0  17   49.13    1.15   0 
   1  -2  11  674.26    7.10   0 
   1  -1  14  394.50    4.47   0 
   2   0  12  859.60    7.46   0 
   2   1  13  154.25    2.87   0 
   1   1  16  142.86    2.17   0 
   1   2  16   65.19    1.45   0 
   2   3  12  112.08    2.38   0 
   2   0  11  873.37    8.12   0 
   1  -1  13  277.93    4.19   0 
   2   1  12   39.39    1.97   0 
   0  -1  15  282.45    3.52   0 
   0   2  17  117.73    1.67   0 
   1   4  14   73.57    1.49   0 
   2   1  11   61.95    2.53   0 
   2   3  11   59.93    2.11   0 
   0   0  16   79.43    1.88   0 
   1   0  14   63.49    2.10   0 
   1   1  15  371.63    4.07   0 
   1  -1  12  172.28    3.68   0 
   1   2  15    8.11    1.02   0 
   2   2  11  611.46    6.31   0 
   2   3  10  148.95    3.45   0 
   2   1  10  177.80    4.03   0 
   2   2  10   83.23    2.89   0 
   2   3   9  231.68    4.40   0 
   0  -1  14  150.50    2.98   0 
  -1   1  17  219.96    2.24   0 
   0   5  14   70.76    1.15   0 
   1   0  13  245.04    3.95   0 
   1   1  14  393.94    4.55   0 
   1   4  13  146.15    2.39   0 
   0   3  16  183.15    2.23   0 
   1   2  14  135.19    2.78   0 
  -1   0  16    5.87    1.02   0 
   0   0  15   17.54    1.45   0 
   0   2  16   17.38    1.02   0 
   1   0  12  496.86    5.77   0 
   0  -1  13   59.72    2.30   0 
   1   1  13  249.10    3.89   0 
  -1   4  16    9.60    0.58   0 
   1   3  13   94.35    2.32   0 
   1   4  12  372.10    3.95   0 
   1   2  13  306.58    4.14   0 
   0   0  14  196.76    3.53   0 
   0   1  15  263.86    3.64   0 
   0   5  13   14.09    0.97   0 
   1   1  12  163.05    3.39   0 
  -1   1  16  219.17    2.88   0 
   0   2  15   72.93    1.95   0 
   0   3  15  262.49    3.13   0 
   1   3  12    7.21    1.48   0 
   1   4  11  340.20    4.12   0 
  -1   0  15  580.17    4.93   0 
   1   2  12  170.82    3.30   0 
  -1   3  16  213.48    2.39   0 
   0   4  14   50.37    1.50   0 
  -2   1  16  173.90    2.10   0 
  -1   2  16    5.70    0.89   0 
   0   0  13 1562.40    9.57   0 
  -1   5  14   27.66    0.93   0 
   0   1  14  168.82    3.32   0 
   1   3  11   91.09    2.54   0 
   1   4  10  342.63    4.30   0 
   0   5  12  167.84    2.50   0 
   1   2  11  586.37    6.02   0 
  -2   3  16  143.19    1.73   0 
  -1   4  15  150.49    2.03   0 
   0   2  14  263.96    3.91   0 
   0   3  14  124.81    2.58   0 
  -2   2  16  145.31    1.91   0 
  -1   0  14  133.46    2.81   0 
  -1   1  15  253.29    3.35   0 
   0   4  13  473.02    4.52   0 
   0   1  13   55.20    2.22   0 
  -1   2  15   77.85    2.05   0 
  -1   3  15  190.83    2.73   0 
  -2   4  15  189.91    2.00   0 
   0   2  13  405.75    5.02   0 
   0   3  13  157.36    3.13   0 
   0   5  11  137.29    2.47   0 
  -2   1  15  116.53    2.16   0 
  -1   5  13   12.34    0.98   0 
  -3   2  15  202.31    2.09   0 
  -3   3  15   32.63    0.86   0 
  -1   0  13  814.64    6.75   0 
  -1   1  14   70.15    2.09   0 
  -1   4  14  293.91    3.25   0 
   0   4  12  615.22    5.52   0 
  -2   2  15  165.10    2.43   0 
  -2   3  15   19.51    0.98   0 
   0   5  10  406.76    4.31   0 
  -1   2  14  410.21    4.47   0 
  -1   3  14   79.21    2.08   0 
   0   2  12  948.64    7.53   0 
   0   3  12   45.90    2.08   0 
  -3   1  14   25.76    1.19   0 
   0   4  11  260.94    3.82   0 
  -3   4  14   89.79    1.28   0 
  -2   1  14   41.76    1.68   0 
  -2   4  14  184.58    2.39   0 
  -1   1  13  132.35    2.87   0 
  -1   4  13  455.17    4.42   0 
  -1   5  12  159.37    2.48   0 
  -2   6  11    2.00    0.62   0 
  -4   2  13   38.45    0.91   0 
  -1   2  13  123.90    2.71   0 
  -1   3  13    7.12    1.21   0 
   0   4  10  123.86    2.79   0 
  -3   2  14  135.95    2.12   0 
  -2   3  14    6.14    0.92   0 
  -1   5  11  222.10    3.20   0 
  -1   4  12   18.68    1.42   0 
  -2   1  13  179.55    3.23   0 
  -2   4  13  289.54    3.36   0 
  -3   1  13  187.31    2.70   0 
  -3   4  13   99.29    1.73   0 
  -3   5  12  106.17    1.51   0 
  -2   6  10   26.58    1.10   0 
  -3   6  10   90.43    1.23   0 
  -1   2  12  923.36    7.12   0 
  -1   3  12  471.11    5.15   0 
  -2   3  13   29.71    1.50   0 
  -1   5  10  186.57    3.06   0 
  -3   2  13  170.19    2.70   0 
  -3   3  13  359.38    3.66   0 
  -4   2  12   74.32    1.49   0 
  -4   3  12  153.30    1.90   0 
  -2   1  12  278.85    4.02   0 
  -2   4  12   21.31    1.38   0 
  -2   6   9  241.50    2.86   0 
  -1   3  11  733.93    6.57   0 
  -3   5  11  276.68    2.83   0 
  -4   5  10   40.40    0.89   0 
  -3   1  12  737.29    5.70   0 
  -3   4  12   63.93    1.67   0 
  -3   6   9  166.19    1.98   0 
  -1   5   9  342.51    4.24   0 
  -2   3  12  484.07    5.18   0 
  -1   4  10  130.71    2.98   0 
  -4   4  11  132.08    1.76   0 
  -3   2  12    1.97    1.10   0 
  -3   3  12  208.91    3.22   0 
  -2   5  10  371.06    4.23   0 
   0  -4  13  477.36    5.08   0 
   1  -1  15  361.43    3.72   0 
  -1  -4  14  282.73    3.07   0 
   0  -3  15  287.54    3.44   0 
   1  -3  12    5.24    1.55   0 
   1  -2  14  122.34    2.53   0 
   1   0  15    4.75    1.07   0 
   0  -4  12  615.29    6.25   0 
   1  -3  11  103.09    3.22   0 
   0  -4  11  307.76    4.86   0 
   0  -2  16   14.82    1.02   0 
   0   0  17   45.72    1.07   0 
  -1  -4  13  446.96    4.40   0 
  -1  -2  17   44.46    1.11   0 
   1  -3  10  617.52    7.22   0 
   1  -2  13  319.40    4.32   0 
   1  -1  14  358.83    4.02   0 
   0  -4  10  130.25    3.56   0 
   0  -3  14  116.88    2.51   0 
   1   0  14   59.29    1.77   0 
   1  -2  12  182.63    3.67   0 
  -1  -4  12   14.74    1.48   0 
   0  -1  16  313.05    3.37   0 
   1  -1  13  260.50    3.83   0 
   0  -3  13  140.12    3.05   0 
   0  -2  15   77.91    2.03   0 
   1  -2  11  701.82    7.23   0 
  -2  -3  15   23.03    0.99   0 
  -1  -4  11  394.57    5.00   0 
   0   1  16  309.53    2.89   0 
  -1  -1  17  227.35    2.44   0 
   0   0  16   85.57    1.84   0 
   1   0  13  224.49    3.40   0 
  -1  -2  16    6.84    0.86   0 
   0  -3  12   31.30    2.01   0 
   1  -1  12  167.29    3.43   0 
  -1  -3  14   76.41    2.10   0 
   0  -2  14  242.60    3.69   0 
   0  -1  15  290.69    3.79   0 
  -1   1  17  227.49    2.23   0 
   1   0  12  473.56    5.19   0 
  -2  -3  14    7.88    0.99   0 
  -2  -1  17  160.89    1.83   0 
  -1  -3  13    5.51    1.30   0 
   0  -2  13  370.74    4.81   0 
   0   0  15   18.58    1.53   0 
  -1  -2  15   65.73    1.96   0 
   0   1  15  271.11    3.35   0 
  -3  -2  15  181.70    1.93   0 
  -1  -1  16  212.62    2.79   0 
   0  -1  14  152.50    3.03   0 
  -2  -3  13   26.83    1.47   0 
  -2   0  17   39.52    1.02   0 
  -1  -3  12  458.16    5.41   0 
  -1   2  16    7.91    0.81   0 
   0  -2  12  974.47    7.95   0 
  -3  -1  16   89.87    1.33   0 
  -1  -2  14  451.65    5.02   0 
  -1   0  16    6.83    0.89   0 
   0  -1  13   58.78    2.16   0 
   0   0  14  184.33    3.26   0 
  -2  -1  16  189.98    2.53   0 
  -1  -3  11  785.79    7.28   0 
  -1   1  16  217.58    2.72   0 
   0   1  14  165.51    2.97   0 
  -2  -3  12  509.67    5.05   0 
  -1  -1  15  273.37    3.69   0 
  -3  -2  14  142.18    2.16   0 
  -1  -2  13  147.80    3.17   0 
  -2  -3  11  633.92    5.94   0 
  -2  -2  14  631.23    5.34   0 
   0   0  13 1488.16    8.83   0 
  -3   0  16  117.02    1.61   0 
  -2   0  16   34.29    1.27   0 
  -1   0  15  566.66    4.93   0 
  -3  -1  15   11.41    0.83   0 
  -2  -1  15  104.75    2.21   0 
  -1  -1  14   79.40    2.39   0 
  -1   2  15   75.75    1.83   0 
   0   1  13   46.42    1.89   0 
  -2   2  16  146.08    1.83   0 
  -1  -2  12  918.46    7.45   0 
  -1   1  15  257.25    3.29   0 
  -3  -2  13  148.05    2.45   0 
  -3   1  16   78.56    1.30   0 
  -2   1  16  175.58    2.29   0 
  -2  -2  13  428.84    4.72   0 
  -4  -1  13   89.22    1.49   0 
  -2   3  15   16.41    0.87   0 
  -1  -1  13  150.49    3.19   0 
  -1   0  14  129.79    2.79   0 
  -2  -1  14   38.38    1.67   0 
  -2   0  15  223.33    3.16   0 
  -4   0  14  152.54    1.70   0 
  -3  -2  12    1.83    1.28   0 
  -3  -1  14   13.79    1.05   0 
  -3   0  15  249.29    2.72   0 
  -3   3  15   29.76    0.73   0 
  -2  -2  12  351.02    4.42   0 
  -1   1  14   72.98    2.05   0 
  -1   2  14  402.44    4.05   0 
  -2   1  15  116.65    2.28   0 
  -2   2  15  163.15    2.32   0 
  -1   0  13  810.71    6.83   0 
  -3   1  15   14.53    0.88   0 
  -3   2  15  205.45    2.25   0 
  -2  -2  11  107.95    2.71   0 
  -2  -1  13  191.54    3.35   0 
  -4  -1  12  302.34    2.93   0 
  -4   1  14  138.35    1.69   0 
  -3  -2  11   14.63    1.44   0 
  -2   0  14  361.85    4.24   0 
  -4   2  14   76.53    1.15   0 
  -3  -1  13  206.33    3.04   0 
  -3   0  14  341.17    3.60   0 
  -2   3  14    5.79    0.85   0 
  -1   1  13  134.56    2.82   0 
  -1   2  13  124.02    2.57   0 
  -4   0  13    0.34    0.63   0 
  -2   1  14   38.19    1.70   0 
  -3   3  14  108.66    1.70   0 
  -2   2  14  632.39    5.12   0 
  -4  -1  11  355.11    3.56   0 
  -3  -1  12  728.55    5.97   0 
  -3   1  14   21.11    1.18   0 
  -2   0  13  259.37    3.82   0 
  -3   2  14  134.61    2.23   0 
  -3   4  13   91.53    1.39   0 
  -4   1  13  111.43    1.87   0 
  -4   3  13  108.38    1.37   0 
  -3   0  13   80.39    2.12   0 
  -4   0  12   18.38    1.13   0 
  -1   2  12  946.34    6.93   0 
  -4   2  13   44.71    1.18   0 
  -2   1  13  177.25    3.33   0 
  -2   3  13   25.27    1.37   0 
  -4  -1  10  113.25    2.40   0 
  -3  -1  11  283.72    4.07   0 
  -2   0  12   54.92    2.12   0 
  -2   2  13  464.89    4.99   0 
  -3   1  13  197.33    3.12   0 
  -2   4  12   18.52    1.33   0 
  -5   1  10    2.67    0.69   0 
  -3   0  12  200.96    3.46   0 
  -3   2  13  168.30    2.83   0 
  -4   0  11  248.05    3.37   0 
  -4   1  12  315.31    3.52   0 
  -4   3  12  156.80    2.08   0 
  -3  -1  10  181.92    3.53   0 
  -3   4  12   57.67    1.51   0 
  -2   1  12  268.33    4.17   0 
  -5   2  10  312.09    2.52   0 
  -4   2  12   74.54    1.78   0 
  -2   3  12  465.04    4.90   0 
  -3   1  12  744.12    6.44   0 
  -5   1   9   18.18    1.09   0 
  -2   4  11   15.62    1.38   0 
  -4   0  10  255.67    3.73   0 
  -3   2  12    1.60    1.14   0 
  -5   2   9  208.62    2.48   0 
  -5   3   9   10.18    0.69   0 
  -4   3  11  109.12    2.12   0 
  -3   4  11   76.15    2.11   0 
  -3   5  10   77.34    1.61   0 
  -4   2  11   55.74    1.84   0 
  -4   5   9   48.99    1.15   0 
  -3   1  11  211.82    3.84   0 
  -2   3  11  676.99    6.34   0 
  -5   1   8   82.39    1.86   0 
  -4   0   9  141.74    3.12   0 
  -4   4  10  139.13    2.17   0 
  -3   2  11   16.46    1.68   0 
  -2   4  10   59.78    2.35   0 
  -5   2   8    7.86    0.94   0 
  -5   3   8  144.35    2.07   0 
  -5   1   7  337.34    3.81   0 
  -4   2  10  116.59    2.74   0 
  -4   3  10   29.40    1.48   0 
  -3   1  10  143.89    3.40   0 
  -3   4  10  156.99    3.16   0 
  -3   5   9   11.96    1.29   0 
  -5   4   7    3.94    0.63   0 
  -4   0   8  238.09    4.03   0 
  -2   3  10  299.69    4.56   0 
  -4   1   9   34.46    2.01   0 
  -4   5   8   34.24    1.18   0 
  -4   4   9  171.34    2.71   0 
  -3   2  10  271.68    4.45   0 
  -3   3  10  206.69    3.88   0 
  -5   2   7   25.53    1.48   0 
  -2   4   9  360.72    4.85   0 
  -5   1   6  221.91    3.28   0 
  -5   3   7  281.98    3.13   0 
  -4   2   9  355.83    4.78   0 
  -5   4   6    0.99    0.75   0 
  -4   0   7   47.76    2.33   0 
  -4   3   9   14.80    1.38   0 
  -4   6   5   23.66    0.94   0 
  -3   4   9  560.15    5.80   0 
  -3   5   8   19.09    1.58   0 
  -4   1   8  351.62    4.94   0 
  -5   1   5  127.26    2.81   0 
  -5   2   6   61.57    1.90   0 
  -4   4   8  162.26    2.85   0 
  -3   2   9  513.52    6.05   0 
  -5   3   6  316.66    3.52   0 
  -3   3   9   14.88    1.77   0 
  -5   4   5  225.29    2.74   0 
  -4   0   6   14.73    1.88   0 
  -4   2   8  501.51    5.77   0 
  -4   3   8  137.87    3.00   0 
  -5   1   4    8.46    1.61   0 
  -4   1   7  284.17    4.50   0 
  -4   6   4  112.40    1.79   0 
  -5   2   5  116.36    2.54   0 
  -3   4   8  534.50    5.83   0 
  -3   5   7  283.07    3.82   0 
  -4   4   7   29.22    1.57   0 
  -5   4   4  233.46    2.84   0 
  -4   2   7  288.22    4.44   0 
  -3   3   8   20.30    1.89   0 
  -3   6   5    1.51    1.08   0 
  -4   3   7  354.01    4.66   0 
  -5   2   4  307.71    3.92   0 
  -4   1   6  434.00    5.34   0 
  -4   6   3   56.50    1.45   0 
  -5   4   3   73.96    1.76   0 
  -4   4   6   28.09    1.61   0 
  -3   4   7  126.28    3.07   0 
  -3   5   6  238.66    3.67   0 
  -5   2   3  166.52    3.02   0 
  -4   2   6   79.10    2.58   0 
  -4   3   6  288.01    4.21   0 
  -3   3   7  150.40    3.45   0 
  -3   6   4  221.91    3.04   0 
  -5   4   2  118.45    2.15   0 
  -4   1   5  659.14    6.34   0 
  -4   6   2  243.18    2.66   0 
  -5   2   2   57.79    2.02   0 
  -4   4   5  230.69    3.55   0 
  -4   5   4  155.75    2.69   0 
  -5   3   2  183.80    2.97   0 
  -5   4   1   38.53    1.39   0 
  -3   4   6   69.73    2.42   0 
  -3   5   5  323.54    4.14   0 
  -4   3   5  208.35    3.63   0 
  -4   6   1   66.98    1.55   0 
  -5   2   1   13.24    1.63   0 
  -3   6   3  153.77    2.60   0 
  -5   3   1  316.51    3.85   0 
  -5   4   0   20.54    1.17   0 
  -4   5   3   38.17    1.59   0 
  -4   4   4  120.07    2.76   0 
  -5   2   0    7.34    1.35   0 
  -5   3   0  203.45    3.16   0 
  -5   4  -3   96.58    1.66   0 
  -4   3   4  217.00    3.75   0 
  -3   5   4  176.70    3.23   0 
  -5   2  -1   44.72    1.88   0 
  -4   5   2   73.02    2.09   0 
  -3   6   2  471.20    4.52   0 
  -5   2  -2  150.07    2.96   0 
  -5   3  -1   83.06    2.16   0 
  -5   3  -4   67.16    1.69   0 
  -5   3  -2   30.67    1.68   0 
  -4   4   3  431.90    5.03   0 
  -5   3  -3    7.47    1.11   0 
  -4   2   3  520.41    5.84   0 
  -4   3   3   72.47    2.53   0 
  -4   5   1  128.69    2.81   0 
  -3   5   3    9.77    1.71   0 
  -3   6   1  105.83    2.50   0 
   4  -4  -8  161.67    2.79   0 
   4   1  -6  447.68    5.49   0 
   3  -3  -9   14.63    1.76   0 
   5  -2  -7   26.60    1.39   0 
   5   0  -5   78.19    2.17   0 
   3  -4  -8  537.38    5.47   0 
   4  -5  -6  240.59    2.85   0 
   4  -1  -8  360.52    5.00   0 
   4   0  -7   48.58    2.26   0 
   4  -2  -8  497.59    5.53   0 
   4   1  -5  658.30    6.28   0 
   5  -4  -5  217.87    2.51   0 
   5  -3  -6  269.66    3.13   0 
   4  -4  -7   31.67    1.51   0 
   5  -2  -6   59.20    1.76   0 
   5   0  -4  268.43    3.62   0 
   3  -3  -8   19.80    1.72   0 
   5  -1  -5  136.81    2.64   0 
   4  -1  -7  256.93    4.18   0 
   4   0  -6   12.09    1.61   0 
   5  -4  -4  231.37    2.70   0 
   5   0  -3  574.19    5.11   0 
   3  -4  -7  131.42    2.99   0 
   4  -5  -5  193.77    2.65   0 
   4  -3  -7  348.37    4.36   0 
   5  -3  -5   71.01    1.77   0 
   5  -2  -5  125.58    2.42   0 
   4  -2  -7  260.87    4.07   0 
   4  -4  -6   27.82    1.51   0 
   5  -1  -4    9.76    1.21   0 
   5   0  -2   62.62    2.13   0 
   4  -1  -6  442.46    5.30   0 
   4   0  -5  211.22    3.71   0 
   5  -4  -3   88.74    1.78   0 
   5  -3  -4   33.46    1.40   0 
   5  -2  -4  263.92    3.53   0 
   4  -6  -1   60.24    1.36   0 
   4  -5  -4  163.49    2.58   0 
   4  -3  -6  297.02    4.10   0 
   4  -2  -6   81.39    2.48   0 
   5  -1  -3   46.36    1.79   0 
   3  -4  -6   66.80    2.29   0 
   5  -4  -2  120.11    2.14   0 
   4  -4  -5  213.93    3.32   0 
   5  -3  -3   33.01    1.44   0 
   5  -2  -3  163.65    2.86   0 
   4  -1  -5  618.12    6.16   0 
   5  -1  -2  151.13    2.88   0 
   4  -6   0   22.59    0.98   0 
   4  -5  -3   37.50    1.54   0 
   4  -3  -5  196.99    3.46   0 
   4  -2  -5  109.17    2.78   0 
   5  -4  -1   33.83    1.29   0 
   5  -3  -2  181.17    2.88   0 
   5  -1  -1  515.64    5.06   0 
   4  -6   1   88.38    1.61   0 
   5  -4   0   20.77    1.12   0 
   3  -4  -5   33.01    1.91   0 
   5  -1   0  331.62    4.21   0 
   4  -6   2   45.68    1.22   0 
   5  -4   1  106.44    2.03   0 
   5  -3  -1  287.85    3.63   0 
   4  -5  -2   63.68    1.93   0 
   4  -3  -4  210.06    3.61   0 
   4  -2  -4  590.08    5.94   0 
   5  -1   1   77.57    2.34   0 
   5  -4   2  176.25    2.39   0 
   5  -4   3  102.76    1.77   0 
   5  -4   4  124.88    1.64   0 
   5  -3   0  196.67    3.07   0 
   5  -2   0   14.09    1.37   0 
   5  -1   2   13.99    1.38   0 
   3  -5  -3   15.49    1.50   0 
   5  -3   1  103.79    2.41   0 
   5  -1   3   20.28    1.35   0 
   3  -4  -4   52.22    2.20   0 
   4  -5  -1  113.29    2.49   0 
   5  -2   1   50.52    1.91   0 
   4  -3  -3   72.76    2.40   0 
   4  -2  -3  498.41    5.49   0 
   5  -3   2   34.26    1.52   0 
   5  -3   5  175.19    2.14   0 
   5  -2   2  155.60    3.00   0 
   5  -2   5   24.92    1.21   0 
   4  -4  -2  190.45    3.44   0 
   5  -2   3  333.93    3.96   0 
   5  -2   4  128.85    2.43   0 
   4  -5   0  469.09    4.86   0 
   3  -5  -2   52.69    2.11   0 
   4  -3  -2  220.93    3.79   0 
   4  -4  -1  205.38    3.62   0 
   4  -2  -2  991.22    7.69   0 
   3  -6   1    9.40    1.28   0 
   3  -5  -1  130.98    2.96   0 
   4  -4   0    7.26    1.48   0 
   4  -3  -1  213.31    3.80   0 
   4  -2  -1   87.70    2.63   0 
   3  -6   2  107.75    2.56   0 
   4  -5   3    2.28    1.14   0 
   4  -5   7  125.07    1.75   0 
   4  -5   4  194.94    3.11   0 
   4  -5   5   72.70    1.88   0 
   4  -5   6  176.00    2.43   0 
   4  -4   1   70.92    2.44   0 
   4  -3   0  234.19    4.03   0 
   3  -6   3  235.84    3.50   0 
   4  -2   0   85.67    2.65   0 
   3  -5   0  259.65    4.08   0 
   4  -4   2  317.94    4.59   0 
   4  -4   9   82.54    1.33   0 
   3  -6   4  225.06    3.30   0 
   4  -3   1  368.14    5.03   0 
   4  -3  10   38.00    0.89   0 
   3  -6   5  124.41    2.43   0 
   3  -6   7   10.63    1.02   0 
   4  -4   3  222.50    3.91   0 
   4  -2  10  218.90    2.08   0 
   4  -1   2  310.61    4.59   0 
   3  -6   6  117.54    2.22   0 
   3  -5   1  264.42    4.18   0 
   4  -4   8  151.65    2.25   0 
   4  -3   2  253.87    4.30   0 
   4  -4   4  249.16    4.00   0 
   4  -4   7   15.35    1.33   0 
   4  -1   3   17.42    1.91   0 
   4  -4   5  123.76    2.82   0 
   4  -4   6   24.93    1.51   0 
   4  -3   9   38.58    1.36   0 
   4  -3   3   32.76    2.05   0 
   4  -2   3  297.76    4.82   0 
   4  -1   4   83.24    2.76   0 
   3  -5   2  582.22    6.11   0 
   4  -3   4   27.41    1.94   0 
   4  -2   9  190.32    2.61   0 
   4  -1   5  479.42    5.76   0 
   4  -2   4  374.03    5.22   0 
   4  -1   6  290.43    4.40   0 
   4  -1   7  356.99    4.49   0 
   4  -3   5   59.72    2.37   0 
   4  -3   6  233.51    3.93   0 
   4  -2   8   87.08    2.26   0 
   3  -5   3  145.90    3.34   0 
   4  -2   5  260.30    4.40   0 
   4  -2   6   30.21    1.97   0 
   4  -2   7  142.19    3.10   0 
   3  -5  10    1.62    0.61   0 
   3  -5   4   52.73    2.33   0 
   2  -6  10  103.67    1.64   0 
   3  -4  12   83.51    1.21   0 
   2  -6   5  287.36    4.21   0 
   3  -5   9   85.41    1.94   0 
   3  -5   7  151.46    3.13   0 
   3  -5   8  304.54    3.92   0 
   3  -2  13   49.79    1.01   0 
   2  -6   6  398.84    4.78   0 
   2  -6   9  118.74    2.15   0 
   2  -6   7   46.31    2.09   0 
   2  -6   8   16.88    1.49   0 
   3  -4   3  722.05    7.26   0 
   3  -4  11  126.26    2.03   0 
   3  -4   4  578.58    6.74   0 
   3  -4  10  382.57    4.24   0 
   3  -4   5  269.32    4.85   0 
   3  -4   6  105.02    3.28   0 
   3  -4   9  122.20    2.88   0 
   3  -2  12  119.60    2.02   0 
   1  -6  11  123.14    1.86   0 
   2  -5  12  103.06    1.72   0 
   2  -4  14   30.31    0.80   0 
   3  -4   7   49.54    2.47   0 
   3  -4   8  200.96    3.96   0 
   2  -5   4  161.80    3.93   0 
   3  -1  11   60.72    1.90   0 
   1  -6  10  111.68    2.27   0 
   2  -5  11   20.40    1.30   0 
   3  -3   5  285.05    5.06   0 
   3  -3  10   35.26    1.87   0 
   3  -2  11  366.17    4.22   0 
   2  -5   5   68.55    2.91   0 
   3  -3   6  418.56    6.13   0 
   3  -3   9  218.30    4.15   0 
   1  -6   9    9.09    1.35   0 
   2  -2  15   29.90    0.88   0 
   3  -3   7  174.98    4.22   0 
   3  -3   8  291.51    5.08   0 
   3  -2  10  219.87    3.90   0 
   3  -1  10  182.68    3.52   0 
   2  -5   6   94.66    3.22   0 
   2  -4  13   95.45    1.76   0 
   3  -1   9  187.22    3.92   0 
   2  -5   7  241.19    4.62   0 
   2  -5   8  466.21    6.03   0 
   3  -2   7   26.48    2.35   0 
   3  -2   8   47.19    2.61   0 
   3  -2   9  519.28    6.32   0 
   3  -1   8  234.79    4.56   0 
   2  -3  14  176.26    2.21   0 
   2  -4  12  296.57    3.66   0 
   1  -4  15   42.37    1.02   0 
   2  -2  14    1.32    0.69   0 
   2  -1  14  187.87    2.40   0 
   1  -3  16  124.28    1.55   0 
   2  -4  11  238.57    3.87   0 
   2  -3  13  168.76    2.63   0 
   1  -5  12   17.30    1.42   0 
   2  -4  10  648.02    6.89   0 
   0  -5  14   89.11    1.42   0 
   2  -4   7  156.57    4.09   0 
   2  -4   8    4.53    1.97   0 
   2  -4   9   12.98    1.97   0 
   1  -5  11  116.32    2.81   0 
   2  -3  12  110.53    2.65   0 
   2  -2  13  161.74    2.74   0 
   1  -4  14   67.64    1.60   0 
   2  -1  13  165.53    2.70   0 
   1  -5   7  526.05    6.61   0 
   1  -5  10  499.36    5.92   0 
   1  -2  16   77.24    1.45   0 
   2  -3  11   67.74    2.55   0 
   1  -5   8  402.86    5.87   0 
   1  -5   9  332.82    5.23   0 
   1  -1  16  127.67    1.84   0 
   2  -2  12  332.20    4.56   0 
   0  -5  13   10.67    1.10   0 
   1  -3  15  157.44    2.25   0 
   2  -3  10  141.31    3.74   0 
   1  -4  13  160.78    2.83   0 
   2  -3   9  224.80    4.73   0 
   2  -1  12   50.20    2.05   0 
   2  -2  11  647.74    6.86   0 
   2  -1  11   63.86    2.76   0 
   0  -5  12  175.23    2.99   0 
   0  -4  15   24.17    1.04   0 
   1  -4  12  409.33    5.05   0 
   1  -3  14  213.95    3.05   0 
   0  -5  11  152.34    3.37   0 
   0  -3  16  186.73    2.32   0 
   1  -4  11  358.97    5.30   0 
   1  -1  15  364.53    3.67   0 
   0  -5  10  413.38    5.46   0 
   0  -1  17  156.73    1.82   0 
   0  -5   9  481.69    6.11   0 
   0  -4  14   41.23    1.53   0 
   1  -3  13   86.79    2.41   0 
  -1  -5  12  158.20    2.65   0 
  -1  -4  15  161.78    2.13   0 
   1   0  14   61.96    1.98   0 
   1  -3  12    6.14    1.50   0 
   1  -1  14  370.76    4.11   0 
   0  -3  15  283.51    3.38   0 
   0  -2  16   15.97    1.14   0 
   1  -3  11  113.54    3.30   0 
   1  -2  13  316.95    4.30   0 
  -1  -3  16  210.84    2.40   0 
  -1  -2  17   46.38    1.15   0 
   1  -3  10  640.47    7.35   0 
  -1  -4  14  284.93    3.23   0 
   0  -1  16  307.67    3.25   0 
   0   0  16   81.04    1.68   0 
   1  -2  12  172.95    3.56   0 
   1  -1  13  268.19    3.85   0 
   1   0  13  225.41    3.35   0 
   0  -3  14  125.31    2.62   0 
   0  -4  11  309.22    4.91   0 
   0  -2  15   80.65    2.19   0 
  -2  -4  14  164.84    2.10   0 
   1  -2  11  683.42    7.06   0 
   1  -1  12  168.73    3.37   0 
  -2  -2  17    4.56    0.47   0 
   0  -4  10  147.09    3.77   0 
   1   0  12  461.40    5.00   0 
  -1  -4  13  477.19    4.68   0 
  -1   0  17    2.29    0.62   0 
   0  -3  13  141.03    3.03   0 
  -4   3  -9   47.86    1.60   0 
  -4   4  -6   21.82    1.57   0 
  -4   4  -5  131.12    3.02   0 
  -4   1  -4   81.31    3.10   0 
  -4   2  -3  299.75    5.10   0 
  -4   3  -3   30.86    2.17   0 
  -4   1  -7  272.29    4.68   0 
  -4   1  -5  439.66    6.21   0 
  -4   2  -9  222.78    3.13   0 
  -4   3  -4   27.75    2.12   0 
  -3   5  -2  558.76    6.00   0 
  -4   1  -6  262.46    4.76   0 
  -4   2  -4  390.60    5.79   0 
  -4   2  -8   97.41    2.66   0 
  -4   3  -6  212.69    4.04   0 
  -4   3  -5   71.07    2.73   0 
  -4   2  -7  109.13    3.12   0 
  -4   2  -6   22.31    2.10   0 
  -4   2  -5  217.52    4.46   0 
  -3   5  -3  149.01    3.36   0 
  -3   5 -10    3.74    0.68   0 
  -3   5  -4   57.84    2.39   0 
  -3   4 -12   81.90    1.25   0 
  -2   6 -10   95.71    1.55   0 
  -3   5  -9   90.54    1.98   0 
  -3   2 -13   58.76    1.17   0 
  -3   5  -8  309.89    3.91   0 
  -3   5  -7  161.76    3.19   0 
  -2   6  -5  300.56    4.03   0 
  -2   6  -9  127.61    2.13   0 
  -2   6  -6  425.31    4.73   0 
  -3   4  -3  702.78    7.17   0 
  -2   6  -8   17.81    1.42   0 
  -2   6  -7   60.12    2.11   0 
  -3   4 -11  102.04    1.88   0 
  -3   4  -4  644.41    7.07   0 
  -3   4 -10  412.81    4.43   0 
  -3   4  -5  272.70    4.85   0 
  -3   2 -12  113.93    2.12   0 
  -3   4  -9  134.34    3.01   0 
  -3   4  -8  198.20    3.95   0 
  -3   4  -7   53.14    2.51   0 
  -3   4  -6  108.31    3.31   0 
  -2   4 -14   29.73    0.84   0 
  -2   5 -12  102.47    1.66   0 
  -1   6 -11  125.34    1.80   0 
  -2   5  -4  158.94    3.72   0 
  -3   1 -11   54.93    2.06   0 
  -3   2 -11  384.24    4.63   0 
  -3   3 -10   30.21    1.88   0 
  -3   3  -5  290.25    5.22   0 
  -2   5 -11   14.43    1.14   0 
  -1   6 -10  124.86    2.25   0 
  -3   1 -10  204.80    4.22   0 
  -3   3  -9  211.30    4.23   0 
  -3   3  -6  377.32    5.96   0 
  -2   5  -5   55.98    2.56   0 
  -3   2 -10  234.55    4.30   0 
  -3   3  -8  256.27    4.95   0 
  -3   3  -7  156.70    4.13   0 
  -2   2 -15   33.08    0.97   0 
  -1   6  -9    9.22    1.27   0 
  -3   1  -9  163.21    4.07   0 
  -2   4 -13   80.43    1.69   0 
  -2   5  -6  101.85    3.16   0 
  -3   1  -8  173.45    4.41   0 
  -3   2  -9  420.56    6.10   0 
  -3   2  -8   46.02    2.79   0 
  -3   2  -7   20.76    2.42   0 
  -2   5  -8  467.94    5.83   0 
  -2   5  -7  281.58    4.75   0 
  -2   3 -14  173.76    2.27   0 
  -2   4 -12  316.21    3.76   0 
  -2   1 -14  220.25    2.76   0 
  -2   2 -14    0.61    0.75   0 
  -1   4 -15   40.72    1.01   0 
  -2   3 -13  166.93    2.71   0 
  -2   4 -11  236.11    3.85   0 
  -1   3 -16  131.65    1.66   0 
  -1   5 -12   14.66    1.30   0 
  -2   4 -10  612.76    6.65   0 
  -2   4  -9   11.44    1.90   0 
  -2   4  -8    3.20    1.81   0 
  -2   4  -7  148.41    3.93   0 
   0   5 -14   84.48    1.38   0 
  -2   2 -13  176.19    3.00   0 
  -2   3 -12  118.76    2.80   0 
  -1   5 -11  126.21    2.77   0 
  -2   1 -13  161.57    2.90   0 
  -1   4 -14   72.80    1.63   0 
  -2   3 -11   68.62    2.62   0 
  -1   2 -16   68.45    1.43   0 
  -1   5 -10  470.49    5.50   0 
  -1   5  -7  497.11    6.12   0 
  -1   1 -16  137.12    1.94   0 
  -1   5  -9  375.22    5.26   0 
  -1   5  -8  412.99    5.64   0 
  -2   2 -12  350.95    4.83   0 
  -2   3 -10  138.51    3.76   0 
  -1   3 -15  163.38    2.32   0 
   0   5 -13   13.52    1.10   0 
  -2   1 -12   41.65    2.15   0 
  -2   3  -9  213.67    4.68   0 
  -1   4 -13  143.61    2.62   0 
  -2   2 -11  631.56    7.09   0 
  -2   1 -11   64.65    3.05   0 
  -1   4 -12  389.81    4.80   0 
   0   4 -15   25.64    1.05   0 
   0   5 -12  164.37    2.80   0 
  -1   3 -14  209.86    3.05   0 
   1   5 -13   11.99    0.87   0 
  -1   1 -15  370.35    3.85   0 
  -1   4 -11  383.98    5.30   0 
   0   3 -16  182.15    2.34   0 
   0   5 -11  142.57    2.99   0 
   0   1 -17  150.46    1.84   0 
   0   5 -10  422.28    5.25   0 
  -1   3 -13   89.71    2.45   0 
   0   4 -14   46.30    1.56   0 
   0   5  -9  528.76    6.05   0 
   1   5 -12  158.35    2.60   0 
  -1   0 -14   63.24    2.16   0 
   1   4 -15  154.27    2.13   0 
  -1   1 -14  395.94    4.48   0 
  -1   3 -12    7.24    1.53   0 
   0   3 -15  268.94    3.34   0 
  -1   2 -13  314.85    4.46   0 
  -1   3 -11  104.31    3.21   0 
   0   2 -16   19.74    1.16   0 
  -1   3 -10  722.26    7.80   0 
   1   2 -17   50.44    1.22   0 
   1   3 -16  222.62    2.56   0 
  -1   0 -13  237.39    3.76   0 
  -1   1 -13  261.10    4.08   0 
  -1   2 -12  178.30    3.76   0 
   0   0 -16   81.55    1.73   0 
   0   1 -16  325.61    3.48   0 
   1   4 -14  276.33    3.23   0 
   0   3 -14  116.53    2.54   0 
   0   4 -11  255.03    4.37   0 
  -1   1 -12  188.20    3.82   0 
  -1   2 -11  628.81    7.04   0 
   0   2 -15   79.05    2.17   0 
   2   4 -14  173.24    2.18   0 
  -1   0 -12  492.55    5.66   0 
   0   4 -10  129.77    3.48   0 
   2   2 -17    5.21    0.50   0 
   0   3 -13  146.46    3.05   0 
   1   0 -17    3.17    0.68   0 
   1   4 -13  444.46    4.53   0 
   0   1 -15  271.50    3.78   0 
   1   3 -15  194.12    2.88   0 
   0   0 -15   21.61    1.44   0 
   0   2 -14  261.07    3.87   0 
   1   2 -16    7.27    0.88   0 
   0   3 -12   39.65    2.05   0 
   1   4 -12   12.53    1.44   0 
   2   4 -13  277.22    3.19   0 
   2   1 -17  175.63    1.95   0 
   0   3 -11  189.63    3.86   0 
   1   3 -14   71.89    2.11   0 
   1   4 -11  420.27    5.10   0 
   0   1 -14  154.21    3.15   0 
   0   2 -13  355.18    4.66   0 
   1  -1 -16  213.34    2.52   0 
   1   1 -16  196.86    2.72   0 
   0   0 -14  190.82    3.37   0 
   1   2 -15   84.62    2.17   0 
   2   0 -17   37.69    0.95   0 
   2   2 -16  153.85    2.15   0 
   2   4 -12   19.26    1.34   0 
   1   0 -16    6.84    0.94   0 
   1   4 -10  138.34    3.33   0 
   0   2 -12  915.23    7.53   0 
   1   3 -13    7.80    1.31   0 
   3   3 -14  103.27    1.66   0 
   2   3 -14    5.82    1.02   0 
   2   4 -11   16.27    1.64   0 
   0   0 -13 1526.10    9.14   0 
   1   1 -15  261.87    3.59   0 
   1   2 -14  447.17    5.11   0 
   2   1 -16  197.06    2.63   0 
   1  -1 -15  258.91    3.27   0 
   2   2 -15  166.41    2.60   0 
   3   1 -16   75.26    1.29   0 
   1   0 -15  566.87    4.94   0 
   2  -1 -16  180.23    2.22   0 
   2   3 -13   28.25    1.53   0 
   3   3 -13  350.89    3.37   0 
   1   3 -11  708.30    6.56   0 
   1   2 -13  129.60    2.97   0 
   3  -1 -16   91.63    1.34   0 
   1   1 -14   79.07    2.41   0 
   3   0 -16  116.12    1.60   0 
   2   2 -14  646.54    5.49   0 
   2   1 -15  116.17    2.34   0 
   2   3 -12  463.67    4.94   0 
   4   2 -13   42.64    1.07   0 
   1  -1 -14   73.23    2.19   0 
   1   0 -14  129.91    2.82   0 
   1   2 -12  947.42    7.40   0 
   2  -2 -15  187.05    2.30   0 
   3   3 -12  195.62    2.82   0 
   3   1 -15   12.84    0.87   0 
   1   1 -13  137.90    3.14   0 
   2  -1 -15  102.82    2.09   0 
   2   3 -11  665.26    6.01   0 
   3  -2 -15  188.67    1.97   0 
   2   2 -13  464.76    5.07   0 
   3   3 -11  342.04    3.95   0 
   2   1 -14   36.64    1.64   0 
   3   0 -15  253.27    2.75   0 
   1   0 -13  822.10    6.93   0 
   2   3 -10  316.58    4.29   0 
   4   2 -12   71.70    1.55   0 
   1  -1 -13  136.00    2.84   0 
   2   2 -12  328.82    4.45   0 
   3   1 -14   22.98    1.20   0 
   3   3 -10  225.68    3.44   0 
   2  -2 -14  597.25    4.65   0 
   2   0 -14  368.34    4.36   0 
   4   0 -14  161.00    1.92   0 
   2  -1 -14   37.34    1.67   0 
   2   1 -13  169.19    3.15   0 
   3   2 -12   -0.28    1.03   0 
   4  -1 -14  134.67    1.68   0 
   3   0 -14  345.24    3.62   0 
   4   2 -11   55.00    1.51   0 
   3  -2 -14  136.53    2.08   0 
   3   1 -13  207.58    3.14   0 
   5   1 -10    2.09    0.57   0 
   2   0 -13  243.20    3.69   0 
   2  -2 -13  422.52    4.37   0 
   2   1 -12  273.97    4.10   0 
   3  -3 -13  331.60    3.01   0 
   3   2 -11   17.63    1.45   0 
   4   0 -13    1.98    0.72   0 
   2  -1 -13  196.82    3.40   0 
   4   2 -10  120.42    2.26   0 
   5   0 -11  155.71    1.66   0 
   3   0 -13   75.88    2.07   0 
   3   1 -12  767.06    6.25   0 
   4  -1 -13  105.31    1.84   0 
   5   1  -9   19.07    0.93   0 
   2   0 -12   51.68    2.02   0 
   3  -2 -13  147.78    2.48   0 
   3  -1 -13  200.71    3.02   0 
   3   2 -10  297.05    4.12   0 
   4  -3 -12  146.14    1.78   0 
   4   1 -11  370.32    3.94   0 
   4   2  -9  343.97    3.85   0 
   5  -1 -11   20.73    0.71   0 
   2  -2 -12  364.37    4.51   0 
   2  -1 -12  247.13    4.00   0 
   4   0 -12   18.41    1.16   0 
   5   0 -10  168.82    2.01   0 
  -1   2 -11  614.65    6.42   0 
  -1   3 -11   98.58    2.87   0 
  -1   5  -8  443.06    5.92   0 
   0   2 -14  238.96    3.44   0 
   0   3 -14  122.54    2.57   0 
  -1   4 -10  367.55    5.20   0 
  -1   5  -7  502.01    6.37   0 
   0   6 -10  108.02    2.35   0 
   1   5 -14   28.54    1.01   0 
   0   5 -12  160.92    2.74   0 
  -1   3 -10  722.61    7.28   0 
  -1   4  -9   31.57    2.22   0 
   0   4 -13  502.31    5.07   0 
   0   6  -9   31.40    1.74   0 
   1   2 -15   77.16    1.83   0 
   1   3 -15  194.96    2.69   0 
   0   2 -13  381.51    4.77   0 
   0   5 -11  137.61    2.89   0 
   0   6  -8  242.61    3.91   0 
   2   4 -15  180.63    1.86   0 
   2   5 -14   37.79    0.91   0 
   0   4 -12  603.07    5.82   0 
   0   6  -7  268.83    4.26   0 
   1   4 -14  287.57    3.24   0 
   1   5 -13   12.40    1.03   0 
   0   5 -10  404.23    4.89   0 
   0   2 -12  963.89    7.67   0 
   2   3 -15   17.39    0.90   0 
   0   4 -11  244.22    3.91   0 
   1   2 -14  421.36    4.38   0 
   1   3 -14   70.90    1.95   0 
   1   6 -10   24.58    1.34   0 
   1   5 -12  167.33    2.81   0 
   1   4 -13  478.79    4.79   0 
   2   5 -13   63.09    1.43   0 
   1   6  -9  170.61    3.03   0 
   0   3 -11  185.80    3.55   0 
   0   4 -10  119.26    2.95   0 
   0   5  -8   68.53    2.59   0 
   1   3 -13    7.44    1.24   0 
   1   5 -11  211.78    3.31   0 
   1   6  -8  208.83    3.39   0 
   1   2 -13  120.95    2.63   0 
   2   3 -14    5.78    1.16   0 
   2   6 -10   24.26    1.13   0 
   3   6 -10   92.22    1.33   0 
   1   4 -12   15.43    1.46   0 
   2   5 -12  170.45    2.53   0 
   1   6  -7  513.37    5.35   0 
   2   2 -14  609.51    4.74   0 
   3   3 -14  103.58    1.65   0 
   3   5 -12  109.98    1.61   0 
   1   5 -10  176.13    3.15   0 
   1   6  -6  193.86    3.66   0 
   2   4 -13  277.30    3.26   0 
   2   6  -9  235.70    3.00   0 
   3   2 -14  128.21    1.90   0 
   3   4 -13   92.98    1.58   0 
   3   6  -9  162.24    1.97   0 
   1   2 -12  955.22    7.06   0 
   1   4 -11  412.06    4.95   0 
   2   6  -8  209.29    3.01   0 
   4   4 -12    1.21    0.39   0 
   2   3 -13   31.11    1.56   0 
   2   4 -12   21.79    1.38   0 
   3   5 -11  275.12    2.81   0 
   3   6  -8  224.71    2.54   0 
   4   2 -13   40.17    0.94   0 
   4   5 -10   38.56    0.84   0 
   1   3 -11  799.77    6.99   0 
   1   4 -10  134.09    2.98   0 
   1   5  -8  334.64    4.47   0 
   2   2 -13  479.91    4.82   0 
   2   6  -7  402.26    4.31   0 
   2   5 -10  374.26    4.26   0 
   3   3 -13  335.85    3.26   0 
   3   4 -12   59.90    1.56   0 
   1   5  -7  159.21    3.33   0 
   2   6  -6  326.77    4.05   0 
   3   6  -7  161.31    2.30   0 
   2   4 -11   20.29    1.50   0 
   3   2 -13  158.30    2.40   0 
   3   5 -10   85.83    1.88   0 
   2   5  -9  326.69    4.25   0 
   3   6  -6   14.59    1.20   0 
   4   3 -12  160.91    2.02   0 
   4   4 -11  138.13    1.79   0 
   4   5  -9   51.82    1.19   0 
   2   2 -12  329.19    4.28   0 
   3   4 -11   76.31    1.94   0 
   3   6  -5    1.17    0.94   0 
   2   4 -10   63.70    2.26   0 
   3   5  -9   12.80    1.15   0 
   4   2 -12   73.81    1.60   0 
   2   3 -11  656.98    5.98   0 
   3   2 -12   -0.51    0.96   0 
   4   4 -10  154.03    2.18   0 
   2   2 -11  114.75    2.76   0 
   2   5  -7  126.09    2.91   0 
   2   4  -9  407.06    5.11   0 
   3   4 -10  161.61    2.93   0 
   5   2 -10  298.98    2.19   0 
   2   3 -10  323.98    4.52   0 
   3   3 -11  346.97    4.25   0 
   4   5  -7  155.82    2.28   0 
   2   5  -6  279.04    4.22   0 
   5   1 -10    2.67    0.56   0 
   5   3  -9    9.96    0.62   0 
   5   4  -7    4.62    0.59   0 
   3   5  -7  291.65    3.92   0 
   4   4  -9  192.65    2.69   0 
   4   2 -11   56.86    1.68   0 
   4   5  -6  243.56    2.96   0 
   2   4  -8  632.49    6.30   0 
   2   5  -5  873.19    7.29   0 
   3   2 -11   20.10    1.52   0 
   3   4  -9  568.88    5.61   0 
   4   1 -11  367.04    3.73   0 
   3   1 -11  196.86    3.18   0 
   4   3 -10   33.19    1.42   0 
   3   3 -10  231.16    3.75   0 
   3   5  -6  233.54    3.65   0 
   4   5  -5  189.31    2.82   0 
   5   4  -6    1.03    0.55   0 
   4   4  -8  163.49    2.69   0 
   5   3  -8  141.19    1.89   0 
   3   4  -8  500.84    5.50   0 
   5   2  -9  188.44    2.15   0 
   3   5  -5  327.05    4.36   0 
   4   5  -4  154.13    2.56   0 
   3   2 -10  274.47    4.12   0 
   4   2 -10  111.76    2.41   0 
   4   3  -9   17.54    1.31   0 
   3   3  -9   10.94    1.48   0 
   3   5  -4  187.07    3.56   0 
   4   5  -3   36.98    1.50   0 
   5   1  -9   16.98    0.89   0 
   4   1 -10  124.06    2.63   0 
   4   4  -7   29.09    1.50   0 
   3   1 -10  137.97    2.90   0 
   3   4  -7  111.21    2.86   0 
   5   3  -7  272.17    2.83   0 
   5   4  -4  215.31    2.44   0 
   3   5  -3   10.13    1.57   0 
   5   4  -3   71.79    1.53   0 
   3   3  -8   17.56    1.60   0 
   4   3  -8  130.52    2.70   0 
   4   4  -6   31.74    1.61   0 
   5   3  -6  305.90    3.14   0 
   5   4  -2  109.29    1.79   0 
   5   4  -1   37.89    1.19   0 
   5   0  -8   76.10    1.56   0 
   5   1  -8   82.69    1.69   0 
   4   1  -9   37.85    1.89   0 
   5   2  -7   23.96    1.15   0 
   3   3  -7  152.21    3.18   0 
   3   4  -5   41.91    2.00   0 
   4   3  -7  362.66    4.35   0 
   5   3  -5   65.01    1.64   0 
   4   4  -4  141.21    2.82   0 
   3   4  -4   47.91    2.06   0 
   5   1  -7  352.11    3.39   0 
   4   3  -6  298.00    3.95   0 
   4   4  -3  480.13    4.91   0 
   5   2  -6   58.97    1.60   0 
   5   3  -4   42.07    1.42   0 
   4   1  -8  377.92    4.32   0 
   5   0  -7    7.00    0.82   0 
   4   2  -7  294.75    3.93   0 
   4   0  -8  266.90    3.49   0 
   4   4  -2  235.58    3.43   0 
   5   3  -3   37.36    1.39   0 
   4   3  -5  215.11    3.38   0 
   5   2  -5  118.13    2.15   0 
   4   4  -1  202.67    3.14   0 
   4   4   0    7.14    1.16   0 
   4   1  -7  295.38    3.81   0 
   5   0  -6   44.12    1.43   0 
   5   3  -1  312.16    3.27   0 
   4   2  -6   85.66    2.14   0 
   4   3  -4  227.97    3.41   0 
   5   2  -4  286.85    3.24   0 
   5   3   0  206.37    2.63   0 
   5   3   1   86.44    1.70   0 
   5   3   2   31.53    1.07   0 
   4   0  -7   48.69    1.77   0 
   5   1  -5  121.87    2.17   0 
   4   2  -5  130.80    2.63   0 
   5   2  -3  155.18    2.47   0 
   5  -1  -5  125.46    1.99   0 
   5   0  -5   68.52    1.63   0 
   5   1  -4    7.01    0.91   0 
   4   3  -2  199.92    3.19   0 
   5   2  -2   48.96    1.54   0 
   4   0  -6   15.56    1.46   0 
   4   2  -4  582.05    5.23   0 
   5   2  -1   13.16    1.06   0 
   4   3  -1  185.09    3.09   0 
   5   0  -4  250.64    2.97   0 
   5   1  -3   39.69    1.42   0 
   5   2   5   27.80    0.85   0 
   5  -1  -4    9.52    0.89   0 
   5   2   0    7.01    0.97   0 
   4   3   0  217.61    3.36   0 
   4   2  -3  475.28    4.77   0 
   5   2   4  125.91    1.81   0 
   4   3   1  409.08    4.42   0 
   5  -2  -3  152.43    2.14   0 
   5   1  -2  164.19    2.63   0 
   5   2   2  161.30    2.46   0 
   5   2   3  319.94    3.14   0 
   4   0  -5  206.81    3.17   0 
   4   3   2  263.71    3.57   0 
   4   3   3   28.95    1.67   0 
   4  -1  -5  604.26    5.01   0 
   4   1  -4   36.90    1.52   0 
   5  -1  -3   40.95    1.40   0 
   4   2  -2 1094.05    7.30   0 
   5   1  -1  464.45    4.41   0 
   5   0  -2   61.07    1.77   0 
   5   1   0  306.59    3.73   0 
   4   2  -1   88.73    2.45   0 
   5  -2  -2   57.59    1.54   0 
   5   1   6  197.45    2.02   0 
   5  -1  -2  140.86    2.42   0 
   5   1   1   54.16    1.81   0 
   5   0  -1   43.93    1.65   0 
   5   1   2   18.13    1.46   0 
   5   1   5  219.30    2.62   0 
   5   1   4   48.91    1.56   0 
   5  -3   0  188.70    2.35   0 
   5  -2  -1   12.45    1.19   0 
   4   2   1  246.99    3.83   0 
   5   0   0    7.84    1.14   0 
   5   0   7  275.44    2.26   0 
   4   2   2  251.69    3.84   0 
   5   0   1  236.89    3.41   0 
   4   2   3  275.55    4.05   0 
   5  -3   1   94.12    1.73   0 
   5  -2   0   11.62    1.06   0 
   4   2   4  368.51    4.33   0 
   4   2   5  244.21    3.39   0 
   5   0   2  590.32    5.23   0 
  -4   2   1   81.06    3.17   0 
  -4   6   0   20.36    1.29   0 
  -3   4   6   60.47    2.40   0 
  -4   2   0   83.56    3.47   0 
  -4   4   3  432.67    5.44   0 
  -4   5  -5   88.02    1.66   0 
  -4   6  -2   32.61    1.26   0 
  -4   6  -1   78.80    1.85   0 
  -4   2  -1  214.09    4.85   0 
  -4   3   2  258.02    4.90   0 
  -4   5   2   73.14    2.33   0 
  -4   4   2  245.32    4.54   0 
  -4   5  -4  214.36    3.19   0 
  -4   5   1  125.71    3.11   0 
  -3   5   5  323.46    4.42   0 
  -3   7   2   10.33    0.99   0 
  -3   6   4  235.59    3.45   0 
  -4   3  -3   27.83    2.52   0 
  -4   3  -1  392.88    6.55   0 
  -4   3   0  239.55    5.11   0 
  -4   4  -4  280.00    4.47   0 
  -4   4   1  218.89    4.51   0 
  -4   5  -3    2.79    1.31   0 
  -4   5   0  421.55    5.37   0 
  -3   4   5   39.63    2.14   0 
  -4   3  -2  210.83    4.84   0 
  -4   4   0    4.60    1.94   0 
  -4   5  -1  205.13    3.85   0 
  -4   4  -3  202.73    4.19   0 
  -4   4  -2  248.58    4.94   0 
  -3   5   4  186.60    3.62   0 
  -3   6   3  165.70    3.14   0 
  -3   7   0  171.82    2.79   0 
  -2   8   0   51.75    1.25   0 
  -3   7  -1  196.95    2.95   0 
  -2   7   3  172.98    2.62   0 
  -3   7  -4    8.04    0.82   0 
  -3   7  -2  190.80    2.85   0 
  -3   7  -3    6.29    0.90   0 
  -2   8  -1   71.11    1.43   0 
  -3   6  -7    9.94    0.91   0 
  -2   6   4   67.30    2.14   0 
  -3   6   1   99.08    2.74   0 
  -2   8  -2   39.14    1.16   0 
  -3   5   2   60.17    2.48   0 
  -2   7   2  110.96    2.34   0 
  -3   6  -6  143.40    2.43   0 
  -3   6   0  134.85    3.19   0 
  -3   5   1  147.56    3.61   0 
  -3   6  -1    8.18    1.53   0 
  -2   6   3  204.66    3.51   0 
  -3   5  -7  194.76    3.08   0 
  -3   6  -4  206.14    3.63   0 
  -3   6  -3  203.23    3.88   0 
  -3   6  -2  103.51    2.91   0 
  -2   7   1   25.94    1.53   0 
  -3   5   0  313.81    5.22   0 
  -2   7  -8  179.70    1.85   0 
  -3   5  -6  461.79    5.38   0 
  -3   5  -1  292.51    5.18   0 
  -2   7   0  185.65    3.31   0 
  -1   8  -1   78.64    1.77   0 
  -3   5  -5   43.10    2.39   0 
  -3   5  -2  549.27    7.03   0 
  -2   6   2  325.75    4.59   0 
  -3   4  -6  132.13    3.56   0 
  -3   5  -3  125.32    3.78   0 
  -3   4  -5  260.81    5.12   0 
  -2   7  -7   88.84    1.78   0 
  -1   8  -2   41.78    1.55   0 
  -3   4  -4  461.59    6.85   0 
  -3   4  -3  595.65    7.75   0 
  -2   6   1  465.27    5.70   0 
  -2   7  -6   83.20    2.04   0 
  -2   7  -2  285.15    4.23   0 
  -1   8  -6  162.74    2.08   0 
  -1   8  -3   22.00    1.34   0 
  -2   6  -9  127.39    2.03   0 
  -2   7  -5   56.51    1.97   0 
  -2   7  -4   67.29    2.38   0 
  -2   7  -3  146.99    3.17   0 
  -1   7   1   90.05    2.49   0 
  -1   8  -5  204.00    2.57   0 
  -2   6  -8   20.02    1.37   0 
   0   8  -2   89.31    1.83   0 
  -2   6  -1    9.33    1.80   0 
  -1   7   0  133.26    2.92   0 
  -2   5  -9  210.29    3.22   0 
  -2   6  -2   25.55    2.14   0 
  -1   7  -9  174.49    2.20   0 
   0   8  -3    8.91    1.10   0 
  -2   6  -6  436.75    5.49   0 
  -2   6  -3   75.54    2.91   0 
  -1   7  -1  185.00    3.58   0 
   0   8  -7  141.46    1.84   0 
  -2   6  -5  262.33    4.59   0 
  -2   6  -4  333.29    5.27   0 
  -1   6 -11  120.45    1.74   0 
   0   8  -4    4.16    1.03   0 
  -2   5  -8  528.57    5.65   0 
  -1   6   1  846.06    6.93   0 
   0   8  -5  110.10    1.96   0 
  -1   7  -8  223.86    2.90   0 
  -1   7  -2  325.09    4.54   0 
  -2   5  -7  303.01    4.82   0 
  -1   7  -7  166.58    2.89   0 
   1   8  -5   57.72    1.26   0 
  -2   4  -8    3.09    1.77   0 
  -2   5  -6  104.28    3.31   0 
  -2   5  -4  123.22    3.66   0 
  -2   5  -3  260.61    4.75   0 
  -1   6   0  232.31    4.07   0 
  -1   7  -6   52.32    1.97   0 
  -1   7  -4  156.56    3.32   0 
  -1   6 -10  120.55    2.09   0 
  -1   7  -5   36.30    1.89   0 
  -2   4  -7  157.97    3.91   0 
   0   7 -10  157.04    1.94   0 
   0   7  -1   12.86    1.41   0 
  -1   5 -11  113.64    2.19   0 
  -1   6  -1  418.99    5.40   0 
   0   6 -12  231.18    2.26   0 
   0   7  -2  375.96    4.71   0 
  -1   6  -8  130.70    3.00   0 
   0   7  -9  221.25    2.76   0 
  -1   6  -3  223.29    4.40   0 
  -1   5 -10  442.36    4.64   0 
  -1   6  -7  170.17    3.69   0 
   0   5 -13   14.35    0.96   0 
   0   7  -8  259.96    3.43   0 
   0   7  -3  622.46    6.12   0 
  -1   6  -6  410.38    5.73   0 
  -1   6  -5  131.18    3.60   0 
  -1   6  -4  254.88    4.59   0 
   0   7  -7   16.80    1.42   0 
   0   7  -6   40.85    2.14   0 
   0   7  -4  277.98    4.30   0 
  -1   5  -9  408.77    5.18   0 
   0   6 -11  118.29    2.05   0 
   1   7 -10  301.17    2.67   0 
  -1   4 -10  366.71    4.69   0 
  -1   5  -8  452.08    5.83   0 
   1   7  -9  117.61    2.06   0 
   1   7  -3  145.03    2.82   0 
   0   5 -12  165.54    2.57   0 
   0   6 -10  108.17    2.34   0 
  -1   5  -6    2.33    1.83   0 
   1   7  -8  102.06    2.21   0 
   1   7  -4  297.00    4.02   0 
  -1   4  -9   30.27    2.12   0 
   0   6  -2   21.14    2.00   0 
   1   7  -5  313.49    4.28   0 
   0   6  -9   29.48    1.70   0 
   1   7  -6  109.81    2.61   0 
   2   7  -8   22.66    1.13   0 
   0   6  -3   46.49    2.39   0 
   2   7  -5  329.63    3.47   0 
   0   5 -11  135.44    2.70   0 
   0   6  -8  245.99    4.15   0 
   2   7  -7    3.48    0.89   0 
   2   7  -6   35.18    1.41   0 
   0   6  -7  263.13    4.55   0 
   1   6 -11   35.16    1.30   0 
   2   6 -12   85.68    1.33   0 
   0   6  -6  428.05    5.85   0 
   0   6  -5  641.90    7.10   0 
   1   5 -13   12.90    0.95   0 
   0   4 -12  562.11    4.85   0 
   0   5 -10  413.48    4.82   0 
   1   4 -14  273.91    2.64   0 
   1   6 -10   28.19    1.44   0 
   1   6  -2  273.17    4.10   0 
   2   6 -11    1.81    0.65   0 
   0   4 -11  241.62    3.58   0 
   1   5 -12  164.07    2.60   0 
   1   6  -9  164.92    3.11   0 
   1   6  -3  437.79    5.34   0 
   0   5  -8   71.62    2.71   0 
   1   6  -8  221.28    3.85   0 
   0   5  -7   62.04    2.66   0 
   1   6  -4   93.31    2.89   0 
   2   6 -10   26.06    1.25   0 
   1   4 -13  470.58    4.36   0 
   1   6  -7  517.01    6.02   0 
   1   6  -5  170.61    3.74   0 
   0   4 -10  118.26    2.91   0 
   2   4 -14  175.28    2.11   0 
   2   6  -9  244.02    3.36   0 
   3   6  -8  219.59    2.75   0 
   2   6  -4   72.51    2.54   0 
   3   4 -14   81.66    1.13   0 
   3   6  -7  149.86    2.50   0 
   3   6  -5    0.38    0.95   0 
   2   5 -12  170.25    2.50   0 
   2   6  -8  218.20    3.49   0 
   3   5 -12  116.79    1.69   0 
   3   6  -6   12.79    1.13   0 
   1   5 -10  186.32    3.36   0 
   2   6  -6  323.78    4.52   0 
   2   6  -5    2.06    1.40   0 
   1   4 -12   10.79    1.26   0 
   1   5  -9  365.46    4.96   0 
   2   5 -11  269.88    3.45   0 
   4   5  -9   52.52    1.21   0 
   2   4 -13  297.62    3.33   0 
   3   5 -11  278.73    2.92   0 
   1   5  -8  363.49    5.20   0 
   1   4 -11  400.90    4.64   0 
   1   5  -7  159.88    3.74   0 
   2   3 -14    6.07    0.85   0 
   3   4 -13   97.25    1.69   0 
   4   4 -12    0.46    0.39   0 
   4   5  -8   35.62    1.13   0 
   2   5 -10  373.91    4.41   0 
   4   5  -7  146.26    2.15   0 
   4   5  -6  220.67    2.59   0 
   3   5 -10   88.03    1.97   0 
   1   3 -12  473.48    4.88   0 
   2   5  -9  345.20    4.58   0 
   3   3 -14  105.12    1.67   0 
   2   5  -8   18.84    1.75   0 
   3   5  -9   12.54    1.20   0 
   3   4 -12   60.06    1.60   0 
   4   3 -13  117.02    1.44   0 
   4   4 -11  136.13    1.82   0 
   2   3 -13   28.48    1.46   0 
   2   5  -7  129.95    3.32   0 
   2   5  -6  276.62    4.74   0 
   1   3 -11  705.69    6.00   0 
   2   4 -11   18.09    1.44   0 
   2   5  -5  829.58    7.57   0 
   3   5  -7  294.41    4.14   0 
   3   5  -5  347.20    4.63   0 
   3   5  -6  239.35    3.86   0 
   4   4 -10  151.40    2.19   0 
   3   4 -11   78.78    1.99   0 
   2   4 -10   61.72    2.19   0 
   3   2 -14  128.99    1.93   0 
   5   3  -9   10.07    0.66   0 
   2   3 -12  481.87    4.98   0 
   4   3 -12  156.35    2.02   0 
   3   4 -10  158.68    2.91   0 
   4   1 -14  132.65    1.44   0 
   2   2 -13  436.96    4.33   0 
   2   4  -9  397.64    5.03   0 
   4   4  -8  175.33    2.80   0 
   5   3  -8  146.69    1.83   0 
   1   3 -12  503.45    5.04   0 
   2   6  -9  235.25    2.41   0 
   3   4 -13   93.39    1.48   0 
   1   2 -12  951.77    6.69   0 
   2   1 -13  167.96    2.77   0 
   3   6  -9  160.22    1.59   0 
   4   2 -13   39.64    0.88   0 
   4   4 -12    0.55    0.39   0 
   2   3 -13   32.82    1.46   0 
   2   5 -11  280.16    3.05   0 
   1   5  -9  325.24    3.63   0 
   2   4 -12   20.66    1.16   0 
   3   1 -13  206.14    2.66   0 
   1   3 -11  764.06    6.23   0 
   3   3 -13  339.54    3.09   0 
   4   5 -10   38.76    0.77   0 
   1   4 -10  132.20    2.64   0 
   3   2 -13  164.07    2.37   0 
   1   5  -8  317.12    3.65   0 
   2   5 -10  394.00    3.89   0 
   3   4 -12   56.63    1.38   0 
   3   6  -8  214.35    2.06   0 
   2   1 -12  266.24    3.54   0 
   2   3 -12  483.50    4.71   0 
   4   1 -12  289.01    2.51   0 
   2   4 -11   14.55    1.18   0 
   4   2 -12   72.97    1.43   0 
   4   4 -11  137.96    1.66   0 
   3   3 -12  203.73    2.78   0 
   3   1 -12  767.74    5.46   0 
   2   5  -9  344.04    3.83   0 
   3   2 -12    1.07    0.92   0 
   3   4 -11   74.03    1.75   0 
   3   6  -7  157.27    1.94   0 
   2   3 -11  691.31    5.77   0 
   2   4 -10   63.99    2.02   0 
   2   2 -11  127.92    2.81   0 
   3   5  -9   14.15    1.14   0 
   4   1 -11  368.88    3.40   0 
   4   3 -11  116.33    1.90   0 
   3   6  -6   13.00    0.99   0 
   4   4 -10  153.61    2.04   0 
   2   5  -8   15.72    1.35   0 
   3   3 -11  343.89    3.86   0 
   4   2 -11   57.76    1.56   0 
   3   1 -11  221.00    3.27   0 
   3   4 -10  159.92    2.70   0 
   2   3 -10  306.10    3.99   0 
   5   2  -9  191.80    1.90   0 
   2   5  -7  120.66    2.56   0 
   3   5  -8   21.00    1.29   0 
   4   3 -10   35.25    1.35   0 
   4   4  -9  180.46    2.44   0 
   5   4  -7    4.56    0.48   0 
   3   3 -10  211.02    3.32   0 
   4   1 -10  126.31    2.30   0 
   3   4  -9  549.28    5.05   0 
   4   2 -10  120.85    2.33   0 
   5   3  -8  137.22    1.69   0 
   2   4  -8  630.09    5.84   0 
   3   1 -10  147.20    2.84   0 
   2   5  -6  260.79    3.58   0 
   3   5  -7  285.01    3.53   0 
   5   1  -8   81.55    1.50   0 
   4   3  -9   17.79    1.21   0 
   4   4  -8  164.39    2.49   0 
   5   2  -8    8.26    0.73   0 
   5   4  -6    0.81    0.55   0 
   4   5  -6  236.01    2.68   0 
   3   3  -9   16.41    1.39   0 
   3   4  -8  510.57    4.98   0 
   3   5  -6  251.11    3.38   0 
   4   1  -9   37.28    1.59   0 
   4   2  -9  360.12    4.01   0 
   5   3  -7  275.94    2.55   0 
   4   5  -5  187.53    2.47   0 
   5   4  -5  204.92    2.08   0 
   4   3  -8  144.87    2.61   0 
   4   4  -7   30.05    1.33   0 
   5   1  -7  350.92    3.06   0 
   5   2  -7   26.00    1.11   0 
   3   4  -7  127.77    2.66   0 
   3   3  -8   19.84    1.45   0 
   3   5  -5  345.14    3.91   0 
   5   3  -6  302.16    2.78   0 
   4   5  -4  165.59    2.37   0 
   5   4  -4  228.08    2.29   0 
   4   1  -8  373.22    4.04   0 
   4   4  -6   29.64    1.36   0 
   3   5  -4  198.88    2.97   0 
   4   3  -7  380.94    4.12   0 
   5   2  -6   57.10    1.41   0 
   4   5  -3   41.40    1.38   0 
   5   1  -6  215.17    2.48   0 
   5   3  -5   61.80    1.40   0 
   5   4  -3   71.68    1.35   0 
   4   4  -5  233.43    3.07   0 
   3   5  -3   10.78    1.15   0 
   4   1  -7  282.46    3.52   0 
   4   5  -2   70.41    1.63   0 
   5   4  -2  114.90    1.71   0 
   4   3  -6  302.00    3.67   0 
   5   3  -4   39.59    1.28   0 
   3   4  -5   42.81    1.70   0 
   4   5  -1  117.54    1.99   0 
   5   1  -5  124.46    1.99   0 
   5   4  -1   37.29    1.04   0 
   3   5  -2   53.08    1.68   0 
   4   4  -4  137.86    2.43   0 
   4   2  -6   85.76    2.15   0 
   4   5   0  443.22    3.61   0 
   4   3  -5  214.11    3.12   0 
   5   0  -4  266.01    2.79   0 
   5   3  -3   35.81    1.17   0 
   3   4  -4   42.09    1.66   0 
   4   1  -6  434.01    4.26   0 
   4   5   1  241.80    2.63   0 
   3   5  -1  127.38    2.36   0 
   4   5   2  198.83    2.27   0 
   5   1  -4    7.47    0.83   0 
   5   4   2  176.50    1.78   0 
   5   4   3  110.35    1.26   0 
   5   3  -2  172.35    2.27   0 
   4   2  -5  132.78    2.57   0 
   4   3  -4  219.25    3.16   0 
   5   2  -3  150.47    2.23   0 
   5   0  -3  532.58    3.92   0 
   4   1  -5  665.83    5.23   0 
   5   1  -3   38.63    1.31   0 
   5   3  -1  290.03    2.93   0 
   4   4  -1  199.42    2.90   0 
   5   2  -2   48.90    1.42   0 
   5   3   0  199.74    2.49   0 
   4   2  -4  604.21    5.18   0 
   4   3  -3   75.57    2.00   0 
   5   0  -2   63.59    1.66   0 
   5   1  -2  163.97    2.46   0 
   4   4   0    6.44    1.03   0 
   5   2  -1   13.82    0.99   0 
   5   3   1   89.62    1.74   0 
   5   3   2   32.45    1.23   0 
   4   3  -2  200.66    3.07   0 
   4   2  -3  497.39    4.76   0 
   4   4   1   73.89    1.95   0 
   5   3   3    8.90    0.78   0 
   5   3   4   74.22    1.39   0 
   5   0  -1   44.46    1.44   0 
   5   1  -1  449.46    3.98   0 
   5   2   0    8.49    0.92   0 
   4   4   2  347.34    3.78   0 
   4   4   7   19.06    0.78   0 
   4   3  -1  186.33    3.01   0 
   5   2   1   45.57    1.48   0 
   4   4   3  224.90    3.06   0 
   4   2  -2 1063.13    6.94   0 
   4   4   4  245.47    3.06   0 
   4   4   5  138.71    2.26   0 
   4   4   6   26.39    1.02   0 
   5   0   0    7.89    0.99   0 
   5   2   2  174.32    2.66   0 
   5   2   7   38.57    0.85   0 
   4   3   0  226.22    3.33   0 
   5   2   3  342.44    3.54   0 
   5   0   1  239.29    3.12   0 
   5   2   4  129.12    2.17   0 
   5   2   5   29.41    1.20   0 
   5   2   6   29.03    0.97   0 
   4   2  -1   88.82    2.26   0 
   5  -1   2   13.84    1.16   0 
   3   4   2  270.27    3.62   0 
   4   3   1  401.25    4.41   0 
   5   1   2   18.16    1.22   0 
   5   1   8   58.57    0.95   0 
   5   0   2  602.84    4.80   0 
   4   3   2  263.18    3.67   0 
   5  -1   3   18.77    1.10   0 
   5   1   3   15.28    1.14   0 
   3   4   3  695.31    5.64   0 
   4   2   0   83.33    2.23   0 
   4   3   9   42.74    1.04   0 
   5  -1   7   49.10    1.04   0 
   5   1   4   51.01    1.62   0 
   5   1   7   51.14    1.17   0 
   5  -1   4   40.59    1.32   0 
   5  -1   6  141.47    1.91   0 
   5   0   3  363.93    3.79   0 
   5   1   5  176.66    2.57   0 
   5   1   6  182.59    2.38   0 
   3   4   4  610.45    5.32   0 
   5  -1   5  165.33    2.22   0 
   5   0   4   22.69    1.25   0 
   4   3   8  142.70    2.06   0 
   5   0   5   15.18    1.07   0 
   4   2   1  219.08    3.41   0 
   4   2  11  215.60    1.58   0 
   4   3   5   80.51    2.27   0 
   4   3   7  304.84    3.40   0 
   4   3   6  257.74    3.40   0 
   4   2   2  226.80    3.52   0 
   4   2  10  213.86    2.11   0 
   4   2   3  270.53    3.87   0 
   4   1   2  272.86    3.80   0 
   4   2   4  374.27    4.54   0 
   4   0  12   71.48    0.92   0 
   4   1  11  105.64    1.42   0 
   4   2   5  254.89    3.81   0 
   4   2   8   89.85    2.02   0 
   3   2  13   53.47    0.93   0 
   4   2   6   28.96    1.62   0 
   4   2   7  127.12    2.60   0 
   3   3  10   29.11    1.18   0 
   4   1   3   21.52    1.54   0 
   4  -1   2  283.88    3.72   0 
   3   3   9  189.09    2.84   0 
   4   1  10   21.09    0.97   0 
   3   3   6  381.50    4.62   0 
   3   3   7  178.15    3.34   0 
   3   3   8  300.05    3.86   0 
   4   0  11  109.49    1.55   0 
   4   1   4   78.98    2.39   0 
   3   1  14   97.06    1.11   0 
   4  -1   3   18.80    1.72   0 
   4  -1  11  100.15    1.48   0 
   4   0   3  464.70    5.03   0 
   4   1   5  475.98    5.37   0 
   4   1   9    2.49    0.92   0 
   4  -2  10  232.40    2.29   0 
   4   1   6  334.75    4.59   0 
   4   1   7  306.39    4.35   0 
   4   1   8  216.25    3.38   0 
   3   2  12  108.25    1.71   0 
   4   0  10  182.51    2.52   0 
   4  -2   5  252.46    3.69   0 
   4  -2   9  184.49    2.60   0 
   4  -1   4   80.41    2.45   0 
   4   0   9  235.40    3.38   0 
   4  -2   6   23.80    1.63   0 
   4  -2   7  117.61    2.63   0 
   4  -2   8   74.03    2.02   0 
   4  -1   5  486.65    5.54   0 
   4   0   6    5.62    1.52   0 
   4   0   8   90.85    2.55   0 
   3   2  11  367.82    3.76   0 
   4   0   7    1.79    1.39   0 
   0   6 -12  225.53    2.22   0 
  -2   4 -10  639.41    6.62   0 
  -2   2 -12  363.77    4.58   0 
  -2   4  -9   11.65    1.83   0 
  -2   4  -8    1.02    1.72   0 
  -2   4  -7  135.60    3.76   0 
  -1   5 -12   13.27    1.24   0 
  -2   3 -11   57.71    2.37   0 
  -1   4 -14   71.05    1.57   0 
   0   6 -11  125.72    2.15   0 
  -2   1 -11   64.78    2.63   0 
  -2   2 -11  640.73    6.76   0 
  -2   3 -10  149.14    3.73   0 
  -1   5 -11  128.74    2.84   0 
  -2   3  -9  215.28    4.58   0 
  -1   2 -15    5.97    0.93   0 
   0   5 -14   84.88    1.47   0 
   0   6 -10  106.80    2.25   0 
  -2   2 -10   92.48    3.23   0 
   0   6  -9   30.69    1.83   0 
  -1   4 -13  137.89    2.46   0 
  -1   5  -9  387.81    5.35   0 
  -1   5  -8  411.29    5.77   0 
  -1   5  -7  489.87    6.13   0 
  -1   4 -12  364.38    4.47   0 
   0   4 -15   26.04    1.05   0 
  -1   1 -14  394.60    4.13   0 
  -1   2 -14  125.89    2.52   0 
  -1   3 -13   86.75    2.40   0 
   1   4 -16    8.44    0.53   0 
  -1   4 -11  364.84    5.03   0 
   1   5 -14   28.27    0.95   0 
   0   1 -16  299.26    2.86   0 
   0   2 -16   18.38    1.08   0 
  -1   4 -10  379.56    5.52   0 
  -1   1 -13  242.95    3.70   0 
  -1   2 -13  313.73    4.20   0 
  -1   3 -12   10.02    1.54   0 
  -1   4  -9   29.93    2.30   0 
   0   4 -14   49.38    1.56   0 
   0   3 -15  277.29    3.34   0 
   0   5 -11  153.02    3.08   0 
   1   2 -17   51.11    1.16   0 
   1   1 -17  215.36    2.02   0 
   1   5 -13   11.35    1.06   0 
  -1   2 -12  173.69    3.67   0 
  -1   3 -11  102.00    3.06   0 
   0   5 -10  418.29    5.27   0 
  -1   1 -12  176.16    3.54   0 
   0   4 -13  435.34    4.55   0 
   0   5  -9  566.75    6.38   0 
   1   4 -15  155.29    2.16   0 
  -1   3 -10  720.65    7.61   0 
   0   2 -15   80.30    2.21   0 
   0   5  -8   69.14    2.81   0 
   1   3 -16  207.27    2.37   0 
   2   5 -13   62.01    1.33   0 
   0   1 -15  264.59    3.48   0 
  -1   2 -11  648.07    6.92   0 
   0   3 -14  121.40    2.57   0 
   1   5 -12  160.69    2.69   0 
   0   4 -12  594.86    5.83   0 
   2   4 -15  184.80    1.97   0 
   1   4 -14  305.94    3.54   0 
   1   5 -11  219.45    3.45   0 
   0   2 -14  248.73    3.79   0 
   0   3 -13  142.37    2.95   0 
   0   4 -11  265.70    4.31   0 
   1   2 -16    7.33    0.85   0 
   2   1 -17  163.24    1.60   0 
   2   3 -16  142.95    1.77   0 
   2   5 -12  163.34    2.31   0 
   1   3 -15  194.55    2.84   0 
   1   5 -10  202.18    3.70   0 
   0   1 -14  158.92    3.08   0 
   1   1 -16  211.79    2.67   0 
   1   4 -13  456.93    4.63   0 
   1   5  -9  370.02    4.93   0 
   0   3 -12   39.33    1.96   0 
   2   4 -14  186.39    2.47   0 
   2   5 -11  267.55    3.26   0 
   0   1 -13   51.13    2.09   0 
   0   3 -11  177.37    3.61   0 
   1   3 -14   76.66    2.18   0 
   1   4 -12   11.88    1.38   0 
   2   2 -16  158.10    2.18   0 
   2   5 -10  371.87    4.12   0 
   2   3 -15   18.18    1.00   0 
   3   2 -16   79.33    1.15   0 
   3   3 -15   29.59    0.84   0 
   1   0 -15  573.14    4.65   0 
   1   1 -15  253.83    3.34   0 
   3   4 -13   94.77    1.62   0 
   2   0 -16   33.88    1.13   0 
   2   1 -16  192.78    2.42   0 
   1   2 -14  453.26    5.02   0 
   1   3 -13    6.64    1.27   0 
   1   4 -10  133.12    3.17   0 
   3   0 -16  112.13    1.39   0 
   2   2 -15  175.47    2.71   0 
   2   3 -14    6.18    0.99   0 
   2   4 -12   18.19    1.35   0 
   3   3 -14  107.53    1.83   0 
   3   4 -12   62.40    1.55   0 
   4   3 -13  111.82    1.35   0 
   1   1 -14   76.82    2.26   0 
   1   3 -12  466.66    5.20   0 
   1   0 -14  126.90    2.56   0 
   3   2 -15  197.62    2.24   0 
   1   2 -13  137.75    3.07   0 
   2   1 -15  128.22    2.52   0 
   2   4 -11   15.80    1.41   0 
   2   3 -13   28.11    1.59   0 
   3   4 -11   79.69    1.98   0 
   4   2 -14   78.99    1.18   0 
   1   3 -11  705.06    6.39   0 
   2   0 -15  218.88    2.90   0 
   2   2 -14  624.25    5.25   0 
   2   4 -10   61.64    2.18   0 
   1   1 -13  139.60    3.08   0 
   1   2 -12  977.68    7.51   0 
   3   1 -15   13.31    0.85   0 
   3   3 -13  347.29    3.51   0 
   4   3 -12  151.92    1.91   0 
   1   0 -13  757.74    6.21   0 
   3   4 -10  153.10    2.64   0 
   2   3 -12  474.95    5.12   0 
   2   4  -9  386.74    4.77   0 
   3   0 -15  245.74    2.54   0 
   3   2 -14  131.27    2.18   0 
   2   2 -13  446.88    4.86   0 
   4   1 -14  143.25    1.75   0 
   2   0 -14  382.54    4.24   0 
   3   4  -9  546.65    4.96   0 
   4   2 -13   43.54    1.16   0 
   2   3 -11  665.21    6.13   0 
   4  -1 -14  130.90    1.45   0 
   4   3 -11  106.20    1.83   0 
   3   1 -14   21.04    1.15   0 
   3   2 -13  164.08    2.71   0 
   2   2 -12  335.57    4.49   0 
   3  -1 -14   13.31    0.95   0 
   3   0 -14  324.14    3.35   0 
   5   2 -10  297.09    2.16   0 
   4  -2 -13   42.09    0.92   0 
   4   2 -12   74.94    1.65   0 
   4   3 -10   31.21    1.29   0 
   2  -1 -13  181.71    3.01   0 
   2   0 -13  255.88    3.71   0 
   4   1 -13  109.34    1.87   0 
   3   2 -12    2.64    1.07   0 
   2   2 -11  125.42    2.98   0 
   3   1 -13  204.53    3.13   0 
   3   3 -10  230.07    3.57   0 
   5   1 -11   23.69    0.75   0 
   2   1 -12  255.25    3.85   0 
   4   3  -9   16.40    1.21   0 
   5   2  -9  204.98    2.12   0 
   4  -1 -13  100.75    1.69   0 
   4   0 -13    0.37    0.69   0 
   4   2 -11   57.42    1.70   0 
   3  -1 -13  194.82    2.83   0 
   3   3  -9   13.03    1.47   0 
   4   1 -12  310.60    3.43   0 
   2  -1 -12  232.36    3.69   0 
   2   0 -12   49.24    1.97   0 
   3   2 -11   16.08    1.47   0 
   4   3  -8  139.66    2.58   0 
   3   1 -12  778.18    6.42   0 
   5   0 -11  153.48    1.75   0 
   5   1 -10    3.20    0.70   0 
   5   2  -8    9.16    0.91   0 
   3   3  -8   17.33    1.86   0 
   5  -1 -11   23.25    0.79   0 
   4  -2 -12   74.87    1.54   0 
   4   3  -7  351.75    4.09   0 
   3   2 -10  304.10    4.37   0 
   4   0 -12   20.33    1.23   0 
   3  -2 -12    1.61    1.03   0 
   4  -1 -12  341.73    3.58   0 
   4   1 -11  372.83    4.19   0 
   5   2  -7   27.02    1.22   0 
   3  -1 -12  709.22    5.79   0 
   3   1 -11  228.27    3.84   0 
   4   2  -9  356.41    4.32   0 
   5   0 -10  168.66    2.17   0 
   5  -2 -10  299.55    2.40   0 
   5   2  -6   57.58    1.58   0 
   4   0 -11  247.77    3.60   0 
   4   1 -10  128.17    2.81   0 
   5  -1 -10    2.52    0.62   0 
   3   0 -11    1.08    1.38   0 
   4  -2 -11   47.75    1.71   0 
   3   1 -10  157.17    3.41   0 
   4   2  -8  497.42    5.34   0 
   5   1  -8   87.19    1.94   0 
   3  -2 -11   15.03    1.45   0 
   3  -1 -11  256.25    3.94   0 
   5   0  -9  103.44    2.01   0 
   4  -3 -10   28.60    1.26   0 
   4   0 -10  246.66    3.96   0 
   4   1  -9   36.34    1.94   0 
   4   2  -7  272.42    4.23   0 
   5  -1  -9   14.64    1.01   0 
   5   1  -7  344.72    3.86   0 
   3   0 -10  721.51    7.05   0 
   5  -3  -8  159.36    2.03   0 
   5   0  -8   74.42    1.96   0 
   4  -2 -10  126.75    2.69   0 
   4  -1 -10  109.44    2.79   0 
   3  -2 -10  278.00    4.17   0 
   3  -1 -10  167.00    3.49   0 
   4   1  -8  353.18    4.96   0 
   4   2  -6   79.85    2.67   0 
   5   1  -6  222.89    3.35   0 
   4   0  -9  152.89    3.43   0 
   4  -3  -9   13.23    1.46   0 
   5  -2  -8    4.32    0.87   0 
   5  -1  -8   84.29    2.01   0 
   4   2  -5  136.35    3.35   0 
   5   0  -7    5.21    1.10   0 
   5   1  -5  131.22    2.86   0 
   4  -2  -9  389.77    4.79   0 
   4  -1  -9   39.11    2.08   0 
   5  -3  -7  287.62    2.96   0 
   3  -2  -9  478.23    5.45   0 
   4   0  -8  274.37    4.51   0 
   5  -1  -7  316.65    3.80   0 
   5   0  -6   43.49    1.80   0 
   5   1  -4    8.23    1.37   0 
   5  -2  -7   25.56    1.30   0 
   5   1  -3   47.70    2.07   0 
   4  -3  -8  122.90    2.59   0 
   4  -1  -8  356.07    4.86   0 
   4   1  -6  447.35    5.47   0 
   5  -4  -5  213.25    2.30   0 
   4  -4  -7   30.29    1.36   0 
   5  -1  -6  233.00    3.34   0 
   4   0  -7   56.66    2.28   0 
   5   1  -2  165.93    2.94   0 
   5  -2  -6   56.34    1.65   0 
   1  -3  11   91.43    2.63   0 
   3  -1  13  322.49    2.97   0 
   1  -2  14  113.68    2.09   0 
   2  -1  15  230.43    2.33   0 
   3  -2  10  226.68    3.86   0 
   3   0  14    6.86    0.56   0 
   2  -2  13  168.96    2.71   0 
   4   0   9  242.37    3.26   0 
   3  -2   9  529.80    6.22   0 
   4   0   8   95.92    2.57   0 
   4   1  10   22.37    1.01   0 
   4   2  10    2.94    0.62   0 
   3  -2   7   32.96    2.34   0 
   3  -2   8   52.43    2.57   0 
   4   0   6    7.49    1.51   0 
   4   0   7    1.32    1.35   0 
   3  -1  12  222.08    2.98   0 
   1  -2  13  309.77    3.81   0 
   3   1  14  100.09    1.35   0 
   4   1   9    2.55    0.92   0 
   1  -1  15  325.61    3.11   0 
   3   0  13   13.66    0.95   0 
   3  -1  11   62.72    2.08   0 
   4   1   8  230.83    3.30   0 
   1   0  16   10.74    0.75   0 
   1  -2  12  162.29    3.20   0 
   3  -1  10  182.91    3.59   0 
   2  -2  10   58.01    2.59   0 
   3  -1   9  178.50    3.85   0 
   3   0  12   21.45    1.22   0 
   3   1  13  342.80    2.98   0 
   1  -1  14  364.44    3.91   0 
   3  -1   8  261.19    4.75   0 
   3   3  13  207.16    1.70   0 
   3   0  11   15.37    1.56   0 
   3   2  13   57.04    1.24   0 
   2  -1  12   57.97    2.13   0 
   2   0  14    1.17    0.90   0 
   2   1  15  211.63    2.32   0 
   1   0  15    5.66    1.07   0 
   1   1  16  134.12    1.82   0 
   3   1  12  225.33    2.94   0 
   3   0  10  724.61    6.75   0 
   1  -1  13  264.36    3.75   0 
   2  -1  11   69.26    2.50   0 
   2   2  15   32.68    0.98   0 
   2   3  15  219.34    1.78   0 
   2   0  13   11.33    1.25   0 
   3   1  11   49.14    1.80   0 
   3   3  12   95.86    1.56   0 
   1   2  16   68.23    1.31   0 
   2  -1  10  208.07    4.14   0 
   2   1  14  230.42    3.04   0 
   3   0   8  263.76    4.75   0 
   1  -1  12  160.59    3.27   0 
   1   3  16  122.80    1.38   0 
   3   4  11   91.60    1.39   0 
   1   0  14   66.09    2.05   0 
   1   1  15  353.31    3.56   0 
   2   0  12  829.43    6.87   0 
   2   4  14   29.53    0.77   0 
   2   2  14    2.35    0.85   0 
   3   1   9  175.69    3.73   0 
   3   3  11   15.88    1.01   0 
   2   0  11  862.44    7.51   0 
   2   1  13  167.63    2.98   0 
   2   3  14  186.64    2.29   0 
   0   3  16  158.27    1.65   0 
   1   0  13  248.88    3.90   0 
   3   1   8  266.30    4.66   0 
   3   2  10  217.18    3.48   0 
   3   4  10  360.76    3.14   0 
   1   2  15    7.48    0.90   0 
   3   3  10   28.56    1.45   0 
   1   1  14  397.36    4.41   0 
   1   4  15   45.13    0.98   0 
   2   1  12   41.87    1.94   0 
   2   2  13  187.69    3.02   0 
   3   2   9  500.13    5.61   0 
   3   4   9  139.93    2.39   0 
   1   0  12  498.20    5.59   0 
   2   4  13   87.27    1.64   0 
   3   2   8   73.58    2.77   0 
   3   3   9  213.62    3.47   0 
   2   3  13  182.09    2.76   0 
   0   2  15   74.83    1.92   0 
   2   1  11   61.26    2.32   0 
   3   2   7   30.48    2.31   0 
   3   4   8  229.85    3.45   0 
   0   1  14  150.96    2.85   0 
   1   1  13  273.23    4.18   0 
   1   5  14  296.30    2.19   0 
   2   2  12  334.54    4.28   0 
   3   3   8  338.50    4.63   0 
   2   1  10  170.95    3.64   0 
   2   6  10   93.65    1.36   0 
   3   3   7  197.74    3.89   0 
   0   3  15  250.72    2.79   0 
   0   4  15   24.53    0.96   0 
   2   3  12  117.63    2.54   0 
   2   4  12  313.58    3.46   0 
   1   3  14  210.30    2.86   0 
   1   4  14   79.27    1.67   0 
   2   2  11  580.47    5.84   0 
   2   5  11   16.18    1.09   0 
   0   1  13   53.48    2.18   0 
   0   2  14  252.95    3.63   0 
   1   5  13  211.80    2.46   0 
   2   2  10   77.02    2.53   0 
   2   3  11   60.18    2.08   0 
   2   6   9  119.11    1.83   0 
   1   6  12  236.96    2.14   0 
   1   3  13   92.19    2.32   0 
  -1   5  14   25.91    0.86   0 
   0   3  14  128.19    2.61   0 
   0   6  13   64.66    1.11   0 
   1   4  13  143.98    2.52   0 
   2   5  10  133.28    2.34   0 
   0   4  14   48.74    1.60   0 
   1   2  12  181.39    3.67   0 
   2   3  10  128.60    2.94   0 
   2   6   8   19.00    1.15   0 
   0   2  13  353.35    4.51   0 
  -1   4  14  287.54    2.96   0 
   1   5  12   14.48    1.10   0 
   2   5   9  194.52    3.00   0 
   1   3  12    4.32    1.36   0 
   1   6  11  132.40    2.00   0 
   1   2  11  629.86    6.59   0 
   1   4  12  384.42    4.50   0 
   2   4   9   15.49    1.51   0 
   2   6   7   57.95    1.78   0 
   0   3  13  155.60    3.14   0 
   0   5  13   14.28    1.03   0 
   1   7   9  161.94    1.88   0 
   2   5   8  466.42    4.81   0 
   0   2  12  883.08    7.23   0 
   0   6  12  246.34    2.63   0 
   1   3  11   96.91    2.93   0 
   2   4   8    3.59    1.43   0 
  -1   3  13    6.10    1.23   0 
  -1   5  13   11.95    0.96   0 
   1   6  10  124.43    2.29   0 
   1   4  11  375.96    4.93   0 
   1   7   8  205.32    2.49   0 
   2   5   7  286.43    4.13   0 
  -1   4  13  422.88    4.21   0 
   2   4   7  148.56    3.44   0 
  -1   6  12  175.35    2.17   0 
   0   3  12   38.56    1.97   0 
   0   5  12  170.30    2.91   0 
   0   7  10  165.02    2.05   0 
   1   3  10  679.02    6.95   0 
   2   5   6  107.13    2.91   0 
   0   6  11  125.43    2.37   0 
   1   5  10  487.85    5.39   0 
  -2   5  12  162.92    2.23   0 
   1   4  10  389.46    5.32   0 
   1   7   7  159.90    2.51   0 
  -1   3  12  462.39    5.18   0 
  -1   5  12  169.72    2.92   0 
  -2   6  11    2.45    0.74   0 
  -1   4  12   10.61    1.58   0 
  -1   7  10  297.93    2.68   0 
   0   3  11  174.34    3.53   0 
   0   5  11  144.18    3.06   0 
   0   7   9  217.07    2.74   0 
   1   5   9  409.89    5.30   0 
   1   6   8  134.76    2.89   0 
   0   4  11  256.66    4.26   0 
   1   4   9   28.34    2.06   0 
   1   7   6   57.58    1.78   0 
   0   6  10  106.00    2.43   0 
   0   8   6  247.31    2.46   0 
  -1   3  11  754.12    7.16   0 
   1   7   5   39.90    1.86   0 
  -2   5  11  278.89    3.55   0 
  -1   8   7  133.66    1.68   0 
   0   7   8  265.94    3.45   0 
   1   6   7  164.40    3.32   0 
  -2   7   9   39.39    1.06   0 
  -1   5  11  217.37    3.58   0 
   0   5  10  424.83    5.38   0 
   0   8   5  121.87    2.03   0 
  -1   4  11  400.87    5.10   0 
  -1   7   9  111.71    2.03   0 
   0   4  10  128.98    3.28   0 
   0   6   9   27.22    1.71   0 
  -2   6  10   23.98    1.35   0 
  -1   6  10   25.89    1.53   0 
   1   7   4  156.85    2.96   0 
   1   5   7  487.20    5.97   0 
   1   6   6  421.49    5.24   0 
   0   8   4    5.01    1.07   0 
  -1   8   6   93.24    1.66   0 
   0   5   9  545.45    6.35   0 
  -1   4  10  136.67    3.60   0 
  -1   7   8   96.04    2.17   0 
   0   6   8  237.00    4.08   0 
   1   5   6    2.91    1.74   0 
   1   6   5  141.60    3.31   0 
  -2   5  10  363.73    4.53   0 
  -1   6   9  164.62    3.41   0 
   0   8   3    7.63    1.05   0 
  -2   4  10   62.37    2.44   0 
  -3   6   8  205.26    2.52   0 
  -2   6   9  240.38    3.41   0 
  -1   8   5   61.56    1.56   0 
   0   8   2   86.33    2.04   0 
   1   6   4  244.95    4.36   0 
  -2   8   5    3.17    0.60   0 
   0   5   8   69.48    2.75   0 
  -1   7   7    7.67    1.17   0 
   0   6   7  253.47    4.37   0 
  -3   7   6  170.64    2.03   0 
   0   7   5   76.24    2.57   0 
  -2   7   7    4.22    0.92   0 
  -1   6   8  208.36    3.87   0 
  -2   5   9  341.31    4.73   0 
  -2   8   4    6.22    0.73   0 
   0   5   7   57.67    2.59   0 
  -2   4   9  398.72    5.23   0 
  -2   6   8  211.18    3.47   0 
  -1   7   6  118.84    2.71   0 
   0   6   6  431.23    5.65   0 
   0   7   4  268.27    4.24   0 
  -3   6   7  160.41    2.54   0 
  -1   5   8  350.57    5.19   0 
  -3   7   5  107.78    1.80   0 
  -2   7   6   38.16    1.54   0 
  -2   8   3   71.52    1.55   0 
  -1   6   7  525.67    6.05   0 
  -1   8   2  203.35    2.91   0 
   0   7   3  626.46    6.12   0 
  -2   5   8   15.38    1.75   0 
  -1   7   5  293.66    4.12   0 
  -2   8   2  238.55    2.73   0 
  -2   4   8  641.98    6.37   0 
  -1   8   1  180.62    2.75   0 
   0   7   2  366.41    4.81   0 
  -3   5   7  272.32    3.62   0 
  -3   6   6   11.92    1.16   0 
  -2   7   5  330.90    3.84   0 
  -1   5   7  161.36    3.60   0 
  -1   6   6  192.24    3.76   0 
  -1   7   4  287.91    4.08   0 
  -1   8   0  321.99    3.53   0 
   0   6   4   71.84    2.57   0 
  -5   3   6  311.17    3.42   0 
  -3   3   9   14.46    1.64   0 
  -5   4   5  218.41    2.58   0 
  -4   0   6   12.79    1.68   0 
  -4   2   8  499.25    5.55   0 
  -5   1   4    9.04    1.61   0 
  -4   3   8  129.40    2.76   0 
  -4   1   7  274.57    4.30   0 
  -5   3   5   66.27    1.81   0 
  -3   4   8  518.46    5.31   0 
  -5   1   3   42.07    2.13   0 
  -4   5   6  229.44    2.77   0 
  -4   6   4  106.14    1.58   0 
  -3   5   7  263.17    3.40   0 
  -5   4   4  226.13    2.71   0 
  -4   2   7  284.68    4.27   0 
  -3   3   8   18.13    1.94   0 
  -5   2   4  304.31    3.96   0 
  -4   3   7  345.72    4.40   0 
  -5   1   2  182.38    3.39   0 
  -5   3   4   40.20    1.59   0 
  -5   4   3   74.51    1.80   0 
  -5   1   1  476.14    5.21   0 
  -5   2   3  176.74    3.18   0 
  -4   2   6   78.61    2.50   0 
  -4   5   5  185.37    2.70   0 
  -4   6   3   55.96    1.30   0 
  -3   4   7  117.74    2.82   0 
  -5   3   3   36.16    1.59   0 
  -4   3   6  285.58    4.12   0 
  -5   2   2   56.00    2.12   0 
  -5   4   2  120.85    2.18   0 
  -3   5   6  236.98    3.35   0 
  -5   2   1   13.03    1.74   0 
  -5   4   1   37.86    1.41   0 
  -4   6   2  251.23    2.68   0 
  -4   1   4   40.96    2.15   0 
  -4   2   5  126.00    3.06   0 
  -4   4   5  229.05    3.51   0 
  -5   2   0    8.38    1.68   0 
  -5   4   0   21.77    1.18   0 
  -4   3   5  210.87    3.64   0 
  -5   4  -3  111.63    1.73   0 
  -3   4   6   67.31    2.31   0 
  -5   2  -2  124.57    2.64   0 
  -5   2  -1   40.40    1.90   0 
  -5   3  -4   81.97    1.64   0 
  -5   3   0  210.87    3.31   0 
  -5   4  -2  144.85    2.17   0 
  -4   6   1   68.33    1.62   0 
  -3   5   5  320.30    3.99   0 
  -5   3  -3    8.95    1.06   0 
  -5   3  -2   23.32    1.55   0 
  -5   3  -1   79.22    2.15   0 
  -4   2   4  610.54    6.17   0 
  -4   4   4  135.37    2.87   0 
  -4   3   4  214.08    3.73   0 
  -3   6   3  157.69    2.56   0 
  -3   4   5   34.56    1.89   0 
  -4   2   3  494.80    5.63   0 
  -4   4   3  425.74    4.91   0 
  -4   5   2   71.00    2.03   0 
  -3   5   4  182.70    3.18   0 
  -3   7  -1  191.99    2.15   0 
  -4   3   3   75.98    2.44   0 
  -4   6  -2   40.40    1.24   0 
  -4   5   1  116.10    2.55   0 
  -4   6  -4  256.46    2.32   0 
  -4   6  -3  123.44    1.84   0 
  -3   6   2  472.86    4.42   0 
  -3   7  -2  196.29    2.20   0 
  -4   4   2  213.94    3.65   0 
  -4   3   2  218.23    3.85   0 
  -3   4   4   43.17    2.05   0 
  -3   5   3    7.99    1.36   0 
  -3   7  -3    6.76    0.71   0 
  -3   6   1   90.68    2.33   0 
  -4   2   1   90.25    2.78   0 
  -4   4   1  205.84    3.67   0 
  -4   3   1  196.18    3.76   0 
  -4   5  -1  244.92    3.62   0 
  -4   2   0   90.44    2.86   0 
  -4   4   0    7.53    1.44   0 
  -4   5  -2  210.90    3.36   0 
  -3   5   2   52.81    2.06   0 
  -4   3   0  242.28    4.23   0 
  -3   6   0  127.83    2.64   0 
  -4   5  -6  191.44    2.49   0 
  -4   5  -3    4.62    1.14   0 
  -4   2  -1  256.04    4.47   0 
  -4   4  -8  170.70    2.17   0 
  -4   4  -1   84.12    2.66   0 
  -4   5  -5   72.37    1.86   0 
  -4   5  -4  181.33    2.97   0 
  -3   5   1  129.41    3.09   0 
  -3   6  -1    6.13    1.22   0 
  -4   2  -2  253.65    4.57   0 
  -4   4  -2  359.59    4.97   0 
  -4   3  -8  156.72    2.53   0 
  -4   4  -7   22.23    1.42   0 
  -4   2  -3  270.31    4.79   0 
  -4   4  -3  224.11    4.02   0 
  -3   6  -2  113.22    2.64   0 
  -4   2  -4  354.10    5.52   0 
  -4   3  -3   27.07    2.14   0 
  -4   4  -4  218.81    3.88   0 
  -4   2  -5  184.52    4.00   0 
  -4   3  -7  297.53    3.99   0 
  -4   3  -6  203.94    3.78   0 
  -4   3  -5   57.06    2.52   0 
  -4   3  -4   19.24    1.96   0 
  -3   6  -8   31.93    1.03   0 
  -2   7  -4   67.90    1.72   0 
  -2   7  -5   55.01    1.63   0 
  -3   6  -7    9.06    0.91   0 
  -3   6  -5  128.62    2.60   0 
  -2   7  -7   80.61    1.50   0 
  -2   7  -6   76.77    1.72   0 
  -3   6  -6  126.84    2.41   0 
  -2   6  -1    6.92    1.41   0 
  -3   5  -2  567.73    6.20   0 
  -3   5 -10    3.13    0.61   0 
  -3   5  -3  144.03    3.41   0 
  -2   6  -2   21.55    1.71   0 
  -3   4 -11   99.37    1.69   0 
  -3   5  -9   93.19    1.96   0 
  -3   4  -2  281.01    4.61   0 
  -3   5  -4   52.12    2.33   0 
  -3   5  -8  309.50    3.91   0 
  -3   5  -5   40.80    2.17   0 
  -2   6  -3   77.40    2.48   0 
  -3   5  -7  168.37    3.26   0 
  -3   5  -6  378.38    4.99   0 
  -1   7  -8  198.13    2.37   0 
  -1   7  -7  153.98    2.35   0 
  -3   3 -11   17.30    1.20   0 
  -3   4 -10  389.14    3.95   0 
  -3   4  -3  722.47    7.42   0 
  -2   6 -10   98.41    1.73   0 
  -2   6  -4  372.45    4.88   0 
  -3   4  -4  639.15    7.18   0 
  -2   6  -9  136.44    2.42   0 
  -2   6  -5  304.62    4.48   0 
  -3   3 -10   35.17    1.79   0 
  -3   4  -6   97.12    3.21   0 
  -3   4  -5  262.61    4.84   0 
  -2   6  -8   19.61    1.47   0 
  -2   6  -6  417.86    5.13   0 
  -3   4  -7   54.25    2.55   0 
  -3   3  -9  223.68    4.12   0 
  -2   5 -12  106.37    1.68   0 
  -3   2  -9  477.97    5.94   0 
  -3   3  -8  273.59    5.06   0 
  -3   2  -8   55.14    2.93   0 
  -3   2  -7   19.36    2.79   0 
  -3   3  -7  130.91    3.81   0 
  -3   3  -6  342.22    5.72   0 
  -2   3 -14  177.47    2.00   0 
  -1   6 -12  237.32    2.21   0 
  -2   4 -13   79.38    1.60   0 
  -2   5 -11   17.42    1.30   0 
  -1   6  -4  271.33    4.37   0 
  -1   5 -14  301.19    2.31   0 
  -2   5 -10  142.74    2.93   0 
  -1   6  -5  150.82    3.41   0 
  -2   5  -9  217.22    3.94   0 
  -2   5  -8  482.45    6.10   0 
  -2   5  -7  277.51    4.92   0 
  -2   5  -6  108.26    3.37   0 
  -2   3 -13  171.64    2.51   0 
  -1   6  -6  443.81    5.54   0 
  -1   6  -9    9.97    1.42   0 
  -1   6  -8  127.55    3.05   0 
  -1   6  -7  167.98    3.58   0 
  -2   2 -13  172.57    2.62   0 
  -2   4 -11  246.33    3.81   0 
  -1   5 -13  191.59    2.37   0 
   0   6 -12  230.51    2.43   0 
  -2   3 -12  116.12    2.60   0 
  -2   4 -10  645.65    6.71   0 
  -2   4  -9   10.50    1.87   0 
  -2   4  -8    1.98    1.77   0 
  -2   4  -7  137.79    3.83   0 
  -1   5 -12   13.96    1.27   0 
   0   6 -11  129.60    2.34   0 
   1   6 -12   17.83    0.83   0 
  -2   2 -12  365.77    4.45   0 
  -2   3 -11   65.28    2.45   0 
  -1   4 -14   72.42    1.64   0 
  -1   3 -15  165.87    2.20   0 
   0   5 -14   85.06    1.56   0 
   0   6 -10  111.74    2.46   0 
   0   6  -7  256.26    4.06   0 
  -2   2 -11  627.58    6.56   0 
  -2   3 -10  155.82    3.79   0 
   0   6  -9   24.34    1.67   0 
   0   6  -8  220.19    3.77   0 
   1   6 -11   33.73    1.26   0 
  -2   3  -9  202.47    4.48   0 
  -1   5 -10  481.22    5.71   0 
  -1   5  -6    2.65    1.79   0 
  -2   2 -10   85.86    3.19   0 
  -1   2 -15    7.66    0.90   0 
  -1   4 -13  138.02    2.51   0 
  -1   5  -9  382.60    5.50   0 
  -1   5  -7  499.81    6.45   0 
  -1   3 -14  216.37    2.96   0 
   0   5 -13   16.75    1.08   0 
   0   4 -15   27.47    1.08   0 
  -1   4 -12  373.35    4.64   0 
   1   4 -16    8.82    0.60   0 
  -1   2 -14  127.85    2.51   0 
  -1   4 -11  374.92    5.24   0 
   0   5 -12  164.67    2.94   0 
  -1   4 -10  381.92    5.72   0 
  -1   4  -9   32.34    2.42   0 
   0   4 -14   48.16    1.59   0 
   1   5 -13   11.79    1.12   0 
   0   2 -16   20.55    1.18   0 
   0   5 -10  433.95    5.66   0 
   2   5 -13   60.03    1.27   0 
  -1   2 -13  311.19    4.24   0 
   0   5  -9  555.41    6.61   0 
   0   1 -16  309.78    3.01   0 
   0   3 -15  272.03    3.34   0 
   0   5  -8   69.71    2.88   0 
   1   4 -15  153.86    2.19   0 
  -1   3 -11   99.03    3.14   0 
   0   4 -13  435.97    4.70   0 
   1   5 -12  155.68    2.76   0 
   1   2 -17   47.47    1.09   0 
  -1   2 -12  179.74    3.63   0 
  -1   3 -10  704.49    7.63   0 
   2   5 -12  162.37    2.29   0 
  -2  -2  11  108.40    2.81   0 
  -1   0  15  578.38    4.94   0 
  -1   3  16  201.48    1.89   0 
  -3  -1  12  787.48    6.24   0 
  -2   0  15  223.18    3.01   0 
  -2   1  16  174.14    2.24   0 
  -1  -1  13  133.44    2.91   0 
  -1   2  16    6.25    0.80   0 
   0   0  13 1530.89    8.80   0 
  -3   0  14  336.25    3.38   0 
   0   1  14  155.00    2.81   0 
  -3   1  15   15.23    0.89   0 
  -2   2  16  149.70    1.95   0 
  -2   3  16  144.16    1.63   0 
  -1   0  14  134.78    2.82   0 
  -1   1  15  252.65    3.27   0 
  -1   4  15  147.34    1.61   0 
   0   2  14  259.16    3.24   0 
  -4   2  13   39.49    0.92   0 
  -3   0  13   77.03    2.07   0 
  -3   2  15  203.46    2.19   0 
  -2  -1  12  227.09    3.70   0 
  -2   0  14  368.97    4.23   0 
   0   1  13   53.49    2.14   0 
  -3   3  15   31.94    0.80   0 
  -2   1  15  114.66    2.18   0 
  -1   2  15   75.51    1.96   0 
  -1   0  13  798.64    6.70   0 
  -1   3  15  188.82    2.43   0 
  -3   1  14   23.13    1.17   0 
  -1   1  14   72.26    2.06   0 
  -3   0  12  195.93    3.14   0 
  -2   0  13  259.19    3.78   0 
  -2   2  15  166.21    2.40   0 
   0   2  13  386.89    4.24   0 
  -2   1  14   37.13    1.70   0 
  -2   3  15   17.76    0.92   0 
  -4   2  12   69.74    1.35   0 
  -3   1  13  191.54    2.88   0 
  -3   4  14   86.73    1.21   0 
  -1   1  13  133.24    2.80   0 
  -1   4  14  284.69    2.74   0 
  -4   3  12  144.35    1.65   0 
  -3   0  11    4.10    1.30   0 
  -3   3  14  104.96    1.70   0 
  -1   3  14   79.77    1.93   0 
  -2   2  14  632.32    5.07   0 
   0   2  12  947.98    6.75   0 
  -2   1  13  172.36    3.13   0 
  -1   5  13   12.23    0.73   0 
  -4   2  11   52.40    1.41   0 
  -2   3  14    6.35    1.02   0 
  -2   4  14  183.11    2.25   0 
  -3   0  10  816.18    6.69   0 
  -3   1  12  743.29    5.84   0 
  -4   4  11  131.56    1.56   0 
  -3   4  13  101.66    1.67   0 
  -4   3  11  104.74    1.70   0 
  -3   3  13  353.16    3.48   0 
  -2   1  12  268.57    3.96   0 
  -2   2  13  434.98    4.64   0 
  -1   3  13    7.04    1.26   0 
  -1   4  13  445.10    4.00   0 
  -4   2  10  116.42    2.24   0 
  -3   1  11  219.25    3.47   0 
  -3   5  12  108.13    1.51   0 
  -2   3  13   26.40    1.40   0 
  -2   4  13  291.21    3.29   0 
  -1   5  12  159.74    2.30   0 
  -1   6  11   32.66    1.04   0 
  -4   3  10   31.61    1.24   0 
  -4   4  10  148.86    2.00   0 
  -3   1  10  153.16    3.21   0 
  -3   3  12  204.94    3.08   0 
  -3   4  12   63.37    1.68   0 
  -2   2  12  318.81    4.29   0 
  -1   3  12  518.62    5.37   0 
  -1   4  12   12.82    1.32   0 
  -3   2  11   18.92    1.54   0 
  -2   6  11    2.30    0.68   0 
  -4   5   9   54.21    1.12   0 
  -2   3  12  462.25    4.94   0 
  -3   5  11  276.29    2.85   0 
  -2   4  12   19.77    1.37   0 
  -4   3   9   16.60    1.22   0 
  -3   6  10   97.29    1.42   0 
  -4   4   9  189.63    2.55   0 
  -3   3  11  356.48    4.36   0 
  -2   2  11  115.56    2.86   0 
  -2   7   9   37.16    0.89   0 
  -1   5  11  215.78    3.05   0 
  -3   2  10  290.84    4.22   0 
  -3   4  11   73.26    1.96   0 
  -1   3  11  756.50    6.75   0 
  -1   6  10   24.86    1.16   0 
  -1   4  11  414.00    4.82   0 
  -4   5   8   36.45    1.21   0 
  -2   3  11  677.32    6.30   0 
  -2   5  11  276.92    3.49   0 
  -4   3   8  130.53    2.56   0 
  -3   5  10   88.27    1.94   0 
  -2   4  11   17.55    1.51   0 
  -4   4   8  163.67    2.59   0 
  -3   6   9  165.56    2.14   0 
  -3   2   9  506.34    5.58   0 
  -3   4  10  153.38    2.93   0 
  -1   5  10  179.09    3.11   0 
  -3   7   7  195.35    1.90   0 
  -2   7   8   22.64    0.98   0 
  -4   3   7  329.08    4.09   0 
  -4   5   7  153.28    2.28   0 
  -2   3  10  306.30    4.47   0 
  -2   5  10  373.27    4.42   0 
  -1   4  10  129.81    3.02   0 
  -1   6   9  159.58    2.64   0 
  -4   4   7   30.90    1.50   0 
  -4   6   5   24.17    0.97   0 
  -3   5   9   11.39    1.13   0 
  -2   4  10   61.52    2.29   0 
  -3   6   8  212.87    2.68   0 
  -3   4   9  536.34    5.49   0 
  -1   7   7    7.29    0.98   0 
  -4   5   6  238.18    2.98   0 
  -3   7   6  174.64    2.04   0 
  -1   5   9  336.84    4.35   0 
  -4   4   6   28.68    1.73   0 
  -4   6   4  109.33    1.74   0 
  -2   5   9  337.27    4.48   0 
  -1   6   8  199.72    3.16   0 
  -3   3   8   16.38    1.69   0 
  -3   5   8   18.72    1.37   0 
  -2   4   9  403.40    5.18   0 
  -4   5   5  199.98    2.93   0 
  -3   4   8  513.23    5.50   0 
  -3   6   7  153.53    2.49   0 
  -2   6   8  205.20    3.15   0 
  -2   8   4    6.80    0.58   0 
  -3   7   5  116.17    1.88   0 
  -4   4   5  241.93    3.51   0 
  -4   6   3   56.82    1.37   0 
  -1   7   6  113.74    2.19   0 
  -1   5   8  339.98    4.43   0 
  -4   5   4  170.26    2.82   0 
  -3   5   7  284.18    3.88   0 
  -2   5   8   15.91    1.59   0 
  -4   6   2  236.46    2.56   0 
  -3   6   6   14.18    1.17   0 
  -2   4   8  637.40    6.39   0 
  -2   8   3   68.73    1.32   0 
  -1   6   7  517.32    5.07   0 
  -4   4   4  141.97    2.85   0 
  -3   7   4  107.51    1.86   0 
  -2   6   7  391.99    4.39   0 
  -1   8   3    1.78    0.61   0 
  -4   6   1   62.71    1.48   0 
  -4   5   3   40.84    1.74   0 
  -4   6   0   20.53    1.02   0 
  -3   5   6  239.09    3.62   0 
  -1   5   7  155.34    3.12   0 
  -1   7   5  291.48    3.34   0 
  -4   4   3  453.36    4.78   0 
  -3   6   5    1.45    0.98   0 
  -3   7   3   82.85    1.78   0 
  -2   5   7  128.31    2.99   0 
  -2   6   6  326.31    4.08   0 
  -1   6   6  193.26    3.26   0 
  -1   8   2  200.57    2.24   0 
  -4   5   2   74.84    2.00   0 
  -3   5   5  337.08    4.24   0 
  -3   7   2   13.39    0.96   0 
  -2   7   4  208.88    2.88   0 
  -4   5   1  119.75    2.37   0 
  -3   6   4  237.08    3.31   0 
  -1   7   4  276.44    3.32   0 
  -3   4   5   38.90    1.85   0 
  -2   5   6  287.82    4.17   0 
  -1   8   1  168.86    2.15   0 
  -4   5   0  398.31    3.96   0 
  -2   6   5    0.79    1.08   0 
  -1   6   5  180.13    3.25   0 
  -3   7   1  125.17    2.11   0 
  -2   8   0   48.57    1.21   0 
  -3   5   4  184.25    3.23   0 
  -3   6   3  166.50    2.86   0 
  -2   7   3  183.69    2.78   0 
  -3   7   0  175.66    2.49   0 
  -2   8  -1   74.43    1.46   0 
  -3   4   4   46.01    1.96   0 
  -2   5   5  855.69    6.84   0 
  -1   7   3  138.16    2.46   0 
  -1   8   0  310.95    2.86   0 
  -2   6   4   74.84    2.19   0 
  -2   8  -2   41.33    1.14   0 
  -3   6   2  503.90    4.83   0 
  -3   7  -1  196.36    2.53   0 
  -2   7   2  109.94    2.26   0 
  -2   8  -3   91.54    1.41   0 
  -1   6   4   87.11    2.33   0 
  -3   7  -2  196.14    2.46   0 
  -1   8  -1   73.22    1.52   0 
  -3   7  -3    7.04    0.79   0 
  -1   7   2   45.09    1.62   0 
  -3   6   1  102.74    2.39   0 
  -2   6   3  208.17    3.37   0 
  -2   7   1   25.17    1.50   0 
  -1   8  -2   39.90    1.22   0 
  -1   6   3  412.05    4.55   0 
  -3   6   0  133.87    2.71   0 
  -1   8  -3   22.29    1.08   0 
  -2   7   0  180.66    2.91   0 
  -1   7   1   83.66    2.08   0 
  -3   5   1  138.78    2.94   0 
  -2   6   2  309.40    4.07   0 
  -1   8  -4  187.14    2.17   0 
  -1   8  -5  194.01    2.05   0 
  -1   6   2  265.09    3.74   0 
  -1   7   0  117.07    2.43   0 
  -3   5   0  309.01    4.24   0 
  -2   6   1  434.52    4.85   0 
  -3   6  -7   10.11    0.85   0 
  -3   6  -3  239.88    3.44   0 
  -2   7  -2  288.90    3.66   0 
  -3   6  -4  225.39    3.21   0 
  -3   5  -1  308.44    4.28   0 
  -3   6  -6  130.68    2.15   0 
  -3   6  -5  120.43    2.29   0 
  -2   7  -3  148.57    2.67   0 
  -1   7  -1  165.91    2.88   0 
  -2   6   0  475.81    5.14   0 
  -2   7  -8  197.70    2.00   0 
  -1   6   1  817.07    6.34   0 
  -2   7  -4   73.15    1.96   0 
  -3   5  -2  579.27    5.77   0 
  -2   7  -7   86.10    1.63   0 
  -2   7  -5   57.08    1.68   0 
   0   7  -2  346.70    3.75   0 
  -3   5  -9   92.85    1.48   0 
  -2   7  -6   73.72    1.72   0 
  -1   7  -2  320.28    3.91   0 
  -3   5  -3  153.33    3.26   0 
  -2   6  -1   10.62    1.37   0 
  -1   6   0  218.58    3.43   0 
   5  -4  -2  122.62    2.08   0 
   4  -5  -3   39.39    1.48   0 
   5  -3  -3   31.20    1.37   0 
   5  -1  -3   50.03    1.80   0 
   5  -2  -3  161.76    2.76   0 
   5   0  -1   48.99    1.77   0 
   4  -3  -5  210.07    3.42   0 
   4  -1  -5  637.26    6.06   0 
   5  -4  -1   34.70    1.25   0 
   3  -4  -5   33.54    1.78   0 
   4  -4  -4  124.12    2.56   0 
   5  -1  -2  143.74    2.68   0 
   5   0   0    5.43    1.34   0 
   4  -2  -5  105.88    2.51   0 
   5  -3  -2  184.24    2.77   0 
   4  -5  -2   66.28    1.83   0 
   5  -4   0   20.48    1.07   0 
   5  -2  -2   62.25    1.89   0 
   5  -1  -1  520.90    4.95   0 
   4  -1  -4   43.62    1.99   0 
   5  -4   1  100.14    1.82   0 
   5  -3  -1  288.39    3.47   0 
   4  -4  -3  409.04    4.50   0 
   4  -3  -4  209.49    3.43   0 
   5  -2  -1   11.92    1.19   0 
   4  -5  -1  115.17    2.31   0 
   4  -2  -4  591.04    5.70   0 
   5  -4   2  182.12    2.30   0 
   5  -4   4  123.17    1.62   0 
   5  -1   0  318.90    3.93   0 
   5  -4   3   97.27    1.62   0 
   5  -3   0  198.86    2.95   0 
   5  -2   0   13.20    1.26   0 
   4  -3  -3   70.01    2.22   0 
   5  -3   1  102.08    2.21   0 
   5  -1   1   72.83    2.09   0 
   4  -5   0  452.12    4.42   0 
   4  -4  -2  181.66    3.21   0 
   4  -2  -3  506.51    5.34   0 
   5  -3   2   35.43    1.46   0 
   5  -1   2   16.55    1.34   0 
   5  -3   3    8.19    1.11   0 
   5  -3   5  168.56    2.19   0 
   5  -1   3   22.00    1.41   0 
   5  -1   4   43.34    1.67   0 
   5  -1   5  236.09    2.72   0 
   4  -5   1  263.50    3.56   0 
   5  -3   4   70.82    1.67   0 
   5  -2   6   30.09    1.02   0 
   4  -3  -2  218.12    3.65   0 
   5  -2   3  321.52    3.83   0 
   5  -2   5   22.68    1.24   0 
   4  -2  -2 1007.15    7.52   0 
   5  -2   4  122.96    2.34   0 
   3  -5  -1  122.15    2.75   0 
   4  -5   2  189.86    3.02   0 
   4  -5   3    1.86    1.04   0 
   4  -3  -1  208.80    3.65   0 
   4  -5   4  190.16    2.85   0 
   4  -2  -1   92.66    2.57   0 
   3  -5   0  249.56    3.79   0 
   4  -4   1   70.61    2.35   0 
   4  -3   0  236.47    3.94   0 
   3  -6   6  118.62    2.01   0 
   4  -4   2  309.24    4.39   0 
   4  -2   0   91.79    2.62   0 
   3  -5   1  261.29    3.97   0 
   4  -4   9   86.06    1.40   0 
   4  -4   3  230.16    3.95   0 
   4  -3   1  363.30    4.89   0 
   4  -2   1  236.73    4.00   0 
   4  -4   4  260.49    4.00   0 
   4  -4   8  151.70    2.29   0 
   3  -5   2  573.28    5.85   0 
   4  -4   5  125.89    2.90   0 
   4  -3   2  240.07    4.12   0 
   4  -3  10   38.74    0.99   0 
   4  -1   2  290.28    4.37   0 
   4  -4   6   24.80    1.51   0 
   4  -4   7   14.23    1.17   0 
   4  -2   2  250.52    4.20   0 
   4  -1  10   21.50    0.97   0 
   4  -3   3   30.61    1.96   0 
   3  -5   3  152.66    3.30   0 
   4  -2  10  229.78    2.44   0 
   4  -1   3   23.15    1.86   0 
   4  -3   4   22.76    1.86   0 
   4  -3   9   38.34    1.35   0 
   4  -2   3  285.80    4.56   0 
   4  -3   5   65.61    2.43   0 
   4  -3   8  140.62    2.64   0 
   4  -1   4   78.75    2.74   0 
   4  -1   9    5.27    1.02   0 
   3  -5   4   47.09    2.23   0 
   4  -3   6  235.09    3.96   0 
   4  -3   7  258.24    3.86   0 
   4  -2   9  196.16    2.87   0 
   4  -1   5  482.55    5.89   0 
   4  -1   6  295.94    4.57   0 
   4  -1   7  349.41    4.80   0 
   4  -1   8  217.63    3.45   0 
   3  -5   5   42.43    2.11   0 
   3  -5   9   86.20    1.91   0 
   3  -4   2  301.80    4.61   0 
   4  -2   8   83.64    2.36   0 
   3  -5   6  387.97    4.90   0 
   3  -5   8  300.46    3.79   0 
   3  -4  12   95.01    1.34   0 
   3  -5   7  160.37    3.15   0 
   3  -4   3  729.80    7.24   0 
   3  -3  13  206.52    1.83   0 
   3  -4  11  128.27    2.10   0 
   3  -1  13  296.39    2.47   0 
   2  -5  12  106.51    1.70   0 
   3  -4  10  374.58    4.22   0 
   3  -2  13   53.39    1.17   0 
   3  -3  12   93.15    1.78   0 
   3  -4   6  108.54    3.34   0 
   3  -4   9  117.46    2.90   0 
   2  -4  14   31.38    0.83   0 
   3  -4   7   49.24    2.51   0 
   3  -4   8  206.77    4.03   0 
   2  -5   5   63.86    2.79   0 
   2  -5  11   20.85    1.38   0 
   2  -3  15  229.12    1.96   0 
   3  -3  11   16.07    1.32   0 
   3  -2  12  122.48    2.26   0 
   3  -1  12  221.48    2.87   0 
   2  -5   6   98.96    3.41   0 
   3  -3   5  298.82    5.23   0 
   2  -5  10  142.30    2.94   0 
   3  -3   6  416.58    6.16   0 
   3  -3  10   34.81    1.90   0 
   2  -5   7  245.01    4.55   0 
   2  -5   8  435.16    5.71   0 
   2  -5   9  178.38    3.62   0 
   3  -3   7  170.19    4.17   0 
   3  -3   8  277.21    5.00   0 
   3  -3   9  199.18    4.10   0 
   3  -1  11   65.76    2.28   0 
   2  -4  13   93.86    1.78   0 
   1  -5  13  205.14    2.30   0 
   3  -1  10  179.69    3.71   0 
   2  -3  14  181.26    2.32   0 
   2  -1  15  232.66    2.31   0 
   3  -2   7   26.36    2.37   0 
   3  -2   8   44.29    2.66   0 
   3  -1   8  229.02    4.62   0 
   3  -1   9  176.61    4.05   0 
   2  -4  12  306.71    3.78   0 
   1  -4  15   41.88    1.02   0 
   1  -5  12   14.94    1.20   0 
   2  -4  11  242.05    3.96   0 
   1  -3  16  126.50    1.63   0 
   2  -4  10  638.42    6.95   0 
   2  -3  13  167.44    2.74   0 
   1  -5  11  108.12    2.68   0 
   2  -4   7  161.44    4.15   0 
   1  -5  10  489.76    5.82   0 
   2  -1  14  188.93    2.58   0 
   1  -5   8  395.58    5.70   0 
   1  -5   9  334.69    5.26   0 
   1  -4  14   72.02    1.67   0 
   2  -3  12  114.98    2.78   0 
   0  -5  13    9.68    0.88   0 
   2  -2  13  174.60    3.09   0 
   2   0  13    9.32    1.32   0 
   1  -2  16   81.79    1.65   0 
   2  -3  11   60.99    2.54   0 
   2  -1  13  168.73    2.96   0 
   1  -3  15  171.43    2.40   0 
   1   0  16   12.67    0.89   0 
   2  -3  10  144.34    3.84   0 
   0  -5  12  165.48    2.77   0 
   2  -3   9  217.59    4.78   0 
   2  -2  12  344.31    4.77   0 
   2   0  12  871.75    6.90   0 
   0  -4  15   23.18    0.98   0 
   1  -1  16  136.97    2.08   0 
   2  -2  11  646.30    7.12   0 
   2  -1  12   55.79    2.26   0 
   0  -5  11  138.98    3.03   0 
   2   0  11  915.35    7.88   0 
   1  -3  14  218.51    3.18   0 
   2  -2  10   63.59    2.91   0 
   2  -1  11   64.72    2.71   0 
   0  -2  17  107.39    1.55   0 
   1  -4  11  355.99    5.35   0 
   1  -2  15    9.55    1.04   0 
   0  -3  16  179.49    2.32   0 
   1  -4  10  370.58    5.79   0 
   2  -1  10  221.36    4.59   0 
   0  -4  14   43.98    1.56   0 
   1  -4   9   25.12    2.45   0 
   1   0  15    6.86    1.03   0 
  -1  -4  15  154.07    1.99   0 
   1  -3  13   88.87    2.51   0 
   1  -1  15  361.56    3.85   0 
   0   0  17   49.15    1.14   0 
   1  -2  14  126.79    2.63   0 
   0  -4  13  448.91    4.81   0 
   1  -3  12    4.42    1.52   0 
   0  -3  15  283.12    3.41   0 
   0  -2  16   15.24    1.09   0 
   1  -3  11  108.82    3.32   0 
   1  -2  13  327.39    4.48   0 
   1  -1  14  374.50    4.30   0 
   1   0  14   58.30    1.88   0 
   0  -4  12  615.02    6.23   0 
  -1  -4  14  275.75    3.09   0 
   1  -3  10  630.45    7.43   0 
  -1  -2  17   45.30    1.12   0 
  -2  -3  16  130.23    1.57   0 
   0  -4  11  293.76    4.80   0 
   0  -3  14  118.92    2.60   0 
   1  -2  12  190.14    3.81   0 
   1   0  13  236.22    3.60   0 
   0   0  16   82.63    1.82   0 
  -1  -4  13  473.11    4.62   0 
  -1   1  17  212.88    1.96   0 
   0  -4  10  139.04    3.76   0 
   0  -2  15   83.86    2.15   0 
   1  -2  11  702.12    7.32   0 
  -2  -2  17    4.17    0.46   0 
  -1  -1  17  222.75    2.45   0 
   0  -3  13  137.18    3.04   0 
   1   0  12  468.28    5.27   0 
  -1   0  17    3.84    0.80   0 
   0   1  15  259.32    3.28   0 
  -1  -4  12   18.97    1.63   0 
  -1  -2  16    5.02    0.84   0 
   0  -1  15  292.04    3.87   0 
   0  -2  14  240.75    3.71   0 
   0   0  15   18.71    1.40   0 
   3  -3  10   34.10    1.86   0 
   4  -1   4   80.87    2.67   0 
   4  -1  10   22.65    1.17   0 
   3  -3   5  292.54    4.92   0 
   3  -2  13   55.83    1.19   0 
   4   0   3  479.11    5.23   0 
   4   1  11  109.94    1.49   0 
   3  -3   9  210.85    3.80   0 
   4  -1   9    4.59    1.08   0 
   4  -1   8  216.59    3.64   0 
   3  -1  14   86.67    1.22   0 
   4  -1   7  336.20    4.74   0 
   4   0   4  284.33    4.27   0 
   4   1  10   20.26    1.05   0 
   2  -3  12  107.56    2.30   0 
   4   0   5  270.15    4.29   0 
   4   0   6    6.69    1.58   0 
   4   0   7    0.02    1.62   0 
   4   0   8   87.39    2.50   0 
   4   1   5  472.88    5.16   0 
   4   1   9    2.20    1.18   0 
   4   1   6  344.80    4.52   0 
   3  -2  11  366.97    4.31   0 
   4   1   7  304.15    4.20   0 
   4   1   8  219.58    3.43   0 
   2  -3  11   57.81    2.13   0 
   2  -2  14    3.60    0.86   0 
   3  -1  13  316.68    2.96   0 
   3   0  14    7.27    0.55   0 
   3  -2  10  218.17    3.89   0 
   2  -3  10  136.71    3.32   0 
   3  -2   9  507.34    6.25   0 
   3   1  14   93.10    1.31   0 
   2  -3   9  204.54    4.23   0 
   3  -2   7   33.29    2.35   0 
   3  -2   8   49.23    2.57   0 
   3  -1  12  224.97    3.14   0 
   2  -1  15  237.36    2.44   0 
   3   0  13   12.83    0.97   0 
   2  -2  13  166.41    2.74   0 
   3  -1  11   60.75    2.18   0 
   3   3  12   92.36    1.39   0 
   3   1  13  339.67    3.06   0 
   3   2  13   56.92    1.17   0 
   1  -1  16  117.66    1.67   0 
   2  -2  12  347.99    4.52   0 
   2   1  16   31.56    0.79   0 
   3  -1  10  183.91    3.83   0 
   3   0  12   25.89    1.37   0 
   3  -1   8  241.45    4.78   0 
   3  -1   9  171.95    4.00   0 
   2  -1  14  201.88    2.79   0 
   2  -2  11  643.77    6.78   0 
   3   0  11   18.68    1.58   0 
   3   1  12  233.16    3.15   0 
   3   2  12  111.72    2.07   0 
   3   3  11   17.85    1.13   0 
   2   0  15   60.39    1.45   0 
   2  -2  10   56.87    2.73   0 
   3   0  10  717.58    7.23   0 
   3   0   9  420.50    5.95   0 
   3   3  10   29.18    1.62   0 
   1  -2  13  310.04    4.00   0 
   3   0   8  229.75    4.68   0 
   3   2  11  368.87    4.18   0 
   2   1  15  232.21    2.62   0 
   1  -1  15  357.52    3.64   0 
   2   0  14    0.23    0.84   0 
   2   2  15   35.62    1.07   0 
   3   2  10  245.69    3.97   0 
   3   1   9  176.18    4.02   0 
   1  -2  12  172.12    3.52   0 
   1   0  16   11.77    0.87   0 
   2   4  13   77.88    1.34   0 
   3   1   8  237.35    4.64   0 
   3   2   9  491.03    5.91   0 
   3   2   7   20.88    2.23   0 
   3   2   8   62.21    2.71   0 
   2   0  13   12.58    1.32   0 
   2   1  14  207.75    2.87   0 
   2   3  14  176.41    2.14   0 
   1  -1  14  391.05    4.37   0 
   2  -1  10  215.43    4.55   0 
   2   2  14    1.36    0.79   0 
   1   1  16  131.50    2.02   0 
   1   0  15    6.19    1.28   0 
   1   3  16  127.20    1.53   0 
   2   0  12  843.87    7.35   0 
   2   4  12  287.02    2.90   0 
   0   1  17  167.95    1.99   0 
   1   2  16   68.77    1.46   0 
   2   1  13  156.39    2.89   0 
   2   3  13  167.00    2.51   0 
   1  -1  13  269.01    4.10   0 
   1   4  15   40.86    0.91   0 
   0   0  16   79.23    1.79   0 
   2   0  11  893.89    8.19   0 
   2   2  13  169.03    2.81   0 
   2   1  12   40.58    1.98   0 
   1  -1  12  172.34    3.65   0 
   2   4  11  220.72    2.97   0 
   1   0  14   64.13    2.14   0 
   1   1  15  384.48    4.15   0 
   1   5  13  189.83    1.93   0 
   2   2  12  343.45    4.46   0 
   2   3  12  109.19    2.36   0 
   2   1  11   59.66    2.48   0 
   1   2  15    7.78    1.16   0 
   1   3  15  176.65    2.39   0 
   2   4  10  609.05    5.39   0 
   2   3  11   62.27    2.18   0 
   0   1  16  311.44    3.25   0 
   1   4  14   75.42    1.60   0 
   2   1  10  171.44    3.96   0 
  -1   2  17   46.24    1.00   0 
   0   0  15   18.34    1.38   0 
   1   1  14  416.59    4.75   0 
   2   2  10   83.33    2.90   0 
   2   3  10  145.02    3.34   0 
   1   5  12   12.69    1.02   0 
   0   2  16   18.99    1.05   0 
   0   3  16  179.36    2.22   0 
   1   2  14  131.74    2.75   0 
   1   3  14  233.57    3.24   0 
   2   3   9  243.55    4.43   0 
   0   0  14  206.22    3.68   0 
   1   1  13  250.33    3.95   0 
   1   4  13  148.26    2.50   0 
  -1   1  16  218.31    2.72   0 
   0   1  15  257.83    3.50   0 
   0   5  14   92.15    1.47   0 
  -1   4  16    9.43    0.54   0 
   0   4  15   25.03    1.00   0 
   1   5  11  118.40    2.27   0 
   1   2  13  309.55    4.23   0 
   1   3  13   87.90    2.33   0 
   1   1  12  166.29    3.41   0 
  -1   2  16    7.57    1.00   0 
   0   2  15   70.95    1.90   0 
   0   3  15  255.91    3.10   0 
   1   4  12  370.99    4.12   0 
  -1   3  16  206.28    2.29   0 
   0   0  13 1545.04    9.52   0 
  -2   2  16  148.04    1.83   0 
   0   1  14  164.30    3.28   0 
   1   2  12  162.37    3.27   0 
   1   3  12    7.54    1.31   0 
  -2   3  16  143.39    1.65   0 
   0   6  11  116.48    1.77   0 
  -1   1  15  262.85    3.41   0 
   0   4  14   47.49    1.52   0 
   0   5  13   14.73    0.95   0 
   1   4  11  344.58    4.19   0 
  -1   4  15  154.44    2.12   0 
   0   2  14  258.77    3.81   0 
   0   3  14  122.50    2.53   0 
   1   2  11  582.47    5.97   0 
  -1   5  14   29.72    1.03   0 
  -1   2  15   73.37    2.00   0 
   1   4  10  346.44    4.38   0 
  -1   3  15  192.50    2.75   0 
  -2   4  15  198.80    2.07   0 
   0   4  13  477.05    4.67   0 
   0   5  12  166.96    2.60   0 
   1   3  10  639.85    6.18   0 
  -1   1  14   72.97    2.14   0 
  -1   6  12  168.63    1.89   0 
   0   2  13  394.98    5.01   0 
   1   4   9   31.16    1.90   0 
  -2   2  15  161.34    2.30   0 
  -2   5  14   37.52    0.88   0 
   0   3  13  157.26    3.14   0 
  -2   3  15   19.09    0.97   0 
  -1   4  14  295.36    3.32   0 
  -2   1  14   34.73    1.56   0 
  -1   5  13   11.60    0.93   0 
   0   5  11  136.40    2.62   0 
  -3   4  14   86.27    1.22   0 
  -1   3  14   78.69    2.16   0 
   0   2  12  951.75    7.69   0 
  -1   1  13  123.19    2.78   0 
  -1   6  11   33.03    1.24   0 
   0   3  12   43.97    2.08   0 
  -3   2  14  126.09    1.93   0 
  -2   4  14  186.20    2.42   0 
   0   5  10  412.46    4.59   0 
  -3   3  14  110.94    1.70   0 
  -2   2  14  628.52    5.05   0 
  -1   4  13  470.04    4.61   0 
  -2   5  13   63.97    1.39   0 
  -1   3  13    6.51    1.24   0 
   0   3  11  183.19    3.54   0 
  -2   1  13  175.16    3.07   0 
  -1   6  10   27.05    1.36   0 
   0   5   9  526.71    5.22   0 
  -2   7   8   -0.65    0.53   0 
   0   4  10  133.33    3.01   0 
  -2   4  13  287.07    3.38   0 
  -1   4  12   11.76    1.32   0 
  -3   2  13  166.47    2.61   0 
  -2   2  13  445.66    4.79   0 
  -4   3  12  143.42    1.65   0 
  -3   5  12  105.25    1.55   0 
  -2   5  12  167.74    2.48   0 
  -1   3  12  471.30    5.23   0 
  -1   6   9  168.02    2.77   0 
   0   5   8   64.18    2.21   0 
  -3   3  13  365.27    3.57   0 
  -2   1  12  258.76    3.86   0 
  -3   6  10   94.43    1.39   0 
  -2   6  10   25.36    1.13   0 
  -1   4  11  413.80    4.93   0 
  -1   5  10  190.26    3.28   0 
  -2   4  12   20.19    1.38   0 
  -1   6   8  207.92    3.22   0 
  -3   4  12   65.68    1.71   0 
  -2   2  12  338.21    4.61   0 
  -2   5  11  287.95    3.60   0 
  -1   3  11  726.30    6.59   0 
  -4   4  11  131.55    1.69   0 
  -4   5  10   41.72    0.90   0 
  -3   2  12    3.33    1.30   0 
  -3   5  11  279.35    2.91   0 
  -2   3  12  462.86    5.10   0 
  -3   3  12  218.86    3.32   0 
  -2   6   9  238.08    3.06   0 
  -1   4  10  138.48    3.18   0 
  -1   5   9  351.95    4.57   0 
  -4   3  11  106.63    1.86   0 
  -3   6   9  164.06    2.14   0 
  -1   6   7  483.16    4.89   0 
  -2   4  11   15.93    1.57   0 
  -2   5  10  380.79    4.54   0 
   3  -4  -4   52.79    2.05   0 
   4  -5  -1  116.29    2.31   0 
   5  -4   3   97.01    1.60   0 
   5  -3   0  186.56    2.84   0 
   5  -1   1   74.25    2.18   0 
   5  -3   1  100.05    2.16   0 
   4  -5   0  453.02    4.46   0 
   4  -3  -3   72.87    2.23   0 
   5  -1   2   14.15    1.47   0 
   3  -5  -2   51.97    1.95   0 
   4  -2  -3  492.55    5.19   0 
   5  -3   2   32.65    1.41   0 
   5  -1   5  232.81    2.64   0 
   5  -3   3    7.46    1.09   0 
   5  -3   5  167.23    2.15   0 
   5  -2   2  149.96    2.83   0 
   5  -2   6   29.12    1.03   0 
   5  -1   3   20.49    1.35   0 
   5  -1   4   39.41    1.47   0 
   5  -3   4   66.45    1.59   0 
   4  -5   1  252.39    3.42   0 
   4  -3  -2  214.86    3.60   0 
   5  -2   3  325.72    3.78   0 
   5  -2   4  119.21    2.34   0 
   5  -2   5   22.50    1.22   0 
   4  -2  -2  998.96    7.44   0 
   3  -5  -1  129.11    2.79   0 
   4  -5   2  202.30    3.18   0 
   4  -5   3    2.72    1.25   0 
   4  -4   0    7.39    1.37   0 
   4  -3  -1  212.74    3.68   0 
   4  -2  -1   87.64    2.52   0 
   3  -5   0  258.32    3.88   0 
   4  -4   1   71.11    2.36   0 
   3  -6   7   10.57    0.88   0 
   4  -3   0  235.86    3.94   0 
   3  -6   5  127.82    2.24   0 
   4  -4   2  316.80    4.47   0 
   4  -2   0   87.19    2.59   0 
   3  -5   1  280.03    4.24   0 
   4  -4   9   86.42    1.39   0 
   4  -3   1  372.18    4.95   0 
   4  -4   3  227.17    3.84   0 
   4  -2   1  230.37    3.95   0 
   4  -4   4  251.97    3.94   0 
   4  -4   8  151.40    2.29   0 
   3  -5   2  584.32    5.93   0 
   4  -3   2  250.33    4.19   0 
   4  -1   2  290.22    4.35   0 
   4  -4   5  123.85    2.78   0 
   4  -4   6   26.21    1.53   0 
   4  -4   7   14.91    1.18   0 
   4  -2   2  258.69    4.25   0 
   4  -1  10   22.13    0.96   0 
   4  -3   3   32.79    1.99   0 
   3  -5   3  149.61    3.41   0 
   4  -2  10  230.80    2.41   0 
   4  -1   3   21.80    1.87   0 
   4  -3   4   25.42    1.86   0 
   4  -3   9   38.92    1.32   0 
   4  -3   5   62.36    2.38   0 
   4  -3   8  145.33    2.74   0 
   4  -1   4   82.71    2.71   0 
   4  -1   9    6.10    0.98   0 
   3  -5   4   48.62    2.25   0 
   4  -3   6  232.71    3.91   0 
   4  -3   7  259.46    3.84   0 
   4  -2   9  189.38    2.78   0 
   4  -1   5  459.26    5.60   0 
   4  -1   6  302.39    4.66   0 
   4  -1   8  218.91    3.39   0 
   3  -5   5   44.14    2.16   0 
   3  -4   2  305.81    4.61   0 
   4  -2   7  136.46    3.23   0 
   4  -2   8   82.85    2.31   0 
   4  -1   7  346.99    4.61   0 
   3  -5   6  387.27    4.89   0 
   3  -5   8  297.49    3.76   0 
   3  -4  12   91.99    1.34   0 
   3  -5   7  152.02    3.07   0 
   3  -3  13  203.24    1.80   0 
   3  -4  11  128.61    2.10   0 
   2  -5  12  105.18    1.69   0 
   3  -4   5  282.33    4.94   0 
   3  -4  10  379.69    4.29   0 
   3  -2  13   54.05    1.21   0 
   3  -1  13  300.73    2.46   0 
   2  -5   4  152.53    3.80   0 
   3  -3  12   94.42    1.84   0 
   3  -4   6  107.94    3.31   0 
   3  -4   9  122.45    2.94   0 
   2  -4  14   29.82    0.81   0 
   3  -4   7   50.19    2.51   0 
   3  -4   8  192.46    3.90   0 
   2  -5   5   63.87    2.79   0 
   2  -5  11   21.87    1.27   0 
   3  -3  11   18.33    1.34   0 
   3  -2  12  122.70    2.24   0 
   3  -1  12  227.10    2.94   0 
   2  -5   6   99.04    3.21   0 
   2  -5  10  146.71    3.08   0 
   2  -3  15  220.39    1.90   0 
   3  -3   5  294.55    5.17   0 
   2  -5   7  247.66    4.73   0 
   3  -3  10   35.65    1.93   0 
   2  -5   8  429.93    5.70   0 
   2  -5   9  183.87    3.67   0 
   3  -3   6  423.74    6.21   0 
   3  -3   7  177.88    4.25   0 
   3  -3   9  203.37    4.12   0 
   2  -4  13   95.03    1.81   0 
   3  -3   8  285.31    5.07   0 
   3  -1  11   60.49    2.09   0 
   1  -5  13  209.66    2.36   0 
   3  -1  10  181.13    3.74   0 
   3  -2   7   21.49    2.32   0 
   3  -1   9  172.05    3.99   0 
   2  -4  12  302.12    3.78   0 
   2  -3  14  182.38    2.30   0 
   2  -1  15  230.09    2.31   0 
   3  -1   8  216.63    4.50   0 
   1  -4  15   41.42    1.02   0 
   1  -5  12   14.38    1.21   0 
   2  -4  11  235.37    3.95   0 
   1  -5  11  111.60    2.84   0 
   1  -3  16  128.84    1.65   0 
   2  -4  10  648.04    7.05   0 
   2  -3  13  173.37    2.80   0 
   2   0  14    0.38    0.58   0 
   2  -4   7  167.53    4.24   0 
   1  -5  10  475.18    5.69   0 
   2  -1  14  197.01    2.65   0 
   1  -5   8  390.40    5.70   0 
   1  -5   9  318.42    5.08   0 
   1  -4  14   73.89    1.69   0 
   2  -3  12  116.97    2.83   0 
   2  -2  13  167.57    2.97   0 
   2   0  13   10.13    1.37   0 
   2  -3  11   69.23    2.68   0 
   0  -5  12  180.76    2.96   0 
   1  -3  15  169.07    2.41   0 
   1  -2  16   82.96    1.61   0 
   2  -3  10  148.38    3.91   0 
   2  -1  13  174.22    3.02   0 
   1   0  16   12.44    0.91   0 
   2  -3   9  217.26    4.77   0 
   2  -2  12  345.96    4.83   0 
   0  -4  15   22.66    0.99   0 
   2   0  12  861.62    6.84   0 
   1  -1  16  133.30    2.07   0 
   2  -2  11  658.43    7.21   0 
   2  -1  12   49.77    2.20   0 
   1  -4  11  360.65    5.52   0 
   1  -3  14  224.90    3.24   0 
   2  -2  10   60.85    2.94   0 
   2   0  11  891.34    7.73   0 
   1  -2  15    8.84    1.03   0 
   2  -1  11   63.47    2.71   0 
   0  -4  14   45.41    1.67   0 
   0  -3  16  180.54    2.33   0 
   0  -2  17  108.06    1.55   0 
   1  -4  10  361.09    5.78   0 
   2  -1  10  219.58    4.72   0 
   1  -4   9   23.63    2.43   0 
  -1  -4  15  148.34    1.90   0 
   1  -3  13   91.60    2.55   0 
   1  -1  15  352.83    3.81   0 
   1   0  15    5.05    0.99   0 
   0   0  17   49.19    1.15   0 
   1  -2  14  121.81    2.59   0 
   0  -4  13  461.36    4.89   0 
   1  -3  12    5.93    1.58   0 
   0  -3  15  277.75    3.39   0 
   0  -2  16   14.96    1.06   0 
   1  -3  11  103.12    3.27   0 
   1  -1  14  364.92    4.25   0 
  -1  -4  14  271.97    3.05   0 
   0  -4  12  629.47    6.33   0 
   1  -2  13  322.10    4.46   0 
   1   0  14   61.45    1.92   0 
   1  -3  10  642.85    7.52   0 
  -1  -2  17   44.71    1.11   0 
   0  -4  11  316.87    4.97   0 
  -2  -3  16  125.43    1.50   0 
   0  -3  14  115.18    2.57   0 
   1  -2  12  185.21    3.78   0 
   0  -4  10  138.42    3.77   0 
   0   0  16   85.02    1.93   0 
   1   0  13  233.64    3.60   0 
  -2  -2  17    4.22    0.51   0 
  -1  -4  13  461.18    4.50   0 
   0  -2  15   81.09    2.15   0 
   1  -2  11  702.45    7.35   0 
  -1   1  17  214.45    2.02   0 
  -1  -1  17  228.17    2.47   0 
   0  -3  13  145.86    3.13   0 
  -1  -4  12   14.24    1.72   0 
   1   0  12  476.94    5.34   0 
  -1  -2  16    6.59    0.86   0 
  -1   0  17    3.87    0.68   0 
   0  -1  15  283.20    3.81   0 
   0   1  15  263.24    3.33   0 
   0  -2  14  242.10    3.70   0 
  -2  -3  15   19.71    1.02   0 
  -1  -4  11  427.41    5.32   0 
   0   0  15   20.16    1.45   0 
  -2  -1  17  160.80    1.86   0 
   3   2 -11   17.70    1.42   0 
   3   3 -10  206.52    3.07   0 
   4   2 -11   51.05    1.47   0 
   5   3  -8  140.40    1.56   0 
   4  -2 -10  127.83    2.28   0 
   4  -1 -11  359.67    3.74   0 
   3  -1 -11  275.06    3.86   0 
   5   1 -10    2.30    0.58   0 
   4   1 -11  377.43    4.23   0 
   5   0 -10  168.03    2.07   0 
   3   0 -11    1.97    1.28   0 
   3   1 -11  220.11    3.73   0 
   4   0 -11  245.17    3.48   0 
   4   3  -9   17.56    1.40   0 
   5   2  -9  206.86    2.33   0 
   3   3  -9   15.49    1.59   0 
   5  -2  -8    5.02    0.83   0 
   4   2 -10  119.92    2.57   0 
   5  -1  -9   15.04    1.02   0 
   5   3  -7  279.83    2.62   0 
   3  -1 -10  170.54    3.41   0 
   4  -1 -10  108.96    2.56   0 
   5   1  -9   17.75    1.01   0 
   4  -2  -9  342.19    3.96   0 
   4   1 -10  132.13    2.98   0 
   5   0  -9  100.01    1.91   0 
   3   0 -10  747.53    6.68   0 
   3   1 -10  148.32    3.30   0 
   4   0 -10  260.91    3.89   0 
   4   3  -8  130.83    2.64   0 
   5   2  -8    8.21    0.90   0 
   3   3  -8   15.32    1.69   0 
   5   3  -6  304.35    2.95   0 
   4   2  -9  338.37    4.30   0 
   5  -2  -7   27.31    1.23   0 
   5  -1  -8   88.19    1.82   0 
   4  -1  -9   37.86    1.94   0 
   5   1  -8   83.39    1.84   0 
   4  -2  -8  509.23    4.88   0 
   4   1  -9   37.08    1.82   0 
   5   0  -8   82.33    1.84   0 
   4   0  -9  150.84    3.06   0 
   4   3  -7  360.34    4.13   0 
   5   3  -5   62.82    1.47   0 
   5  -2  -6   64.81    1.63   0 
   5  -1  -7  326.05    3.33   0 
   5   1  -7  349.38    3.56   0 
   5   3  -4   40.14    1.31   0 
   4  -1  -8  349.15    4.24   0 
   4   1  -8  380.81    4.56   0 
   4   3  -6  289.72    3.67   0 
   5   0  -7    5.95    0.92   0 
   6   0  -3   30.23    0.81   0 
   4  -2  -7  269.07    3.49   0 
   4   0  -8  270.13    3.87   0 
   5  -2  -5  138.64    2.23   0 
   5   3  -3   35.28    1.26   0 
   5  -1  -6  247.02    2.96   0 
   5   1  -6  222.27    2.89   0 
   6   0  -2   69.68    1.15   0 
   4   3  -5  202.44    3.05   0 
   5   0  -6   44.85    1.46   0 
   4  -1  -7  252.06    3.55   0 
   4   1  -7  295.54    3.97   0 
   6   0  -1   40.55    0.94   0 
   4  -2  -6   80.39    2.07   0 
   4   0  -7   51.12    1.91   0 
   5   3  -2  173.55    2.22   0 
   5  -2  -4  267.94    2.97   0 
   5  -1  -5  135.92    2.29   0 
   5   1  -5  126.18    2.24   0 
   4   3  -4  216.56    3.13   0 
   5   0  -5   77.93    1.84   0 
   5   3  -1  308.45    2.92   0 
   4  -1  -6  438.07    4.56   0 
   4   1  -6  457.10    4.84   0 
   4  -2  -5  110.17    2.45   0 
   4   0  -6   12.91    1.31   0 
   4   2  -5  133.11    2.70   0 
   5   1  -4    6.24    0.92   0 
   5   3   0  206.91    2.35   0 
   5  -2  -3  166.44    2.44   0 
   5  -1  -4    9.79    1.02   0 
   4   3  -3   71.66    1.98   0 
   5   0  -4  259.54    3.20   0 
   5   3   1   81.36    1.51   0 
   5   3   2   30.25    1.05   0 
   4   1  -5  687.46    5.87   0 
   5   2  -2   48.69    1.52   0 
   4  -1  -5  605.99    5.32   0 
   4   2  -4  595.26    5.35   0 
   5  -2  -2   65.09    1.70   0 
   5   1  -3   39.78    1.47   0 
   4  -2  -4  589.94    5.08   0 
   4   0  -5  210.79    3.37   0 
   4   3  -2  206.74    3.07   0 
   5   0  -3  547.12    4.71   0 
   5   2  -1   13.83    1.09   0 
   5  -2  -1   11.55    1.07   0 
   5   1  -2  161.66    2.65   0 
   4   1  -4   37.30    1.74   0 
   4   2  -3  486.56    4.89   0 
   4   3  -1  186.70    3.05   0 
   5   2   0    6.99    0.99   0 
   5   0  -2   63.18    1.83   0 
   4  -2  -3  514.94    4.82   0 
   5   1  -1  463.98    4.42   0 
   5  -2   0   12.51    1.15   0 
   5   2   1   43.43    1.52   0 
   4   3   0  224.72    3.36   0 
   5   0  -1   46.02    1.67   0 
   4   2  -2 1101.33    7.31   0 
   5   1   0  305.22    3.75   0 
   5   2   2  174.97    2.63   0 
   5   2   6   29.36    0.89   0 
   5  -2   1   48.52    1.62   0 
   5   2   3  341.37    3.53   0 
   5   2   4  127.54    2.10   0 
   5   2   5   29.42    1.09   0 
   4  -2  -2 1011.34    6.82   0 
   4   3   1  389.22    4.24   0 
   5   0   0    9.05    1.15   0 
   5   1   1   56.65    1.83   0 
   4   2  -1   96.57    2.47   0 
   5  -2   2  157.21    2.57   0 
   5  -2   3  327.48    3.53   0 
   5   0   1  243.67    3.48   0 
   5   1   2   22.04    1.37   0 
   5  -2   4  116.90    2.12   0 
   5  -2   5   18.07    1.11   0 
   5  -2   6   24.08    0.94   0 
   5   1   3   17.93    1.47   0 
   4  -2  -1  100.89    2.50   0 
   4   2   0   78.16    2.26   0 
   5  -1   2   14.37    1.28   0 
   5  -1   8   54.36    0.98   0 
   5   0   2  619.41    5.45   0 
   5   0   8  110.28    1.44   0 
   5   1   4   49.84    1.69   0 
   5   1   5  194.56    2.80   0 
   5  -1   3   19.67    1.34   0 
   5   0   3  374.72    4.28   0 
   5  -1   4   39.96    1.60   0 
   5  -1   7   48.75    1.24   0 
   5   0   7  274.24    2.78   0 
   4   2   1  224.70    3.53   0 
   5  -1   5  193.57    2.84   0 
   5  -1   6  155.67    2.36   0 
   5   0   4   24.92    1.40   0 
   5   0   5   17.18    1.22   0 
   5   0   6   10.72    0.99   0 
   4  -2   0   87.46    2.43   0 
   4   2   2  230.45    3.72   0 
   4  -2   1  238.47    3.76   0 
   4   2  10  210.36    1.96   0 
   4   2   3  268.81    3.96   0 
   4  -3   4   23.46    1.63   0 
   4  -3   9   35.27    1.08   0 
   4   2   4  383.17    4.80   0 
   4  -2   2  253.80    3.94   0 
   4   1   2  287.63    4.17   0 
   4   2   9  192.63    2.39   0 
   4  -3   5   61.80    2.08   0 
   4  -3   8  136.25    2.27   0 
   4  -2  11  210.02    1.84   0 
   4   2   5  260.97    3.94   0 
   4  -3   6  225.13    3.38   0 
   4  -3   7  240.84    3.23   0 
   4   1  11  107.61    1.43   0 
   4   2   6   33.65    1.78   0 
   4   2   7  135.46    2.83   0 
   4   2   8   92.52    2.09   0 
   4  -2   3  299.40    4.39   0 
   4   0   2  296.05    4.29   0 
   4   1   3   20.11    1.72   0 
   4  -2   4  390.76    5.03   0 
   4  -2  10  240.29    2.64   0 
   4  -1   3   20.18    1.79   0 
   4  -1  11  102.27    1.60   0 
   4   0   3  462.06    5.47   0 
   4   0  11  115.12    1.72   0 
   4  -2   5  278.63    4.44   0 
   4  -2   9  179.87    2.80   0 
   4  -1   4   83.95    2.74   0 
   4   0   4  290.52    4.55   0 
   4  -2   6   28.68    1.89   0 
   4  -2   7  121.03    2.87   0 
   4  -2   8   72.65    2.20   0 
   4  -1  10   23.69    1.22   0 
   4   0  10  190.28    2.76   0 
   4  -1   5  488.84    5.91   0 
   4   0   5  273.37    4.54   0 
   4  -1   9    4.97    1.14   0 
   4   0   6    6.02    1.58   0 
   4   0   9  231.51    3.56   0 
   4  -1   6  288.12    4.64   0 
   4  -1   7  296.54    4.61   0 
   4  -1   8  184.32    3.52   0 
   4   0   7    1.88    1.51   0 
   4   0   8   86.53    2.60   0 
   3   2  12  112.23    1.78   0 
   3  -3  12   96.66    1.63   0 
   3  -1  14   91.12    1.34   0 
   3   0  14    6.45    0.55   0 
   3   2  11  354.62    3.75   0 
   3   1  13  347.90    2.96   0 
   3  -3  11   20.00    1.25   0 
   3   2  10  224.13    3.54   0 
   3   2   7   23.88    2.16   0 
   3   2   9  473.36    5.52   0 
   4  -1   5  475.95    6.40   0 
   4   3  -1  184.77    3.48   0 
   4   0   9  246.79    3.28   0 
   4   2  -1   86.78    2.78   0 
   4   0   2  361.96    5.77   0 
   4   5   4  191.96    2.58   0 
   4   5   6  179.19    2.13   0 
   4   0   8  102.53    2.84   0 
   4   1  10   21.85    1.16   0 
   4   3   0  212.40    3.87   0 
   4   4   1   70.67    2.22   0 
   4   5   5   73.74    1.61   0 
   4   2   0   85.87    2.82   0 
   4   0   7    3.18    1.63   0 
   4   0   4  281.13    5.24   0 
   4   0   5  249.08    4.88   0 
   4   0   6    3.98    1.82   0 
   4   3  10   42.38    1.10   0 
   4   4   2  335.93    4.44   0 
   4   4   9   66.72    1.21   0 
   4   1   9    2.55    1.31   0 
   4   2  10  219.83    2.53   0 
   4   3   1  385.76    5.07   0 
   4   1   2  305.55    5.17   0 
   4   4   3  208.11    3.63   0 
   4   1   3   19.67    2.18   0 
   4   1   8  232.13    3.94   0 
   4   2   2  245.95    4.59   0 
   4   3   2  257.94    4.43   0 
   4   1   4   74.70    3.11   0 
   4   3   9   42.18    1.43   0 
   4   4   4  240.68    3.92   0 
   4   4   7   19.24    1.33   0 
   3   6   7   -0.67    0.71   0 
   4   1   5  450.36    6.41   0 
   4   2   3  274.60    4.97   0 
   4   4   5  130.79    2.95   0 
   4   2   8   99.09    2.72   0 
   4   3   8  146.24    2.85   0 
   3   2  13   59.58    1.20   0 
   4   2   4  364.56    5.73   0 
   4   2   7  133.70    3.40   0 
   4   3   4   23.68    2.09   0 
   4   3   7  289.72    4.35   0 
   4   2   5  240.93    4.77   0 
   4   2   6   28.84    2.25   0 
   4   3   5   72.14    2.80   0 
   4   3   6  233.69    4.32   0 
   3   1  12  216.78    2.73   0 
   3   4  12   84.76    1.33   0 
   3   5  10    3.72    0.74   0 
   3   0   9  447.05    6.01   0 
   3   2  12  109.84    2.06   0 
   3   0   8  239.83    4.87   0 
   3   1  11   53.60    1.97   0 
   3   4  11   96.14    1.80   0 
   3   5   4   49.97    2.24   0 
   3   4   2  270.29    4.45   0 
   3   5   8  314.39    3.96   0 
   3   1  10  194.64    3.83   0 
   3   5   5   41.65    2.18   0 
   3   5   7  173.87    3.44   0 
   2   4  14   30.16    0.89   0 
   3   2  11  350.93    4.23   0 
   3   3  11   16.25    1.25   0 
   3   5   6  411.45    5.14   0 
   3   1   9  184.29    4.40   0 
   3   4   3  709.96    7.32   0 
   3   4  10  372.31    4.09   0 
   2   6  10   95.98    1.68   0 
   3   1   8  244.00    5.11   0 
   3   3  10   31.26    1.83   0 
   3   4   4  639.04    7.30   0 
   2   2  14    1.94    0.83   0 
   2   3  14  188.42    2.42   0 
   3   3   9  225.62    4.50   0 
   3   4   5  277.74    5.17   0 
   3   4   7   58.97    2.81   0 
   3   4   8  224.89    4.30   0 
   2   5  12  104.62    1.76   0 
   2   6   9  123.20    2.22   0 
   3   2   8   64.99    3.11   0 
   2   6   8   20.25    1.56   0 
   3   2   7   24.78    2.57   0 
   3   3   5  271.86    5.38   0 
   3   3   8  305.74    5.47   0 
   2   4  13   82.79    1.73   0 
   2   6   6  407.27    4.70   0 
   2   6   7   59.66    2.07   0 
   3   3   6  351.17    6.13   0 
   3   3   7  170.60    4.45   0 
   2   2  13  174.02    2.96   0 
   2   1  12   42.01    1.97   0 
   2   5  11   15.05    1.13   0 
   1   5  14  296.46    2.36   0 
   2   4  12  292.28    3.55   0 
   2   5  10  131.16    2.73   0 
   1   2  15    8.91    0.95   0 
   2   1  11   59.19    2.55   0 
   2   2  12  337.96    4.44   0 
   1   3  15  173.13    2.32   0 
   2   3  12  110.49    2.59   0 
   1   6  11  129.67    2.10   0 
   2   4  11  215.70    3.52   0 
   2   5   5   59.55    2.84   0 
   2   5   8  488.84    6.02   0 
   2   1  10  176.18    4.15   0 
   2   5   6  101.92    3.39   0 
   2   5   7  275.09    4.89   0 
   1   5  13  203.38    2.56   0 
   2   2  11  598.21    6.49   0 
   2   3  11   56.98    2.33   0 
   2   4  10  620.17    6.52   0 
   1   4  14   81.54    1.83   0 
   1   6  10  126.51    2.51   0 
   2   4   9   12.88    1.96   0 
   0   3  16  174.90    2.04   0 
   2   2  10   87.36    3.14   0 
   2   3  10  149.79    3.76   0 
   1   2  14  135.25    2.73   0 
   1   3  14  241.84    3.40   0 
   1   6   9   10.53    1.39   0 
   2   4   8    6.71    2.03   0 
   1   5  12   14.17    1.20   0 
   1   6   8  135.74    3.21   0 
   2   3   9  226.35    4.82   0 
   1   4  13  157.09    2.83   0 
   1   6   7  171.49    3.55   0 
   0   4  15   25.76    1.06   0 
   0   5  14   89.06    1.63   0 
   1   5  11  122.49    2.71   0 
   1   2  13  310.20    4.23   0 
   1   1  12  163.85    3.38   0 
   1   4  12  382.31    4.64   0 
   1   5  10  456.51    5.34   0 
   0   2  15   73.13    1.85   0 
   0   3  15  259.61    3.11   0 
   0   6  11  126.14    2.29   0 
  -1   3  16  205.80    2.23   0 
   0   5  13   14.65    1.08   0 
   1   2  12  159.83    3.33   0 
   1   3  12    6.92    1.43   0 
   1   4  11  348.03    4.73   0 
   0   4  14   49.77    1.63   0 
   0   6  10  111.24    2.55   0 
   1   5   8  438.56    5.87   0 
   1   5   7  506.14    6.43   0 
  -1   6  12  169.17    2.18   0 
   1   3  11   95.48    2.82   0 
   1   4  10  365.47    5.15   0 
  -1   5  14   27.96    1.03   0 
   0   6   9   30.99    1.80   0 
   1   2  11  581.85    6.27   0 
  -1   4  15  157.13    2.19   0 
   0   2  14  264.92    3.95   0 
   0   3  14  123.11    2.68   0 
   0   6   8  235.51    3.92   0 
   1   4   9   33.54    2.23   0 
  -2   6  12   80.83    1.28   0 
   0   4  13  476.94    4.99   0 
   0   6   7  266.48    4.29   0 
   1   3  10  679.13    7.06   0 
  -1   6  11   37.02    1.40   0 
   0   5  11  138.69    2.96   0 
  -2   5  14   36.00    0.91   0 
  -1   3  15  188.86    2.74   0 
  -1   5  13   11.96    1.04   0 
   0   0  17   49.86    1.21   0 
   2  -1  10  209.95    4.34   0 
   2   3  13  155.51    2.02   0 
   1  -2  11  691.04    7.13   0 
   1   1  16  139.59    2.07   0 
   2   0  12  851.07    7.10   0 
   1   2  16   69.01    1.40   0 
   2   2  13  162.40    2.53   0 
  -1   0  17    2.64    0.63   0 
   0  -2  13  348.55    4.31   0 
   1   0  15    4.81    1.03   0 
   2   0  11  897.75    7.87   0 
   2   3  12  107.43    2.05   0 
   0  -1  15  277.64    3.52   0 
   0   1  17  161.08    1.99   0 
   0  -2  12  934.42    7.37   0 
   2   2  12  339.04    4.03   0 
   0   0  16   82.82    1.82   0 
   0   2  17  118.89    1.61   0 
   1   1  15  381.40    3.98   0 
   1  -1  12  172.86    3.63   0 
   1   0  14   63.63    2.04   0 
   1   3  15  174.24    2.17   0 
   1   4  14   72.87    1.38   0 
   2   1  11   59.68    2.35   0 
   2   3  11   62.47    1.98   0 
   1   2  15    7.59    0.96   0 
   2   2  11  620.07    5.98   0 
   0  -1  14  143.19    2.93   0 
   2   1  10  163.80    3.69   0 
  -1   1  17  210.93    2.14   0 
  -1   0  16    8.05    1.05   0 
   1   0  13  244.89    3.85   0 
   1   1  14  403.53    4.54   0 
   2   2  10   85.09    2.75   0 
   0   1  16  298.18    3.13   0 
   0  -1  13   58.71    2.21   0 
   1   3  14  232.43    2.97   0 
   0   2  16   16.47    0.95   0 
   0   3  16  178.77    2.10   0 
   1   2  14  134.31    2.60   0 
   1   4  13  145.37    2.24   0 
   0   5  14   87.21    1.23   0 
   1   0  12  490.80    5.51   0 
   1   1  13  244.21    3.74   0 
   0   4  15   26.78    1.01   0 
  -1   0  15  598.90    5.06   0 
  -1   1  16  230.23    2.94   0 
  -1   4  16    8.92    0.51   0 
   0   1  15  248.98    3.44   0 
   1   3  13   93.52    2.31   0 
  -2   1  16  176.81    2.04   0 
   1   2  13  314.95    4.05   0 
   1   1  12  164.24    3.25   0 
   1   4  12  364.74    3.71   0 
   0   2  15   69.71    1.83   0 
   0   3  15  258.97    2.99   0 
  -1   2  16    7.64    0.88   0 
  -1   3  16  211.54    2.32   0 
   0   1  14  176.66    3.30   0 
   1   3  12    8.02    1.20   0 
  -2   2  16  149.24    1.88   0 
  -1   0  14  131.85    2.88   0 
   0   5  13   14.53    0.93   0 
  -1   1  15  260.98    3.41   0 
   0   4  14   49.02    1.43   0 
   1   4  11  336.05    3.79   0 
   0   2  14  251.45    3.64   0 
   0   3  14  120.12    2.39   0 
  -2   1  15  108.42    2.00   0 
  -1   4  15  154.31    1.99   0 
   0   1  13   51.05    2.12   0 
   1   3  11   86.52    2.32   0 
  -1   2  15   77.96    2.00   0 
  -1   0  13  776.75    6.47   0 
  -1   3  15  193.17    2.67   0 
  -2   4  15  198.53    2.02   0 
   0   4  13  469.10    4.35   0 
   0   5  12  157.29    2.30   0 
  -1   1  14   72.05    2.10   0 
  -1   6  12  167.20    1.73   0 
   0   2  13  390.86    4.81   0 
  -2   2  15  163.29    2.33   0 
  -2   5  14   37.57    0.87   0 
   0   3  13  151.06    2.95   0 
  -2   3  15   18.06    0.94   0 
  -2   1  14   34.51    1.50   0 
  -1   4  14  293.33    3.17   0 
  -1   2  14  418.23    4.48   0 
  -3   2  14  133.54    1.99   0 
  -1   1  13  126.22    2.77   0 
  -1   3  14   78.75    2.05   0 
   0   2  12  937.95    7.39   0 
   0   4  12  630.76    5.46   0 
   0   5  11  137.09    2.41   0 
   0   3  12   44.29    1.98   0 
  -3   3  14  109.13    1.71   0 
  -2   6  12   77.25    1.10   0 
  -2   2  14  615.85    4.96   0 
  -2   4  14  188.90    2.38   0 
  -1   6  11   32.42    1.14   0 
  -2   1  13  173.46    3.05   0 
  -2   3  14    8.48    0.94   0 
  -2   5  13   66.18    1.36   0 
  -1   2  13  123.28    2.65   0 
  -1   4  13  464.81    4.44   0 
   0   4  11  262.07    3.82   0 
   0   5  10  416.27    4.27   0 
  -1   3  13    7.81    1.21   0 
  -1   5  12  167.06    2.55   0 
  -4   3  12  139.68    1.53   0 
  -3   2  13  168.15    2.54   0 
  -3   4  13   96.78    1.62   0 
  -2   2  13  453.95    4.77   0 
  -2   4  13  290.97    3.33   0 
  -2   6  11    2.88    0.58   0 
  -1   2  12  911.38    6.88   0 
  -1   6  10   24.89    1.16   0 
   0   4  10  130.47    2.89   0 
   0   5   9  519.51    4.92   0 
  -3   3  13  362.47    3.50   0 
  -3   5  12  112.90    1.60   0 
  -2   1  12  276.48    3.97   0 
  -2   3  13   27.83    1.43   0 
  -1   4  12   11.57    1.28   0 
  -2   5  12  174.31    2.47   0 
  -1   3  12  461.53    5.09   0 
  -1   5  11  222.44    3.20   0 
  -2   7   8   24.48    0.86   0 
  -4   4  11  128.66    1.57   0 
  -3   2  12    2.18    1.05   0 
  -3   6  10   95.37    1.41   0 
  -2   2  12  337.18    4.48   0 
  -1   6   9  161.00    2.57   0 
  -4   3  11  105.27    1.74   0 
  -3   4  12   63.28    1.64   0 
  -2   4  12   19.15    1.33   0 
  -2   6  10   24.73    1.08   0 
  -1   4  11  437.44    4.97   0 
  -3   3  12  213.21    3.14   0 
  -2   3  12  448.59    4.88   0 
  -1   3  11  724.40    6.42   0 
  -1   5  10  189.87    3.20   0 
  -3   5  11  282.47    2.88   0 
  -2   5  11  280.21    3.48   0 
  -2   7   7    8.66    0.78   0 
  -1   6   8  202.87    3.06   0 
  -3   2  11   18.50    1.51   0 
  -2   2  11  133.29    3.13   0 
  -2   4  11   17.01    1.47   0 
  -2   6   9  235.20    2.99   0 
  -4   4  10  141.47    1.99   0 
  -3   4  11   78.39    2.05   0 
  -2   3  11  706.01    6.44   0 
  -1   5   9  334.70    4.34   0 
  -4   3  10   31.28    1.38   0 
  -4   5   9   51.38    1.16   0 
  -3   3  11  349.59    4.33   0 
  -2   5  10  374.52    4.38   0 
  -3   5  10   85.37    1.91   0 
  -3   7   6  175.76    1.83   0 
  -2   7   6   35.82    1.29   0 
  -1   6   7  495.09    4.89   0 
  -4   6   7   31.66    0.84   0 
  -2   4  10   58.47    2.23   0 
  -2   6   8  204.16    3.08   0 
  -1   5   8  326.00    4.44   0 
  -3   2  10  291.13    4.23   0 
  -3   4  10  160.55    3.09   0 
  -3   6   8  216.05    2.67   0 
  -2   3  10  319.96    4.64   0 
  -4   4   9  177.08    2.55   0 
  -3   7   5  112.58    1.74   0 
  -2   5   9  330.84    4.43   0 
  -2   7   5  344.69    3.43   0 
  -1   6   6  177.41    3.32   0 
  -4   5   8   35.09    1.19   0 
  -3   3  10  235.90    3.94   0 
  -3   5   9   14.73    1.28   0 
  -1   6  -6  442.15    5.52   0 
  -1   7  -2  291.07    5.38   0 
  -1   7  -1  160.98    4.26   0 
  -1   7   0  143.75    4.12   0 
   0   7   4  249.26    3.95   0 
  -1   6   3  443.00    6.39   0 
   0   8  -3   11.03    1.60   0 
   0   8   0  346.50    4.61   0 
   1   8   2   36.50    1.49   0 
   0   8  -2   84.55    2.55   0 
   0   8  -1   37.17    1.96   0 
   0   7  -7   16.95    1.46   0 
   1   8  -6   87.45    1.65   0 
  -1   6  -5  146.64    3.83   0 
  -1   6   2  275.22    5.39   0 
   0   7   3  635.83    6.53   0 
   1   8   1   71.16    1.97   0 
  -1   6  -4  273.85    5.36   0 
  -1   6   1  901.39    9.49   0 
  -1   6  -3  224.91    5.21   0 
  -1   6   0  219.15    5.19   0 
  -1   6  -2   38.34    3.04   0 
  -1   6  -1  376.45    6.62   0 
   0   7  -6   42.93    2.02   0 
   0   7   2  384.97    5.59   0 
   0   6   4   73.02    2.83   0 
   1   8  -4   26.20    1.48   0 
   1   8  -1  182.06    3.34   0 
   2   8   0   45.40    1.34   0 
   0   7  -5   75.23    2.95   0 
   0   7   1   11.48    2.07   0 
   1   8  -3    1.30    1.17   0 
   1   8  -2  204.92    3.44   0 
   2   8  -5    2.72    0.74   0 
   1   7  -8   97.30    1.97   0 
   0   7   0    0.90    1.89   0 
   1   7   3  321.73    4.32   0 
   2   8  -4    8.57    0.99   0 
   0   6   3   50.80    2.92   0 
   0   7  -3  656.49    7.74   0 
   0   7  -1   12.78    2.20   0 
   2   8  -3   64.34    1.66   0 
   2   8  -2  224.94    2.89   0 
   0   6  -7  258.22    4.16   0 
   0   7  -2  357.63    6.00   0 
   1   7  -7    9.86    1.31   0 
   1   7   2  326.38    4.71   0 
   0   6   2   18.15    2.38   0 
   0   6  -6  453.00    5.97   0 
   2   7  -8   23.98    1.07   0 
   3   7   1  177.38    2.16   0 
   1   7  -6  112.62    2.78   0 
   1   7   1  190.40    3.98   0 
   2   7   2  261.57    3.45   0 
   0   6  -5  715.04    7.88   0 
   0   6  -4   78.81    3.38   0 
   0   6  -3   42.49    2.92   0 
   0   6  -2   14.52    2.39   0 
   1   6   3  218.60    4.05   0 
   1   7  -4  312.44    5.07   0 
   1   7  -2   50.95    2.64   0 
   1   7  -1   92.68    3.19   0 
   2   7  -7    2.85    0.95   0 
   2   7   1  410.83    4.66   0 
   3   7   0  157.36    2.38   0 
   1   6  -8  191.70    3.34   0 
   1   7  -3  143.08    3.76   0 
   2   7   0  178.38    3.44   0 
   3   7  -6  171.19    2.26   0 
   3   7  -1  114.78    2.30   0 
   1   6   2   42.41    2.46   0 
   1   6  -7  492.17    5.66   0 
   2   6  -9  239.71    3.12   0 
   2   7  -5  354.30    4.55   0 
   3   7  -5  109.19    2.06   0 
   2   7  -4  219.64    3.89   0 
   2   7  -3  179.16    3.66   0 
   2   7  -2  112.99    3.05   0 
   3   7  -4   99.26    2.13   0 
   3   7  -3   71.89    1.93   0 
   1   6   1  448.57    6.17   0 
   3   6  -9  167.90    2.15   0 
   4   6   0    0.27    0.68   0 
   1   6  -6  182.37    4.02   0 
   2   6   2   23.29    2.05   0 
   2   6  -8  205.86    3.28   0 
   1   6  -4   98.20    3.50   0 
   1   6  -1  889.07    8.99   0 
   4   6  -1   59.57    1.48   0 
   1   6  -3  414.72    6.40   0 
   1   6  -2  272.22    5.33   0 
   2   6   1    7.76    1.71   0 
   3   6  -8  219.08    2.84   0 
   3   6   1    7.77    1.27   0 
   4   6  -6   21.97    1.02   0 
   2   6  -7  394.53    4.90   0 
   4   6  -2  224.26    2.70   0 
   4   6  -5   21.63    1.06   0 
   1   5  -7  166.22    3.68   0 
   2   6   0  510.57    6.28   0 
   3   5 -10   84.96    1.87   0 
   3   6   0  134.53    3.05   0 
   2   5  -9  337.75    4.32   0 
   2   6  -5    2.32    1.73   0 
   4   5  -9   52.53    1.28   0 
   2   6  -4   77.22    3.08   0 
   2   6  -3  212.39    4.65   0 
   2   6  -2  329.74    5.53   0 
   3   6  -6   14.64    1.44   0 
   3   6  -1  101.79    2.82   0 
   3   6  -5   -1.00    1.26   0 
   3   6  -4  237.73    4.21   0 
   3   6  -3  163.14    3.64   0 
   2   5  -8   20.56    2.12   0 
   3   5  -9   15.39    1.53   0 
   4   5   0  430.75    4.43   0 
   2   5  -7  133.00    3.49   0 
   3   5  -8   20.37    1.60   0 
   3   5   1  293.66    4.43   0 
   4   4 -10  141.79    2.01   0 
   4   5  -7  157.29    2.67   0 
   3   6  -8  213.68    2.49   0 
   4   5 -10   38.59    0.84   0 
   1   3 -11  787.90    6.69   0 
   1   4 -10  125.40    2.83   0 
   1   5  -8  339.27    4.51   0 
   2   6  -7  402.56    4.41   0 
   2   5 -10  372.37    4.23   0 
   3   3 -13  329.33    3.06   0 
   2   6  -6  337.61    4.27   0 
   3   4 -12   59.82    1.53   0 
   3   6  -7  158.37    2.39   0 
   2   6  -5    2.53    1.59   0 
   2   3 -12  456.20    4.63   0 
   2   4 -11   18.21    1.50   0 
   3   2 -13  150.99    2.21   0 
   3   5 -10   91.74    1.94   0 
   3   6  -6   14.35    1.29   0 
   2   5  -9  338.65    4.26   0 
   4   3 -12  162.65    1.96   0 
   4   4 -11  137.10    1.77   0 
   4   5  -9   52.65    1.16   0 
   3   6  -5    2.40    1.21   0 
   2   2 -12  321.98    4.04   0 
   3   3 -12  196.09    2.85   0 
   3   4 -11   73.68    1.91   0 
   2   4 -10   62.62    2.24   0 
   2   5  -8   14.25    1.45   0 
   4   5  -8   36.17    1.21   0 
   2   3 -11  676.12    5.90   0 
   4   2 -12   75.14    1.52   0 
   4   4 -10  152.46    2.16   0 
   3   2 -12    2.39    1.16   0 
   3   5  -8   19.50    1.35   0 
   3   4 -10  157.56    2.83   0 
   2   2 -11  107.36    2.54   0 
   2   4  -9  406.03    4.96   0 
   2   5  -6  279.63    4.25   0 
   3   3 -11  338.23    4.05   0 
   5   4  -7    5.32    0.59   0 
   4   5  -6  248.61    3.03   0 
   5   2 -10  290.98    2.13   0 
   5   3  -9    9.35    0.60   0 
   2   5  -5  865.65    7.37   0 
   4   4  -9  181.55    2.57   0 
   2   4  -8  606.83    6.06   0 
   3   4  -9  566.76    5.57   0 
   3   5  -6  248.76    3.80   0 
   4   2 -11   58.26    1.66   0 
   4   5  -5  186.09    2.75   0 
   5   1 -10    1.92    0.56   0 
   5   4  -6    1.07    0.65   0 
   3   2 -11   16.98    1.50   0 
   4   3 -10   33.09    1.40   0 
   3   5  -5  363.08    4.81   0 
   4   1 -11  361.75    3.68   0 
   4   4  -8  172.86    2.86   0 
   4   5  -4  156.32    2.62   0 
   4   5  -3   39.37    1.57   0 
   5   3  -8  144.34    1.95   0 
   3   4  -8  528.30    5.72   0 
   3   5  -4  194.44    3.71   0 
   3   5  -3   11.29    1.73   0 
   4   3  -9   16.20    1.51   0 
   5   4  -4  220.56    2.55   0 
   3   2 -10  296.63    4.38   0 
   3   3  -9   14.39    1.61   0 
   4   2 -10  118.98    2.52   0 
   4   4  -7   30.02    1.59   0 
   5   4  -1    7.40    0.85   0 
   3   4  -7  120.30    3.09   0 
   5   3  -7  280.46    2.98   0 
   5   4  -3   67.04    1.54   0 
   5   4  -2  105.67    1.84   0 
   5   1  -9   18.25    1.05   0 
   4   4  -6   29.06    1.67   0 
   3   1 -10  146.10    3.13   0 
   3   4  -6   65.05    2.51   0 
   4   1 -10  128.95    2.65   0 
   5   2  -8    8.71    0.93   0 
   3   3  -8   18.64    1.75   0 
   4   3  -8  140.61    2.92   0 
   5   3  -6  314.04    3.36   0 
   3   2  -9  515.78    5.72   0 
   4   3  -7  346.07    4.44   0 
   4   4  -4  139.77    3.03   0 
   5   1  -8   78.97    1.73   0 
   5   2  -7   24.64    1.23   0 
   5   3  -5   62.11    1.73   0 
   3   3  -7  153.91    3.38   0 
   3   4  -4   44.28    2.24   0 
   4   1  -9   35.04    1.73   0 
   4   4  -3  441.13    4.97   0 
   5   0  -8   78.05    1.60   0 
   5   3  -4   41.18    1.52   0 
   4   0  -9  140.98    2.67   0 
   4   3  -6  289.15    4.08   0 
   4   4  -2  228.52    3.66   0 
   4   4  -1  207.34    3.39   0 
   5   2  -6   61.69    1.72   0 
   5   3  -2  180.46    2.75   0 
   4   1  -8  369.75    4.37   0 
   4   2  -7  282.74    3.97   0 
   4   3  -5  205.36    3.54   0 
   5   3  -1  318.09    3.55   0 
   5   3   1   86.71    1.78   0 
   5   0  -7    7.09    1.00   0 
   5   2  -5  118.45    2.29   0 
   5   3   0  204.90    2.74   0 
   6   0  -3   28.79    0.81   0 
   5  -1  -7  302.20    2.79   0 
   4   3  -4  238.85    3.76   0 
   5   1  -6  227.83    2.99   0 
   4   0  -8  268.21    3.62   0 
   5   2  -4  301.77    3.55   0 
   6   0  -2   68.10    1.18   0 
   4   2  -6   83.46    2.35   0 
   4   1  -7  282.94    3.83   0 
   6   0  -1   37.05    0.90   0 
   0   6  12  217.76    1.93   0 
   1   5  11  122.09    2.15   0 
  -1   1  15  271.99    3.49   0 
   1   4  12  393.31    4.11   0 
   1   2  12  167.85    3.23   0 
   0   2  14  261.25    3.73   0 
   0   4  14   52.93    1.56   0 
  -1   0  13  800.87    6.56   0 
   0   5  13   14.31    1.03   0 
  -1   2  15   78.20    2.06   0 
  -1   4  15  163.03    2.11   0 
   0   3  14  124.50    2.49   0 
   1   2  11  583.16    5.87   0 
   1   4  11  356.38    4.16   0 
  -2   2  15  176.03    2.42   0 
  -1   1  14   84.28    2.42   0 
  -1   3  15  204.43    2.82   0 
   1   3  11   99.26    2.55   0 
  -1   5  14   30.75    0.97   0 
   0   6  11  127.09    1.85   0 
  -2   3  15   18.61    0.94   0 
   0   2  13  389.73    4.85   0 
   0   4  13  477.35    4.52   0 
   1   4  10  328.65    4.06   0 
  -2   5  14   37.00    0.89   0 
   1   3  10  628.27    5.80   0 
   0   3  13  148.75    2.92   0 
   0   5  12  165.44    2.53   0 
  -3   3  14  100.23    1.48   0 
  -1   4  14  289.02    3.18   0 
  -1   1  13  133.88    2.84   0 
  -1   3  14   76.63    2.08   0 
  -1   6  12  172.49    1.93   0 
   0   6  10  103.44    1.91   0 
   1   4   9   25.36    1.65   0 
   0   2  12  959.46    7.59   0 
  -2   2  14  599.28    4.73   0 
  -1   5  13   11.83    0.91   0 
  -2   4  14  185.91    2.35   0 
   0   3  12   43.20    1.95   0 
   0   5  11  147.95    2.71   0 
  -2   3  14    7.10    0.94   0 
  -2   6  12   79.99    1.19   0 
  -1   7   9   96.73    1.38   0 
  -2   5  13   64.33    1.37   0 
  -1   4  13  473.31    4.56   0 
   0   6   9   27.15    1.28   0 
  -1   3  13    6.91    1.26   0 
  -1   6  11   34.79    1.20   0 
  -3   4  13   96.46    1.59   0 
  -1   5  12  166.72    2.69   0 
   0   3  11  191.77    3.58   0 
  -3   3  13  359.00    3.32   0 
  -2   2  13  435.25    4.52   0 
   0   5  10  414.37    4.49   0 
  -2   3  13   27.30    1.42   0 
  -2   4  13  286.94    3.31   0 
  -1   7   8   96.00    1.63   0 
  -3   5  12  105.96    1.49   0 
  -2   7   9   38.84    0.87   0 
  -1   4  12   12.69    1.32   0 
   0   4  10  131.86    3.01   0 
  -2   6  11    1.47    0.59   0 
  -1   3  12  471.87    5.17   0 
  -1   6  10   28.15    1.29   0 
  -2   5  12  175.58    2.51   0 
   0   5   9  542.81    5.30   0 
  -1   5  11  223.18    3.29   0 
  -2   2  12  317.94    4.23   0 
  -3   3  12  206.62    3.05   0 
  -3   4  12   62.22    1.60   0 
  -2   4  12   22.52    1.55   0 
  -3   6  10   97.24    1.43   0 
  -1   4  11  438.55    5.09   0 
   0   5   8   73.89    2.48   0 
  -2   6  10   27.40    1.16   0 
  -2   7   8   22.93    0.89   0 
  -1   3  11  720.08    6.46   0 
  -1   6   9  158.53    2.72   0 
  -3   5  11  272.89    2.81   0 
  -2   5  11  279.11    3.47   0 
   4  -5   7  132.52    1.73   0 
   4  -4   0    6.87    1.23   0 
   4  -3  -1  197.92    3.34   0 
   3  -6   3  228.38    3.14   0 
   4  -2  -1   98.96    2.61   0 
   4  -5   6  180.74    2.36   0 
   3  -6   4  226.75    3.08   0 
   3  -5   0  263.45    3.88   0 
   4  -4   1   73.94    2.35   0 
   3  -6   7   11.58    0.88   0 
   4  -3   0  236.40    3.83   0 
   3  -6   5  125.33    2.21   0 
   3  -6   6  123.34    2.10   0 
   4  -2   0   89.48    2.50   0 
   4  -4   2  321.04    4.38   0 
   4  -4   9   87.25    1.38   0 
   3  -5   1  276.68    4.11   0 
   4  -3   1  369.53    4.83   0 
   4  -4   3  226.69    3.78   0 
   4  -2   1  241.34    3.96   0 
   4  -4   8  152.49    2.23   0 
   4  -4   4  256.19    3.88   0 
   4  -3   2  242.26    4.03   0 
   4  -1   2  286.40    4.13   0 
   3  -5   2  584.61    5.77   0 
   4  -4   5  123.05    2.66   0 
   4  -4   6   22.96    1.36   0 
   4  -4   7   17.04    1.14   0 
   4  -3   3   31.20    1.82   0 
   4  -3   9   34.38    1.28   0 
   4  -2  10  213.89    2.15   0 
   4  -1   3   18.30    1.68   0 
   3  -5   3  137.92    3.05   0 
   4  -3   4   24.92    1.80   0 
   4  -1   9    4.38    1.03   0 
   4  -3   5   62.63    2.39   0 
   4  -3   8  152.13    2.72   0 
   4  -1   4   79.79    2.63   0 
   3  -5   4   47.07    2.17   0 
   4  -3   6  245.20    3.96   0 
   4  -3   7  271.84    3.87   0 
   4  -2   9  193.75    2.75   0 
   2   4  -8  609.53    5.57   0 
   3   2  -9  534.15    5.51   0 
   3   3  -9   15.71    1.43   0 
   4   1  -8  344.83    4.12   0 
   4   6  -4  109.93    1.53   0 
   3   5  -7  287.47    3.54   0 
   3   6  -5    1.70    0.85   0 
   4   3  -8  150.07    2.77   0 
   5   2  -6   60.78    1.62   0 
   5   4  -5  199.95    2.14   0 
   5   1  -5  130.77    2.22   0 
   2   5  -6  278.07    3.70   0 
   4   4  -7   30.81    1.43   0 
   4   6  -3   58.93    1.20   0 
   3   3  -8   17.65    1.46   0 
   4   1  -7  286.21    3.77   0 
   3   6  -4  242.50    2.89   0 
   5   2  -5  116.19    2.13   0 
   5   4  -4  212.31    2.26   0 
   3   5  -6  247.13    3.33   0 
   4   3  -7  359.37    4.16   0 
   4   6  -2  242.73    2.27   0 
   5   1  -4    8.59    1.20   0 
   4   4  -6   30.84    1.49   0 
   5   4  -3   73.71    1.50   0 
   3   3  -7  154.38    2.97   0 
   3   6  -3  168.66    2.49   0 
   4   1  -6  429.35    4.51   0 
   4   6  -1   65.51    1.32   0 
   5   2  -4  294.71    3.23   0 
   3   5  -5  335.96    3.79   0 
   4   3  -6  296.19    3.76   0 
   5   1  -3   41.31    1.45   0 
   4   4  -5  232.77    3.25   0 
   4   6   0   24.19    0.94   0 
   5   4  -2  112.07    1.76   0 
   4   2  -9  355.49    4.33   0 
   5   0  -9  105.00    2.11   0 
   3  -1 -10  175.59    3.63   0 
   3   2  -9  508.56    5.67   0 
   4  -3  -8  122.53    2.61   0 
   4  -1 -10  118.47    2.84   0 
   4   0 -10  257.24    3.98   0 
   5  -2  -8    4.72    0.87   0 
   3   0 -10  751.74    6.88   0 
   3  -2  -9  487.57    5.65   0 
   4  -2  -9  374.53    4.52   0 
   5   2  -7   22.94    1.24   0 
   5  -1  -8   90.19    1.92   0 
   4   2  -8  495.31    4.93   0 
   5  -2  -7   27.53    1.32   0 
   5   0  -8   77.98    1.81   0 
   4  -3  -7  348.15    3.98   0 
   4  -1  -9   39.86    1.85   0 
   4   0  -9  148.95    3.07   0 
   5  -3  -5   76.67    1.64   0 
   6   0  -4   65.20    1.11   0 
   4  -2  -8  501.70    5.05   0 
   5   2  -6   58.66    1.53   0 
   5  -1  -7  335.03    3.53   0 
   4   2  -7  279.67    3.66   0 
   5  -2  -6   61.93    1.64   0 
   5   0  -7    7.59    0.91   0 
   6   0  -3   28.86    0.80   0 
   4  -3  -6  312.75    3.72   0 
   4  -1  -8  351.41    4.33   0 
   4   0  -8  270.65    3.87   0 
   5  -3  -4   35.99    1.23   0 
   5   2  -5  113.08    1.99   0 
   4  -2  -7  270.48    3.69   0 
   6   0  -2   75.05    1.25   0 
   5  -1  -6  225.70    2.79   0 
  -2  -1  17  161.00    1.81   0 
  -1  -4  11  423.09    5.08   0 
  -1  -3  14   83.84    2.24   0 
   0  -3  11  245.50    4.23   0 
  -1  -1  16  200.24    2.54   0 
  -1   1  16  202.07    2.28   0 
   0  -2  13  359.79    4.44   0 
   0  -1  14  148.25    2.85   0 
  -2  -4  12   20.57    1.28   0 
  -2  -2  16  154.86    2.12   0 
  -2   0  17   37.79    0.91   0 
  -1  -2  15   66.50    1.90   0 
   0   0  14  195.89    3.21   0 
  -1  -4  10  157.35    3.60   0 
  -1   0  16    6.75    0.88   0 
  -3  -3  14  107.97    1.68   0 
  -1  -3  13    5.69    1.26   0 
  -2  -4  11   18.19    1.65   0 
  -2  -3  14    7.34    1.10   0 
   0  -2  12  943.00    7.41   0 
  -1  -1  15  258.66    3.31   0 
   0   0  13 1460.88    8.27   0 
  -2  -1  16  191.19    2.46   0 
  -1  -2  14  443.67    4.78   0 
  -3  -1  16   90.56    1.34   0 
  -2  -2  15  190.99    2.65   0 
  -1   1  15  268.59    3.15   0 
  -2  -3  13   28.06    1.47   0 
  -1   0  15  564.06    4.68   0 
  -3  -3  13  332.04    3.20   0 
  -2   1  16  173.26    2.05   0 
  -1  -3  11  785.57    6.93   0 
  -1  -2  13  152.50    3.06   0 
  -3   0  16  111.87    1.51   0 
  -3   1  16   75.63    1.14   0 
  -1  -1  14   73.04    2.21   0 
  -2  -2  14  623.60    5.13   0 
  -2  -3  12  488.20    4.79   0 
  -2  -1  15   98.29    2.02   0 
   4   2   1  231.55    3.54   0 
   5  -1   7   52.15    1.18   0 
   5   0   7  274.59    2.63   0 
   4   2  10  232.78    2.15   0 
   5  -1   4   39.07    1.46   0 
   5   0   5   16.81    1.19   0 
   5   0   6   13.62    1.00   0 
   5  -1   5  175.55    2.49   0 
   5  -1   6  144.68    2.09   0 
   4   2   2  251.22    3.88   0 
   4   2   3  267.72    4.01   0 
   4   2   9  201.62    2.46   0 
   4   1  11  100.87    1.30   0 
   4   2   4  374.84    4.61   0 
   4   2   8   93.56    1.99   0 
   4   2   5  246.48    3.72   0 
   3   3   8  288.59    3.67   0 
   4   1   2  284.02    3.94   0 
   3   3   6  395.55    4.72   0 
   3   3   7  179.69    3.21   0 
   3   2  12  109.62    1.58   0 
   4   1   3   27.47    1.79   0 
   4   0   2  318.67    4.39   0 
   4   0  11  116.92    1.62   0 
   4   1   4   83.06    2.63   0 
   4   1   9    3.57    0.90   0 
   4   1   5  473.15    5.36   0 
   4   1   8  224.76    3.29   0 
   3   2  11  360.66    3.43   0 
   4  -1   2  281.85    3.82   0 
   4   1   6  322.42    4.43   0 
   4   1   7  331.01    4.54   0 
   3  -2 -12    2.35    1.01   0 
   3  -1 -12  750.06    6.29   0 
   4   0 -11  247.59    3.38   0 
   5  -2 -10  301.05    2.45   0 
   2  -2 -11  117.71    2.84   0 
   4  -3 -11  100.06    1.88   0 
   5   0  -9  102.87    1.79   0 
   5   1  -7  351.86    3.33   0 
   3   0 -11    1.22    1.23   0 
   4  -4 -10  151.31    1.90   0 
   4  -1 -11  369.45    4.20   0 
   4   1  -9   37.56    1.94   0 
   3  -3 -11  317.41    3.87   0 
   4  -2 -11   47.02    1.63   0 
   5  -3  -9   15.07    0.70   0 
   3  -1 -11  256.51    3.97   0 
   4   0 -10  265.86    3.90   0 
   3  -2 -11   15.12    1.51   0 
   5  -1  -9   14.09    0.94   0 
   5   0  -8   79.82    1.81   0 
   3   0 -10  789.92    7.20   0 
   5  -2  -9  184.40    2.29   0 
   4   1  -8  352.17    4.61   0 
   4  -3 -10   33.14    1.46   0 
   4  -1 -10  115.18    2.75   0 
   4  -4  -9  171.15    2.40   0 
   3  -3 -10  205.86    3.50   0 
   3  -1 -10  165.20    3.40   0 
   4  -2 -10  127.51    2.70   0 
   4   0  -9  132.75    3.05   0 
   5  -3  -8  156.49    2.05   0 
   5  -1  -8   83.89    1.89   0 
   5   0  -7    4.41    1.00   0 
   3  -4  -9  545.10    5.44   0 
   3  -2 -10  290.06    4.41   0 
   4  -5  -7  152.92    2.21   0 
   4   1  -7  285.10    4.36   0 
   5  -2  -8    4.67    0.86   0 
   4  -1  -9   44.71    2.40   0 
   5   0  -6   43.19    1.63   0 
   4  -3  -2  216.78    3.49   0 
   5  -3   2   32.48    1.34   0 
   4  -4   1   73.93    2.25   0 
   4  -2  -3  511.15    5.18   0 
   5  -3   3    7.74    0.92   0 
   5  -2   0   11.34    1.15   0 
   5   0  -1   45.46    1.61   0 
   5   1   0  286.69    3.18   0 
   4  -4   2  329.45    4.25   0 
   4  -3  -1  224.88    3.71   0 
   5  -2   1   52.59    1.89   0 
   4  -4   3  240.50    3.69   0 
   5  -1   0  319.75    3.86   0 
   4  -4   6   28.16    1.34   0 
   4  -2  -2 1004.56    7.30   0 
   5   0   0    6.41    1.06   0 
   5   1   1   55.50    1.71   0 
   4  -4   4  240.46    3.43   0 
   4  -4   5  120.51    2.36   0 
   5  -2   2  161.00    2.78   0 
   5  -2   7   30.93    0.91   0 
   5  -2   3  336.11    3.78   0 
   5  -1   1   72.48    2.01   0 
   5  -2   4  125.29    2.38   0 
   5  -2   6   28.11    1.04   0 
   5   0   1  235.71    3.22   0 
   4  -2  -1  100.43    2.55   0 
   5  -2   5   19.51    1.08   0 
   5   1   2   17.26    1.15   0 
   5  -1   2   14.62    1.26   0 
   5  -1   8   52.36    0.98   0 
   5   0   2  607.78    5.10   0 
   5   1   3   15.75    1.13   0 
   5  -1   3   20.06    1.33   0 
   5   1   7   47.15    1.07   0 
   5  -1   4   42.51    1.57   0 
   5  -1   7   52.40    1.26   0 
   5   0   3  361.65    3.95   0 
   5   1   4   47.50    1.49   0 
   5   1   6  187.53    2.26   0 
   4  -3   9   38.41    1.15   0 
   4  -2   0   88.54    2.47   0 
   5  -1   5  198.92    2.83   0 
   5  -1   6  163.74    2.37   0 
   5   1   5  183.32    2.44   0 
   4  -3   3   32.89    1.97   0 
   5   0   4   23.45    1.34   0 
   4   0 -11  245.82    3.63   0 
   4   1 -10  132.07    2.81   0 
   5  -1 -10    3.00    0.66   0 
   3   0 -11    2.50    1.44   0 
   4   2  -8  501.63    5.27   0 
   5   1  -8   84.36    1.88   0 
   3   1 -10  150.46    3.31   0 
   4  -2 -11   46.53    1.59   0 
   3  -2 -11   14.16    1.64   0 
   5   0  -9  106.09    1.99   0 
   3  -1 -11  250.83    3.87   0 
   4   1  -9   39.10    1.98   0 
   4   2  -7  272.71    4.17   0 
   5   1  -7  352.91    3.86   0 
   4  -3 -10   32.78    1.36   0 
   4   0 -10  253.57    4.00   0 
   5  -2  -9  180.25    2.30   0 
   5  -1  -9   14.73    1.03   0 
   3   0 -10  782.12    7.43   0 
   4   2  -6   80.60    2.87   0 
   5   0  -8   81.46    2.03   0 
   4  -2 -10  130.50    2.76   0 
   4  -1 -10  115.04    2.85   0 
   5  -3  -8  153.41    1.98   0 
   5   1  -6  217.62    3.28   0 
   3  -1 -10  154.59    3.36   0 
   3  -2 -10  282.16    4.16   0 
   4   0  -9  141.44    3.28   0 
   4   2  -5  123.31    3.20   0 
   5  -2  -8    6.96    1.04   0 
   5  -1  -8   82.54    1.97   0 
   5   0  -7    7.04    1.17   0 
   5   1  -5  134.78    2.87   0 
   4  -3  -9   15.77    1.47   0 
   5  -4  -6    0.74    0.53   0 
   4  -1  -9   37.28    1.76   0 
  -3   2  11   22.09    1.69   0 
  -2   4  11   19.46    1.82   0 
  -2   6   9  235.17    3.09   0 
  -4   4  10  143.68    2.08   0 
  -3   4  11   77.70    2.12   0 
  -2   3  11  686.04    6.44   0 
  -1   5   9  356.47    4.62   0 
  -4   3  10   33.05    1.45   0 
  -4   5   9   51.34    1.19   0 
  -3   3  11  351.59    4.45   0 
  -2   5  10  358.54    4.34   0 
  -3   5  10   85.81    1.96   0 
  -3   7   6  171.66    1.89   0 
  -2   7   6   37.63    1.36   0 
  -1   6   7  509.01    5.11   0 
  -4   6   7   32.53    0.87   0 
  -2   4  10   61.63    2.33   0 
  -2   6   8  203.58    3.15   0 
  -1   5   8  335.25    4.61   0 
  -3   2  10  282.05    4.24   0 
  -3   4  10  162.76    3.16   0 
  -3   6   8  219.71    2.75   0 
  -2   3  10  328.54    4.78   0 
  -4   4   9  175.57    2.59   0 
  -3   7   5  116.91    1.79   0 
  -2   5   9  330.86    4.51   0 
  -2   7   5  337.16    3.43   0 
  -1   6   6  180.72    3.39   0 
  -4   3   9   16.56    1.44   0 
  -4   5   8   34.65    1.21   0 
  -3   3  10  232.70    3.96   0 
  -3   5   9   13.90    1.26   0 
  -4   6   6   23.31    0.90   0 
  -2   6   7  395.52    4.53   0 
  -3   6   7  150.99    2.48   0 
  -2   4   9  381.79    5.05   0 
  -1   5   7  155.63    3.34   0 
  -3   4   9  578.22    5.83   0 
  -3   7   4  103.84    1.72   0 
  -2   7   4  213.48    2.81   0 
  -4   4   8  158.62    2.60   0 
  -3   2   9  519.10    5.58   0 
  -2   5   8   16.35    1.61   0 
  -5   4   5  211.77    2.21   0 
  -4   5   7  149.74    2.30   0 
  -4   6   5   25.39    1.04   0 
  -3   3   9   14.70    1.64   0 
  -3   5   8   18.94    1.37   0 
  -4   3   8  136.93    2.66   0 
   5   1   2   17.63    1.25   0 
   4  -3   2  247.69    3.86   0 
   5  -1   3   19.31    1.32   0 
   5   0   2  613.11    5.35   0 
   5  -1   4   37.95    1.56   0 
   5  -1   7   52.82    1.27   0 
   5   0   8  100.63    1.39   0 
   5   1   3   14.99    1.22   0 
   4  -3   3   36.83    1.99   0 
   5  -1   5  204.32    2.96   0 
   5  -1   6  168.37    2.46   0 
   5   0   3  375.86    4.29   0 
   4  -3   8  155.74    2.29   0 
   5   1   4   49.97    1.71   0 
   4  -3   4   25.14    1.87   0 
   5   0   4   27.79    1.48   0 
   5   0   5   17.81    1.40   0 
   5   0   6   10.58    1.15   0 
   5   0   7  264.25    2.77   0 
   5   1   5  189.65    2.78   0 
   4  -3   5   63.16    2.25   0 
   4  -3   6  237.49    3.67   0 
   4  -3   7  284.27    3.51   0 
   4   2   1  208.53    3.27   0 
   4  -2  10  243.16    2.49   0 
   4  -1   1  803.20    7.00   0 
   4  -2   4  376.26    5.17   0 
   4  -2   9  191.07    2.78   0 
   4   2   2  211.90    3.39   0 
   4  -2   5  260.51    4.32   0 
   4  -1   2  314.20    4.56   0 
   4  -2   6   28.33    1.95   0 
   4  -2   8   83.91    2.32   0 
;
_shelx_hkl_checksum              45324
loop_
_space_group_symop_operation_xyz
'x, y, z'
'-x, y+1/2, -z'
loop_
_atom_site_label
_atom_site_type_symbol
_atom_site_fract_x
_atom_site_fract_y
_atom_site_fract_z
_atom_site_U_iso_or_equiv
_atom_site_adp_type
_atom_site_occupancy
_atom_site_site_symmetry_order
_atom_site_calc_flag
_atom_site_refinement_flags_posn
_atom_site_refinement_flags_adp
Br1 Br 0.05874(5) 0.95829(9) 0.07967(2) 0.03101(13) Uani 1 1 d . .
O1 O 0.8861(5) 0.2003(4) 0.53217(15) 0.0286(5) Uani 1 1 d . .
N2 N 0.8354(5) 0.3562(5) 0.39188(18) 0.0241(5) Uani 1 1 d . .
H2 H 0.913(9) 0.470(17) 0.419(3) 0.038(12) Uiso 1 1 d . .
C1 C 0.8092(6) 0.2057(5) 0.4476(2) 0.0248(6) Uani 1 1 d . .
C3 C 0.7549(6) 0.3193(5) 0.2921(2) 0.0235(6) Uani 1 1 d . .
H3 H 0.926990 0.295362 0.261147 0.028 Uiso 1 1 calc R U
C4 C 0.5843(7) 0.1323(6) 0.2936(2) 0.0282(7) Uani 1 1 d . .
H4A H 0.380770 0.159393 0.286576 0.034 Uiso 1 1 calc R U
H4AB H 0.624987 0.046298 0.242384 0.034 Uiso 1 1 calc R U
C5 C 0.6791(8) 0.0422(6) 0.3893(2) 0.0304(7) Uani 1 1 d . .
H5A H 0.517529 -0.011621 0.417063 0.036 Uiso 1 1 calc R U
H5AB H 0.817903 -0.060166 0.383790 0.036 Uiso 1 1 calc R U
C6 C 0.5891(6) 0.4796(6) 0.2423(2) 0.0216(7) Uani 1 1 d . .
C7 C 0.6113(7) 0.5129(5) 0.1477(2) 0.0257(7) Uani 1 1 d . .
H7 H 0.736390 0.438124 0.116621 0.031 Uiso 1 1 calc R U
C8 C 0.4521(7) 0.6547(5) 0.0985(2) 0.0249(6) Uani 1 1 d . .
H8 H 0.469633 0.678447 0.034454 0.030 Uiso 1 1 calc R U
C9 C 0.2683(6) 0.7599(5) 0.1448(2) 0.0247(6) Uani 1 1 d . .
C10 C 0.2389(7) 0.7277(5) 0.2387(2) 0.0243(6) Uani 1 1 d . .
H10 H 0.110039 0.800479 0.269165 0.029 Uiso 1 1 calc R U
C11 C 0.4015(6) 0.5871(5) 0.2870(2) 0.0235(6) Uani 1 1 d . .
H11 H 0.384187 0.564299 0.351130 0.028 Uiso 1 1 calc R U
loop_
_atom_site_aniso_label
_atom_site_aniso_U_11
_atom_site_aniso_U_22
_atom_site_aniso_U_33
_atom_site_aniso_U_23
_atom_site_aniso_U_13
_atom_site_aniso_U_12
Br1 0.03345(19) 0.0315(2) 0.02808(17) 0.00844(16) 0.00354(11) 0.00417(16)
O1 0.0379(12) 0.0268(13) 0.0213(10) 0.0031(9) 0.0043(9) 0.0013(10)
N2 0.0275(12) 0.0229(16) 0.0213(12) 0.0000(10) 0.0002(9) -0.0044(11)
C1 0.0244(13) 0.0232(17) 0.0275(14) -0.0004(13) 0.0056(11) 0.0015(12)
C3 0.0259(14) 0.0234(17) 0.0209(13) -0.0008(12) 0.0018(10) 0.0003(12)
C4 0.0313(16) 0.0230(17) 0.0287(15) -0.0014(14) -0.0027(13) -0.0013(14)
C5 0.0378(18) 0.0242(18) 0.0286(16) -0.0016(14) 0.0015(14) -0.0062(15)
C6 0.0238(11) 0.0203(19) 0.0209(11) 0.0007(15) 0.0032(9) -0.0035(15)
C7 0.0258(13) 0.031(2) 0.0205(14) -0.0008(11) 0.0042(10) 0.0000(11)
C8 0.0280(15) 0.0278(18) 0.0188(13) -0.0001(12) 0.0022(11) -0.0029(12)
C9 0.0253(13) 0.0231(17) 0.0251(14) 0.0026(13) 0.0008(11) -0.0044(12)
C10 0.0268(13) 0.0217(17) 0.0251(14) 0.0007(12) 0.0056(11) -0.0002(12)
C11 0.0250(13) 0.0260(18) 0.0200(13) 0.0005(12) 0.0043(10) -0.0044(12)
loop_
_atom_type_symbol
_atom_type_description
_atom_type_scat_dispersion_real
_atom_type_scat_dispersion_imag
_atom_type_scat_source
C C 0.0181 0.0091 'International Tables Vol C Tables 4.2.6.8 and 6.1.1.4'
H H 0.0000 0.0000 'International Tables Vol C Tables 4.2.6.8 and 6.1.1.4'
N N 0.0311 0.0180 'International Tables Vol C Tables 4.2.6.8 and 6.1.1.4'
O O 0.0492 0.0322 'International Tables Vol C Tables 4.2.6.8 and 6.1.1.4'
Br Br -0.6763 1.2805 'International Tables Vol C Tables 4.2.6.8 and 6.1.1.4'
loop_
_geom_angle_atom_site_label_1
_geom_angle_atom_site_label_2
_geom_angle_atom_site_label_3
_geom_angle
C1 N2 C3 114.5(3)
C1 N2 H2 119(3)
C3 N2 H2 127(3)
O1 C1 N2 125.3(3)
O1 C1 C5 125.6(3)
N2 C1 C5 109.1(3)
N2 C3 C6 113.4(3)
N2 C3 C4 102.4(3)
C6 C3 C4 112.8(3)
N2 C3 H3 109.4
C6 C3 H3 109.4
C4 C3 H3 109.4
C5 C4 C3 105.1(3)
C5 C4 H4A 110.7
C3 C4 H4A 110.7
C5 C4 H4AB 110.7
C3 C4 H4AB 110.7
H4A C4 H4AB 108.8
C1 C5 C4 104.2(3)
C1 C5 H5A 110.9
C4 C5 H5A 110.9
C1 C5 H5AB 110.9
C4 C5 H5AB 110.9
H5A C5 H5AB 108.9
C11 C6 C7 119.3(3)
C11 C6 C3 121.2(3)
C7 C6 C3 119.3(3)
C8 C7 C6 120.9(3)
C8 C7 H7 119.6
C6 C7 H7 119.6
C9 C8 C7 118.5(3)
C9 C8 H8 120.7
C7 C8 H8 120.7
C8 C9 C10 121.8(3)
C8 C9 Br1 119.0(2)
C10 C9 Br1 119.2(3)
C11 C10 C9 118.9(3)
C11 C10 H10 120.5
C9 C10 H10 120.5
C6 C11 C10 120.6(3)
C6 C11 H11 119.7
C10 C11 H11 119.7
loop_
_geom_bond_atom_site_label_1
_geom_bond_atom_site_label_2
_geom_bond_distance
Br1 C9 1.899(3)
O1 C1 1.230(4)
N2 C1 1.342(5)
N2 C3 1.465(4)
N2 H2 0.95(11)
C1 C5 1.512(5)
C3 C6 1.509(5)
C3 C4 1.549(5)
C3 H3 1.0000
C4 C5 1.535(5)
C4 H4A 0.9900
C4 H4AB 0.9900
C5 H5A 0.9900
C5 H5AB 0.9900
C6 C11 1.392(5)
C6 C7 1.398(4)
C7 C8 1.396(5)
C7 H7 0.9500
C8 C9 1.383(5)
C8 H8 0.9500
C9 C10 1.394(4)
C10 C11 1.392(5)
C10 H10 0.9500
C11 H11 0.9500
loop_
_geom_hbond_atom_site_label_D
_geom_hbond_atom_site_label_H
_geom_hbond_atom_site_label_A
_geom_hbond_distance_DH
_geom_hbond_distance_HA
_geom_hbond_distance_DA
_geom_hbond_angle_DHA
_geom_hbond_site_symmetry_A
_geom_hbond_publ_flag
N2 H2 O1 0.95(11) 1.97(10) 2.910(4) 173(4) 2_756 yes
loop_
_geom_torsion_atom_site_label_1
_geom_torsion_atom_site_label_2
_geom_torsion_atom_site_label_3
_geom_torsion_atom_site_label_4
_geom_torsion
C3 N2 C1 O1 173.7(3)
C3 N2 C1 C5 -4.4(4)
C1 N2 C3 C6 138.4(3)
C1 N2 C3 C4 16.5(4)
N2 C3 C4 C5 -21.3(3)
C6 C3 C4 C5 -143.5(3)
O1 C1 C5 C4 171.9(3)
N2 C1 C5 C4 -10.0(4)
C3 C4 C5 C1 19.3(4)
N2 C3 C6 C11 -34.7(4)
C4 C3 C6 C11 81.1(4)
N2 C3 C6 C7 149.4(3)
C4 C3 C6 C7 -94.8(4)
C11 C6 C7 C8 1.3(5)
C3 C6 C7 C8 177.3(3)
C6 C7 C8 C9 -1.0(5)
C7 C8 C9 C10 0.0(5)
C7 C8 C9 Br1 178.1(3)
C8 C9 C10 C11 0.7(5)
Br1 C9 C10 C11 -177.5(2)
C7 C6 C11 C10 -0.6(5)
C3 C6 C11 C10 -176.5(3)
C9 C10 C11 C6 -0.4(5)
