#------------------------------------------------------------------------------
#$Date: 2019-11-25 05:28:48 +0200 (Mon, 25 Nov 2019) $
#$Revision: 240098 $
#$URL: file:///home/coder/svn-repositories/cod/cif/4/12/93/4129371.cif $
#------------------------------------------------------------------------------
#
# This file is available in the Crystallography Open Database (COD),
# http://www.crystallography.net/
#
# All data on this site have been placed in the public domain by the
# contributors.
#
data_4129371
loop_
_publ_author_name
'Hu, Dennis X.'
'Seidl, Frederick J.'
'Bucher, Cyril'
'Burns, Noah Z.'
_publ_section_title
;
 Catalytic chemo-, regio-, and enantioselective bromochlorination of
 allylic alcohols.
;
_journal_issue                   11
_journal_name_full               'Journal of the American Chemical Society'
_journal_page_first              3795
_journal_page_last               3798
_journal_paper_doi               10.1021/jacs.5b01384
_journal_volume                  137
_journal_year                    2015
_chemical_absolute_configuration ad
_chemical_formula_moiety         'C18 H17 Br2 Cl O2'
_chemical_formula_sum            'C18 H17 Br2 Cl O2'
_chemical_formula_weight         460.59
_space_group_crystal_system      triclinic
_space_group_IT_number           1
_space_group_name_Hall           'P 1'
_space_group_name_H-M_alt        'P 1'
_atom_sites_solution_hydrogens   geom
_atom_sites_solution_primary     vecmap
_atom_sites_solution_secondary   difmap
_audit_creation_method           SHELXL-2014/7
_cell_angle_alpha                63.959(3)
_cell_angle_beta                 86.221(3)
_cell_angle_gamma                74.140(3)
_cell_formula_units_Z            2
_cell_length_a                   8.6359(8)
_cell_length_b                   10.3823(9)
_cell_length_c                   11.5035(10)
_cell_measurement_reflns_used    6084
_cell_measurement_temperature    120(2)
_cell_measurement_theta_max      24.22
_cell_measurement_theta_min      2.26
_cell_volume                     889.68(14)
_computing_cell_refinement       'Bruker SAINT v8.34A'
_computing_data_collection       'Bruker APEX-II v2014-5.0'
_computing_data_reduction        'Bruker SAINT v8.34A'
_computing_molecular_graphics    'Bruker XP'
_computing_publication_material  'CIFTAB (Sheldrick, 2008)'
_computing_structure_refinement  'SHELXL-2014/7 (Sheldrick, 2014)'
_computing_structure_solution    'SHELXT-2014/2 (Sheldrick, 2014)'
_diffrn_ambient_temperature      120(2)
_diffrn_detector_area_resol_mean 8.33
_diffrn_measured_fraction_theta_full 1.000
_diffrn_measured_fraction_theta_max 1.000
_diffrn_measurement_device_type  'Bruker Kappa X8-APEX-II'
_diffrn_measurement_method       'combination of \w and \f-scans '
_diffrn_radiation_monochromator  graphite
_diffrn_radiation_source         'fine-focus sealed tube'
_diffrn_radiation_type           MoK\a
_diffrn_radiation_wavelength     0.71073
_diffrn_reflns_av_R_equivalents  0.0341
_diffrn_reflns_av_unetI/netI     0.0660
_diffrn_reflns_Laue_measured_fraction_full 1.000
_diffrn_reflns_Laue_measured_fraction_max 1.000
_diffrn_reflns_limit_h_max       11
_diffrn_reflns_limit_h_min       -11
_diffrn_reflns_limit_k_max       13
_diffrn_reflns_limit_k_min       -13
_diffrn_reflns_limit_l_max       14
_diffrn_reflns_limit_l_min       -14
_diffrn_reflns_number            20736
_diffrn_reflns_point_group_measured_fraction_full 0.999
_diffrn_reflns_point_group_measured_fraction_max 0.996
_diffrn_reflns_theta_full        25.242
_diffrn_reflns_theta_max         27.262
_diffrn_reflns_theta_min         1.974
_exptl_absorpt_coefficient_mu    4.712
_exptl_absorpt_correction_T_max  0.9156
_exptl_absorpt_correction_T_min  0.6732
_exptl_absorpt_correction_type   numerical
_exptl_absorpt_process_details   'SADABS (Sheldrick, 2014)'
_exptl_crystal_colour            colorless
_exptl_crystal_density_diffrn    1.719
_exptl_crystal_description       block
_exptl_crystal_F_000             456
_exptl_crystal_size_max          0.135
_exptl_crystal_size_mid          0.080
_exptl_crystal_size_min          0.037
_refine_diff_density_max         1.944
_refine_diff_density_min         -1.742
_refine_diff_density_rms         0.096
_refine_ls_abs_structure_details
;
 Flack x determined using 2666 quotients [(I+)-(I-)]/[(I+)+(I-)]
 (Parsons, Flack and Wagner, Acta Cryst. B69 (2013) 249-259).
;
_refine_ls_abs_structure_Flack   0.039(5)
_refine_ls_extinction_method     none
_refine_ls_goodness_of_fit_ref   1.037
_refine_ls_hydrogen_treatment    constr
_refine_ls_matrix_type           full
_refine_ls_number_parameters     415
_refine_ls_number_reflns         7919
_refine_ls_number_restraints     3
_refine_ls_restrained_S_all      1.037
_refine_ls_R_factor_all          0.0556
_refine_ls_R_factor_gt           0.0415
_refine_ls_shift/su_max          0.000
_refine_ls_shift/su_mean         0.000
_refine_ls_structure_factor_coef Fsqd
_refine_ls_weighting_details
'w=1/[\s^2^(Fo^2^)+(0.0353P)^2^+0.0898P] where P=(Fo^2^+2Fc^2^)/3'
_refine_ls_weighting_scheme      calc
_refine_ls_wR_factor_gt          0.0838
_refine_ls_wR_factor_ref         0.0889
_reflns_Friedel_coverage         0.993
_reflns_Friedel_fraction_full    0.997
_reflns_Friedel_fraction_max     0.993
_reflns_number_gt                6587
_reflns_number_total             7919
_reflns_threshold_expression     'I > 2\s(I)'
_cod_data_source_file            ja5b01384_si_002.cif
_cod_data_source_block           su1415
_cod_database_code               4129371
_shelx_shelxl_version_number     2014/7
_shelx_space_group_comment
;
The symmetry employed for this shelxl refinement is uniquely defined
by the following loop, which should always be used as a source of
symmetry information in preference to the above space-group names.
They are only intended as comments.
;
_shelx_estimated_absorpt_t_min   0.569
_shelx_estimated_absorpt_t_max   0.845
_shelx_res_file
;

    su1415.res created by SHELXL-2014/7


TITL su1415 in P1
CELL  0.71073   8.6359  10.3823  11.5035   63.959   86.221   74.140
ZERR    2.00   0.00080   0.00090   0.00100   0.0025   0.0028   0.0027
LATT -1
SFAC C H O CL BR
UNIT 36 34 4 2 4

TEMP -153.150
SIZE 0.037 0.08 0.135

L.S. 10
BOND $H
FMAP 2
PLAN -20
CONF
ACTA

WGHT    0.035300    0.089800
FVAR       0.57746
BR1A  5   -0.038613    0.682330    0.340558    11.00000    0.04393    0.08019 =
         0.04803    0.00132    0.02261    0.01113
BR2A  5    0.263534   -0.339030    0.688993    11.00000    0.03811    0.02043 =
         0.04304   -0.01278    0.00997   -0.00971
CL1A  4    0.409217    0.555355    0.158723    11.00000    0.03034    0.02452 =
         0.03192   -0.01638    0.00329   -0.00359
O1A   3    0.343723    0.362476    0.439690    11.00000    0.03578    0.01371 =
         0.02048   -0.00314   -0.00381   -0.00626
O2A   3    0.466429    0.279978    0.634751    11.00000    0.04183    0.02393 =
         0.02470   -0.00411   -0.00982   -0.00833
C1A   1    0.123117    0.606419    0.244736    11.00000    0.02538    0.02499 =
         0.03201   -0.00300   -0.00302   -0.00601
AFIX  23
H1AA  2    0.126750    0.501681    0.268409    11.00000   -1.20000
H1AB  2    0.092983    0.665282    0.150753    11.00000   -1.20000
AFIX   0
C2A   1    0.286814    0.614059    0.272348    11.00000    0.02435    0.02182 =
         0.02674   -0.01071   -0.00284   -0.00454
C3A   1    0.296703    0.768938    0.243060    11.00000    0.03885    0.02264 =
         0.01979   -0.00621   -0.00778   -0.00731
AFIX  23
H3AA  2    0.411770    0.767315    0.244082    11.00000   -1.20000
H3AB  2    0.247523    0.794274    0.313170    11.00000   -1.20000
AFIX   0
C4A   1    0.214179    0.890931    0.113904    11.00000    0.04917    0.01604 =
         0.02776   -0.00455   -0.01576   -0.00679
AFIX  23
H4AA  2    0.263108    0.866341    0.043356    11.00000   -1.20000
H4AB  2    0.098791    0.893669    0.112612    11.00000   -1.20000
AFIX   0
C5A   1    0.227087    1.043734    0.088060    11.00000    0.03407    0.01711 =
         0.02001   -0.00550   -0.01334   -0.00033
C6A   1    0.316766    1.115056   -0.009558    11.00000    0.02751    0.02912 =
         0.04473   -0.02157   -0.00515    0.00308
AFIX  43
H6AA  2    0.372593    1.066608   -0.059632    11.00000   -1.20000
AFIX   0
C7A   1    0.327952    1.254563   -0.036781    11.00000    0.03587    0.03296 =
         0.05337   -0.01322   -0.00309   -0.01554
AFIX  43
H7AA  2    0.389040    1.302368   -0.106245    11.00000   -1.20000
AFIX   0
C8A   1    0.251812    1.324672    0.035414    11.00000    0.04947    0.02395 =
         0.04410   -0.00758   -0.02064   -0.01693
AFIX  43
H8AA  2    0.262907    1.419822    0.018329    11.00000   -1.20000
AFIX   0
C9A   1    0.157545    1.257048    0.134418    11.00000    0.07736    0.02552 =
         0.03478   -0.02343   -0.02247    0.01581
AFIX  43
H9AA  2    0.102426    1.306309    0.184099    11.00000   -1.20000
AFIX   0
C10A  1    0.145156    1.116702    0.159578    11.00000    0.05422    0.02634 =
         0.02058   -0.00162   -0.00441   -0.00651
AFIX  43
H10A  2    0.080124    1.070254    0.226234    11.00000   -1.20000
AFIX   0
C11A  1    0.356907    0.508723    0.408720    11.00000    0.04327    0.01731 =
         0.02171   -0.00771   -0.00275   -0.00656
AFIX  23
H11A  2    0.471634    0.505579    0.415849    11.00000   -1.20000
H11B  2    0.297991    0.544138    0.470575    11.00000   -1.20000
AFIX   0
C12A  1    0.401604    0.256498    0.560374    11.00000    0.02303    0.01623 =
         0.01922   -0.00448   -0.00022   -0.00542
C13A  1    0.372034    0.113661    0.586866    11.00000    0.02102    0.01085 =
         0.01880   -0.00628    0.00413   -0.00274
C14A  1    0.434907   -0.009794    0.701871    11.00000    0.02672    0.02632 =
         0.02040   -0.00849   -0.00224   -0.00003
AFIX  43
H14A  2    0.499661   -0.001274    0.760382    11.00000   -1.20000
AFIX   0
C15A  1    0.405350   -0.145847    0.733551    11.00000    0.03238    0.01457 =
         0.01953   -0.00196   -0.00152    0.00626
AFIX  43
H15A  2    0.448441   -0.229760    0.813095    11.00000   -1.20000
AFIX   0
C16A  1    0.313293   -0.156555    0.648242    11.00000    0.02541    0.01482 =
         0.03375   -0.00804    0.00761   -0.00344
C17A  1    0.250182   -0.035974    0.529523    11.00000    0.02564    0.02576 =
         0.02689   -0.00991   -0.00369   -0.00338
AFIX  43
H17A  2    0.188257   -0.046084    0.470308    11.00000   -1.20000
AFIX   0
C18A  1    0.280363    0.097304    0.501144    11.00000    0.03003    0.02422 =
         0.02465   -0.00528   -0.00581   -0.00520
AFIX  43
H18A  2    0.237857    0.180685    0.421137    11.00000   -1.20000
AFIX   0
BR1B  5    0.665089    0.397822    0.950171    11.00000    0.05180    0.04681 =
         0.03437   -0.02394    0.01156   -0.02193
BR2B  5    0.820410    1.338940    0.369447    11.00000    0.03442    0.02236 =
         0.03772   -0.00929    0.00636   -0.01072
CL1B  4    1.041095    0.377535    0.670508    11.00000    0.02425    0.03124 =
         0.03887   -0.00633    0.00707   -0.00845
O1B   3    0.736825    0.640453    0.607300    11.00000    0.03285    0.01618 =
         0.02134   -0.00749   -0.01042   -0.00233
O2B   3    0.562928    0.741766    0.434720    11.00000    0.03724    0.01991 =
         0.02857   -0.00642   -0.01622   -0.00411
C1B   1    0.857124    0.407931    0.852063    11.00000    0.03146    0.02239 =
         0.03189   -0.00772   -0.00981   -0.01249
AFIX  23
H1B1  2    0.874143    0.507919    0.821906    11.00000   -1.20000
H1B2  2    0.952251    0.333477    0.908930    11.00000   -1.20000
AFIX   0
C2B   1    0.841705    0.378442    0.737232    11.00000    0.02756    0.01213 =
         0.02616   -0.00419   -0.00272   -0.00711
C3B   1    0.812116    0.228352    0.769373    11.00000    0.02517    0.01521 =
         0.03033   -0.01108   -0.01130   -0.00062
AFIX  23
H3BA  2    0.701390    0.230831    0.798643    11.00000   -1.20000
H3BB  2    0.817532    0.214986    0.688981    11.00000   -1.20000
AFIX   0
C4B   1    0.929273    0.094001    0.872569    11.00000    0.03353    0.02452 =
         0.05055   -0.01076   -0.01845   -0.00612
AFIX  23
H4BA  2    1.037782    0.081730    0.838278    11.00000   -1.20000
H4BB  2    0.936122    0.113052    0.948932    11.00000   -1.20000
AFIX   0
C5B   1    0.882123   -0.048249    0.915088    11.00000    0.02540    0.01412 =
         0.02961   -0.00214   -0.00978   -0.00554
C6B   1    0.965660   -0.157658    0.880912    11.00000    0.03664    0.03851 =
         0.02764   -0.01000   -0.00519   -0.01174
AFIX  43
H6BA  2    1.052705   -0.142123    0.826156    11.00000   -1.20000
AFIX   0
C7B   1    0.925313   -0.289302    0.924684    11.00000    0.03983    0.02648 =
         0.04108   -0.01447   -0.01221   -0.00891
AFIX  43
H7BA  2    0.986207   -0.364173    0.900713    11.00000   -1.20000
AFIX   0
C8B   1    0.798989   -0.315578    1.002356    11.00000    0.06500    0.02835 =
         0.04905   -0.00961   -0.01817   -0.02232
AFIX  43
H8BA  2    0.771816   -0.407234    1.032469    11.00000   -1.20000
AFIX   0
C9B   1    0.713531   -0.205644    1.034996    11.00000    0.03748    0.06443 =
         0.05515   -0.01231    0.00883   -0.03470
AFIX  43
H9BA  2    0.624340   -0.220302    1.087431    11.00000   -1.20000
AFIX   0
C10B  1    0.755907   -0.070916    0.991944    11.00000    0.03154    0.03525 =
         0.05680   -0.02941    0.00113   -0.00348
AFIX  43
H10B  2    0.696594    0.003997    1.016450    11.00000   -1.20000
AFIX   0
C11B  1    0.715357    0.497438    0.634305    11.00000    0.02463    0.01185 =
         0.02614   -0.00963   -0.00845    0.00323
AFIX  23
H11C  2    0.726424    0.482434    0.554587    11.00000   -1.20000
H11D  2    0.606337    0.492314    0.664859    11.00000   -1.20000
AFIX   0
C12B  1    0.654941    0.754220    0.500392    11.00000    0.02303    0.01845 =
         0.02122   -0.00677    0.00417    0.00271
C13B  1    0.695192    0.896843    0.472207    11.00000    0.02922    0.01351 =
         0.02265   -0.00534    0.00181   -0.00150
C14B  1    0.794652    0.904601    0.556556    11.00000    0.03015    0.01756 =
         0.01846   -0.00534   -0.00258   -0.00307
AFIX  43
H14B  2    0.838556    0.819200    0.634955    11.00000   -1.20000
AFIX   0
C15B  1    0.830052    1.037308    0.526354    11.00000    0.03399    0.02475 =
         0.02685   -0.01407   -0.00315   -0.00815
AFIX  43
H15B  2    0.896881    1.044631    0.584307    11.00000   -1.20000
AFIX   0
C16B  1    0.767678    1.157822    0.412062    11.00000    0.02419    0.02186 =
         0.02925   -0.01242    0.01153   -0.00657
C17B  1    0.666981    1.152700    0.325623    11.00000    0.04024    0.02267 =
         0.01947   -0.00328   -0.00054   -0.00656
AFIX  43
H17B  2    0.623688    1.238336    0.247212    11.00000   -1.20000
AFIX   0
C18B  1    0.632074    1.021690    0.356348    11.00000    0.02978    0.02617 =
         0.02479   -0.00864   -0.00608   -0.00103
AFIX  43
H18B  2    0.564257    1.015250    0.298479    11.00000   -1.20000

AFIX   0
HKLF 4

REM  su1415 in P1
REM R1 =  0.0415 for    6587 Fo > 4sig(Fo)  and  0.0556 for all    7919 data
REM    415 parameters refined using      3 restraints

END

WGHT      0.0349      0.1092

REM Highest difference peak  1.944,  deepest hole -1.742,  1-sigma level  0.096
Q1    1   1.0779  0.2784  0.6915  11.00000  0.05    1.94
Q2    1  -0.0465  0.6612  0.3272  11.00000  0.05    1.51
Q3    1  -0.0038  0.7426  0.3490  11.00000  0.05    1.50
Q4    1   1.1535  0.3225  0.7426  11.00000  0.05    0.73
Q5    1  -0.0231  0.6488  0.4239  11.00000  0.05    0.65
Q6    1   0.4169  0.6020  0.1002  11.00000  0.05    0.64
Q7    1   0.8396 -0.2327  0.9473  11.00000  0.05    0.63
Q8    1   0.0185  0.6178  0.3620  11.00000  0.05    0.61
Q9    1   0.0332  0.6051  0.3936  11.00000  0.05    0.59
Q10   1   0.5374  1.0790 -0.0171  11.00000  0.05    0.57
Q11   1   0.9692  1.4033  0.3132  11.00000  0.05    0.55
Q12   1   0.4079  0.4604  0.6256  11.00000  0.05    0.50
Q13   1   0.9516  1.2982  0.3056  11.00000  0.05    0.49
Q14   1   0.6952  0.4527  0.8798  11.00000  0.05    0.45
Q15   1   1.0353  0.3785  0.7028  11.00000  0.05    0.45
Q16   1   0.3429  0.5549  0.1643  11.00000  0.05    0.42
Q17   1   1.0018  0.3975  0.6265  11.00000  0.05    0.42
Q18   1   0.5990  0.3819  1.0491  11.00000  0.05    0.41
Q19   1   1.1079  0.3594  0.7113  11.00000  0.05    0.40
Q20   1   0.9611  0.3819  0.8010  11.00000  0.05    0.39
;
_shelx_res_checksum              81437
_shelx_hkl_file
;
  -1   0   0  151.08    9.50
  -1   0   0  152.98    9.10
  -1   0   0  154.18    9.40
  -1   0   0  143.59    8.70
   1   0   0  146.89    9.60
   1   0   0  154.48    8.90
   1   0   0  147.99    9.20
  -2   0   0 3665.13  176.18
  -2   0   0 3669.23  176.58
   2   0   0 3650.73  177.38
   2   0   0 3592.94  176.78
   2   0   0 3574.14  176.08
   2   0   0 3676.23  177.38
  -3   0   0  727.63   41.20
  -3   0   0  716.63   40.90
  -3   0   0  741.93   41.70
   3   0   0  839.52   42.70
   3   0   0  856.01   41.60
   3   0   0  857.61   43.50
   3   0   0  794.92   43.20
  -4   0   0   63.29    9.00
  -4   0   0   78.79    9.60
  -4   0   0   72.99    9.10
  -4   0   0   64.29    8.10
   4   0   0   78.89   10.90
   4   0   0   67.29    9.10
   4   0   0   70.49   11.00
   4   0   0   75.69   10.30
  -5   0   0  391.16   24.90
  -5   0   0  404.76   26.50
  -5   0   0  402.76   25.70
  -5   0   0  447.86   25.90
   5   0   0  388.66   27.20
   5   0   0  418.76   28.90
   5   0   0  392.66   28.20
   5   0   0  386.46   25.40
  -6   0   0  233.28   19.40
  -6   0   0  245.38   19.70
  -6   0   0  241.18   19.00
  -6   0   0  245.08   18.30
   6   0   0  201.18   21.20
   6   0   0  220.48   21.70
   6   0   0  239.88   18.90
   6   0   0  241.08   21.40
  -7   0   0  621.34   38.70
  -7   0   0  591.94   39.60
  -7   0   0  626.04   40.20
  -7   0   0  618.54   38.00
  -7   0   0  627.14   36.30
   7   0   0  602.64   41.50
   7   0   0  620.94   43.00
   7   0   0  685.23   39.40
  -8   0   0   74.89   15.80
  -8   0   0   94.49   14.10
  -8   0   0   88.49   14.60
  -8   0   0   81.99   13.20
  -8   0   0   74.59   11.30
  -8   0   0   71.79   13.70
   8   0   0   69.79   17.90
   8   0   0   61.09   15.60
   8   0   0   92.29   14.60
  -9   0   0   58.49   14.10
  -9   0   0   62.19   13.40
  -9   0   0   74.29   15.10
   9   0   0   52.39   16.00
   9   0   0   59.69   17.80
 -10   0   0   30.10   13.20
 -10   0   0   43.60   14.40
 -10   0   0   47.70   14.60
  10  -1   0   44.80   20.30
 -10   1   0   77.29   17.70
 -10   1   0   49.30   15.90
 -10   1   0   78.29   17.00
   9  -1   0  151.48   26.50
  -9   1   0   89.79   17.60
  -9   1   0  140.99   19.50
  -9   1   0  106.19   19.10
   8  -1   0   19.10   13.60
   8  -1   0   20.50   10.00
  -8   1   0   37.90   11.00
  -8   1   0   20.60    9.70
  -8   1   0   23.60    8.70
   7  -1   0  407.06   28.50
   7  -1   0  400.96   34.20
  -7   1   0  396.96   25.00
  -7   1   0  406.56   27.20
  -7   1   0  397.26   28.50
  -7   1   0  361.86   28.50
  -7   1   0  398.56   30.40
   6  -1   0  390.46   28.10
   6  -1   0  353.66   30.10
   6  -1   0  390.96   26.10
  -6   1   0  371.16   24.90
  -6   1   0  398.36   23.10
  -6   1   0  378.66   26.90
  -6   1   0  361.86   25.70
  -6   1   0  385.46   27.60
   5  -1   0  484.75   30.00
   5  -1   0  465.15   32.40
   5  -1   0  473.95   28.50
  -5   1   0  445.66   29.20
  -5   1   0  448.16   27.60
  -5   1   0  447.36   28.10
  -5   1   0  455.55   25.70
  -5   1   0  449.76   29.30
   4  -1   0  791.32   47.70
   4  -1   0  767.32   45.10
   4  -1   0  790.62   44.30
  -4   1   0  861.61   44.40
  -4   1   0  824.22   42.30
  -4   1   0  823.62   45.40
  -4   1   0  884.71   44.70
  -4   1   0  855.11   45.70
   3  -1   0  333.57   24.20
   3  -1   0  349.96   22.30
   3  -1   0  338.27   21.50
  -3   1   0  402.36   21.90
  -3   1   0  381.86   20.10
  -3   1   0  391.46   23.20
  -3   1   0  420.46   22.00
  -2   1   0  109.99   10.00
  -2   1   0  119.69    8.30
  -2   1   0  114.29    8.70
  -2   1   0  111.39    7.00
   1  -1   0  779.92   37.70
   1  -1   0  758.52   37.70
   1  -1   0  764.52   37.00
   1  -1   0  786.82   38.30
   1  -1   0  749.73   38.50
   1  -1   0  743.33   39.30
  -1   1   0  786.52   38.40
  -1   1   0  737.43   39.00
  -1   1   0  770.92   37.80
  -1   1   0  779.82   38.50
  -1   1   0  750.72   37.60
  -1   1   0  767.42   37.00
   0  -1   0 1068.69   52.79
   0  -1   0 1095.49   52.39
   0  -1   0 1035.10   52.79
   0  -1   0 1110.79   52.59
   0   1   0 1105.19   52.59
   0   1   0 1063.09   52.89
   0   1   0 1070.59   52.89
   0   1   0 1097.29   52.39
   0   1   0 1067.69   52.59
  -1  -1   0  372.86   19.10
  -1  -1   0  376.36   19.00
  -1  -1   0  366.96   19.90
  -1  -1   0  365.56   19.00
  -1  -1   0  364.26   19.50
  -1  -1   0  373.16   18.30
  -1  -1   0  358.56   19.60
   1   1   0  386.46   20.00
   1   1   0  382.06   19.10
   1   1   0  363.46   19.40
   1   1   0  371.36   20.60
   1   1   0  396.56   19.10
  -2  -1   0   33.30    4.60
  -2  -1   0   37.60    4.10
  -2  -1   0   32.90    4.90
   2   1   0   28.00    4.90
   2   1   0   26.20    4.40
   2   1   0   30.40    6.00
   2   1   0   29.60    5.60
  -3  -1   0 2561.14  128.99
  -3  -1   0 2618.14  129.79
   3   1   0 2579.74  131.49
   3   1   0 2758.32  131.09
   3   1   0 2664.73  131.19
   3   1   0 2667.83  129.59
  -4  -1   0 1041.50   55.49
  -4  -1   0 1035.80   56.09
   4   1   0 1070.09   55.99
   4   1   0 1128.39   58.29
   4   1   0 1098.49   58.19
   4   1   0 1071.69   58.69
  -5  -1   0  354.76   23.80
  -5  -1   0  395.26   23.20
  -5  -1   0  420.26   26.20
  -5  -1   0  364.66   23.20
   5   1   0  336.77   25.70
   5   1   0  346.47   25.70
   5   1   0  354.66   23.40
   5   1   0  366.06   26.50
  -6  -1   0  908.91   49.30
  -6  -1   0  902.21   49.70
  -6  -1   0  877.11   51.39
  -6  -1   0  872.41   48.30
   6   1   0  806.72   51.29
   6   1   0  894.11   52.49
   6   1   0  865.61   48.80
   6   1   0  854.41   52.29
  -7  -1   0   65.89   12.70
  -7  -1   0   63.99   10.60
  -7  -1   0   67.49   11.80
  -7  -1   0   60.19   10.30
  -7  -1   0   49.40   10.90
   7   1   0   86.59   13.20
   7   1   0   72.79   14.50
   7   1   0   70.49   14.60
   7   1   0   76.39   15.50
  -8  -1   0  145.39   19.80
  -8  -1   0  136.79   16.90
  -8  -1   0  115.59   15.50
  -8  -1   0  107.29   14.70
  -8  -1   0  141.49   18.70
  -8  -1   0  124.49   17.10
   8   1   0  145.39   22.30
   8   1   0  102.39   18.60
   8   1   0  135.89   20.60
   8   1   0  137.09   17.10
  -9  -1   0    5.90    7.50
  -9  -1   0   -0.40    8.00
  -9  -1   0  -17.60    7.20
  -9  -1   0   -0.10    7.20
  -9  -1   0   -4.50    6.30
   9   1   0   -4.10   11.40
   9   1   0    4.00   11.80
 -10  -1   0    3.20    9.00
 -10  -1   0   11.50   10.10
 -10  -1   0    8.40   11.00
 -10  -1   0    4.90   10.10
  10   1   0    8.50   13.30
  10  -2   0    8.80   17.20
 -10   2   0    8.50   12.50
 -10   2   0    9.40   12.50
 -10   2   0   19.30   13.90
   9  -2   0   -3.50   15.50
  -9   2   0    3.90   10.60
  -9   2   0   20.20   11.70
   8  -2   0   46.00   17.20
   8  -2   0   63.49   13.70
  -8   2   0   56.69   13.00
  -8   2   0   34.30   12.80
   7  -2   0    4.30    7.90
   7  -2   0    7.40   11.80
  -7   2   0   12.70   10.20
  -7   2   0    7.10    8.50
  -7   2   0    6.60    7.10
   6  -2   0 1293.87   66.19
   6  -2   0 1247.98   71.79
  -6   2   0 1139.69   64.49
  -6   2   0 1189.68   64.39
  -6   2   0 1209.98   67.29
  -6   2   0 1203.18   67.69
  -6   2   0 1156.58   61.19
   5  -2   0  461.65   30.70
   5  -2   0  461.55   34.40
  -5   2   0  532.55   30.90
  -5   2   0  542.35   27.60
  -5   2   0  500.55   33.00
  -5   2   0  510.65   33.00
  -5   2   0  518.75   30.10
   4  -2   0 1024.60   59.79
   4  -2   0 1068.09   55.89
  -4   2   0 1056.49   52.69
  -4   2   0 1054.79   55.69
  -4   2   0 1055.99   57.49
  -4   2   0 1075.59   54.79
  -4   2   0 1036.80   57.59
   3  -2   0  394.16   26.00
   3  -2   0  375.66   21.70
   3  -2   0  370.66   22.90
  -3   2   0  405.56   24.80
  -3   2   0  372.26   22.80
  -3   2   0  402.26   21.80
  -3   2   0  394.16   20.10
   2  -2   0  113.09    8.10
   2  -2   0  118.29   11.60
  -2   2   0  124.99   11.30
  -2   2   0  116.99    9.50
  -2   2   0  118.09    8.20
  -2   2   0  112.49    6.60
   1  -2   0  675.53   34.80
   1  -2   0  695.53   33.40
   1  -2   0  714.63   34.00
   1  -2   0  662.53   35.60
   1  -2   0  717.23   32.50
  -1   2   0  630.94   32.60
  -1   2   0  665.13   34.90
  -1   2   0  629.64   35.40
  -1   2   0  617.34   33.90
  -1   2   0  635.34   33.20
   0  -2   0  579.24   32.50
   0  -2   0  612.24   32.20
   0  -2   0  607.24   31.30
   0  -2   0  602.44   31.80
   0  -2   0  628.34   31.20
   0   2   0  626.44   32.70
   0   2   0  661.13   32.70
   0   2   0  621.74   31.70
   0   2   0  647.04   31.30
  -1  -2   0 3288.47  157.08
  -1  -2   0 3205.58  157.28
  -1  -2   0 3099.99  156.88
  -1  -2   0 3189.78  156.48
   1   2   0 3211.28  156.98
   1   2   0 3374.06  158.88
   1   2   0 3283.87  157.68
   1   2   0 3279.97  156.58
  -2  -2   0  278.77   17.40
  -2  -2   0  294.37   17.90
  -2  -2   0  313.17   17.60
  -2  -2   0  312.37   16.70
  -2  -2   0  295.87   16.60
  -2  -2   0  293.97   15.10
   2   2   0  299.37   16.70
   2   2   0  282.37   19.40
   2   2   0  297.37   18.50
  -3  -2   0  838.92   46.00
  -3  -2   0  896.41   44.80
  -3  -2   0  902.61   47.00
   3   2   0  921.91   47.90
   3   2   0  899.91   49.30
  -4  -2   0   69.29    9.90
  -4  -2   0   76.89    7.80
  -4  -2   0   80.49    9.80
   4   2   0   89.79   11.60
   4   2   0   94.89   12.40
   4   2   0   92.99   10.30
  -5  -2   0  336.17   24.00
  -5  -2   0  352.36   21.90
  -5  -2   0  332.77   23.10
   5   2   0  359.56   25.20
   5   2   0  368.76   24.90
   5   2   0  376.26   27.00
   5   2   0  362.36   23.00
  -6  -2   0  266.97   21.50
  -6  -2   0  270.17   19.40
  -6  -2   0  251.97   20.20
  -6  -2   0  273.97   23.10
   6   2   0  282.27   23.00
   6   2   0  282.87   24.70
   6   2   0  263.47   19.80
   6   2   0  275.87   22.60
  -7  -2   0  271.37   23.50
  -7  -2   0  241.48   21.50
  -7  -2   0  244.28   20.00
  -7  -2   0  250.47   18.60
  -7  -2   0  258.97   19.30
   7   2   0  207.78   22.50
   7   2   0  220.18   19.50
   7   2   0  216.98   22.40
   7   2   0  210.68   23.60
  -8  -2   0  237.38   23.40
  -8  -2   0  259.27   25.20
  -8  -2   0  272.57   21.10
  -8  -2   0  249.68   22.50
  -8  -2   0  248.28   21.40
   8   2   0  272.37   26.10
   8   2   0  255.77   22.30
   8   2   0  253.07   27.20
  -9  -2   0  101.79   15.70
  -9  -2   0  121.89   15.60
  -9  -2   0  102.49   16.60
  -9  -2   0   96.99   16.00
  -9  -2   0  116.39   18.20
  -9  -2   0  141.59   21.50
  -9  -2   0  106.19   16.30
   9   2   0  105.69   16.20
   9   2   0  122.19   20.70
   9   2   0   85.89   19.90
 -10  -2   0   27.10   10.90
 -10  -2   0   40.10   12.80
 -10  -2   0   43.20   13.30
 -10  -2   0   32.20   13.40
 -10  -2   0   46.10   19.40
  10   2   0   29.70   16.60
  10   2   0   56.69   17.40
 -11  -2   0   -2.20   10.40
 -11  -2   0   -4.60   11.80
 -11  -2   0    0.30   10.00
   9  -3   0   29.70   16.80
  -9   3   0   50.29   15.80
  -9   3   0   42.20   14.80
   8  -3   0   -3.50   12.30
   8  -3   0    2.90   14.60
  -8   3   0   -6.50    9.00
  -8   3   0    2.00    9.90
   7  -3   0   58.39   12.80
   7  -3   0   56.39   16.90
  -7   3   0   62.29   14.30
  -7   3   0   65.19   12.00
  -7   3   0   54.29   13.50
   6  -3   0  527.45   40.80
   6  -3   0  557.94   35.30
  -6   3   0  568.74   38.00
  -6   3   0  532.25   34.50
  -6   3   0  574.44   38.30
   5  -3   0  422.56   27.50
   5  -3   0  464.15   33.20
  -5   3   0  385.56   22.20
  -5   3   0  452.55   27.40
  -5   3   0  398.56   29.30
  -5   3   0  400.76   25.00
  -5   3   0  427.46   29.60
   4  -3   0  411.26   25.70
   4  -3   0  374.66   22.90
   4  -3   0  381.96   29.30
  -4   3   0  423.96   23.50
  -4   3   0  393.96   25.10
  -4   3   0  408.56   20.90
  -4   3   0  404.16   27.50
  -4   3   0  390.16   27.70
   3  -3   0 1685.93   91.39
   3  -3   0 1664.63   85.89
   3  -3   0 1592.84   87.79
  -3   3   0 1856.71   90.69
  -3   3   0 1786.12   83.99
  -3   3   0 1766.72   88.19
  -3   3   0 1800.82   86.39
  -3   3   0 1730.13   89.49
   2  -3   0  267.27   15.10
   2  -3   0  271.67   15.40
   2  -3   0  270.77   18.80
   2  -3   0  274.27   13.20
   2  -3   0  279.67   17.50
  -2   3   0  250.27   17.20
  -2   3   0  243.48   15.60
  -2   3   0  225.78   13.20
   1  -3   0  211.78   11.50
   1  -3   0  203.18   14.20
   1  -3   0  201.78   12.30
   1  -3   0  201.98   14.80
   1  -3   0  214.08   13.50
  -1   3   0  213.78   13.70
  -1   3   0  205.38   14.20
   0  -3   0 3419.16  164.18
   0  -3   0 3409.06  165.38
   0  -3   0 3302.17  164.68
   0  -3   0 3337.47  164.08
   0  -3   0 3386.76  163.38
   0   3   0 3354.06  165.28
   0   3   0 3413.46  165.18
  -1  -3   0 2238.18  116.49
  -1  -3   0 2265.27  114.49
  -1  -3   0 2389.06  115.59
  -1  -3   0 2388.66  115.99
   1   3   0 2484.85  117.29
   1   3   0 2474.65  118.49
   1   3   0 2342.67  116.29
  -2  -3   0  856.71   43.10
  -2  -3   0  809.02   42.90
  -2  -3   0  854.31   41.80
   2   3   0  808.82   44.30
   2   3   0  784.22   42.10
   2   3   0  784.52   43.50
   2   3   0  824.22   45.60
  -3  -3   0  123.49    9.70
  -3  -3   0  119.59    7.30
  -3  -3   0  128.79   11.50
  -3  -3   0  108.59   10.80
   3   3   0  130.49   13.40
   3   3   0  143.29   12.50
  -4  -3   0  275.87   18.40
  -4  -3   0  269.07   19.60
  -4  -3   0  292.17   16.60
  -4  -3   0  286.97   19.90
   4   3   0  303.77   23.10
   4   3   0  300.87   21.00
  -5  -3   0  223.58   17.20
  -5  -3   0  211.58   14.20
  -5  -3   0  213.48   17.00
  -5  -3   0  203.48   16.20
   5   3   0  218.38   18.50
   5   3   0  218.68   19.80
  -6  -3   0    5.30    4.40
  -6  -3   0    0.50    5.50
  -6  -3   0   -0.10    5.10
  -6  -3   0    0.90    6.30
   6   3   0   16.80    8.60
   6   3   0    7.10    7.80
  -7  -3   0  497.85   37.50
  -7  -3   0  541.05   33.50
  -7  -3   0  518.35   31.80
  -7  -3   0  541.55   35.00
  -7  -3   0  546.35   35.70
   7   3   0  505.25   36.40
   7   3   0  500.55   39.30
  -8  -3   0   53.29   12.00
  -8  -3   0   47.10   10.30
  -8  -3   0   53.39   13.70
  -8  -3   0   55.19    9.80
  -8  -3   0   49.70   12.40
  -8  -3   0   45.90   11.10
   8   3   0   54.89   15.70
   8   3   0   47.80   14.20
  -9  -3   0  148.59   20.20
  -9  -3   0  113.29   18.50
  -9  -3   0  168.88   19.90
  -9  -3   0  132.99   22.00
   9   3   0  117.39   20.40
   9   3   0  147.59   24.20
 -10  -3   0   59.09   14.00
 -10  -3   0   83.09   17.00
 -10  -3   0   43.90   13.40
  10   3   0   71.79   20.30
 -11  -3   0    3.90   10.20
 -11  -3   0   -9.20    9.10
 -11  -3   0   -0.20   11.00
  11   3   0    1.40   15.10
   9  -4   0   22.00   19.00
  -9   4   0   16.40   13.30
  -9   4   0    1.00   12.50
   8  -4   0  -10.10   13.50
  -8   4   0   -0.60   10.70
  -8   4   0   -0.40   10.70
   7  -4   0   31.40   11.30
   7  -4   0   26.00   16.10
  -7   4   0   20.00   11.80
  -7   4   0   22.50   10.90
   6  -4   0    6.40    8.10
   6  -4   0   10.10   11.70
  -6   4   0    9.40    7.70
  -6   4   0   -2.50    8.80
  -6   4   0   11.70    9.30
   5  -4   0  270.07   25.90
   5  -4   0  336.97   23.40
  -5   4   0  271.67   21.40
  -5   4   0  270.57   23.60
  -5   4   0  278.27   24.10
   4  -4   0   89.59   12.00
   4  -4   0   90.09   15.30
   4  -4   0   82.49   11.90
  -4   4   0   63.09   11.50
  -4   4   0   76.49   12.50
  -4   4   0   70.69    8.00
  -4   4   0   49.80    9.70
   3  -4   0  361.56   26.90
   3  -4   0  367.56   20.90
  -3   4   0  342.57   24.50
  -3   4   0  353.96   23.80
  -3   4   0  358.46   26.10
  -3   4   0  363.36   21.30
   2  -4   0   51.79    9.20
   2  -4   0   51.49    6.10
   2  -4   0   48.30    8.80
   2  -4   0   50.19    4.00
   2  -4   0   51.29    6.60
  -2   4   0   62.99   10.00
  -2   4   0   59.89    9.50
  -2   4   0   63.89    7.60
  -2   4   0   63.99    9.40
   1  -4   0  257.97   16.10
   1  -4   0  272.57   18.90
   1  -4   0  260.67   18.80
   1  -4   0  267.67   17.80
   1  -4   0  285.37   16.10
  -1   4   0  316.07   19.20
  -1   4   0  306.77   20.50
   0  -4   0 1511.35   74.99
   0  -4   0 1545.75   74.09
   0  -4   0 1487.25   75.79
   0  -4   0 1553.94   75.19
   0  -4   0 1507.75   76.49
   0   4   0 1426.76   76.59
   0   4   0 1396.96   76.29
   0   4   0 1437.16   76.19
  -1  -4   0  774.72   40.90
  -1  -4   0  790.42   39.80
  -1  -4   0  770.12   42.00
  -1  -4   0  752.22   40.60
   1   4   0  793.12   39.70
   1   4   0  762.42   42.40
   1   4   0  765.92   41.90
   1   4   0  821.72   44.10
  -2  -4   0 1526.55   80.79
  -2  -4   0 1618.24   82.19
  -2  -4   0 1563.54   82.59
  -2  -4   0 1602.64   79.29
   2   4   0 1664.63   78.39
   2   4   0 1614.64   81.79
   2   4   0 1685.63   78.49
   2   4   0 1616.14   83.29
   2   4   0 1747.53   85.99
  -3  -4   0 1469.55   74.29
  -3  -4   0 1456.95   72.49
  -3  -4   0 1461.85   74.29
   3   4   0 1397.86   77.69
   3   4   0 1428.26   72.89
   3   4   0 1433.26   75.89
  -4  -4   0 1017.90   55.69
  -4  -4   0 1030.40   50.49
  -4  -4   0 1001.60   53.69
  -4  -4   0 1061.09   56.19
   4   4   0 1053.09   57.19
   4   4   0 1054.59   59.79
  -5  -4   0   16.70    5.40
  -5  -4   0   12.30    6.40
  -5  -4   0   19.50    6.70
  -5  -4   0   11.30    3.40
   5   4   0   17.40    8.80
   5   4   0   13.90    7.50
  -6  -4   0  243.98   19.30
  -6  -4   0  260.87   21.20
  -6  -4   0  247.08   16.40
  -6  -4   0  257.17   21.00
   6   4   0  274.17   22.60
   6   4   0  244.08   23.90
  -7  -4   0  171.78   14.00
  -7  -4   0  190.08   20.30
  -7  -4   0  174.68   19.70
  -7  -4   0  186.68   17.10
   7   4   0  120.19   20.30
   7   4   0  173.58   21.40
  -8  -4   0  236.88   26.60
  -8  -4   0  256.97   23.90
  -8  -4   0  266.87   22.20
  -8  -4   0  238.98   23.70
   8   4   0  231.38   29.70
   8   4   0  225.48   24.90
  -9  -4   0   86.49   14.90
  -9  -4   0   69.39   14.80
  -9  -4   0   83.29   16.20
   9   4   0   74.59   17.10
   9   4   0   53.79   17.60
 -10  -4   0   74.59   15.60
 -10  -4   0  100.89   18.80
 -10  -4   0  103.79   18.60
  10   4   0   64.29   20.20
 -11  -4   0   22.10   13.10
 -11  -4   0    2.80   11.50
 -11  -4   0    8.20   12.40
  11   4   0   16.50   16.70
   8  -5   0    4.90   15.80
  -8   5   0    9.50   12.00
  -8   5   0   -5.80   12.70
   7  -5   0    2.10    9.80
   7  -5   0    3.10   13.70
  -7   5   0    1.60    9.80
  -7   5   0   19.80   13.50
   6  -5   0  156.98   24.40
   6  -5   0  131.89   18.70
  -6   5   0  143.49   21.70
  -6   5   0  179.68   23.00
  -6   5   0  167.18   19.10
   5  -5   0  400.46   28.90
   5  -5   0  383.36   33.70
  -5   5   0  397.96   28.30
  -5   5   0  404.56   31.70
   4  -5   0  428.56   29.90
   4  -5   0  450.55   34.40
  -4   5   0  422.66   31.20
  -4   5   0  463.15   33.40
  -4   5   0  477.65   30.30
   3  -5   0   80.79   11.20
   3  -5   0   65.99   12.70
   3  -5   0   74.69    8.50
   3  -5   0   89.09   12.30
  -3   5   0   85.19   11.70
  -3   5   0  117.89   14.80
  -3   5   0   85.49   13.60
   2  -5   0  329.67   20.10
   2  -5   0  350.46   25.20
   2  -5   0  343.27   21.20
   2  -5   0  352.56   23.70
   2  -5   0  331.27   18.40
  -2   5   0  353.46   25.20
  -2   5   0  373.66   24.30
  -2   5   0  338.97   23.60
   1  -5   0  184.88   14.50
   1  -5   0  179.48   12.50
   1  -5   0  171.38   15.50
   1  -5   0  180.08   15.30
  -1   5   0  193.88   16.80
  -1   5   0  206.08   15.30
  -1   5   0  170.88   15.30
   0  -5   0   58.89    7.20
   0  -5   0   67.59    8.60
   0  -5   0   49.90    8.90
   0  -5   0   67.99   10.00
   0   5   0   72.29   10.60
   0   5   0   74.09    8.60
   0   5   0   68.49   10.20
   0   5   0   76.79   10.70
  -1  -5   0 1043.60   56.09
  -1  -5   0 1031.60   53.39
  -1  -5   0 1119.89   58.39
  -1  -5   0 1062.99   54.49
  -1  -5   0 1013.20   54.49
   1   5   0 1046.20   53.49
   1   5   0 1041.70   56.09
   1   5   0 1048.30   58.09
   1   5   0 1035.40   56.59
  -2  -5   0  280.87   17.90
  -2  -5   0  285.47   15.90
  -2  -5   0  295.87   20.00
  -2  -5   0  293.87   19.00
   2   5   0  287.67   15.70
   2   5   0  286.37   19.30
   2   5   0  276.57   22.30
   2   5   0  279.37   20.40
  -3  -5   0 1232.68   61.69
  -3  -5   0 1113.19   60.49
  -3  -5   0 1161.28   56.49
  -3  -5   0 1156.68   58.99
   3   5   0 1118.09   62.99
   3   5   0 1127.29   59.69
   3   5   0 1088.59   61.69
   3   5   0 1154.58   64.89
  -4  -5   0  188.18   15.90
  -4  -5   0  211.18   17.00
  -4  -5   0  202.58   14.10
   4   5   0  199.18   18.00
   4   5   0  182.18   14.40
   4   5   0  167.48   18.80
  -5  -5   0   18.70    7.80
  -5  -5   0   23.10    5.90
  -5  -5   0   15.10    7.60
   5   5   0    4.80    7.30
   5   5   0    9.50    9.00
  -6  -5   0  229.48   20.80
  -6  -5   0  249.38   21.50
  -6  -5   0  234.78   18.50
   6   5   0  255.47   24.70
   6   5   0  314.67   24.90
  -7  -5   0   67.49   13.40
  -7  -5   0   57.79   10.60
  -7  -5   0   49.20   11.10
   7   5   0   28.20   12.50
   7   5   0   38.70   12.00
  -8  -5   0  267.07   21.70
  -8  -5   0  256.87   24.90
  -8  -5   0  224.58   22.70
   8   5   0  234.68   25.60
   8   5   0  257.97   32.30
  -9  -5   0  103.09   17.90
  -9  -5   0  113.79   19.30
  -9  -5   0   96.49   15.30
   9   5   0   90.69   22.20
   9   5   0   83.39   18.50
 -10  -5   0   -2.70   10.40
 -10  -5   0    2.70   10.50
  10   5   0   12.50   16.60
   7  -6   0   16.30   14.00
   7  -6   0   24.60   12.30
  -7   6   0   17.30   14.60
  -7   6   0   49.00   16.40
   6  -6   0  132.09   23.60
   6  -6   0  124.69   19.40
  -6   6   0  116.69   20.90
  -6   6   0  110.79   19.50
   5  -6   0   98.19   16.80
   5  -6   0  117.29   20.70
  -5   6   0  114.19   18.60
  -5   6   0   78.69   14.40
  -5   6   0  136.69   21.00
   4  -6   0  202.98   20.70
   4  -6   0  198.58   25.10
  -4   6   0  241.98   23.60
  -4   6   0  222.38   20.60
  -4   6   0  253.97   23.70
   3  -6   0  199.98   20.60
   3  -6   0  178.58   17.80
  -3   6   0  176.78   21.30
  -3   6   0  136.19   18.60
  -3   6   0  163.28   18.30
   2  -6   0  570.34   36.00
   2  -6   0  569.04   37.00
   2  -6   0  550.14   31.20
  -2   6   0  521.85   36.80
  -2   6   0  575.84   35.90
  -2   6   0  609.24   36.30
   1  -6   0   10.50    5.90
   1  -6   0    8.70    4.30
   1  -6   0    3.10    5.20
   1  -6   0    8.40    6.20
  -1   6   0    5.20    7.00
  -1   6   0   11.90    6.70
  -1   6   0   10.10    6.80
  -1   6   0   25.80    9.10
   0  -6   0  337.07   22.20
   0  -6   0  362.26   25.30
   0  -6   0  367.86   25.70
   0  -6   0  366.56   23.90
   0   6   0  383.66   23.80
   0   6   0  383.66   26.30
   0   6   0  416.46   27.00
   0   6   0  401.16   26.40
  -1  -6   0  665.73   37.50
  -1  -6   0  646.24   39.00
  -1  -6   0  681.63   36.30
  -1  -6   0  648.94   40.90
  -1  -6   0  644.44   36.80
   1   6   0  665.73   39.30
   1   6   0  713.03   41.60
   1   6   0  662.43   40.10
   1   6   0  653.53   36.20
  -2  -6   0  216.48   16.30
  -2  -6   0  205.78   12.90
  -2  -6   0  202.48   17.50
  -2  -6   0  213.98   15.40
   2   6   0  186.18   17.50
   2   6   0  216.08   20.10
   2   6   0  227.98   17.30
   2   6   0  209.78   13.20
  -3  -6   0  129.19   11.40
  -3  -6   0  132.99   13.40
  -3  -6   0  136.99    8.30
  -3  -6   0  136.39   15.00
   3   6   0  162.68   17.60
   3   6   0  133.99   17.60
   3   6   0  130.39   13.00
  -4  -6   0  375.16   25.50
  -4  -6   0  379.76   22.70
  -4  -6   0  347.37   24.90
   4   6   0  350.86   29.60
   4   6   0  331.67   26.90
   4   6   0  348.47   23.20
  -5  -6   0  208.18   16.70
  -5  -6   0  216.18   19.20
  -5  -6   0  245.78   20.10
   5   6   0  225.88   24.00
   5   6   0  269.97   22.70
  -6  -6   0   71.09   10.20
  -6  -6   0   65.09   12.80
  -6  -6   0   58.99   11.80
   6   6   0   81.19   17.20
   6   6   0   73.19   14.60
  -7  -6   0  370.96   28.70
  -7  -6   0  350.56   28.00
  -7  -6   0  351.16   24.50
   7   6   0  373.76   31.00
   7   6   0  306.77   31.40
  -8  -6   0  199.08   23.90
  -8  -6   0  214.08   20.20
  -8  -6   0  225.88   25.10
   8   6   0  214.58   30.10
   8   6   0  270.57   25.80
  -9  -6   0  119.19   20.00
  -9  -6   0  151.08   22.20
   9   6   0  137.49   22.80
   9   6   0  108.19   23.20
 -10  -6   0   24.50   14.00
 -10  -6   0   20.60   12.70
  10   6   0   30.40   19.20
   6  -7   0   19.20   16.20
   6  -7   0    6.00   11.40
  -6   7   0   17.00   12.90
  -6   7   0   51.59   16.90
   5  -7   0   44.80   13.00
   5  -7   0   46.10   16.10
  -5   7   0   36.70   11.90
  -5   7   0   56.89   17.20
  -5   7   0   34.80   14.10
   4  -7   0   72.29   14.90
   4  -7   0  108.49   19.60
  -4   7   0  129.79   19.80
  -4   7   0  107.29   16.20
  -4   7   0  120.39   19.20
   3  -7   0  434.36   33.10
   3  -7   0  466.05   31.60
  -3   7   0  339.47   32.00
  -3   7   0  381.46   31.20
  -3   7   0  410.46   30.30
   2  -7   0  385.96   29.80
   2  -7   0  436.56   32.10
  -2   7   0  453.35   31.30
  -2   7   0  445.46   31.20
  -2   7   0  419.46   29.70
  -2   7   0  452.95   34.00
   1  -7   0  369.56   27.10
   1  -7   0  340.77   22.90
   1  -7   0  396.26   28.20
  -1   7   0  372.36   27.10
  -1   7   0  383.56   29.00
  -1   7   0  426.96   28.90
  -1   7   0  380.56   27.10
   0  -7   0  473.95   28.40
   0  -7   0  463.95   30.00
   0  -7   0  456.95   31.50
   0  -7   0  455.85   31.90
   0   7   0  465.35   32.80
   0   7   0  535.25   33.80
   0   7   0  496.35   30.30
   0   7   0  502.25   33.00
  -1  -7   0    5.50    4.50
  -1  -7   0    7.00    5.90
  -1  -7   0    2.40    5.00
  -1  -7   0   10.90    7.40
   1   7   0   11.10    7.20
   1   7   0    1.50    6.80
   1   7   0    9.90    5.20
   1   7   0   14.70    8.20
  -2  -7   0  264.67   20.70
  -2  -7   0  260.47   18.30
  -2  -7   0  262.47   15.70
  -2  -7   0  282.27   19.30
   2   7   0  238.68   19.90
   2   7   0  211.78   22.20
   2   7   0  222.28   15.60
   2   7   0  243.78   22.00
  -3  -7   0  246.18   18.40
  -3  -7   0  248.08   20.80
  -3  -7   0  262.27   20.20
   3   7   0  275.87   25.00
   3   7   0  261.27   23.00
   3   7   0  275.87   20.70
  -4  -7   0  805.62   45.80
  -4  -7   0  838.12   48.90
  -4  -7   0  844.32   49.99
   4   7   0  843.32   54.89
   4   7   0  854.11   47.60
   4   7   0  867.21   52.69
  -5  -7   0   22.10    8.60
  -5  -7   0   55.39   11.20
  -5  -7   0   49.90    8.40
   5   7   0   36.80   11.60
   5   7   0   46.90    9.00
   5   7   0   33.30   12.20
  -6  -7   0   13.30    6.60
  -6  -7   0   13.30    8.40
  -6  -7   0   24.20    9.60
   6   7   0   26.00   11.80
   6   7   0   20.80   13.00
  -7  -7   0   38.50   11.50
  -7  -7   0   25.10   10.50
  -7  -7   0   28.70    8.30
   7   7   0   27.50   12.60
   7   7   0   45.00   15.90
  -8  -7   0   46.90   14.60
  -8  -7   0   54.09   13.80
   8   7   0   73.79   19.40
   8   7   0   83.39   18.50
  -9  -7   0   89.69   17.60
  -9  -7   0   81.29   17.50
   9   7   0  100.39   24.50
 -10  -7   0   30.90   14.10
 -10  -7   0   17.70   12.40
  10   7   0    2.70   17.50
   5  -8   0   10.10   13.40
   5  -8   0   27.00   12.60
  -5   8   0   28.30   14.60
  -5   8   0   26.20   14.10
   4  -8   0   88.59   19.30
   4  -8   0  106.39   18.80
  -4   8   0  114.89   17.70
  -4   8   0  124.29   20.00
  -4   8   0  143.99   23.50
   3  -8   0   18.70   11.20
   3  -8   0   53.19   14.30
  -3   8   0   15.30   10.40
  -3   8   0   14.70   12.70
  -3   8   0    6.60    9.30
   2  -8   0  258.17   24.10
   2  -8   0  233.58   23.60
  -2   8   0  187.18   22.10
  -2   8   0  267.37   28.60
  -2   8   0  233.68   23.10
   1  -8   0   78.19   13.80
   1  -8   0   81.39   13.40
  -1   8   0   36.30   10.40
  -1   8   0   38.50   13.50
  -1   8   0   46.30   11.40
  -1   8   0   48.40   13.50
   0  -8   0  141.99   13.90
   0  -8   0  122.69   16.60
   0  -8   0  124.99   15.10
   0   8   0  102.19   16.60
   0   8   0  114.39   14.00
   0   8   0   88.09   15.60
   0   8   0   82.49   15.60
  -1  -8   0  167.48   19.50
  -1  -8   0  134.49   14.00
   1   8   0  160.38   20.50
   1   8   0  143.89   18.30
   1   8   0  160.48   14.40
   1   8   0  155.78   19.60
  -2  -8   0  182.88   20.20
  -2  -8   0  163.58   15.70
  -2  -8   0  157.68   15.40
   2   8   0  186.88   21.30
   2   8   0  184.18   21.00
   2   8   0  162.68   18.60
  -3  -8   0  562.54   38.00
  -3  -8   0  563.84   36.40
  -3  -8   0  584.84   34.90
   3   8   0  605.64   37.30
   3   8   0  620.14   42.80
   3   8   0  578.64   39.60
  -4  -8   0  186.18   18.20
  -4  -8   0  173.18   15.80
  -4  -8   0  176.88   20.50
   4   8   0  213.18   27.00
   4   8   0  169.28   21.20
   4   8   0  167.18   17.20
   4   8   0  184.08   24.10
  -5  -8   0  270.17   23.90
  -5  -8   0  277.67   20.20
  -5  -8   0  311.87   24.80
   5   8   0  256.87   20.90
   5   8   0  242.68   25.70
   5   8   0  260.47   27.60
  -6  -8   0   29.00   10.40
  -6  -8   0   33.40    8.50
  -6  -8   0   35.70   11.10
   6   8   0   53.49   15.30
   6   8   0   44.20   16.10
  -7  -8   0   22.40   12.20
  -7  -8   0   29.90   11.20
   7   8   0   31.10   14.40
   7   8   0   40.80   15.20
  -8  -8   0  162.38   23.30
  -8  -8   0  107.79   19.90
   8   8   0  128.39   27.00
   8   8   0  130.49   22.70
  -9  -8   0   32.70   14.80
  -9  -8   0   18.60   13.10
   9   8   0   36.40   19.60
   4  -9   0   42.20   15.00
   4  -9   0   45.40   17.10
  -4   9   0   70.69   18.40
  -4   9   0   35.90   14.10
  -4   9   0   50.99   16.60
   3  -9   0    4.80   11.40
   3  -9   0    1.30   10.20
  -3   9   0   -1.40   12.60
  -3   9   0   10.10   10.40
  -3   9   0   -2.00   10.90
   2  -9   0  232.98   27.20
  -2   9   0  233.58   26.10
  -2   9   0  234.28   26.00
  -2   9   0  245.58   29.00
   1  -9   0    6.60    9.90
  -1   9   0   16.50   10.00
  -1   9   0    3.70   10.70
  -1   9   0    7.80   10.10
   0  -9   0   96.29   17.10
   0   9   0  119.69   18.80
   0   9   0   92.69   16.70
   0   9   0  109.49   17.50
  -1  -9   0  144.39   16.00
  -1  -9   0  167.38   20.40
   1   9   0  164.88   20.40
   1   9   0  178.28   22.40
   1   9   0  147.09   20.50
  -2  -9   0  199.38   17.60
  -2  -9   0  169.88   17.10
  -2  -9   0  206.28   22.60
   2   9   0  181.88   22.50
   2   9   0  150.78   19.30
   2   9   0  215.38   23.50
  -3  -9   0  327.37   26.60
  -3  -9   0  314.97   23.50
  -3  -9   0  336.97   25.00
   3   9   0  298.37   25.80
   3   9   0  335.07   31.70
   3   9   0  287.37   27.50
  -4  -9   0   32.80   11.90
  -4  -9   0   50.39   11.80
  -4  -9   0   16.40    7.70
   4   9   0   38.20   14.90
   4   9   0   30.80   10.00
   4   9   0   37.80   13.50
   4   9   0   45.90   15.80
  -5  -9   0  187.08   21.50
  -5  -9   0  203.28   18.30
  -5  -9   0  194.68   23.90
   5   9   0  246.28   31.20
   5   9   0  216.98   27.40
  -6  -9   0   65.29   14.50
  -6  -9   0   67.79   14.60
   6   9   0   66.89   18.00
   6   9   0   95.59   22.00
  -7  -9   0  226.78   26.30
  -7  -9   0  232.48   26.20
   7   9   0  177.48   28.50
   7   9   0  188.18   26.90
  -8  -9   0   21.70   12.40
  -8  -9   0   25.90   13.50
   8   9   0   23.00   16.40
   8   9   0   15.20   13.90
  -9  -9   0  162.08   25.00
  -9  -9   0  153.38   23.90
   9   9   0  115.59   26.50
   3 -10   0   54.89   16.40
  -3  10   0   46.70   15.60
  -3  10   0   29.90   15.20
  -3  10   0   92.19   20.40
   2 -10   0  149.09   22.20
  -2  10   0   91.09   18.40
  -2  10   0   98.19   20.70
   1 -10   0   96.19   19.10
  -1  10   0   59.69   17.80
  -1  10   0   62.69   15.50
   0 -10   0   52.09   15.80
   0  10   0   60.59   15.30
   0  10   0   77.49   17.50
  -1 -10   0   73.19   15.50
   1  10   0   82.19   17.30
   1  10   0   85.79   16.80
  -2 -10   0  110.29   18.00
   2  10   0   95.49   17.10
   2  10   0  113.39   20.00
   2  10   0  116.79   19.30
  -3 -10   0   50.39   14.00
  -3 -10   0   19.40    8.20
  -3 -10   0   19.70    9.60
   3  10   0   35.00   11.60
   3  10   0   39.50   14.20
   3  10   0   40.10   14.50
  -4 -10   0  268.67   26.80
  -4 -10   0  262.07   27.00
  -4 -10   0  302.57   25.70
   4  10   0  287.47   25.90
   4  10   0  317.37   33.40
   4  10   0  305.97   32.30
  -5 -10   0    0.10    8.90
  -5 -10   0   11.10   11.20
   5  10   0   25.10   15.00
   5  10   0    7.30   12.60
  -6 -10   0  104.59   19.00
  -6 -10   0  134.49   20.20
   6  10   0  104.29   22.70
   6  10   0  126.19   24.00
  -7 -10   0   34.80   13.20
  -7 -10   0   26.70   12.70
   7  10   0   26.50   17.10
   7  10   0   31.90   15.80
  -8 -10   0   21.60   13.40
  -8 -10   0   30.10   15.10
   8  10   0   10.10   17.20
   1 -11   0   53.49   16.40
  -1  11   0   20.70   14.40
  -1  11   0   34.60   15.10
   0 -11   0   36.00   14.40
   0  11   0   42.30   15.50
   0  11   0   26.30   15.10
  -1 -11   0  104.69   18.90
   1  11   0   81.19   19.50
   1  11   0   89.09   18.90
  -2 -11   0   25.60   13.80
   2  11   0   14.00   13.30
   2  11   0   20.50   12.60
  -3 -11   0  278.57   27.50
   3  11   0  291.37   27.20
   3  11   0  276.97   31.80
   3  11   0  225.48   29.10
  -4 -11   0   23.50   10.90
  -4 -11   0   26.80   13.00
   4  11   0   41.50   18.20
   4  11   0   34.80   16.10
  -5 -11   0   86.09   17.20
  -5 -11   0   94.79   19.20
   5  11   0  100.69   24.00
   5  11   0   79.29   21.20
  -6 -11   0   19.50   13.50
  -6 -11   0   24.00   12.90
   6  11   0   17.00   16.10
   6  11   0   12.90   15.10
  -7 -11   0   42.70   16.70
  -7 -11   0   34.20   15.30
   7  11   0   51.69   19.60
   7  11   0   59.59   20.10
  -3 -12   0   39.30   16.00
   3  12   0   43.10   17.00
   6  11  -1   24.40   17.20
   6  11  -1   21.10   15.90
  -6 -11   1   57.19   15.50
  -6 -11   1   41.10   14.80
   5  11  -1   70.39   19.70
   5  11  -1   73.59   21.20
  -5 -11   1   50.99   16.90
  -5 -11   1   49.20   15.40
   4  11  -1  100.19   22.50
   4  11  -1  100.19   23.00
  -4 -11   1  103.39   19.70
  -4 -11   1  123.19   19.20
   3  11  -1   30.40   12.90
  -3 -11   1    7.50   12.30
   2  11  -1  180.18   25.80
   2  11  -1  158.58   23.10
  -2 -11   1  128.09   22.30
   1  11  -1   29.80   15.20
   1  11  -1   41.50   16.00
  -1 -11   1   27.00   13.80
   0  11  -1  205.98   27.80
   0  11  -1  127.69   22.80
   0 -11   1  152.78   24.20
   7  10  -1  127.79   27.70
   7  10  -1   91.09   22.20
  -7 -10   1  114.89   19.60
  -7 -10   1   92.09   19.70
   6  10  -1   10.40   14.20
   6  10  -1    7.60   13.60
  -6 -10   1   28.50   12.30
  -6 -10   1   24.90   13.20
   5  10  -1  198.88   29.50
   5  10  -1  234.38   30.70
  -5 -10   1  227.88   25.50
  -5 -10   1  220.88   26.30
   4  10  -1   55.09   13.60
   4  10  -1   74.09   19.70
   4  10  -1   41.80   16.20
  -4 -10   1   51.09   13.30
  -4 -10   1   63.79   15.70
   3  10  -1   45.20   15.10
   3  10  -1   60.59   14.70
   3  10  -1   18.60   13.00
  -3 -10   1   46.80   14.50
  -3 -10   1   44.10   12.00
   2  10  -1   70.79   17.40
   2  10  -1   89.99   17.30
  -2 -10   1  105.49   20.40
  -2 -10   1  113.09   19.30
   1  10  -1   37.10   15.20
   1  10  -1   38.50   14.50
  -1 -10   1    7.40   11.30
   0  10  -1  212.48   25.30
   0  10  -1  164.58   25.00
   0 -10   1  165.28   23.80
  -1  10  -1   16.40   12.80
  -1  10  -1    6.80   13.80
   1 -10   1   11.50   12.90
  -2  10  -1   53.09   17.70
  -2  10  -1   36.50   13.50
   2 -10   1   53.59   16.30
   8   9  -1   84.69   24.60
   8   9  -1   56.89   19.30
  -8  -9   1   62.09   16.00
  -8  -9   1   37.30   13.70
   7   9  -1   80.99   22.40
   7   9  -1   66.29   18.70
  -7  -9   1   72.79   16.60
  -7  -9   1   98.59   18.60
   6   9  -1  138.49   25.40
   6   9  -1  151.38   24.20
  -6  -9   1  147.29   20.90
  -6  -9   1  126.69   20.10
   5   9  -1  188.98   20.80
   5   9  -1  164.78   25.40
   5   9  -1  176.78   25.10
  -5  -9   1  172.38   22.10
  -5  -9   1  179.08   23.00
   4   9  -1   80.39   14.10
   4   9  -1   82.09   19.00
   4   9  -1   79.09   18.10
  -4  -9   1   80.69   14.60
  -4  -9   1   65.79   14.10
   3   9  -1  129.79   20.00
   3   9  -1   97.49   18.40
   3   9  -1  124.09   18.00
  -3  -9   1   87.09   14.30
  -3  -9   1   74.39   14.90
   2   9  -1   73.59   14.80
   2   9  -1   98.59   18.50
   2   9  -1   83.89   16.70
  -2  -9   1   76.69   15.90
  -2  -9   1   97.29   14.00
   1   9  -1  278.87   26.50
   1   9  -1  285.07   27.00
   1   9  -1  310.67   28.00
  -1  -9   1  290.87   26.40
  -1  -9   1  326.17   24.10
   0   9  -1   55.79   14.60
   0   9  -1  111.79   18.20
   0  -9   1   54.09   13.80
  -1   9  -1  186.98   24.50
  -1   9  -1  186.28   23.10
   1  -9   1  222.08   24.70
  -2   9  -1  114.39   19.10
  -2   9  -1  109.19   18.80
  -2   9  -1  115.69   21.40
   2  -9   1   83.69   16.90
  -3   9  -1   41.10   15.50
  -3   9  -1   38.20   16.10
  -3   9  -1   21.80   12.20
   3  -9   1   14.20   13.10
  -4   9  -1   72.69   19.30
  -4   9  -1   76.59   19.30
   4  -9   1   73.99   17.70
   9   8  -1   75.29   24.10
   9   8  -1   70.89   20.30
  -9  -8   1   80.49   18.60
  -9  -8   1   72.69   18.10
   8   8  -1  113.39   25.00
   8   8  -1  147.99   25.10
  -8  -8   1  133.89   21.00
  -8  -8   1  127.19   20.50
   7   8  -1   20.40   15.50
   7   8  -1   -0.70   11.40
  -7  -8   1    6.40   10.40
  -7  -8   1    5.00   10.70
   6   8  -1   70.29   17.20
   6   8  -1   67.89   16.70
  -6  -8   1   76.29   15.40
  -6  -8   1   59.79   14.20
   5   8  -1   92.79   19.30
   5   8  -1   79.99   18.80
   5   8  -1   83.59   13.70
  -5  -8   1  152.38   19.60
  -5  -8   1   89.69   15.60
   4   8  -1  329.07   31.30
   4   8  -1  332.07   30.60
   4   8  -1  308.47   25.50
  -4  -8   1  372.86   26.40
  -4  -8   1  333.57   22.50
  -4  -8   1  336.47   27.00
   3   8  -1   20.80    9.40
   3   8  -1   34.00   12.30
   3   8  -1   21.00   10.30
  -3  -8   1   50.99   12.00
  -3  -8   1   19.00    8.30
  -3  -8   1   27.60    7.40
   2   8  -1  219.58   24.40
   2   8  -1  199.98   22.00
   2   8  -1  191.88   21.50
  -2  -8   1  184.88   17.60
  -2  -8   1  198.58   21.60
   1   8  -1  161.08   19.60
   1   8  -1  141.19   19.20
   1   8  -1  174.68   19.50
  -1  -8   1  168.08   20.50
  -1  -8   1  173.88   16.30
   0   8  -1  282.67   26.50
   0   8  -1  300.37   22.70
   0   8  -1  321.27   26.30
   0   8  -1  283.97   24.70
   0  -8   1  254.57   24.70
   0  -8   1  269.77   21.20
  -1   8  -1   34.70   13.40
  -1   8  -1   46.60   12.70
  -1   8  -1   39.10   11.30
   1  -8   1   27.00   11.50
  -2   8  -1   20.00   10.50
  -2   8  -1   20.40   10.50
  -2   8  -1    0.10    9.20
   2  -8   1   18.90   10.00
   2  -8   1   19.10   10.90
  -3   8  -1   93.99   17.50
  -3   8  -1  126.59   18.70
  -3   8  -1   83.79   18.40
   3  -8   1   87.19   18.20
   3  -8   1   88.99   17.80
  -4   8  -1   30.80   11.80
  -4   8  -1   22.70   15.70
  -4   8  -1   14.40   13.10
   4  -8   1   24.50   13.40
   4  -8   1   25.70   13.80
  -5   8  -1  207.38   29.40
  -5   8  -1  144.39   25.50
   5  -8   1  183.78   25.50
   5  -8   1  176.18   27.90
  10   7  -1   21.10   19.00
 -10  -7   1   33.20   15.00
 -10  -7   1   42.20   14.30
   9   7  -1   50.09   18.80
   9   7  -1   43.40   16.80
  -9  -7   1   70.39   16.60
  -9  -7   1   57.29   16.60
   8   7  -1   78.09   19.00
   8   7  -1   78.59   21.90
  -8  -7   1   65.49   15.20
  -8  -7   1   80.49   17.30
   7   7  -1  100.69   19.30
   7   7  -1  117.29   22.90
  -7  -7   1  111.29   17.60
  -7  -7   1  129.89   18.40
   6   7  -1   57.39   16.40
   6   7  -1   64.19   15.60
  -6  -7   1   56.09   13.30
  -6  -7   1   60.59   13.40
   5   7  -1  550.04   33.60
   5   7  -1  493.15   38.20
   5   7  -1  558.24   40.80
  -5  -7   1  503.75   34.30
  -5  -7   1  478.45   29.80
  -5  -7   1  501.75   34.60
   4   7  -1  435.46   34.50
   4   7  -1  431.56   29.40
   4   7  -1  445.76   34.80
  -4  -7   1  440.36   29.80
  -4  -7   1  427.56   30.40
  -4  -7   1  426.26   26.40
   3   7  -1   68.39   13.20
   3   7  -1   97.39   13.50
   3   7  -1   89.09   15.80
  -3  -7   1   62.29   10.80
  -3  -7   1   61.39    8.90
  -3  -7   1   62.09   11.20
   2   7  -1  122.59   17.00
   2   7  -1  179.68   18.80
   2   7  -1  140.89   17.10
  -2  -7   1  143.69   15.60
  -2  -7   1  158.48   13.40
  -2  -7   1  143.79   16.60
   1   7  -1  238.98   21.40
   1   7  -1  214.18   20.70
   1   7  -1  250.07   21.00
   1   7  -1  228.98   17.00
  -1  -7   1  198.78   17.50
  -1  -7   1  231.78   21.10
  -1  -7   1  200.38   19.90
   0   7  -1 1000.80   55.39
   0   7  -1 1027.10   58.19
   0   7  -1  979.10   58.29
   0   7  -1  958.30   56.69
   0  -7   1  991.60   57.29
   0  -7   1  982.00   53.89
   0  -7   1 1011.90   54.89
  -1   7  -1  268.07   23.30
  -1   7  -1  256.07   24.80
  -1   7  -1  249.78   22.30
  -1   7  -1  265.57   21.70
   1  -7   1  288.77   22.70
   1  -7   1  315.87   24.10
   1  -7   1  298.67   20.10
  -2   7  -1  704.23   44.70
  -2   7  -1  716.13   47.20
  -2   7  -1  731.63   45.00
   2  -7   1  702.13   45.70
   2  -7   1  723.93   46.10
  -3   7  -1   14.00    9.00
  -3   7  -1   10.40    9.60
  -3   7  -1    7.00   10.50
   3  -7   1   11.80   10.00
   3  -7   1    0.70    8.40
  -4   7  -1   93.19   18.20
  -4   7  -1   76.09   14.50
  -4   7  -1   92.19   17.50
   4  -7   1   98.59   17.60
   4  -7   1   82.19   18.40
  -5   7  -1  131.89   22.20
  -5   7  -1  155.08   24.00
   5  -7   1  134.09   23.60
   5  -7   1  123.89   20.10
  -6   7  -1   16.10   14.90
  -6   7  -1    9.10   12.80
   6  -7   1   26.50   16.80
   6  -7   1    7.60   11.10
  10   6  -1   85.99   23.80
 -10  -6   1  127.49   22.30
 -10  -6   1   82.49   18.70
   9   6  -1   16.10   14.90
   9   6  -1    1.20   12.90
  -9  -6   1    5.00   10.50
  -9  -6   1   10.00   11.40
   8   6  -1   80.39   18.50
   8   6  -1   60.59   18.40
  -8  -6   1   87.39   16.60
  -8  -6   1   79.19   15.90
   7   6  -1  120.59   21.30
   7   6  -1  115.29   20.10
  -7  -6   1  108.99   17.00
  -7  -6   1  131.59   17.00
   6   6  -1  422.76   35.00
   6   6  -1  441.26   33.20
  -6  -6   1  386.26   29.30
  -6  -6   1  369.06   24.50
  -6  -6   1  387.26   29.60
   5   6  -1  339.47   29.40
   5   6  -1  358.06   28.80
  -5  -6   1  348.17   25.90
  -5  -6   1  315.37   21.00
  -5  -6   1  324.27   24.90
   4   6  -1  287.77   21.30
   4   6  -1  257.17   24.60
   4   6  -1  289.87   24.80
  -4  -6   1  300.57   22.10
  -4  -6   1  293.37   22.80
  -4  -6   1  302.87   18.90
   3   6  -1   61.89   12.90
   3   6  -1   39.60   11.70
   3   6  -1   28.70    7.90
  -3  -6   1   34.10    8.50
  -3  -6   1   47.10    7.00
  -3  -6   1   38.00    8.40
   2   6  -1  224.58   19.10
   2   6  -1  230.88   18.40
   2   6  -1  203.58   20.00
   2   6  -1  224.88   13.60
  -2  -6   1  202.48   17.50
  -2  -6   1  174.18   16.20
  -2  -6   1  197.88   14.80
   1   6  -1 1165.88   64.89
   1   6  -1 1217.58   65.89
   1   6  -1 1235.88   65.49
   1   6  -1 1185.18   61.19
  -1  -6   1 1129.89   65.39
  -1  -6   1 1124.19   62.09
  -1  -6   1 1180.38   64.29
  -1  -6   1 1187.68   60.49
   0   6  -1  371.06   25.90
   0   6  -1  362.76   25.60
   0   6  -1  338.07   23.80
   0  -6   1  378.16   24.00
   0  -6   1  349.17   25.20
   0  -6   1  376.56   26.20
   0  -6   1  402.36   23.70
  -1   6  -1  795.02   49.99
  -1   6  -1  800.62   46.80
  -1   6  -1  805.92   48.50
  -1   6  -1  878.01   48.10
   1  -6   1  829.72   48.00
   1  -6   1  839.12   45.30
   1  -6   1  884.11   49.00
   1  -6   1  826.12   46.10
  -2   6  -1  431.76   29.10
  -2   6  -1  395.96   30.60
  -2   6  -1  411.46   29.30
  -2   6  -1  400.96   26.30
   2  -6   1  400.76   29.20
   2  -6   1  427.06   25.60
   2  -6   1  431.46   30.40
  -3   6  -1   73.79   13.90
  -3   6  -1   56.09   13.30
  -3   6  -1   61.39   11.50
   3  -6   1   53.99   12.00
   3  -6   1   61.09   13.40
  -4   6  -1  160.38   21.40
  -4   6  -1  210.18   19.30
  -4   6  -1  177.88   22.40
   4  -6   1  154.58   22.60
   4  -6   1  146.99   19.00
  -5   6  -1   77.59   17.10
  -5   6  -1   74.79   16.30
  -5   6  -1   68.79   12.90
   5  -6   1   69.19   15.30
   5  -6   1   70.59   17.00
  -6   6  -1  211.98   27.20
  -6   6  -1  172.78   24.90
   6  -6   1  215.08   25.80
   6  -6   1  262.27   33.10
  -7   6  -1   47.80   17.20
  -7   6  -1   17.90   13.60
   7  -6   1   36.70   13.70
   7  -6   1   23.00   16.10
  10   5  -1  103.59   21.70
  10   5  -1  123.49   27.80
 -10  -5   1   75.59   18.30
 -10  -5   1  113.49   20.30
   9   5  -1    6.80   15.00
   9   5  -1    5.80   12.50
  -9  -5   1    6.10   10.80
  -9  -5   1   -0.10    9.40
   8   5  -1  143.59   22.50
   8   5  -1  189.78   27.60
  -8  -5   1  186.98   21.60
  -8  -5   1  160.18   20.20
   7   5  -1   76.69   17.70
   7   5  -1   59.59   15.40
  -7  -5   1   61.39   13.10
  -7  -5   1   60.99    9.90
  -7  -5   1   64.99   13.00
   6   5  -1  673.43   44.40
   6   5  -1  681.43   46.50
  -6  -5   1  660.33   37.50
  -6  -5   1  684.33   41.70
  -6  -5   1  650.23   41.00
   5   5  -1  134.59   19.00
   5   5  -1  172.48   18.80
  -5  -5   1  159.58   15.40
  -5  -5   1  168.58   16.00
  -5  -5   1  172.58   13.00
   4   5  -1  920.21   51.19
   4   5  -1  905.41   56.49
   4   5  -1  895.51   54.99
  -4  -5   1  986.90   52.59
  -4  -5   1  958.30   49.00
  -4  -5   1  964.50   52.49
   3   5  -1  162.38   17.10
   3   5  -1  151.68   16.20
   3   5  -1  152.08   13.60
  -3  -5   1  141.19   13.80
  -3  -5   1  149.49   13.90
  -3  -5   1  150.88   11.20
   2   5  -1  802.62   44.20
   2   5  -1  738.33   41.00
   2   5  -1  737.83   42.50
   2   5  -1  743.43   36.80
  -2  -5   1  674.53   40.10
  -2  -5   1  638.14   38.00
  -2  -5   1  728.83   41.30
   1   5  -1  508.15   30.20
   1   5  -1  495.65   30.70
   1   5  -1  489.45   29.90
   1   5  -1  457.55   26.30
  -1  -5   1  452.25   26.80
  -1  -5   1  446.16   25.50
  -1  -5   1  460.35   28.70
  -1  -5   1  459.05   27.50
   0   5  -1  231.08   16.90
   0   5  -1  212.58   15.10
   0   5  -1  212.68   16.30
   0   5  -1  199.68   17.10
   0  -5   1  174.08   13.80
   0  -5   1  163.58   15.70
   0  -5   1  161.48   13.80
   0  -5   1  163.28   15.30
  -1   5  -1  962.40   53.39
  -1   5  -1  907.51   52.29
  -1   5  -1  913.01   55.19
  -1   5  -1  926.41   53.59
   1  -5   1  957.80   53.89
   1  -5   1 1065.69   54.29
   1  -5   1 1020.10   51.49
   1  -5   1 1036.00   52.19
  -2   5  -1  301.87   21.90
  -2   5  -1  330.27   24.40
  -2   5  -1  299.17   20.00
  -2   5  -1  277.07   22.30
   2  -5   1  295.17   23.10
   2  -5   1  300.07   18.20
   2  -5   1  305.87   19.40
   2  -5   1  287.67   22.30
  -3   5  -1  162.98   19.70
  -3   5  -1  212.98   19.90
  -3   5  -1  207.68   17.60
   3  -5   1  217.28   20.80
   3  -5   1  224.58   19.60
   3  -5   1  198.08   15.30
  -4   5  -1  100.39   16.20
  -4   5  -1  108.79   16.30
  -4   5  -1   88.39   12.90
   4  -5   1  115.69   15.10
   4  -5   1  126.99   18.60
  -5   5  -1  190.18   23.20
  -5   5  -1  219.08   19.60
  -5   5  -1  257.07   24.90
   5  -5   1  192.78   21.80
   5  -5   1  217.68   27.70
  -6   5  -1  124.19   20.00
  -6   5  -1  142.79   21.70
   6  -5   1  196.08   22.70
   6  -5   1  177.48   25.70
  -7   5  -1   39.20   14.50
  -7   5  -1   31.90   14.30
   7  -5   1   32.30   12.80
   7  -5   1   40.20   17.00
  -8   5  -1   17.50   13.10
  -8   5  -1   29.20   14.20
   8  -5   1   17.50   17.30
   8  -5   1   22.20   15.10
  10   4  -1   83.29   20.30
  10   4  -1   67.39   20.20
 -10  -4   1   73.39   15.30
 -10  -4   1   76.09   16.00
   9   4  -1  144.09   23.80
   9   4  -1  145.99   25.50
  -9  -4   1  155.88   20.40
  -9  -4   1  179.58   22.60
   8   4  -1  119.89   22.40
   8   4  -1   89.89   18.30
  -8  -4   1   61.99   13.40
  -8  -4   1   89.89   18.70
  -8  -4   1   63.49   11.80
  -8  -4   1  115.19   16.60
   7   4  -1  152.88   22.60
   7   4  -1  127.79   19.20
  -7  -4   1  111.19   13.30
  -7  -4   1   95.49   14.90
  -7  -4   1   97.99   17.70
  -7  -4   1   80.69   13.60
   6   4  -1   69.49   14.10
   6   4  -1   76.79   15.50
  -6  -4   1   44.50    9.90
  -6  -4   1   70.59   11.00
  -6  -4   1   62.39    9.40
  -6  -4   1   59.89    7.20
   5   4  -1  800.92   49.50
   5   4  -1  745.63   47.20
  -5  -4   1  783.62   44.70
  -5  -4   1  780.32   45.00
  -5  -4   1  772.22   41.90
  -5  -4   1  789.02   39.40
   4   4  -1 1745.13   96.59
   4   4  -1 1790.32   95.39
  -4  -4   1 1865.51   92.69
  -4  -4   1 1803.32   92.79
  -4  -4   1 1810.82   89.69
   3   4  -1  375.76   27.50
   3   4  -1  368.46   27.00
   3   4  -1  390.06   24.20
  -3  -4   1  411.96   24.80
  -3  -4   1  406.76   25.00
  -3  -4   1  405.66   22.00
   2   4  -1 1174.88   61.49
   2   4  -1 1243.98   64.49
   2   4  -1 1178.58   57.39
   2   4  -1 1165.78   62.39
  -2  -4   1 1185.38   61.09
  -2  -4   1 1151.48   59.09
  -2  -4   1 1127.09   61.39
   1   4  -1  255.67   15.90
   1   4  -1  267.17   19.30
   1   4  -1  267.37   18.70
   1   4  -1  257.87   18.60
   1   4  -1  279.87   15.10
  -1  -4   1  257.47   18.20
  -1  -4   1  270.07   17.40
  -1  -4   1  257.27   15.10
  -1  -4   1  262.97   16.40
   0   4  -1  393.86   23.50
   0   4  -1  402.36   24.80
   0   4  -1  392.36   24.40
   0   4  -1  411.96   25.60
   0  -4   1  392.66   23.20
   0  -4   1  383.46   22.90
   0  -4   1  402.76   24.90
  -1   4  -1  138.09   12.50
  -1   4  -1  133.89   12.20
  -1   4  -1  102.89   10.40
   1  -4   1  124.69    8.30
   1  -4   1  132.79   13.40
   1  -4   1  122.49   12.00
   1  -4   1  132.39   10.60
   1  -4   1  129.39   10.40
  -2   4  -1 1523.35   79.59
  -2   4  -1 1454.95   76.89
  -2   4  -1 1553.94   78.59
   2  -4   1 1484.95   77.99
   2  -4   1 1494.35   75.19
   2  -4   1 1495.55   73.79
   2  -4   1 1424.06   78.79
  -3   4  -1  316.47   22.30
  -3   4  -1  285.77   19.50
  -3   4  -1  303.47   21.60
   3  -4   1  234.18   19.70
   3  -4   1  235.78   14.00
   3  -4   1  247.88   21.90
   3  -4   1  277.57   17.70
  -4   4  -1  185.18   19.40
  -4   4  -1  222.58   17.90
  -4   4  -1  195.98   20.70
   4  -4   1  262.97   20.00
   4  -4   1  268.47   23.70
  -5   4  -1  155.68   16.00
  -5   4  -1  130.69   17.60
  -5   4  -1  136.59   18.30
   5  -4   1  131.09   16.80
   5  -4   1  130.49   20.00
  -6   4  -1  117.99   14.70
  -6   4  -1  107.19   17.90
  -6   4  -1  119.79   19.30
   6  -4   1  112.59   20.40
   6  -4   1  106.39   16.40
  -7   4  -1   18.50   10.40
  -7   4  -1   19.60   11.60
   7  -4   1    0.40   12.20
   7  -4   1   19.90   10.60
  -8   4  -1   49.80   15.00
  -8   4  -1   63.29   17.50
   8  -4   1   28.40   16.30
   8  -4   1   40.00   14.50
  11   3  -1    7.80   16.00
 -11  -3   1    5.60   10.90
 -11  -3   1   -6.00    9.40
 -11  -3   1    0.40   11.30
  10   3  -1  127.89   24.50
  10   3  -1  155.88   27.20
 -10  -3   1  144.89   19.90
 -10  -3   1  137.39   20.40
 -10  -3   1  127.19   20.20
   9   3  -1    7.30   12.10
   9   3  -1   13.20   12.90
  -9  -3   1   18.10    9.00
  -9  -3   1   12.90    9.60
  -9  -3   1   21.00   10.40
   8   3  -1  134.39   22.00
   8   3  -1  128.79   20.90
  -8  -3   1  159.68   17.70
  -8  -3   1  173.98   19.80
  -8  -3   1  129.99   18.30
  -8  -3   1  128.79   20.70
  -8  -3   1  147.19   15.80
   7   3  -1  105.09   17.40
   7   3  -1  123.59   20.10
  -7  -3   1   97.09   16.80
  -7  -3   1  102.89   13.50
  -7  -3   1  104.59   14.70
  -7  -3   1   89.59   14.10
  -7  -3   1  105.49   12.10
   6   3  -1  124.39   14.90
   6   3  -1  111.79   17.70
   6   3  -1  146.79   18.80
  -6  -3   1  122.49   14.60
  -6  -3   1  125.09   18.30
  -6  -3   1  111.29   11.00
  -6  -3   1  134.79   13.80
  -6  -3   1  123.69   15.40
   5   3  -1 2074.09  108.19
   5   3  -1 1893.81  108.29
   5   3  -1 2090.79  104.29
  -5  -3   1 2098.39  104.99
  -5  -3   1 2064.79  103.09
  -5  -3   1 2065.69  101.29
  -5  -3   1 2053.19  104.99
   4   3  -1  305.17   23.80
   4   3  -1  357.26   23.80
  -4  -3   1  295.97   20.50
  -4  -3   1  294.67   18.40
  -4  -3   1  299.77   20.60
   3   3  -1  141.09   10.90
   3   3  -1  143.79   13.20
   3   3  -1  137.79   14.10
  -3  -3   1  115.69   11.00
  -3  -3   1  103.49    7.60
  -3  -3   1  106.99    6.60
  -3  -3   1  109.79    8.30
  -3  -3   1  118.79   10.80
   2   3  -1  907.11   50.09
   2   3  -1  940.61   52.59
   2   3  -1  953.30   46.80
   2   3  -1  967.00   52.59
  -2  -3   1  928.61   50.19
  -2  -3   1  992.10   50.59
  -2  -3   1 1016.90   46.90
  -2  -3   1 1002.40   48.40
   1   3  -1 1369.96   68.19
   1   3  -1 1306.37   68.19
   1   3  -1 1305.57   65.79
   1   3  -1 1307.67   68.79
   1   3  -1 1322.17   64.79
  -1  -3   1 1350.36   66.09
  -1  -3   1 1324.17   67.29
  -1  -3   1 1353.36   64.99
  -1  -3   1 1349.77   67.89
   0   3  -1  581.14   30.80
   0   3  -1  559.44   32.20
   0   3  -1  561.44   31.30
   0   3  -1  553.84   31.60
   0  -3   1  564.54   31.60
   0  -3   1  571.34   30.50
   0  -3   1  584.44   30.60
  -1   3  -1  233.08   17.30
  -1   3  -1  236.48   17.50
  -1   3  -1  225.78   16.30
  -1   3  -1  238.08   18.50
   1  -3   1  301.37   18.60
   1  -3   1  298.07   16.80
   1  -3   1  295.27   18.80
   1  -3   1  317.07   16.50
   1  -3   1  311.67   14.70
  -2   3  -1  822.02   49.20
  -2   3  -1  829.52   47.40
  -2   3  -1  831.82   48.80
   2  -3   1  941.31   46.80
   2  -3   1  958.90   49.00
   2  -3   1  940.41   50.19
   2  -3   1  954.80   44.80
  -3   3  -1   86.09   10.30
  -3   3  -1   89.39   12.70
  -3   3  -1   90.89   12.50
   3  -3   1  105.09   11.60
   3  -3   1  125.69   15.10
   3  -3   1  109.79    9.80
  -4   3  -1  154.98   13.70
  -4   3  -1  173.68   10.20
  -4   3  -1  194.98   17.80
  -4   3  -1  182.18   17.60
   4  -3   1  167.68   20.10
   4  -3   1  156.28   15.40
  -5   3  -1  192.18   19.70
  -5   3  -1  209.68   20.70
  -5   3  -1  229.78   17.30
   5  -3   1  250.77   23.50
   5  -3   1  211.78   19.10
  -6   3  -1  107.89   16.40
  -6   3  -1  100.29   12.60
  -6   3  -1  104.59   16.80
   6  -3   1   86.59   14.50
   6  -3   1  100.59   19.20
  -7   3  -1   22.20   11.10
  -7   3  -1    8.10   10.80
   7  -3   1    4.90    8.70
   7  -3   1   19.40   14.20
  -8   3  -1  188.88   24.20
   8  -3   1  147.89   22.00
   8  -3   1  214.08   31.60
  -9   3  -1   88.19   18.90
  -9   3  -1  115.59   22.00
   9  -3   1   77.29   23.70
  10   2  -1  121.19   23.30
  10   2  -1  111.79   24.30
 -10  -2   1  126.39   20.50
 -10  -2   1  114.79   18.60
 -10  -2   1  120.49   18.10
 -10  -2   1  128.59   19.80
 -10  -2   1  100.69   17.80
   9   2  -1  191.78   27.70
   9   2  -1  199.88   28.50
   9   2  -1  157.08   24.50
  -9  -2   1  216.18   22.30
  -9  -2   1  233.08   22.20
  -9  -2   1  215.28   27.30
  -9  -2   1  203.68   20.20
  -9  -2   1  240.18   23.30
  -9  -2   1  215.98   23.10
  -9  -2   1  183.78   22.40
  -9  -2   1  223.78   21.00
   8   2  -1  105.59   17.90
   8   2  -1   84.39   17.40
   8   2  -1   80.49   17.70
  -8  -2   1   81.49   16.80
  -8  -2   1   90.29   14.70
  -8  -2   1   76.79   12.60
  -8  -2   1   95.39   14.90
  -8  -2   1   88.89   13.60
  -8  -2   1  108.09   14.60
   7   2  -1   36.70   11.50
   7   2  -1   40.00   11.50
   7   2  -1   12.50   10.70
  -7  -2   1   28.00    8.80
  -7  -2   1   35.30    8.10
  -7  -2   1   17.30    7.50
  -7  -2   1   15.90    7.40
  -7  -2   1   23.40   10.30
   6   2  -1  141.59   18.40
   6   2  -1  145.39   15.30
   6   2  -1  140.49   19.00
  -6  -2   1   95.09   12.80
  -6  -2   1  107.89   13.20
  -6  -2   1  133.79   15.00
  -6  -2   1  119.79   16.70
  -6  -2   1  134.19   12.20
   5   2  -1  376.96   28.10
   5   2  -1  369.66   26.30
   5   2  -1  359.96   24.40
  -5  -2   1  372.16   24.10
  -5  -2   1  345.37   22.80
  -5  -2   1  375.56   27.20
  -5  -2   1  344.47   23.40
   4   2  -1 1715.93   91.79
   4   2  -1 1723.63   91.19
   4   2  -1 1672.03   88.19
  -4  -2   1 1766.32   87.39
  -4  -2   1 1739.13   88.39
  -4  -2   1 1831.62   88.59
   3   2  -1  180.38   15.60
   3   2  -1  172.98   15.20
   3   2  -1  181.48   12.10
  -3  -2   1  184.58   11.60
  -3  -2   1  165.18   12.50
  -3  -2   1  168.88   12.90
   2   2  -1 4206.28  197.88
   2   2  -1 4110.49  201.38
   2   2  -1 4112.09  197.38
   2   2  -1 4086.19  201.48
   2   2  -1 3966.80  199.38
  -2  -2   1 4200.08  197.08
  -2  -2   1 4057.59  197.28
  -2  -2   1 3951.50  199.08
  -2  -2   1 4135.79  197.68
  -2  -2   1 4229.88  199.68
   1   2  -1  432.16   24.50
   1   2  -1  442.16   24.10
   1   2  -1  455.85   24.00
   1   2  -1  450.35   21.90
   1   2  -1  442.06   21.90
  -1  -2   1  407.86   21.80
  -1  -2   1  387.56   21.80
  -1  -2   1  401.86   23.30
  -1  -2   1  411.96   23.40
   0   2  -1 1005.80   50.49
   0   2  -1 1033.20   50.39
   0   2  -1 1011.10   51.29
   0   2  -1 1017.40   50.79
   0   2  -1  999.50   49.90
   0  -2   1  943.41   50.59
   0  -2   1  994.90   50.09
   0  -2   1  974.30   49.99
  -1   2  -1 1089.89   55.99
  -1   2  -1 1050.49   54.99
  -1   2  -1 1113.79   56.69
   1  -2   1 1111.39   52.69
   1  -2   1 1067.09   56.29
   1  -2   1 1088.99   53.69
   1  -2   1 1094.29   55.89
   1  -2   1 1109.89   54.79
  -2   2  -1  426.76   22.30
  -2   2  -1  395.36   25.30
  -2   2  -1  414.56   25.60
  -2   2  -1  435.46   23.80
   2  -2   1  415.96   26.10
   2  -2   1  425.36   23.60
   2  -2   1  443.36   24.80
  -3   2  -1 1257.27   62.49
  -3   2  -1 1260.07   64.79
  -3   2  -1 1242.78   67.39
  -3   2  -1 1216.58   66.99
   3  -2   1 1329.57   66.39
   3  -2   1 1357.66   69.39
  -4   2  -1  249.38   18.60
  -4   2  -1  226.18   18.90
  -4   2  -1  220.68   12.30
  -4   2  -1  221.18   15.40
  -4   2  -1  215.88   13.40
  -4   2  -1  222.28   12.20
   4  -2   1  236.18   20.10
   4  -2   1  199.18   16.80
  -5   2  -1  148.79    9.70
  -5   2  -1  133.89   11.10
  -5   2  -1  145.09   16.90
  -5   2  -1  151.68   16.60
  -5   2  -1  152.28   13.00
   5  -2   1  168.88   14.70
   5  -2   1  128.39   18.20
  -6   2  -1  107.49   12.60
  -6   2  -1  119.89   17.00
  -6   2  -1  127.39   16.60
   6  -2   1  115.89   19.30
   6  -2   1  105.79   15.30
  -7   2  -1   10.90    8.60
  -7   2  -1   13.40   10.10
   7  -2   1    9.60   11.30
   7  -2   1   17.10    9.60
  -8   2  -1  283.17   25.20
  -8   2  -1  212.08   25.10
   8  -2   1  200.48   29.30
   8  -2   1  192.08   23.40
  -9   2  -1   97.89   18.10
  -9   2  -1   50.79   15.30
   9  -2   1  129.19   26.30
  10   1  -1   31.00   16.70
  10   1  -1   24.10   15.90
 -10  -1   1   29.80   12.50
 -10  -1   1   19.60   10.70
 -10  -1   1   16.20   10.00
 -10  -1   1   28.50   12.20
   9   1  -1  100.89   21.50
   9   1  -1  120.09   23.20
   9   1  -1  119.59   22.30
  -9  -1   1  185.38   21.20
  -9  -1   1  175.98   20.70
  -9  -1   1  149.69   17.80
  -9  -1   1  141.59   18.40
  -9  -1   1  149.09   18.40
  -9  -1   1  154.78   22.10
  -9  -1   1  170.38   21.20
  -9  -1   1  185.18   20.90
   8   1  -1   68.29   16.10
   8   1  -1   87.69   13.20
   8   1  -1   84.19   17.20
   8   1  -1   84.59   17.60
  -8  -1   1   77.99   13.20
  -8  -1   1  107.99   15.30
  -8  -1   1   94.99   14.50
  -8  -1   1   98.29   13.50
  -8  -1   1   96.89   16.40
  -8  -1   1   98.29   15.50
  -8  -1   1  117.39   15.30
  -8  -1   1   77.89   12.90
   7   1  -1  231.58   17.40
   7   1  -1  257.17   24.10
   7   1  -1  246.48   23.30
   7   1  -1  201.68   21.40
  -7  -1   1  153.68   18.10
  -7  -1   1  181.28   16.70
  -7  -1   1  160.38   18.90
  -7  -1   1  195.48   17.70
  -7  -1   1  168.18   16.70
  -7  -1   1  173.78   19.50
  -7  -1   1  157.68   16.30
  -7  -1   1  162.08   16.30
   6   1  -1   38.10   10.00
   6   1  -1   23.80    9.80
   6   1  -1   28.70   10.20
   6   1  -1   16.80    6.60
  -6  -1   1   17.00    8.10
  -6  -1   1   28.10    7.20
  -6  -1   1   23.00    6.70
  -6  -1   1   28.70    7.30
  -6  -1   1   16.10    7.10
   5   1  -1  149.39   12.70
   5   1  -1  170.68   17.50
   5   1  -1  183.28   17.60
   5   1  -1  166.88   15.80
   4   1  -1 1078.39   63.89
   4   1  -1 1109.59   62.39
   4   1  -1 1114.79   60.09
   4   1  -1 1065.19   63.59
  -4  -1   1 1281.27   61.19
  -4  -1   1 1298.37   62.09
  -4  -1   1 1281.07   61.69
  -4  -1   1 1258.27   64.29
   3   1  -1  141.49   14.20
   3   1  -1  146.09   12.30
   3   1  -1  149.99   14.00
  -3  -1   1  184.88   11.60
  -3  -1   1  163.58   12.10
  -3  -1   1  175.88   12.10
  -3  -1   1  198.28   14.80
   2   1  -1  404.26   23.00
   2   1  -1  400.96   25.20
   2   1  -1  400.96   25.00
  -2  -1   1  460.45   23.80
  -2  -1   1  458.55   22.70
  -2  -1   1  461.25   23.40
   1   1  -1  137.69    9.40
   1   1  -1  146.79    8.70
   1   1  -1  146.09    7.20
   1   1  -1  137.09    9.80
   1   1  -1  145.69   10.60
   1   1  -1  139.69    7.30
   1   1  -1  146.79    7.70
  -1  -1   1  110.59    7.60
  -1  -1   1   99.29    8.40
  -1  -1   1   96.39    8.20
   0   1  -1  180.38   10.10
   0   1  -1  184.28   11.00
   0   1  -1  176.18   10.00
   0   1  -1  181.38    9.80
   0   1  -1  169.88   10.60
   0   1  -1  184.58    9.90
   0  -1   1  132.89    9.80
   0  -1   1  144.29    9.00
   0  -1   1  143.79    9.80
   0  -1   1  145.89    9.90
   0  -1   1  146.69    9.90
  -1   1  -1 1107.19   51.49
  -1   1  -1 1073.09   54.19
  -1   1  -1 1178.68   52.99
  -1   1  -1 1083.89   54.19
   1  -1   1 1020.40   53.19
   1  -1   1 1048.80   51.49
   1  -1   1 1025.30   53.79
   1  -1   1 1054.99   52.79
   1  -1   1 1019.80   54.49
  -2   1  -1 2003.50   93.99
  -2   1  -1 2031.60   97.39
  -2   1  -1 2044.10   97.19
  -2   1  -1 2005.10   95.19
  -2   1  -1 2033.00   93.89
  -2   1  -1 2068.89   94.89
   2  -1   1 1813.82   95.79
   2  -1   1 1819.22   96.29
   2  -1   1 1794.92   97.89
   2  -1   1 1844.92   95.69
  -3   1  -1 1448.06   72.49
  -3   1  -1 1490.15   74.79
  -3   1  -1 1442.46   71.89
  -3   1  -1 1455.55   75.19
   3  -1   1 1432.96   73.99
   3  -1   1 1474.45   76.79
   3  -1   1 1457.25   72.89
  -4   1  -1  698.73   38.60
  -4   1  -1  680.63   35.90
  -4   1  -1  709.63   39.30
  -4   1  -1  683.43   36.10
   4  -1   1  632.74   40.80
   4  -1   1  669.03   37.10
   4  -1   1  620.14   37.50
  -5   1  -1  143.59   12.60
  -5   1  -1  122.59   16.00
  -5   1  -1  142.19   12.70
  -5   1  -1  162.48   15.30
   5  -1   1  202.18   19.00
   5  -1   1  203.28   15.80
   5  -1   1  198.28   16.00
  -6   1  -1  206.78   16.70
  -6   1  -1  226.68   16.50
  -6   1  -1  215.18   14.70
  -6   1  -1  243.98   20.80
  -6   1  -1  203.88   18.60
   6  -1   1  194.78   18.70
   6  -1   1  203.18   21.90
   6  -1   1  201.08   18.40
  -7   1  -1   21.20   10.10
  -7   1  -1   31.30    9.70
  -7   1  -1   31.20    7.70
   7  -1   1   29.90   10.30
   7  -1   1   43.00   13.60
  -8   1  -1   18.80    9.30
  -8   1  -1    1.00    8.10
   8  -1   1   -9.80    8.40
   8  -1   1    0.80   11.30
  -9   1  -1   68.49   14.60
  -9   1  -1   77.79   17.20
  -9   1  -1   51.89   14.10
   9  -1   1   86.39   16.90
   9  -1   1   77.39   21.90
 -10   1  -1   17.70   12.70
 -10   1  -1    7.80   12.30
  10   0  -1   44.50   18.60
 -10   0   1   31.60   13.00
 -10   0   1   39.40   12.90
 -10   0   1   16.50   11.90
 -10   0   1   42.50   13.50
   9   0  -1   28.80   14.10
   9   0  -1   31.00   14.90
  -9   0   1   51.29   12.40
  -9   0   1   36.50   11.80
  -9   0   1   49.00   11.60
  -9   0   1   40.60   12.10
  -9   0   1   67.29   14.20
  -9   0   1   35.10   11.50
   8   0  -1  179.08   25.60
   8   0  -1  161.78   23.10
   8   0  -1  189.48   26.80
   8   0  -1  196.28   26.50
  -8   0   1  167.58   17.60
  -8   0   1  174.38   21.90
  -8   0   1  154.68   17.90
  -8   0   1  186.58   20.60
  -8   0   1  169.78   19.80
  -8   0   1  208.08   19.80
  -8   0   1  181.78   20.40
   7   0  -1  203.48   22.30
   7   0  -1  219.18   17.80
   7   0  -1  172.68   23.00
   7   0  -1  201.88   22.70
  -7   0   1  183.08   19.90
  -7   0   1  213.28   16.80
  -7   0   1  190.18   18.20
  -7   0   1  196.48   18.50
  -7   0   1  202.38   18.60
   6   0  -1  120.19   13.20
   6   0  -1   95.59   14.90
   6   0  -1  123.59   18.30
   6   0  -1  124.69   16.80
  -6   0   1  100.69   14.10
  -6   0   1  105.69   13.30
  -6   0   1  134.79   14.90
  -6   0   1   99.69   11.50
   5   0  -1 1220.18   66.19
   5   0  -1 1192.48   62.19
   5   0  -1 1217.88   66.89
   5   0  -1 1149.19   65.79
  -5   0   1 1244.48   65.39
  -5   0   1 1173.28   61.89
  -5   0   1 1176.28   63.59
  -5   0   1 1165.18   63.39
   4   0  -1  511.95   31.50
   4   0  -1  491.35   31.70
   4   0  -1  539.45   33.00
   4   0  -1  526.95   28.90
  -4   0   1  509.25   31.00
   3   0  -1  111.09   10.90
   3   0  -1  101.69    8.70
   3   0  -1  117.49   12.50
   3   0  -1  106.69   11.20
  -3   0   1   92.09   10.10
   2   0  -1  144.89    8.80
   2   0  -1  152.98   11.70
   2   0  -1  141.69   11.10
   2   0  -1  138.19   10.60
   2   0  -1  135.49   11.60
   1   0  -1  203.48   10.50
   1   0  -1  194.48   10.80
   1   0  -1  189.18   12.30
   1   0  -1  197.08   10.90
   1   0  -1  189.78   11.90
   1   0  -1  195.48   12.10
   1   0  -1  184.08   11.10
   0   0  -1  518.75   26.70
   0   0  -1  502.35   26.90
   0   0  -1  481.95   26.30
   0   0  -1  515.05   26.30
   0   0  -1  525.05   26.80
   0   0  -1  523.35   26.70
   0   0  -1  524.25   26.30
   0   0  -1  502.85   26.40
   0   0   1  558.94   26.80
   0   0   1  531.55   26.90
   0   0   1  548.35   26.30
   0   0   1  557.74   26.30
   0   0   1  554.94   26.40
   0   0   1  569.14   26.60
   0   0   1  557.14   26.40
   0   0   1  555.64   26.80
   0   0   1  567.04   26.80
  -1   0  -1   85.49    6.10
  -1   0  -1   83.79    5.40
  -1   0  -1   81.99    4.60
  -1   0  -1   83.19    6.90
  -1   0  -1   81.29    5.10
  -1   0  -1   85.29    6.50
  -1   0  -1   85.99    5.40
   1   0   1   80.79    5.40
   1   0   1   80.39    5.30
   1   0   1   76.89    6.50
   1   0   1   74.49    6.90
   1   0   1   78.49    6.20
   1   0   1   82.49    4.60
  -2   0  -1  727.13   40.10
  -2   0  -1  683.63   40.50
  -2   0  -1  725.33   38.90
  -2   0  -1  716.93   39.80
   2   0   1  886.71   40.20
   2   0   1  895.31   42.70
   2   0   1  897.41   41.00
  -3   0  -1  122.19    8.40
  -3   0  -1  126.49    9.70
  -3   0  -1  128.89   10.50
   3   0   1   96.49   11.00
   3   0   1   92.79    9.60
   3   0   1   94.89    9.40
  -4   0  -1 1272.87   65.89
  -4   0  -1 1267.27   68.09
  -4   0  -1 1304.77   67.39
  -4   0  -1 1307.97   67.19
   4   0   1 1391.36   68.49
   4   0   1 1333.87   67.99
   4   0   1 1260.67   70.09
  -5   0  -1  373.36   21.40
  -5   0  -1  368.76   22.80
  -5   0  -1  365.46   22.80
  -5   0  -1  392.86   24.30
   5   0   1  293.87   23.00
   5   0   1  300.27   25.00
   5   0   1  273.57   22.50
  -6   0  -1  329.97   21.80
  -6   0  -1  348.97   24.90
  -6   0  -1  338.57   23.50
  -6   0  -1  335.97   23.20
   6   0   1  329.27   25.00
   6   0   1  304.17   23.90
   6   0   1  300.87   26.60
  -7   0  -1   44.30    9.90
  -7   0  -1   51.29   10.50
  -7   0  -1   55.09   11.30
  -7   0  -1   55.59   12.10
  -7   0  -1   42.70    8.90
   7   0   1   41.30   10.90
   7   0   1   40.50   13.40
   7   0   1   44.80   11.60
  -8   0  -1   64.29   12.30
  -8   0  -1   91.09   15.80
  -8   0  -1   58.39   13.00
   8   0   1   62.99   14.90
   8   0   1   77.29   15.40
   8   0   1   74.59   17.20
  -9   0  -1  186.08   23.60
  -9   0  -1  174.58   23.70
  -9   0  -1  172.38   21.00
   9   0   1  194.78   23.20
 -10   0  -1   23.10   12.20
 -10   0  -1   17.10   13.10
  10  -1  -1  118.39   25.50
 -10   1   1  122.09   20.30
 -10   1   1  111.99   19.50
 -10   1   1  145.69   22.40
   9  -1  -1   56.69   17.60
  -9   1   1   51.09   13.90
  -9   1   1   59.39   15.10
   8  -1  -1  243.98   31.10
  -8   1   1  287.67   22.30
  -8   1   1  263.07   23.00
  -8   1   1  303.97   25.50
  -8   1   1  284.67   24.90
   7  -1  -1   38.00   13.10
   7  -1  -1   35.40    9.70
  -7   1   1   48.40   10.50
  -7   1   1   53.09    8.60
  -7   1   1   48.20   10.80
  -7   1   1   43.60   10.70
  -7   1   1   34.00   10.60
   6  -1  -1   12.00    9.20
   6  -1  -1    6.40    6.30
   6  -1  -1    9.90    8.10
  -6   1   1   14.90    6.50
  -6   1   1    8.20    4.90
  -6   1   1   10.80    6.20
  -6   1   1   21.00    8.10
   5  -1  -1  127.29   14.90
   5  -1  -1  173.38   20.30
   5  -1  -1  140.39   12.60
   5  -1  -1  151.48   16.80
  -5   1   1  127.59   10.90
  -5   1   1  119.79   13.10
  -5   1   1  104.89   12.90
  -5   1   1  118.29   13.20
   4  -1  -1  293.67   22.10
   4  -1  -1  297.67   17.50
   4  -1  -1  284.17   20.60
   4  -1  -1  303.97   20.50
  -4   1   1  250.87   18.00
  -4   1   1  235.08   15.90
  -4   1   1  232.28   18.50
  -4   1   1  234.98   18.20
   3  -1  -1 1182.38   61.59
   3  -1  -1 1169.28   63.09
   3  -1  -1 1160.88   65.39
   3  -1  -1 1124.39   63.79
   3  -1  -1 1179.68   64.79
  -3   1   1 1342.47   63.99
  -3   1   1 1338.57   63.39
  -3   1   1 1286.57   61.49
  -3   1   1 1297.07   63.69
   2  -1  -1 8923.01  421.86
   2  -1  -1 8766.32  423.36
   2  -1  -1 8889.51  425.16
   2  -1  -1 9014.30  424.36
  -2   1   1 8576.04  421.86
  -2   1   1 8626.74  423.16
  -2   1   1 8766.32  423.46
   1  -1  -1 1144.99   58.29
   1  -1  -1 1194.48   59.39
   1  -1  -1 1202.38   57.29
   1  -1  -1 1153.48   58.69
  -1   1   1 1156.98   57.09
  -1   1   1 1194.58   57.59
  -1   1   1 1176.18   58.39
  -1   1   1 1177.48   58.19
  -1   1   1 1181.48   56.59
  -1   1   1 1140.29   57.29
   0   1   1   50.59    3.90
   0   1   1   49.40    3.90
   0   1   1   52.29    4.40
   0   1   1   44.90    4.10
   0   1   1   47.60    4.50
   0   1   1   47.00    3.30
   0   1   1   50.09    4.00
  -1  -1  -1  654.03   34.80
  -1  -1  -1  629.94   33.80
  -1  -1  -1  630.24   33.80
  -1  -1  -1  673.63   34.90
  -1  -1  -1  625.14   33.30
  -1  -1  -1  606.84   34.00
  -1  -1  -1  614.74   32.90
   1   1   1  711.93   33.90
   1   1   1  730.83   33.00
   1   1   1  725.83   34.90
   1   1   1  711.83   34.40
   1   1   1  693.83   33.40
   1   1   1  728.33   34.10
  -2  -1  -1 1475.45   66.99
  -2  -1  -1 1442.36   68.09
  -2  -1  -1 1468.75   68.89
  -2  -1  -1 1379.06   67.79
   2   1   1 1248.88   68.79
   2   1   1 1308.87   68.69
   2   1   1 1268.87   67.59
  -3  -1  -1 2881.91  135.09
  -3  -1  -1 2830.22  134.39
  -3  -1  -1 2826.62  133.29
   3   1   1 2605.14  135.39
   3   1   1 2659.83  134.99
   3   1   1 2731.13  136.29
   3   1   1 2615.34  134.59
  -4  -1  -1  523.75   31.70
  -4  -1  -1  505.45   30.90
  -4  -1  -1  487.25   29.80
   4   1   1  610.54   32.40
   4   1   1  576.74   32.10
   4   1   1  564.84   32.80
   4   1   1  578.64   33.70
  -5  -1  -1 1792.42   90.59
  -5  -1  -1 1826.22   90.09
  -5  -1  -1 1800.62   88.69
   5   1   1 1685.43   90.19
   5   1   1 1717.93   90.99
   5   1   1 1704.33   91.79
   5   1   1 1698.63   92.59
  -6  -1  -1   20.00    7.50
  -6  -1  -1   36.80    7.20
  -6  -1  -1   23.10    7.80
  -6  -1  -1   34.40    8.60
  -6  -1  -1   32.10    7.00
   6   1   1    7.00    8.30
   6   1   1   22.80    9.10
   6   1   1    9.10    7.60
   6   1   1    6.00    7.00
  -7  -1  -1  115.39   15.60
  -7  -1  -1  110.09   12.90
  -7  -1  -1  111.89   13.60
  -7  -1  -1   92.19   13.90
  -7  -1  -1  118.59   15.40
   7   1   1  127.99   16.50
   7   1   1  135.19   18.80
   7   1   1   84.19   16.10
  -8  -1  -1   86.49   12.60
  -8  -1  -1   93.79   15.20
  -8  -1  -1   79.29   15.00
  -8  -1  -1   65.79   11.80
  -8  -1  -1   87.19   15.00
   8   1   1   80.99   14.40
   8   1   1   82.99   17.30
  -9  -1  -1    9.60    7.90
  -9  -1  -1   -1.70    8.30
  -9  -1  -1    7.20    8.90
   9   1   1    4.90    9.60
   9   1   1   12.20   12.00
 -10  -1  -1   57.79   16.00
 -10  -1  -1   63.99   16.50
 -10  -1  -1   49.80   13.80
  10  -2  -1   80.49   23.00
 -10   2   1  110.39   20.70
 -10   2   1  100.19   20.20
 -10   2   1   97.29   19.60
   9  -2  -1   32.20   18.60
  -9   2   1   83.29   17.80
  -9   2   1   66.59   16.40
   8  -2  -1   51.69   17.80
  -8   2   1   28.90   11.70
  -8   2   1   50.79   14.00
  -8   2   1   34.80   10.30
   7  -2  -1  135.69   22.10
   7  -2  -1  135.29   16.40
  -7   2   1  147.39   17.40
  -7   2   1  178.18   20.70
  -7   2   1  174.98   20.90
   6  -2  -1   10.60    6.70
   6  -2  -1   14.10   10.40
  -6   2   1   10.50    8.00
  -6   2   1    3.10    5.60
  -6   2   1   -0.20    4.00
  -6   2   1   -0.20    5.60
  -6   2   1    2.90    7.60
   5  -2  -1   68.79   10.10
   5  -2  -1   73.29   14.30
  -5   2   1  108.19    9.00
  -5   2   1  107.99   12.90
  -5   2   1  120.29   14.90
  -5   2   1  103.29   11.30
   4  -2  -1 1109.99   63.59
   4  -2  -1 1113.59   59.29
   4  -2  -1 1158.18   60.49
  -4   2   1 1172.08   62.09
  -4   2   1 1141.59   60.79
  -4   2   1 1178.18   60.79
  -4   2   1 1167.78   57.99
   3  -2  -1   44.50    8.90
   3  -2  -1   61.79    7.30
   3  -2  -1   61.29    7.90
  -3   2   1   78.49    8.40
  -3   2   1   83.99    9.30
  -3   2   1   78.59    6.20
  -3   2   1   67.49    9.20
   2  -2  -1 2315.07  109.19
   2  -2  -1 2276.87  110.99
  -2   2   1 2120.69  109.99
  -2   2   1 2160.28  106.89
  -2   2   1 2184.88  107.19
  -2   2   1 2234.58  109.39
  -2   2   1 2166.68  108.99
   1  -2  -1  331.27   18.10
   1  -2  -1  327.77   17.30
   1  -2  -1  313.17   19.50
   1  -2  -1  327.97   19.00
  -1   2   1  328.37   17.30
  -1   2   1  324.77   19.30
  -1   2   1  340.97   19.30
  -1   2   1  341.37   19.20
  -1   2   1  324.57   16.10
   0  -2  -1  447.36   22.50
   0  -2  -1  424.66   23.30
   0  -2  -1  421.66   21.10
   0  -2  -1  422.46   22.10
   0  -2  -1  404.16   21.90
   0  -2  -1  411.36   22.70
   0  -2  -1  424.26   22.30
  -1  -2  -1 1904.91   95.89
  -1  -2  -1 1941.41   94.39
  -1  -2  -1 1892.11   94.09
  -1  -2  -1 1927.91   93.29
  -1  -2  -1 1956.60   93.29
   1   2   1 1890.21   94.39
   1   2   1 1927.81   93.19
   1   2   1 1970.10   93.29
   1   2   1 1962.70   95.99
   1   2   1 1908.71   94.29
  -2  -2  -1   36.50    6.00
  -2  -2  -1   32.10    5.70
  -2  -2  -1   43.70    5.00
  -2  -2  -1   39.20    3.90
   2   2   1   57.89    8.30
   2   2   1   43.40    5.70
   2   2   1   54.89    5.90
   2   2   1   52.39    5.00
  -3  -2  -1 3117.39  149.09
  -3  -2  -1 3235.68  151.08
  -3  -2  -1 3071.09  150.28
   3   2   1 3060.89  152.38
   3   2   1 2923.61  149.69
   3   2   1 2951.30  150.08
  -4  -2  -1  169.68   15.00
  -4  -2  -1  156.98   13.30
  -4  -2  -1  169.48   14.50
   4   2   1  230.48   17.60
   4   2   1  227.28   15.40
   4   2   1  222.88   15.40
  -5  -2  -1  428.66   25.20
  -5  -2  -1  419.36   23.90
  -5  -2  -1  408.46   26.60
  -5  -2  -1  398.46   27.00
   5   2   1  411.36   25.90
   5   2   1  400.96   26.50
   5   2   1  385.46   28.20
  -6  -2  -1  146.59   16.30
  -6  -2  -1  133.29   16.20
  -6  -2  -1  162.98   14.10
  -6  -2  -1  164.28   13.00
   6   2   1  122.39   17.50
   6   2   1  139.89   15.80
   6   2   1  139.59   15.50
  -7  -2  -1  180.78   16.80
  -7  -2  -1  166.18   15.20
  -7  -2  -1  195.38   21.10
  -7  -2  -1  196.88   20.50
  -7  -2  -1  181.48   19.20
   7   2   1  171.18   20.40
   7   2   1  173.98   22.00
   7   2   1  166.38   18.40
  -8  -2  -1    3.00    6.00
  -8  -2  -1   14.70    9.20
  -8  -2  -1   11.30    9.40
  -8  -2  -1    7.50    7.80
  -8  -2  -1    8.80    6.70
  -8  -2  -1    4.80    8.30
   8   2   1    7.20   10.70
   8   2   1   10.20    9.20
   8   2   1   23.70   11.00
  -9  -2  -1   75.89   16.20
  -9  -2  -1  100.99   16.40
  -9  -2  -1   71.89   14.00
   9   2   1   98.59   20.10
   9   2   1   76.89   15.00
 -10  -2  -1   49.99   15.40
 -10  -2  -1   85.49   15.70
 -10  -2  -1   89.59   17.70
  10   2   1   83.39   19.90
 -11  -2  -1   84.39   19.60
 -11  -2  -1   83.99   17.50
 -11  -2  -1   93.09   19.60
   9  -3  -1   15.80   15.70
  -9   3   1    9.10   12.70
  -9   3   1   11.10   11.90
   8  -3  -1  311.27   32.90
  -8   3   1  280.27   27.70
  -8   3   1  269.07   27.00
  -8   3   1  258.87   24.40
   7  -3  -1  310.47   24.40
   7  -3  -1  292.07   30.90
  -7   3   1  290.67   24.10
  -7   3   1  321.37   27.70
  -7   3   1  295.97   26.40
   6  -3  -1   70.09   15.60
   6  -3  -1   86.19   12.70
  -6   3   1  104.09   16.20
  -6   3   1  125.39   15.40
  -6   3   1  108.79   12.60
  -6   3   1  122.79   17.20
   5  -3  -1  238.38   18.50
   5  -3  -1  216.08   22.50
  -5   3   1  251.47   19.70
  -5   3   1  249.88   15.40
  -5   3   1  283.17   22.50
  -5   3   1  246.58   18.40
   4  -3  -1  581.44   32.80
   4  -3  -1  588.34   37.20
   4  -3  -1  569.74   32.60
  -4   3   1  571.94   32.90
  -4   3   1  549.95   29.90
  -4   3   1  563.94   33.90
  -4   3   1  561.74   35.50
   3  -3  -1  105.59   10.30
   3  -3  -1  132.39   14.10
   3  -3  -1  116.79   10.10
  -3   3   1  103.79    7.70
  -3   3   1  105.69   10.00
  -3   3   1  114.19   12.20
  -3   3   1  106.99   12.80
   2  -3  -1  252.07   15.90
   2  -3  -1  244.18   16.10
   2  -3  -1  247.48   18.30
  -2   3   1  248.08   16.10
  -2   3   1  253.77   18.20
  -2   3   1  243.08   17.00
  -2   3   1  242.18   13.80
  -2   3   1  246.68   13.10
   1  -3  -1 2280.47  113.59
   1  -3  -1 2296.17  114.09
   1  -3  -1 2335.67  111.19
   1  -3  -1 2286.17  112.59
   1  -3  -1 2313.97  115.09
  -1   3   1 2281.97  114.29
  -1   3   1 2311.67  114.89
  -1   3   1 2299.07  111.19
  -1   3   1 2327.97  114.39
  -1   3   1 2339.17  112.19
   0  -3  -1  295.47   18.90
   0  -3  -1  262.67   17.60
   0  -3  -1  300.97   17.60
   0  -3  -1  280.97   17.60
   0  -3  -1  280.67   16.00
   0   3   1  312.07   18.10
   0   3   1  349.87   19.70
   0   3   1  332.67   17.20
   0   3   1  321.97   18.50
  -1  -3  -1 1128.29   57.99
  -1  -3  -1 1136.39   58.39
  -1  -3  -1 1154.88   60.59
  -1  -3  -1 1146.49   57.69
   1   3   1 1189.08   57.89
   1   3   1 1160.78   60.59
   1   3   1 1162.38   58.99
   1   3   1 1164.88   56.79
  -2  -3  -1  381.96   22.70
  -2  -3  -1  383.76   22.00
  -2  -3  -1  396.26   20.00
  -2  -3  -1  397.26   20.80
   2   3   1  379.86   24.90
   2   3   1  399.06   20.80
   2   3   1  403.56   20.20
   2   3   1  384.46   22.70
  -3  -3  -1  255.87   15.80
  -3  -3  -1  245.58   16.60
  -3  -3  -1  245.68   13.80
  -3  -3  -1  254.77   13.90
   3   3   1  210.18   15.70
   3   3   1  230.18   13.60
   3   3   1  215.68   18.60
  -4  -3  -1  570.74   33.10
  -4  -3  -1  565.64   29.90
  -4  -3  -1  539.75   31.60
   4   3   1  561.94   35.30
   4   3   1  524.95   32.10
  -5  -3  -1   48.10    8.80
  -5  -3  -1   44.20    6.90
  -5  -3  -1   28.20    7.70
   5   3   1   20.50    8.10
   5   3   1   25.10    7.70
  -6  -3  -1 1215.38   66.09
  -6  -3  -1 1140.79   62.09
  -6  -3  -1 1242.78   64.69
   6   3   1 1166.48   68.19
   6   3   1 1184.98   65.39
   6   3   1 1158.98   64.09
  -7  -3  -1   53.09   11.30
  -7  -3  -1   62.39   12.80
  -7  -3  -1   44.40    8.90
  -7  -3  -1   42.60    7.50
   7   3   1   31.30   11.70
   7   3   1   31.00   10.40
   7   3   1   38.10   10.10
  -8  -3  -1  109.09   13.30
  -8  -3  -1   96.09   17.50
  -8  -3  -1  117.29   16.60
  -8  -3  -1  121.89   15.10
  -8  -3  -1  126.89   18.00
   8   3   1  142.69   17.70
   8   3   1  141.89   21.60
   8   3   1  159.98   20.30
  -9  -3  -1   84.29   17.70
  -9  -3  -1   62.19   13.70
  -9  -3  -1   49.80   11.80
  -9  -3  -1   54.69   13.60
   9   3   1   48.00   15.90
   9   3   1   55.39   15.20
 -10  -3  -1   12.80   12.20
 -10  -3  -1   10.40   10.60
 -10  -3  -1   11.90   10.70
  10   3   1    6.90   13.30
 -11  -3  -1   55.99   15.70
 -11  -3  -1   23.50   12.90
  11   3   1   47.50   19.70
   9  -4  -1    5.90   16.30
  -9   4   1   11.70   12.80
  -9   4   1   13.80   14.40
   8  -4  -1  144.39   26.50
  -8   4   1  161.18   22.50
  -8   4   1  168.58   23.70
   7  -4  -1   12.00   13.10
   7  -4  -1   17.60    9.60
  -7   4   1   19.90   10.80
  -7   4   1   14.40    9.10
  -7   4   1   17.50   12.10
   6  -4  -1  141.49   22.10
   6  -4  -1  156.28   17.60
  -6   4   1  190.98   18.40
  -6   4   1  181.28   21.40
  -6   4   1  184.88   21.60
   5  -4  -1  293.07   26.60
   5  -4  -1  276.37   21.40
  -5   4   1  314.07   25.70
  -5   4   1  283.27   20.70
  -5   4   1  315.67   22.90
   4  -4  -1  235.38   16.50
   4  -4  -1  223.88   21.50
   4  -4  -1  237.28   17.20
  -4   4   1  172.68   18.70
  -4   4   1  216.78   13.30
  -4   4   1  230.38   18.50
  -4   4   1  234.78   16.80
   3  -4  -1  483.75   26.20
   3  -4  -1  484.35   30.60
  -3   4   1  432.66   29.20
  -3   4   1  361.56   26.60
  -3   4   1  411.26   23.00
  -3   4   1  436.96   26.30
   2  -4  -1  817.22   40.60
   2  -4  -1  766.62   43.80
   2  -4  -1  795.42   43.30
   2  -4  -1  803.62   46.20
  -2   4   1  764.12   44.40
  -2   4   1  818.52   40.30
  -2   4   1  841.22   41.00
  -2   4   1  866.31   46.40
  -2   4   1  820.12   44.00
   1  -4  -1 2447.16  121.69
   1  -4  -1 2413.86  124.49
   1  -4  -1 2536.25  125.09
   1  -4  -1 2506.65  125.99
  -1   4   1 2594.14  125.79
  -1   4   1 2518.25  125.99
  -1   4   1 2498.15  122.49
  -1   4   1 2599.64  121.69
  -1   4   1 2517.65  125.39
   0  -4  -1  556.74   32.00
   0  -4  -1  572.44   28.70
   0  -4  -1  545.95   30.60
   0  -4  -1  579.84   30.70
   0  -4  -1  546.55   30.60
   0   4   1  507.15   31.10
   0   4   1  540.75   31.30
  -1  -4  -1  117.39    9.40
  -1  -4  -1  118.89    9.40
  -1  -4  -1  141.29   10.00
  -1  -4  -1  128.49   10.50
  -1  -4  -1  130.59   13.00
   1   4   1  113.89   11.60
   1   4   1  116.19   10.20
   1   4   1  117.19   12.80
  -2  -4  -1  182.68   13.50
  -2  -4  -1  187.38   12.80
  -2  -4  -1  181.08   13.10
   2   4   1  168.88   13.90
   2   4   1  185.88   12.10
   2   4   1  176.98   10.10
   2   4   1  168.38   16.10
  -3  -4  -1 1544.25   75.09
  -3  -4  -1 1524.05   78.09
  -3  -4  -1 1520.15   79.39
   3   4   1 1548.45   79.49
   3   4   1 1538.85   79.69
   3   4   1 1559.94   75.19
   3   4   1 1578.44   76.79
   3   4   1 1570.94   82.99
  -4  -4  -1  969.90   48.60
  -4  -4  -1  951.20   52.69
  -4  -4  -1  952.40   51.39
   4   4   1  952.00   56.29
   4   4   1 1004.40   52.89
  -5  -4  -1  735.73   38.90
  -5  -4  -1  745.83   43.10
  -5  -4  -1  719.83   41.60
   5   4   1  758.12   43.20
   5   4   1  714.43   46.10
  -6  -4  -1  506.15   32.20
  -6  -4  -1  474.85   30.70
  -6  -4  -1  479.15   28.00
   6   4   1  474.55   31.80
   6   4   1  467.45   35.20
  -7  -4  -1  315.07   21.40
  -7  -4  -1  322.37   24.20
  -7  -4  -1  302.17   25.90
   7   4   1  312.47   28.90
   7   4   1  306.27   25.30
  -8  -4  -1   43.90   12.50
  -8  -4  -1   63.19   12.40
  -8  -4  -1   54.99   10.20
   8   4   1   68.49   16.40
   8   4   1   84.39   16.20
  -9  -4  -1   28.80   12.50
  -9  -4  -1   33.60   12.60
  -9  -4  -1   29.20   12.20
  -9  -4  -1   26.90   10.40
   9   4   1   12.40   14.30
 -10  -4  -1   44.90   14.10
 -10  -4  -1   63.29   14.40
 -10  -4  -1   41.10   13.90
  10   4   1   30.50   15.70
 -11  -4  -1   23.30   14.20
 -11  -4  -1   25.40   14.40
 -11  -4  -1   39.70   14.30
  11   4   1   36.60   19.50
   8  -5  -1   16.30   16.90
  -8   5   1   14.00   12.70
  -8   5   1   -6.40    9.80
   7  -5  -1  172.38   27.80
  -7   5   1  194.88   24.70
  -7   5   1  145.29   23.40
  -7   5   1  187.78   21.70
   6  -5  -1   54.49   16.70
   6  -5  -1   57.39   12.30
  -6   5   1   75.39   16.30
  -6   5   1   73.39   13.80
  -6   5   1   57.99   14.80
   5  -5  -1  144.59   21.20
   5  -5  -1  155.38   17.30
  -5   5   1  165.48   20.40
  -5   5   1  136.99   19.20
  -5   5   1  131.09   16.90
   4  -5  -1  158.78   20.60
   4  -5  -1  125.29   15.40
  -4   5   1  175.38   14.60
  -4   5   1  177.78   17.20
  -4   5   1  189.38   18.70
   3  -5  -1   90.49    9.50
   3  -5  -1   82.89   13.80
   3  -5  -1   63.99   10.00
  -3   5   1   68.89   11.00
  -3   5   1   61.99    6.00
  -3   5   1   52.29   11.00
  -3   5   1   63.09    9.20
   2  -5  -1  425.96   25.40
   2  -5  -1  426.56   21.90
   2  -5  -1  453.05   28.70
   2  -5  -1  414.26   26.10
  -2   5   1  416.96   26.80
  -2   5   1  377.76   21.90
  -2   5   1  388.96   25.50
  -2   5   1  357.06   27.10
   1  -5  -1  169.48   11.10
   1  -5  -1  181.28   15.20
   1  -5  -1  192.68   14.90
   1  -5  -1  175.68   14.60
  -1   5   1  188.98   15.10
  -1   5   1  168.18   15.00
  -1   5   1  180.08   15.80
   0  -5  -1 1891.81   98.39
   0  -5  -1 1908.01   98.39
   0  -5  -1 1948.11   96.09
   0  -5  -1 1989.70   98.29
   0  -5  -1 1931.71   99.89
   0   5   1 2027.00   99.89
   0   5   1 1961.00   99.29
  -1  -5  -1 1191.78   60.49
  -1  -5  -1 1191.38   60.79
  -1  -5  -1 1240.18   62.49
  -1  -5  -1 1190.88   64.69
  -1  -5  -1 1263.67   61.69
   1   5   1 1149.69   61.99
   1   5   1 1141.59   63.09
   1   5   1 1133.69   64.49
  -2  -5  -1 1469.45   76.29
  -2  -5  -1 1456.85   76.39
  -2  -5  -1 1521.15   80.79
  -2  -5  -1 1483.95   75.09
  -2  -5  -1 1508.85   77.69
   2   5   1 1536.65   76.39
   2   5   1 1542.65   73.69
   2   5   1 1542.55   78.59
   2   5   1 1476.75   80.69
   3   5   1  189.98   17.50
   3   5   1  143.39   14.10
   3   5   1  150.98   11.90
  -4  -5  -1  197.98   16.00
  -4  -5  -1  159.88   15.30
  -4  -5  -1  194.98   14.40
   4   5   1  179.78   18.80
   4   5   1  182.98   16.50
  -5  -5  -1  353.16   25.00
  -5  -5  -1  359.96   23.10
  -5  -5  -1  350.66   24.30
  -5  -5  -1  363.76   18.80
   5   5   1  317.17   28.10
   5   5   1  296.17   24.00
  -6  -5  -1   91.99   12.30
  -6  -5  -1  105.79   14.90
  -6  -5  -1   83.79    8.80
  -6  -5  -1   82.29   12.90
   6   5   1  121.89   16.40
   6   5   1  101.29   17.40
  -7  -5  -1  767.32   48.10
  -7  -5  -1  784.02   46.60
  -7  -5  -1  715.43   47.30
   7   5   1  808.72   53.29
   7   5   1  845.82   49.10
  -8  -5  -1   25.00    9.90
  -8  -5  -1   10.00    9.90
  -8  -5  -1   22.30   10.00
   8   5   1   14.80   10.20
   8   5   1   24.90   14.10
  -9  -5  -1  101.19   18.40
  -9  -5  -1   84.29   16.30
  -9  -5  -1   78.09   14.90
   9   5   1   98.69   22.20
 -10  -5  -1    4.90   11.10
 -10  -5  -1    2.40   10.00
 -10  -5  -1   -4.50    8.90
  10   5   1   25.60   16.30
 -11  -5  -1   24.30   14.80
 -11  -5  -1   12.10   11.90
  11   5   1   34.40   19.10
   7  -6  -1  213.28   30.90
  -7   6   1  202.48   27.30
  -7   6   1  186.28   25.70
   6  -6  -1    0.20    8.40
   6  -6  -1   -3.20   11.50
  -6   6   1    3.80    9.50
  -6   6   1    0.60   11.30
  -6   6   1    5.30   11.00
   5  -6  -1   42.30   11.00
   5  -6  -1   41.70   14.00
  -5   6   1   39.10   13.20
  -5   6   1   63.09   13.20
  -5   6   1   34.90   13.10
   4  -6  -1  185.08   18.30
   4  -6  -1  204.08   23.00
  -4   6   1  200.68   22.50
  -4   6   1  173.38   19.40
  -4   6   1  163.38   21.10
   3  -6  -1   41.60   11.00
   3  -6  -1   39.70    9.80
  -3   6   1   33.30    7.70
  -3   6   1   38.30   11.60
  -3   6   1   33.50   10.00
   2  -6  -1  182.58   11.70
   2  -6  -1  178.88   16.10
   2  -6  -1  189.58   18.00
   2  -6  -1  180.18   15.20
  -2   6   1  152.08   18.00
  -2   6   1  134.99   16.30
   1  -6  -1  473.95   29.70
   1  -6  -1  470.65   25.50
   1  -6  -1  457.85   29.90
   1  -6  -1  493.95   29.80
  -1   6   1  436.36   30.80
  -1   6   1  460.35   30.00
   0  -6  -1  832.32   47.40
   0  -6  -1  800.52   45.40
   0  -6  -1  814.02   45.50
   0  -6  -1  787.62   45.80
   0  -6  -1  796.52   42.80
   0   6   1  910.71   48.00
   0   6   1  825.12   47.10
  -1  -6  -1 1083.19   53.79
  -1  -6  -1 1101.79   56.29
  -1  -6  -1 1032.20   54.09
  -1  -6  -1 1033.60   58.29
  -1  -6  -1 1018.70   54.79
   1   6   1  989.90   55.69
   1   6   1  989.10   58.39
   1   6   1  967.00   56.59
  -2  -6  -1  472.15   28.90
  -2  -6  -1  496.95   27.70
  -2  -6  -1  503.95   31.10
  -2  -6  -1  518.35   29.40
   2   6   1  480.45   29.60
   2   6   1  514.85   31.90
   2   6   1  508.05   34.30
  -3  -6  -1   72.09    7.40
  -3  -6  -1   71.19   10.00
  -3  -6  -1   68.69   11.00
  -3  -6  -1   66.99    9.10
   3   6   1  111.09   10.20
   3   6   1  108.49   13.20
   3   6   1   76.59   13.30
  -4  -6  -1   89.99   11.40
  -4  -6  -1   75.09   11.60
  -4  -6  -1   74.89   12.40
   4   6   1  149.19   19.30
   4   6   1  154.78   11.60
   4   6   1  130.19   15.80
   4   6   1  155.58   16.60
  -5  -6  -1  105.59   11.60
  -5  -6  -1   94.69   13.30
  -5  -6  -1   76.99   11.90
   5   6   1   70.89   15.40
   5   6   1   72.99   13.30
  -6  -6  -1  415.66   26.80
  -6  -6  -1  430.76   30.20
  -6  -6  -1  446.16   30.00
   6   6   1  356.76   32.90
   6   6   1  361.26   28.60
  -7  -6  -1  113.79   14.50
  -7  -6  -1  139.99   18.80
  -7  -6  -1  137.39   18.40
   7   6   1   81.19   15.80
   7   6   1   67.99   17.70
  -8  -6  -1    9.30    8.10
  -8  -6  -1    3.80    8.70
  -8  -6  -1   11.60   10.30
   8   6   1   25.30   14.70
   8   6   1   19.70   11.00
  -9  -6  -1   12.20   10.90
  -9  -6  -1   16.20   12.00
  -9  -6  -1   22.50   10.60
   9   6   1   29.30   17.00
 -10  -6  -1   20.20   13.60
 -10  -6  -1   11.80   12.70
  10   6   1    6.00   14.50
   7  -7  -1   21.30   15.70
  -7   7   1   -5.00   10.40
  -7   7   1   17.80   15.10
   6  -7  -1  112.89   18.50
   6  -7  -1  130.19   25.80
  -6   7   1  131.79   22.20
  -6   7   1  173.18   21.90
  -6   7   1  132.29   22.30
   5  -7  -1   67.59   18.10
   5  -7  -1   56.39   12.80
  -5   7   1   69.39   16.80
  -5   7   1   84.89   17.20
  -5   7   1   60.99   13.70
   4  -7  -1  487.55   33.50
   4  -7  -1  494.45   37.40
  -4   7   1  466.25   34.40
  -4   7   1  405.76   32.60
  -4   7   1  463.35   36.00
   3  -7  -1   26.10   10.50
   3  -7  -1   32.80   10.50
  -3   7   1   26.70   11.20
  -3   7   1   45.20   11.10
  -3   7   1   36.40   11.30
   2  -7  -1  105.99   14.30
   2  -7  -1   87.49   14.30
  -2   7   1   91.19   14.80
  -2   7   1   96.39   14.50
  -2   7   1  116.09   16.50
   1  -7  -1  795.22   41.70
   1  -7  -1  755.82   45.90
   1  -7  -1  777.82   46.70
   1  -7  -1  803.32   47.10
  -1   7   1  840.82   48.10
  -1   7   1  782.92   48.40
   0  -7  -1   95.69    9.50
   0  -7  -1   84.89   13.20
   0  -7  -1   76.99   11.20
   0  -7  -1   97.19   12.00
   0  -7  -1  104.99   13.80
   0   7   1  106.79   15.40
   0   7   1   74.09   13.30
   0   7   1   88.59   13.60
  -1  -7  -1  820.12   45.00
  -1  -7  -1  793.42   46.10
  -1  -7  -1  826.92   44.20
  -1  -7  -1  825.32   43.50
   1   7   1  778.12   47.30
   1   7   1  757.52   45.80
   1   7   1  762.62   48.70
  -2  -7  -1   51.09    8.50
  -2  -7  -1   53.79    9.20
  -2  -7  -1   51.89    7.10
  -2  -7  -1   48.20    9.40
   2   7   1   25.20    9.40
   2   7   1   27.10    5.30
   2   7   1   15.50    6.90
   2   7   1   20.80    9.90
  -3  -7  -1  335.37   22.80
  -3  -7  -1  341.77   24.90
  -3  -7  -1  352.16   20.50
  -3  -7  -1  333.87   23.60
   3   7   1  373.66   23.40
   3   7   1  344.87   25.80
   3   7   1  365.76   29.60
  -4  -7  -1  133.09   16.10
  -4  -7  -1  141.49   14.10
  -4  -7  -1  174.38   16.10
  -4  -7  -1  162.98   11.60
   4   7   1  166.08   14.10
   4   7   1  168.28   18.80
   4   7   1  185.18   23.40
   4   7   1  159.98   17.80
  -5  -7  -1  256.77   22.20
  -5  -7  -1  231.08   18.50
  -5  -7  -1  243.98   20.50
   5   7   1  234.68   17.40
   5   7   1  238.58   26.30
   5   7   1  238.28   22.10
  -6  -7  -1  578.84   34.40
  -6  -7  -1  547.25   36.70
  -6  -7  -1  561.64   37.40
   6   7   1  541.75   42.40
   6   7   1  504.75   37.30
  -7  -7  -1   77.79   14.50
  -7  -7  -1   54.99   13.20
  -7  -7  -1   54.79   10.80
   7   7   1   49.30   16.90
   7   7   1   80.39   15.60
  -8  -7  -1  172.18   19.00
  -8  -7  -1  161.98   22.00
  -8  -7  -1  144.99   20.50
   8   7   1  141.39   21.20
   8   7   1  195.18   29.10
  -9  -7  -1   70.19   17.10
  -9  -7  -1   79.39   17.30
   9   7   1   71.29   21.20
 -10  -7  -1    9.40   13.30
 -10  -7  -1   21.10   13.80
  10   7   1    1.50   15.70
   6  -8  -1  147.39   27.80
  -6   8   1  129.69   24.40
  -6   8   1  145.39   24.70
   5  -8  -1   76.69   15.60
   5  -8  -1  103.09   20.90
  -5   8   1   55.29   16.30
  -5   8   1   65.19   15.80
  -5   8   1   56.29   18.00
   4  -8  -1  265.87   28.80
   4  -8  -1  251.17   24.50
  -4   8   1  306.57   28.30
  -4   8   1  237.18   29.40
  -4   8   1  253.37   25.00
   3  -8  -1  133.79   19.00
   3  -8  -1  128.69   20.30
  -3   8   1  149.59   19.40
  -3   8   1  147.29   21.20
  -3   8   1  130.29   19.10
   2  -8  -1  100.79   16.30
   2  -8  -1  109.79   16.80
  -2   8   1  157.68   20.30
  -2   8   1  166.48   21.90
  -2   8   1  133.79   17.20
   1  -8  -1   66.49   12.50
   1  -8  -1   86.09   13.80
  -1   8   1   87.09   15.80
  -1   8   1  105.29   16.30
  -1   8   1   98.59   14.20
  -1   8   1   90.39   15.70
   0  -8  -1   66.89   11.20
   0  -8  -1   71.79    8.90
   0  -8  -1   65.59   11.70
   0   8   1   28.20   11.10
   0   8   1   25.40    8.20
   0   8   1   29.70   10.30
   0   8   1   16.30    9.40
  -1  -8  -1   69.49   10.10
  -1  -8  -1   62.39    9.20
  -1  -8  -1   59.09   11.80
  -1  -8  -1   65.19   10.60
   1   8   1   78.19   13.30
   1   8   1   62.49   13.40
   1   8   1   72.79   14.40
   1   8   1   51.39    9.00
  -2  -8  -1  597.54   34.90
  -2  -8  -1  540.15   36.60
  -2  -8  -1  559.54   33.90
  -2  -8  -1  601.54   39.00
   2   8   1  579.94   40.60
   2   8   1  541.45   35.70
   2   8   1  548.25   37.70
  -3  -8  -1  174.88   16.20
  -3  -8  -1  161.98   15.50
  -3  -8  -1  173.18   19.10
   3   8   1  161.88   16.10
   3   8   1  175.58   20.00
   3   8   1  168.38   22.70
  -4  -8  -1    7.40    7.10
  -4  -8  -1    5.40    5.80
  -4  -8  -1   10.60    8.20
   4   8   1    3.70    5.80
   4   8   1    7.50    9.00
   4   8   1    7.00    9.00
   4   8   1    5.50    8.40
  -5  -8  -1  217.38   20.90
  -5  -8  -1  200.48   17.40
  -5  -8  -1  181.48   21.90
   5   8   1  194.68   21.40
   5   8   1  233.18   26.10
   5   8   1  212.28   17.70
  -6  -8  -1   89.29   15.90
  -6  -8  -1   85.89   12.50
  -6  -8  -1   76.99   14.60
   6   8   1   77.79   15.90
   6   8   1   92.59   20.10
  -7  -8  -1  156.78   20.50
  -7  -8  -1  190.48   23.70
  -7  -8  -1  153.78   17.70
   7   8   1  200.78   28.50
   7   8   1  179.48   23.40
  -8  -8  -1   -5.20    9.70
  -8  -8  -1    4.50   11.10
   8   8   1  -10.70   12.10
  -9  -8  -1  102.39   20.10
  -9  -8  -1   93.79   19.80
   9   8   1  103.29   26.30
 -10  -8  -1    8.30   12.60
 -10  -8  -1    3.90   13.20
  10   8   1  -12.30   16.20
   5  -9  -1   17.10   12.10
   5  -9  -1   21.90   15.60
  -5   9   1   13.10   12.90
  -5   9   1   17.10   15.00
  -5   9   1   35.90   15.30
   4  -9  -1   19.10   11.70
   4  -9  -1   13.70   13.10
  -4   9   1   22.90   15.70
  -4   9   1   18.70   13.70
  -4   9   1   16.70   12.20
   3  -9  -1   71.29   16.20
   3  -9  -1   84.69   17.90
  -3   9   1  100.59   19.10
  -3   9   1  109.19   18.80
  -3   9   1   80.79   18.40
   2  -9  -1   61.89   14.50
   2  -9  -1   46.50   13.30
  -2   9   1   66.29   14.20
  -2   9   1   54.29   14.20
  -2   9   1   47.00   15.70
   1  -9  -1   55.09   14.30
   1  -9  -1   61.89   13.50
  -1   9   1   95.39   18.30
  -1   9   1   95.79   17.80
  -1   9   1  105.29   17.00
  -1   9   1  104.69   15.50
   0  -9  -1  268.07   23.90
   0   9   1  231.28   20.80
   0   9   1  253.27   27.20
   0   9   1  233.28   24.30
   0   9   1  244.78   24.30
  -1  -9  -1  126.89   14.50
  -1  -9  -1  142.79   19.30
   1   9   1  157.48   20.30
   1   9   1  128.89   19.70
   1   9   1  165.48   20.10
  -2  -9  -1  307.67   22.50
  -2  -9  -1  273.67   24.50
  -2  -9  -1  255.77   20.50
   2   9   1  262.17   23.50
   2   9   1  304.07   28.30
   2   9   1  260.67   25.80
  -3  -9  -1  100.59   13.60
  -3  -9  -1   66.89   11.40
  -3  -9  -1   97.99   15.90
   3   9   1   63.69   11.90
   3   9   1   87.99   16.60
   3   9   1   68.29   17.00
  -4  -9  -1   -8.00    8.10
  -4  -9  -1    8.50    7.80
  -4  -9  -1    3.10    6.50
   4   9   1    5.90   10.20
   4   9   1   17.30    7.80
   4   9   1   10.60   11.80
  -5  -9  -1   39.20    9.40
  -5  -9  -1   26.60    9.60
  -5  -9  -1   43.50   11.80
   5   9   1   32.30   15.80
   5   9   1   38.20   13.60
  -6  -9  -1  181.78   22.60
  -6  -9  -1  222.68   25.20
  -6  -9  -1  175.08   18.80
   6   9   1  216.28   30.10
   6   9   1  177.88   24.30
  -7  -9  -1  154.88   22.10
  -7  -9  -1  173.78   23.50
   7   9   1  176.28   28.30
   7   9   1  192.38   25.90
  -8  -9  -1  104.59   19.80
  -8  -9  -1   65.69   17.00
   8   9   1   67.69   21.40
  -9  -9  -1    9.30   11.50
  -9  -9  -1   28.70   15.40
   9   9   1    6.00   18.40
   3 -10  -1   84.59   18.40
  -3  10   1  115.59   20.70
  -3  10   1  106.19   19.40
  -3  10   1   69.59   20.00
   2 -10  -1   10.10   11.30
  -2  10   1    5.80   11.70
  -2  10   1   17.50   11.30
  -2  10   1    8.20   13.80
   1 -10  -1  199.68   24.70
  -1  10   1  208.58   25.70
  -1  10   1  228.78   27.30
   0 -10  -1    1.70    8.50
   0  10   1    3.40   10.50
   0  10   1    9.30   11.30
  -1 -10  -1  385.16   31.40
   1  10   1  373.66   30.90
   1  10   1  352.36   32.40
   1  10   1  354.06   32.00
  -2 -10  -1   42.70   10.70
  -2 -10  -1   47.00   13.60
   2  10   1   57.89   14.10
   2  10   1   60.99   16.00
   2  10   1   52.49   13.10
  -3 -10  -1  189.98   20.90
  -3 -10  -1  217.48   19.70
  -3 -10  -1  178.58   23.20
   3  10   1  221.98   26.50
   3  10   1  236.88   30.50
   3  10   1  225.58   21.50
  -4 -10  -1   48.10   10.50
  -4 -10  -1   54.89   12.40
  -4 -10  -1   58.49   14.40
   4  10   1   42.80   14.80
   4  10   1   35.20   15.50
  -5 -10  -1  195.38   24.50
  -5 -10  -1  193.28   20.20
  -5 -10  -1  203.78   23.10
   5  10   1  165.68   27.40
   5  10   1  167.58   25.30
  -6 -10  -1  195.08   24.50
  -6 -10  -1  204.98   24.10
   6  10   1  194.38   29.30
   6  10   1  193.48   27.30
  -7 -10  -1   78.39   17.40
  -7 -10  -1   85.09   17.20
   7  10   1   68.19   20.90
   7  10   1   85.79   18.90
  -8 -10  -1  149.69   24.20
  -8 -10  -1  104.49   19.80
   8  10   1  130.59   26.40
   2 -11  -1   47.90   15.50
  -2  11   1   33.00   15.60
  -2  11   1   77.89   18.90
   1 -11  -1   33.10   12.60
  -1  11   1   48.60   15.90
  -1  11   1   48.40   15.30
   0 -11  -1   77.09   17.70
   0  11   1   84.99   18.90
   0  11   1   81.39   17.90
  -1 -11  -1  140.19   20.70
   1  11   1  113.69   21.40
   1  11   1  105.69   19.30
  -2 -11  -1  107.29   18.60
   2  11   1  112.09   22.50
   2  11   1  122.09   19.00
   2  11   1  103.89   19.60
  -3 -11  -1  110.69   19.30
  -3 -11  -1   92.99   14.80
   3  11   1   82.99   18.80
   3  11   1  120.39   23.40
   3  11   1   95.49   16.50
  -4 -11  -1   60.79   13.20
  -4 -11  -1   53.39   11.80
  -4 -11  -1   35.00   14.20
   4  11   1   59.39   19.40
   4  11   1   32.40   14.50
  -5 -11  -1  115.19   18.70
  -5 -11  -1   96.59   18.90
   5  11   1  136.39   25.30
   5  11   1  115.79   25.80
  -6 -11  -1   16.00   11.00
  -6 -11  -1    1.70    9.50
   6  11   1   11.20   13.50
   6  11   1    2.30   14.80
  -7 -11  -1  109.69   20.00
  -7 -11  -1   84.69   19.90
   7  11   1  106.49   25.50
  -1 -12  -1  143.79   22.80
   1  12   1  145.49   24.70
   1  12   1  109.29   21.00
  -2 -12  -1  137.09   22.10
   2  12   1   97.39   20.70
   2  12   1  139.39   21.50
  -3 -12  -1    4.00   11.50
   3  12   1    9.50   14.40
   3  12   1    2.10   13.60
  -4 -12  -1   58.39   15.80
   4  12   1   74.09   21.60
   4  12   1   60.79   17.40
  -5 -12  -1   21.10   12.20
  -5 -12  -1   27.90   13.40
   5  12   1   35.70   17.60
   5  12   1   28.20   17.80
   4  11  -2   66.59   22.20
   4  11  -2   72.09   17.20
  -4 -11   2   65.09   16.10
  -4 -11   2   56.39   17.80
   3  11  -2  -10.70   13.80
   3  11  -2   -5.10   12.40
  -3 -11   2   13.80   13.20
   2  11  -2  164.98   25.00
  -2 -11   2  165.78   25.10
   7  10  -2    5.00   14.70
   7  10  -2   -0.50   14.10
  -7 -10   2   -9.00   11.10
  -7 -10   2   16.20   12.90
   6  10  -2   82.79   22.30
   6  10  -2  109.29   23.20
  -6 -10   2  103.49   19.30
  -6 -10   2   79.09   18.70
   5  10  -2  199.48   31.40
   5  10  -2  164.38   26.90
  -5 -10   2  162.48   23.00
  -5 -10   2  163.58   23.30
   4  10  -2   27.00   13.80
   4  10  -2   35.00   17.40
   4  10  -2   32.20   13.50
  -4 -10   2   26.80   12.30
  -4 -10   2   45.70   13.80
   3  10  -2  210.28   26.10
  -3 -10   2  192.28   22.90
  -3 -10   2  206.38   26.20
   2  10  -2   -7.60   11.30
   2  10  -2   13.40   12.10
  -2 -10   2    3.90   11.20
  -2 -10   2    8.00   10.60
   1  10  -2  156.68   23.80
   1  10  -2  136.89   21.90
  -1 -10   2  200.68   25.40
   0  10  -2   51.09   17.10
   0  10  -2   41.60   14.60
   0 -10   2   36.50   15.20
  -1  10  -2   53.59   17.90
  -1  10  -2   41.40   14.60
   1 -10   2   47.00   15.00
   8   9  -2  148.39   29.60
   8   9  -2  130.39   26.30
  -8  -9   2  147.79   22.00
  -8  -9   2  125.79   21.90
   7   9  -2   21.00   15.90
   7   9  -2   49.99   17.00
  -7  -9   2   41.70   14.00
  -7  -9   2   32.90   14.10
   6   9  -2  159.88   26.50
   6   9  -2  151.98   25.70
  -6  -9   2  170.48   23.30
  -6  -9   2  198.78   24.40
   5   9  -2   24.00   13.60
   5   9  -2   11.50    9.60
   5   9  -2   17.50   14.40
  -5  -9   2   21.50   10.90
  -5  -9   2   21.60   11.10
   4   9  -2  125.49   22.10
   4   9  -2  179.28   22.50
  -4  -9   2  193.28   23.10
  -4  -9   2  192.68   22.70
   3   9  -2   86.59   17.00
   3   9  -2   51.69   14.70
  -3  -9   2   72.19   15.40
  -3  -9   2   57.19   12.90
   2   9  -2  306.67   28.30
   2   9  -2  301.67   28.80
   2   9  -2  331.07   28.90
  -2  -9   2  291.67   24.60
  -2  -9   2  253.07   28.50
   1   9  -2  121.79   19.70
   1   9  -2  106.59   19.10
  -1  -9   2  120.59   16.60
  -1  -9   2  120.09   19.20
   0   9  -2   79.49   17.80
   0   9  -2   48.30   14.30
   0  -9   2   63.49   15.50
  -1   9  -2   52.49   15.20
  -1   9  -2   32.60   13.20
   1  -9   2   23.20   13.50
  -2   9  -2   12.60   10.40
  -2   9  -2    2.40   11.90
   2  -9   2   19.90   13.00
  -3   9  -2   74.99   18.90
  -3   9  -2   99.39   21.60
   3  -9   2   52.29   16.80
   3  -9   2   87.09   19.80
   9   8  -2  156.08   29.20
   9   8  -2  127.59   28.00
  -9  -8   2  170.38   25.00
  -9  -8   2  131.39   21.80
   8   8  -2   27.90   18.40
   8   8  -2   38.90   17.30
  -8  -8   2   23.50   12.80
  -8  -8   2   27.80   13.10
   7   8  -2  132.29   24.10
   7   8  -2  162.58   27.20
  -7  -8   2  166.88   22.00
  -7  -8   2  130.99   21.10
   6   8  -2   13.10   13.20
   6   8  -2    4.10   11.40
  -6  -8   2   10.90   11.00
  -6  -8   2   13.50   10.30
   5   8  -2   42.50   14.70
   5   8  -2   42.90   15.70
   5   8  -2   32.70   11.00
  -5  -8   2   43.80   12.10
  -5  -8   2   50.79   12.80
   4   8  -2   79.99   14.80
   4   8  -2   83.09   19.10
   4   8  -2   84.89   17.60
  -4  -8   2  111.89   16.60
  -4  -8   2  122.29   17.10
   3   8  -2  192.78   23.90
   3   8  -2  136.39   19.20
  -3  -8   2  164.48   19.00
  -3  -8   2  138.19   19.00
   2   8  -2  280.27   26.00
   2   8  -2  298.97   25.80
   2   8  -2  281.87   25.10
  -2  -8   2  225.48   23.80
  -2  -8   2  231.48   21.40
   1   8  -2   89.39   16.60
   1   8  -2  117.19   17.80
   1   8  -2  113.39   16.70
  -1  -8   2  147.09   18.80
  -1  -8   2  128.59   16.00
   0   8  -2  151.78   21.50
   0   8  -2  165.18   20.70
   0  -8   2  177.78   17.50
   0  -8   2  200.88   22.70
  -1   8  -2  165.78   23.10
  -1   8  -2  157.88   20.80
  -1   8  -2  160.58   19.80
   1  -8   2  167.68   21.70
  -2   8  -2    4.90   11.50
  -2   8  -2   50.29   12.80
  -2   8  -2   41.90   13.00
   2  -8   2   46.70   13.90
  -3   8  -2   19.60   11.20
  -3   8  -2    5.20   11.00
  -3   8  -2   26.20   13.00
   3  -8   2    5.30   10.20
   3  -8   2   15.20   11.90
  -4   8  -2   82.29   18.30
  -4   8  -2   90.29   20.30
   4  -8   2  108.59   20.70
   4  -8   2   87.19   20.20
  -5   8  -2   17.00   12.50
  -5   8  -2    6.10   13.30
   5  -8   2    4.10   12.30
   9   7  -2   60.39   19.80
   9   7  -2   76.49   22.40
  -9  -7   2   84.19   17.40
  -9  -7   2   67.19   17.40
   8   7  -2   26.30   17.10
   8   7  -2   34.00   16.10
  -8  -7   2   33.70   11.50
  -8  -7   2   30.10   12.20
   7   7  -2   59.29   18.60
   7   7  -2   75.69   18.60
  -7  -7   2   84.09   16.30
  -7  -7   2   59.09   13.90
   6   7  -2  255.87   28.00
   6   7  -2  248.88   27.50
  -6  -7   2  247.78   24.30
  -6  -7   2  242.68   23.80
   5   7  -2   96.59   15.30
   5   7  -2  112.69   19.90
   5   7  -2  119.19   21.60
  -5  -7   2  169.48   19.90
  -5  -7   2  163.68   19.50
   4   7  -2   73.49   13.20
   4   7  -2   93.99   18.30
   4   7  -2   81.29   15.80
  -4  -7   2   49.99   11.70
  -4  -7   2   77.09    9.90
  -4  -7   2   67.79   13.40
   3   7  -2  346.57   29.80
   3   7  -2  416.86   35.30
   3   7  -2  384.66   32.50
  -3  -7   2  482.05   31.60
  -3  -7   2  482.05   26.80
  -3  -7   2  488.45   30.80
   2   7  -2   78.99   13.80
   2   7  -2  103.79   15.90
   2   7  -2   83.09   13.90
  -2  -7   2   56.99   11.40
  -2  -7   2   42.00   10.10
   1   7  -2   13.60    6.80
   1   7  -2   16.00    9.60
   1   7  -2   15.00    7.80
   1   7  -2   12.20    9.90
  -1  -7   2   66.99   10.80
  -1  -7   2   63.69   11.70
   0   7  -2   23.70    8.10
   0   7  -2   13.70    7.50
   0   7  -2   22.50   10.30
   0   7  -2    3.60    7.50
   0  -7   2   27.90   10.00
   0  -7   2    3.10    6.60
  -1   7  -2  217.18   19.90
  -1   7  -2  206.38   19.80
  -1   7  -2  217.48   24.30
   1  -7   2  168.78   17.80
   1  -7   2  132.09   18.30
   1  -7   2  151.28   16.80
  -2   7  -2   67.49   15.10
  -2   7  -2   89.99   14.70
  -2   7  -2   92.69   15.50
   2  -7   2   69.09   14.20
   2  -7   2   77.99   14.60
  -3   7  -2  222.28   27.30
  -3   7  -2  215.38   25.70
  -3   7  -2  224.48   21.60
   3  -7   2  253.37   25.10
   3  -7   2  253.37   28.00
   3  -7   2  217.58   24.90
  -4   7  -2  305.77   29.90
  -4   7  -2  250.27   31.60
   4  -7   2  324.97   31.00
   4  -7   2  283.77   28.30
  -5   7  -2    1.60   11.90
  -5   7  -2   -4.70   10.70
   5  -7   2   11.50   13.00
   5  -7   2   12.20   11.70
  -6   7  -2    0.60   13.80
  -6   7  -2   34.80   15.30
   6  -7   2    3.00   11.80
   6  -7   2   23.90   15.90
  10   6  -2   51.39   22.50
  10   6  -2   77.09   21.70
 -10  -6   2   80.49   19.00
 -10  -6   2   69.29   17.30
 -10  -6   2   93.09   20.30
   9   6  -2   -0.30   16.00
   9   6  -2   -2.30   11.50
  -9  -6   2   15.20   11.10
  -9  -6   2    5.40   10.60
   8   6  -2   97.49   21.90
   8   6  -2   98.79   20.60
  -8  -6   2   53.69   13.40
  -8  -6   2   68.39   15.30
   7   6  -2   67.79   18.20
   7   6  -2   93.09   20.40
  -7  -6   2  155.48   19.20
  -7  -6   2   81.79   14.90
   6   6  -2  486.05   40.90
   6   6  -2  555.74   41.10
  -6  -6   2  537.05   35.90
  -6  -6   2  550.74   36.90
   5   6  -2  157.88   21.80
   5   6  -2  174.98   23.00
  -5  -6   2  145.59   17.20
  -5  -6   2  139.09   12.50
  -5  -6   2  177.08   17.30
   4   6  -2   13.50    9.90
   4   6  -2   25.30   10.60
   4   6  -2   22.20    8.50
  -4  -6   2   15.10    8.20
  -4  -6   2   18.80    5.10
  -4  -6   2   14.50    7.80
   3   6  -2  365.16   30.10
   3   6  -2  380.16   28.50
   3   6  -2  382.76   26.20
  -3  -6   2  320.87   21.10
  -3  -6   2  369.76   25.10
  -3  -6   2  326.07   25.00
   2   6  -2  282.07   23.10
   2   6  -2  274.37   17.60
   2   6  -2  301.67   23.30
   2   6  -2  293.57   23.20
  -2  -6   2  286.17   21.80
  -2  -6   2  285.57   21.20
   1   6  -2  401.16   28.40
   1   6  -2  384.36   29.10
   1   6  -2  420.16   25.70
   1   6  -2  426.36   29.10
  -1  -6   2  410.16   28.20
  -1  -6   2  411.06   26.70
   0   6  -2  595.74   35.70
   0   6  -2  596.64   35.30
   0   6  -2  553.14   36.30
   0   6  -2  529.15   37.30
   0  -6   2  584.84   34.90
   0  -6   2  593.34   34.70
   0  -6   2  612.14   36.70
   0  -6   2  559.84   36.80
  -1   6  -2   12.20    9.00
  -1   6  -2   12.70    8.00
  -1   6  -2   28.10    6.90
  -1   6  -2   24.00    8.60
   1  -6   2    8.90    6.50
   1  -6   2   13.20    7.40
   1  -6   2    6.80    6.30
  -2   6  -2   25.30    8.70
  -2   6  -2   20.10    9.60
  -2   6  -2   22.30    9.70
   2  -6   2    8.40    7.80
   2  -6   2   20.00    9.80
   2  -6   2   20.50    7.20
  -3   6  -2  257.37   24.90
  -3   6  -2  264.37   21.90
  -3   6  -2  258.47   24.70
   3  -6   2  244.08   24.20
   3  -6   2  270.17   23.50
   3  -6   2  231.28   23.30
  -4   6  -2  111.89   18.10
  -4   6  -2  130.69   16.10
  -4   6  -2  146.39   21.40
   4  -6   2   80.39   16.60
   4  -6   2   99.99   16.90
  -5   6  -2   44.60   14.70
  -5   6  -2   39.60   14.50
   5  -6   2   62.49   17.20
   5  -6   2   49.90   13.70
  -6   6  -2   59.09   17.40
  -6   6  -2   43.50   15.90
   6  -6   2   39.50   13.60
   6  -6   2   50.59   17.90
  -7   6  -2  127.89   24.60
  -7   6  -2  146.09   25.40
   7  -6   2  140.99   23.30
  10   5  -2   -7.30   15.40
  10   5  -2    0.10   14.00
 -10  -5   2   10.20   11.10
 -10  -5   2    2.10   10.60
 -10  -5   2    0.20   10.00
   9   5  -2   83.49   20.30
   9   5  -2   87.49   22.10
  -9  -5   2  125.99   19.20
  -9  -5   2  132.19   19.40
   8   5  -2    1.80   11.20
   8   5  -2   -3.10   11.90
  -8  -5   2    1.80    8.30
  -8  -5   2   -8.30    7.70
   7   5  -2  223.28   30.60
   7   5  -2  217.18   27.70
  -7  -5   2  229.58   21.30
  -7  -5   2  248.98   22.90
  -7  -5   2  218.58   28.10
   6   5  -2   11.60   11.20
   6   5  -2    6.00   10.20
  -6  -5   2    9.80    9.60
  -6  -5   2    7.30    7.60
  -6  -5   2    7.70    4.70
  -6  -5   2   10.30    8.30
   5   5  -2  232.78   23.60
   5   5  -2  267.97   23.70
  -5  -5   2  194.58   13.90
  -5  -5   2  205.68   18.20
  -5  -5   2  184.68   17.90
   4   5  -2  128.49   14.30
   4   5  -2  107.49   16.30
   4   5  -2   99.59   16.50
  -4  -5   2  149.29   16.30
  -4  -5   2  117.89   14.10
  -4  -5   2  134.99    9.80
   3   5  -2  441.96   29.10
   3   5  -2  431.96   31.50
   3   5  -2  440.66   32.60
  -3  -5   2  468.35   29.10
  -3  -5   2  459.15   29.00
  -3  -5   2  444.36   24.90
   2   5  -2 1342.67   66.89
   2   5  -2 1300.27   71.69
   2   5  -2 1334.67   72.89
  -2  -5   2 1320.47   70.39
  -2  -5   2 1360.16   67.79
  -2  -5   2 1365.26   71.29
   1   5  -2  509.15   30.10
   1   5  -2  533.75   33.50
   1   5  -2  518.45   33.40
   1   5  -2  511.95   32.80
  -1  -5   2  545.15   31.60
  -1  -5   2  570.34   33.10
   0   5  -2  386.56   26.90
   0   5  -2  397.06   26.20
   0   5  -2  396.06   26.10
   0   5  -2  420.36   29.00
   0  -5   2  452.75   26.10
   0  -5   2  427.06   26.00
   0  -5   2  436.16   27.90
  -1   5  -2   28.00    9.30
  -1   5  -2   36.70    8.90
  -1   5  -2   47.30    9.20
  -1   5  -2   34.30    6.50
   1  -5   2   44.10    4.90
   1  -5   2   40.50    9.40
   1  -5   2   44.70    7.50
   1  -5   2   40.10    7.60
   1  -5   2   47.50    9.40
  -2   5  -2  153.08   15.30
  -2   5  -2  173.58   18.80
  -2   5  -2  188.38   20.60
  -2   5  -2  168.18   12.40
   2  -5   2  136.19   17.20
   2  -5   2  174.28   17.60
   2  -5   2  149.49   14.20
  -3   5  -2   40.60   11.20
  -3   5  -2   25.50   11.00
  -3   5  -2   44.00    9.30
   3  -5   2   44.30    8.20
   3  -5   2   29.20   10.60
   3  -5   2   28.20    9.50
   3  -5   2   35.10    9.80
  -4   5  -2  116.79   18.60
  -4   5  -2   97.89   16.20
  -4   5  -2  128.19   15.00
   4  -5   2  103.59   13.60
   4  -5   2  114.49   16.40
   4  -5   2   86.29   16.60
  -5   5  -2   41.70   13.40
  -5   5  -2   71.79   16.00
   5  -5   2   63.79   17.40
   5  -5   2   52.29   13.10
  -6   5  -2  108.39   19.60
  -6   5  -2  122.79   20.20
   6  -5   2  117.49   19.50
   6  -5   2   87.69   20.40
  -7   5  -2   40.50   17.10
  -7   5  -2   35.20   14.80
   7  -5   2   44.10   14.70
   7  -5   2   37.20   17.70
  10   4  -2   52.99   21.50
  10   4  -2   22.90   16.70
 -10  -4   2   36.70   13.20
 -10  -4   2   36.30   13.50
 -10  -4   2   33.40   13.10
   9   4  -2  151.28   27.60
   9   4  -2  162.98   25.80
  -9  -4   2  183.38   23.00
  -9  -4   2  175.38   22.30
  -9  -4   2  190.98   22.30
   8   4  -2  107.29   20.70
   8   4  -2   96.69   20.90
  -8  -4   2   95.39   15.10
  -8  -4   2  110.59   17.50
   7   4  -2   62.79   16.50
   7   4  -2   44.90   14.20
  -7  -4   2   62.99   13.10
  -7  -4   2   65.29   16.20
  -7  -4   2   58.69   11.60
  -7  -4   2   48.40    8.80
   6   4  -2  219.58   26.10
   6   4  -2  233.08   25.30
  -6  -4   2  326.77   23.10
  -6  -4   2  342.07   28.40
  -6  -4   2  294.87   22.70
  -6  -4   2  290.47   18.90
   5   4  -2  138.99   18.80
   5   4  -2  145.79   19.20
  -5  -4   2  121.99   14.40
  -5  -4   2  138.99   16.00
  -5  -4   2  129.99   10.30
   4   4  -2  176.78   17.50
   4   4  -2  205.28   19.10
  -4  -4   2  147.19    8.80
  -4  -4   2  132.79   13.70
  -4  -4   2  152.68   10.50
  -4  -4   2  137.99   13.70
   3   4  -2  685.03   38.60
   3   4  -2  718.43   41.90
   3   4  -2  698.53   41.10
  -3  -4   2  627.44   37.80
  -3  -4   2  652.23   38.10
  -3  -4   2  659.13   33.10
  -3  -4   2  644.94   34.40
   2   4  -2  507.35   31.40
   2   4  -2  458.25   29.70
   2   4  -2  480.15   25.90
  -2  -4   2  488.75   29.20
  -2  -4   2  486.05   26.40
  -2  -4   2  541.55   29.90
   1   4  -2  896.01   45.50
   1   4  -2  879.71   47.90
   1   4  -2  838.02   44.20
   1   4  -2  875.31   48.50
   1   4  -2  832.62   47.90
  -1  -4   2  873.51   47.50
  -1  -4   2  884.41   46.90
   0   4  -2  101.69   11.40
   0   4  -2   93.19    9.70
   0   4  -2   90.99   10.60
   0   4  -2   96.39   12.30
   0  -4   2   72.19    9.40
   0  -4   2   94.19   11.50
  -1   4  -2 1116.59   56.29
  -1   4  -2 1118.09   59.09
  -1   4  -2 1054.99   57.99
   1  -4   2 1120.09   53.99
   1  -4   2 1079.19   57.19
   1  -4   2 1061.69   58.79
   1  -4   2 1076.89   58.99
   1  -4   2 1099.49   56.49
  -2   4  -2  354.46   24.00
  -2   4  -2  391.66   26.10
  -2   4  -2  395.26   27.10
  -2   4  -2  373.36   21.20
   2  -4   2  386.46   25.60
   2  -4   2  391.76   26.70
   2  -4   2  379.36   20.00
   2  -4   2  372.06   19.80
   2  -4   2  363.06   23.40
  -3   4  -2  196.38   18.40
  -3   4  -2  185.08   14.90
  -3   4  -2  173.28   11.40
  -3   4  -2  188.38   17.50
   3  -4   2  155.98   18.00
   3  -4   2  172.18   16.50
   3  -4   2  164.28   14.40
  -4   4  -2  630.64   36.30
  -4   4  -2  680.63   41.70
  -4   4  -2  600.64   40.50
   4  -4   2  566.64   38.10
   4  -4   2  629.64   42.60
  -5   4  -2   10.20    9.70
  -5   4  -2   -1.80    5.80
  -5   4  -2    1.90    9.30
   5  -4   2   11.00    8.20
   5  -4   2    2.40   10.10
  -6   4  -2   98.39   17.40
  -6   4  -2  117.89   20.00
   6  -4   2  116.29   21.90
   6  -4   2  127.99   18.70
  -7   4  -2    8.10   13.20
  -7   4  -2   19.10   11.80
   7  -4   2   43.00   13.50
   7  -4   2   49.60   18.30
  -8   4  -2   30.70   14.60
  -8   4  -2    9.50   12.10
   8  -4   2   23.10   13.40
  10   3  -2   46.20   19.10
  10   3  -2   68.59   20.60
 -10  -3   2   75.89   16.30
 -10  -3   2   38.40   12.40
 -10  -3   2   45.30   13.40
   9   3  -2   60.19   18.30
   9   3  -2   60.49   19.70
  -9  -3   2   52.99   12.60
  -9  -3   2   50.59   13.80
  -9  -3   2   37.90   10.80
   8   3  -2  190.48   27.60
   8   3  -2  189.18   20.40
   8   3  -2  196.98   26.10
  -8  -3   2  224.88   20.20
  -8  -3   2  187.38   19.10
  -8  -3   2  180.58   21.30
  -8  -3   2  189.08   21.00
  -8  -3   2  156.98   24.10
   7   3  -2  242.18   25.20
   7   3  -2  249.18   26.90
   7   3  -2  248.08   21.30
  -7  -3   2  236.08   20.70
  -7  -3   2  232.58   17.30
  -7  -3   2  223.68   24.80
  -7  -3   2  218.08   20.00
  -7  -3   2  236.08   18.70
   6   3  -2 1202.78   72.19
   6   3  -2 1155.48   65.69
   6   3  -2 1187.18   70.69
  -6  -3   2 1266.87   64.29
  -6  -3   2 1248.48   67.09
  -6  -3   2 1223.48   71.49
  -6  -3   2 1283.27   66.69
   5   3  -2   17.80    9.00
   5   3  -2   21.90    6.20
   5   3  -2   28.40    9.60
  -5  -3   2   28.80    8.40
  -5  -3   2   31.40    7.50
  -5  -3   2   19.40    5.00
  -5  -3   2   23.20    8.60
   4   3  -2  242.08   20.80
   4   3  -2  228.38   21.20
   4   3  -2  254.87   15.70
  -4  -3   2  245.48   21.30
  -4  -3   2  243.88   18.40
  -4  -3   2  237.18   17.30
  -4  -3   2  251.77   14.70
   3   3  -2  185.98   18.50
   3   3  -2  180.68   15.60
  -3  -3   2  219.88   15.80
  -3  -3   2  230.08   16.70
  -3  -3   2  232.18   12.70
  -3  -3   2  242.78   12.80
   2   3  -2   79.69    9.70
   2   3  -2   72.39   11.20
   2   3  -2   75.09    6.00
   2   3  -2   65.39    9.60
  -2  -3   2   73.79    6.30
  -2  -3   2   75.89    5.80
  -2  -3   2   64.59    8.30
  -2  -3   2   84.39   10.00
   1   3  -2  990.10   53.09
   1   3  -2  964.60   49.20
   1   3  -2  957.20   52.79
   1   3  -2  972.30   50.69
   1   3  -2  979.10   52.79
  -1  -3   2 1034.30   52.09
  -1  -3   2 1091.19   52.59
   0   3  -2 1813.82   92.69
   0   3  -2 1773.52   91.39
   0   3  -2 1820.22   90.59
   0   3  -2 1805.72   91.09
   0  -3   2 1819.02   91.69
   0  -3   2 1839.52   89.19
   0  -3   2 1829.72   90.99
  -1   3  -2  647.04   35.20
  -1   3  -2  661.33   33.40
  -1   3  -2  645.64   31.30
  -1   3  -2  657.93   34.50
   1  -3   2  567.14   29.70
   1  -3   2  553.74   33.60
   1  -3   2  494.95   32.10
   1  -3   2  538.25   33.80
  -2   3  -2   63.59   10.20
  -2   3  -2   79.99    9.20
  -2   3  -2   72.39   10.80
  -2   3  -2   76.29    6.00
   2  -3   2  100.19    9.40
   2  -3   2   90.59   11.40
   2  -3   2   87.09   11.90
  -3   3  -2   62.79    5.20
  -3   3  -2   65.09   11.00
  -3   3  -2   48.90    9.80
  -3   3  -2   68.59    8.40
   3  -3   2   82.79   10.10
   3  -3   2   60.39   11.20
   3  -3   2   80.09   11.30
  -4   3  -2  768.02   44.40
  -4   3  -2  758.12   40.50
  -4   3  -2  744.53   44.50
   4  -3   2  685.73   45.80
   4  -3   2  692.23   42.70
  -5   3  -2   99.09   15.20
  -5   3  -2  106.89   11.70
  -5   3  -2   92.89   14.70
   5  -3   2   73.99   15.60
   5  -3   2   69.09   12.70
  -6   3  -2   26.90   11.50
  -6   3  -2   50.39   12.10
   6  -3   2   22.00   10.30
   6  -3   2   23.50   13.20
  -7   3  -2  277.47   26.20
  -7   3  -2  222.88   27.10
   7  -3   2  297.37   31.20
   7  -3   2  293.57   25.50
  -8   3  -2   56.59   14.80
  -8   3  -2   79.09   18.50
   8  -3   2   37.90   14.10
  -9   3  -2   10.80   13.80
  -9   3  -2    4.40   12.20
   9  -3   2    8.00   12.30
  10   2  -2   15.30   13.20
  10   2  -2   -4.40   14.10
  10   2  -2  -18.80   11.90
 -10  -2   2    7.00    9.50
 -10  -2   2   15.80   11.20
 -10  -2   2   -8.90    7.90
 -10  -2   2   -3.70    9.40
   9   2  -2   33.00   15.60
   9   2  -2   73.59   19.10
   9   2  -2   49.40   15.40
  -9  -2   2   27.20   10.50
  -9  -2   2   36.60   10.50
  -9  -2   2   44.40   11.90
  -9  -2   2   31.90   11.60
  -9  -2   2   35.60   11.00
  -9  -2   2   49.30   11.80
   8   2  -2   23.40   14.10
   8   2  -2   33.40   14.80
   8   2  -2   19.20   10.60
  -8  -2   2   58.99   12.30
  -8  -2   2   43.00   10.30
  -8  -2   2   40.00   10.50
  -8  -2   2   43.00    9.80
  -8  -2   2   33.60   10.20
  -8  -2   2   32.80   13.10
   7   2  -2  702.33   43.50
   7   2  -2  617.14   46.60
   7   2  -2  696.33   47.10
  -7  -2   2  688.03   46.30
  -7  -2   2  620.94   40.70
  -7  -2   2  705.23   41.70
  -7  -2   2  714.33   40.40
  -7  -2   2  671.43   41.20
   6   2  -2   28.30   11.40
   6   2  -2   66.99   13.90
   6   2  -2   41.80    9.60
  -6  -2   2   56.29   10.10
  -6  -2   2   51.99    8.70
  -6  -2   2   39.70   11.00
  -6  -2   2   38.50    8.50
   5   2  -2  290.07   24.40
   5   2  -2  303.97   20.40
   5   2  -2  310.07   24.40
  -5  -2   2  267.97   18.30
  -5  -2   2  260.97   19.10
  -5  -2   2  276.47   23.00
  -5  -2   2  265.47   20.00
   4   2  -2  414.46   23.50
   4   2  -2  430.46   28.40
   4   2  -2  404.56   27.70
  -4  -2   2  351.96   23.80
  -4  -2   2  395.76   23.60
  -4  -2   2  362.86   26.60
  -4  -2   2  358.46   21.80
   3   2  -2  701.03   37.60
   3   2  -2  721.23   42.50
   3   2  -2  711.73   42.40
  -3  -2   2  744.83   38.90
  -3  -2   2  743.13   36.70
  -3  -2   2  728.33   39.70
  -3  -2   2  756.22   42.70
   2   2  -2 1774.42   84.19
   2   2  -2 1739.23   88.69
   2   2  -2 1759.32   89.59
   2   2  -2 1673.93   87.19
   2   2  -2 1755.12   83.99
   2   2  -2 1761.82   84.59
  -2  -2   2 1657.93   86.79
  -2  -2   2 1726.43   88.99
  -2  -2   2 1704.73   83.79
  -2  -2   2 1763.42   84.89
  -2  -2   2 1731.43   86.39
   1   2  -2  401.96   23.60
   1   2  -2  391.06   20.20
   1   2  -2  381.56   21.20
   1   2  -2  369.06   23.00
  -1  -2   2  413.16   22.80
  -1  -2   2  380.96   23.50
  -1  -2   2  407.36   22.50
   0   2  -2 2069.79  107.79
   0   2  -2 2196.18  108.99
   0   2  -2 2115.29  108.79
   0   2  -2 2114.99  109.79
   0  -2   2 2374.36  109.29
   0  -2   2 2269.47  108.69
   0  -2   2 2287.87  107.29
  -1   2  -2   16.20    5.30
  -1   2  -2   17.30    5.40
  -1   2  -2   19.00    4.50
  -1   2  -2   26.00    3.10
   1  -2   2   21.20    2.80
   1  -2   2   21.70    4.90
   1  -2   2   19.90    3.30
   1  -2   2   11.00    4.70
  -2   2  -2 1952.40   98.69
  -2   2  -2 1938.01  101.39
  -2   2  -2 1969.80  101.49
   2  -2   2 1973.20   99.49
   2  -2   2 2122.39  100.99
   2  -2   2 2041.90  102.49
  -3   2  -2   66.89   10.30
  -3   2  -2   70.39   10.40
  -3   2  -2   68.39    5.40
  -3   2  -2   71.89    7.80
   3  -2   2   95.89   10.20
   3  -2   2   71.79   11.90
   3  -2   2   89.19   10.40
  -4   2  -2  365.26   24.90
  -4   2  -2  338.67   24.80
  -4   2  -2  353.06   21.20
   4  -2   2  347.87   24.20
   4  -2   2  345.07   26.70
  -5   2  -2  400.46   27.30
  -5   2  -2  368.16   22.50
  -5   2  -2  389.66   27.50
   5  -2   2  375.26   30.30
   5  -2   2  299.27   24.70
  -6   2  -2  167.38   14.70
  -6   2  -2  209.48   22.80
  -6   2  -2  203.58   19.90
   6  -2   2  194.68   25.10
   6  -2   2  186.28   21.10
  -7   2  -2  590.64   38.90
  -7   2  -2  525.45   39.20
   7  -2   2  533.75   43.30
   7  -2   2  564.34   39.00
  -8   2  -2   14.20    9.80
  -8   2  -2   34.20   13.90
   8  -2   2   19.80   11.60
  -9   2  -2   35.10   13.10
  -9   2  -2    3.40   11.50
  -9   2  -2   26.00   14.40
   9  -2   2   37.60   14.70
  10   1  -2   16.60   15.40
  10   1  -2   19.80   13.90
  10   1  -2   12.20   14.70
 -10  -1   2   21.10    9.80
 -10  -1   2   37.90   17.20
 -10  -1   2   11.20   10.00
 -10  -1   2   31.40   16.60
 -10  -1   2   14.80   10.50
 -10  -1   2   11.30   11.10
   9   1  -2   41.30   17.60
   9   1  -2   51.19   17.90
   9   1  -2   45.40   15.20
  -9  -1   2   42.60   11.60
  -9  -1   2   49.50   12.10
  -9  -1   2   45.70   11.50
  -9  -1   2   59.49   13.00
  -9  -1   2   41.00   11.60
  -9  -1   2   53.59   15.10
  -9  -1   2   68.39   13.40
  -9  -1   2   40.90   12.90
   8   1  -2   46.60   15.20
   8   1  -2   28.00   13.90
   8   1  -2   46.80   13.70
  -8  -1   2   47.80   10.50
  -8  -1   2   44.10   10.80
  -8  -1   2   41.10   10.60
  -8  -1   2   45.70   12.10
  -8  -1   2   32.60    9.40
  -8  -1   2   50.49   11.10
  -8  -1   2   43.70   11.20
  -8  -1   2   42.70   12.60
   7   1  -2  216.28   23.80
   7   1  -2  170.58   20.00
   7   1  -2  183.78   24.10
  -7  -1   2  231.18   19.40
  -7  -1   2  191.38   17.50
  -7  -1   2  207.58   21.60
  -7  -1   2  172.08   17.00
  -7  -1   2  194.88   17.10
   6   1  -2  522.85   36.10
   6   1  -2  509.45   36.00
   6   1  -2  464.15   32.50
  -6  -1   2  504.45   30.30
  -6  -1   2  453.15   29.50
  -6  -1   2  482.35   30.70
  -6  -1   2  458.25   33.80
  -6  -1   2  485.15   30.20
   5   1  -2  765.12   47.90
   5   1  -2  808.62   45.60
   5   1  -2  811.12   48.50
  -5  -1   2  768.22   47.20
  -5  -1   2  793.82   43.70
  -5  -1   2  778.02   42.80
  -5  -1   2  759.92   43.50
  -5  -1   2  823.72   44.10
   4   1  -2  589.14   34.10
   4   1  -2  586.94   37.00
   4   1  -2  585.94   37.10
  -4  -1   2  595.64   32.40
  -4  -1   2  601.74   33.00
  -4  -1   2  586.24   36.50
  -4  -1   2  619.24   33.70
   3   1  -2  394.26   20.80
   3   1  -2  409.86   24.20
   3   1  -2  409.86   25.10
  -3  -1   2  289.67   18.50
  -3  -1   2  301.47   22.30
  -3  -1   2  313.77   20.40
  -3  -1   2  308.67   19.60
   2   1  -2 2254.47  111.19
   2   1  -2 2352.46  107.79
   2   1  -2 2248.58  110.59
  -2  -1   2 2147.99  107.69
  -2  -1   2 2206.68  106.19
  -2  -1   2 2141.39  108.49
  -2  -1   2 2119.19  110.49
  -2  -1   2 2144.19  108.49
   1   1  -2  190.08   11.60
   1   1  -2  197.78    9.60
   1   1  -2  218.28   13.50
   1   1  -2  188.38   14.00
   1   1  -2  197.18   13.50
  -1  -1   2  172.38   13.40
  -1  -1   2  187.58   11.90
  -1  -1   2  170.58   12.20
  -1  -1   2  182.48   11.80
  -1  -1   2  188.48   11.80
   0   1  -2  131.09    9.70
   0   1  -2  113.89   10.60
   0   1  -2  137.09   10.30
   0   1  -2  126.79   11.40
   0  -1   2  193.58   10.00
   0  -1   2  187.48   10.40
   0  -1   2  187.08   11.10
   0  -1   2  197.88   11.10
  -1   1  -2 6665.93  329.57
  -1   1  -2 6718.13  327.87
  -1   1  -2 6966.40  329.97
  -1   1  -2 6967.40  327.27
  -1   1  -2 6808.32  326.97
   1  -1   2 6933.31  327.27
   1  -1   2 6960.00  327.07
   1  -1   2 6793.32  327.77
   1  -1   2 6656.93  329.17
   1  -1   2 6729.83  329.27
   1  -1   2 6867.01  328.97
  -2   1  -2 1066.29   55.59
  -2   1  -2 1077.79   56.09
  -2   1  -2 1083.19   51.89
  -2   1  -2 1092.29   52.99
   2  -1   2 1041.10   51.99
   2  -1   2 1020.00   54.59
   2  -1   2 1049.30   55.29
   2  -1   2 1094.19   52.89
  -3   1  -2 1186.68   58.29
  -3   1  -2 1175.28   58.49
  -3   1  -2 1182.38   57.09
  -3   1  -2 1190.88   57.49
  -3   1  -2 1154.68   61.29
  -3   1  -2 1149.48   57.09
  -3   1  -2 1165.18   62.39
   3  -1   2 1161.68   61.29
   3  -1   2 1172.98   63.89
  -4   1  -2  307.87   17.20
  -4   1  -2  288.47   17.80
  -4   1  -2  323.77   21.60
  -4   1  -2  309.47   22.10
   4  -1   2  305.17   21.30
  -5   1  -2   51.99    9.60
  -5   1  -2   32.90    8.90
  -5   1  -2   54.39    7.40
  -5   1  -2   44.20    6.30
   5  -1   2   68.19   10.60
   5  -1   2   59.89   12.90
  -6   1  -2  433.26   31.00
  -6   1  -2  419.96   28.50
  -6   1  -2  435.66   25.30
  -6   1  -2  414.26   28.90
   6  -1   2  375.96   32.50
   6  -1   2  415.56   29.80
  -7   1  -2   35.80   10.30
  -7   1  -2   60.29   13.70
   7  -1   2   35.80   13.80
   7  -1   2   44.30   12.40
  -8   1  -2  264.27   25.10
  -8   1  -2  236.08   22.70
  -8   1  -2  200.08   24.50
   8  -1   2  204.38   24.20
  -9   1  -2   38.70   13.10
  -9   1  -2   60.19   14.10
  -9   1  -2   48.70   15.90
   9  -1   2   51.09   15.30
 -10   1  -2   22.20   15.40
 -10   1  -2   25.80   14.60
  10   0  -2   24.40   16.40
 -10   0   2    3.60   10.20
 -10   0   2   -3.40    9.00
 -10   0   2   10.80   10.40
   9   0  -2  172.28   28.10
   9   0  -2  168.38   26.40
   9   0  -2  155.68   24.90
  -9   0   2  141.19   19.20
  -9   0   2  140.29   17.30
  -9   0   2  120.09   17.80
  -9   0   2  135.89   18.50
  -9   0   2  128.29   18.80
  -9   0   2  100.59   29.00
  -9   0   2  133.09   17.60
  -9   0   2  135.59   19.20
   8   0  -2  193.68   27.40
   8   0  -2  161.48   23.20
   8   0  -2  145.39   23.00
  -8   0   2  162.88   19.50
  -8   0   2  161.88   21.50
  -8   0   2  163.18   18.00
  -8   0   2  149.29   19.30
  -8   0   2  193.28   20.70
  -8   0   2  166.08   20.00
  -8   0   2  157.28   18.80
  -8   0   2  160.68   17.40
   7   0  -2   51.69   14.50
   7   0  -2   45.80   13.10
   7   0  -2   32.70   13.10
   7   0  -2   51.09    9.40
  -7   0   2   75.69   14.00
  -7   0   2   66.89   11.60
  -7   0   2   61.79   10.70
  -7   0   2   64.29   11.50
  -7   0   2   57.69    9.70
  -7   0   2   60.39   12.40
   6   0  -2 1664.83   90.99
   6   0  -2 1702.43   90.29
   6   0  -2 1607.54   91.49
   6   0  -2 1634.34   83.89
  -6   0   2 1637.94   85.29
  -6   0   2 1604.44   85.29
  -6   0   2 1672.53   89.89
  -6   0   2 1627.74   87.79
  -6   0   2 1717.53   86.79
   5   0  -2   22.00    9.00
   5   0  -2   36.90    6.40
   5   0  -2   24.00    8.50
   5   0  -2   25.80    9.20
  -5   0   2   76.39    9.60
  -5   0   2   65.99   11.30
  -5   0   2   60.19    8.20
  -5   0   2   56.19    8.30
   4   0  -2  510.15   32.50
   4   0  -2  499.55   30.30
   4   0  -2  509.15   26.30
   4   0  -2  475.35   31.10
  -4   0   2  481.95   27.80
  -4   0   2  468.85   27.80
  -4   0   2  477.35   30.40
  -4   0   2  462.55   27.40
   3   0  -2 1040.80   58.39
   3   0  -2 1089.39   60.89
   3   0  -2 1054.99   59.49
   3   0  -2 1037.20   59.79
  -3   0   2 1184.68   60.19
  -3   0   2 1199.18   57.29
  -3   0   2 1199.78   57.09
  -3   0   2 1187.28   57.59
   2   0  -2  768.82   39.20
   2   0  -2  763.92   36.80
   2   0  -2  772.32   38.40
   2   0  -2  781.82   38.50
  -2   0   2  624.84   37.60
  -2   0   2  651.83   34.00
  -2   0   2  641.14   35.50
  -2   0   2  639.24   34.70
  -2   0   2  617.54   35.70
   1   0  -2 1908.41   93.09
   1   0  -2 1829.82   91.69
   1   0  -2 1824.02   90.49
   1   0  -2 1942.41   89.99
   1   0  -2 1816.62   92.69
   1   0  -2 1813.52   93.29
   1   0  -2 1879.11   91.49
  -1   0   2 1842.52   91.59
  -1   0   2 1884.91   89.89
  -1   0   2 1874.61   92.99
  -1   0   2 1944.21   90.49
  -1   0   2 1878.71   91.49
   0   0  -2  160.28    9.70
   0   0  -2  153.48    9.70
   0   0  -2  170.08    9.80
   0   0  -2  169.18   10.90
   0   0  -2  172.38   11.00
   0   0  -2  159.98   10.70
   0   0  -2  169.58   11.20
  -1   0  -2 9725.03  463.65
  -1   0  -2 9999.00  462.55
  -1   0  -2 9831.22  465.15
  -1   0  -2 9399.46  464.35
  -1   0  -2 9985.50  463.65
   1   0   2 9311.87  461.85
   1   0   2 9679.83  463.85
   1   0   2 9509.05  464.25
   1   0   2 9535.95  462.55
   1   0   2 9589.84  463.75
  -2   0  -2 1233.08   64.39
  -2   0  -2 1255.77   65.89
  -2   0  -2 1234.38   66.89
  -2   0  -2 1233.68   64.69
  -2   0  -2 1270.97   63.49
   2   0   2 1354.36   64.59
   2   0   2 1411.26   66.89
   2   0   2 1394.26   66.59
   2   0   2 1371.06   64.69
   2   0   2 1392.06   63.49
  -3   0  -2   63.69    7.80
  -3   0  -2   65.59    5.60
  -3   0  -2   67.49    9.50
  -3   0  -2   74.49    6.80
   3   0   2   88.29    7.70
   3   0   2  104.39   11.00
  -4   0  -2  140.39   11.70
  -4   0  -2  141.79    9.20
  -4   0  -2  176.58   14.30
   4   0   2   95.09   12.00
   4   0   2   87.89   10.50
  -5   0  -2  320.27   18.60
  -5   0  -2  304.67   22.50
  -5   0  -2  323.37   20.30
  -5   0  -2  319.57   21.10
   5   0   2  277.97   24.30
   5   0   2  277.17   22.20
   5   0   2  296.27   21.20
  -6   0  -2  252.87   20.20
  -6   0  -2  226.28   17.70
  -6   0  -2  231.98   15.80
  -6   0  -2  246.58   18.80
  -6   0  -2  213.28   20.30
   6   0   2  209.08   19.80
   6   0   2  198.28   18.80
  -7   0  -2  489.45   34.00
  -7   0  -2  477.45   31.90
  -7   0  -2  486.75   34.90
   7   0   2  514.55   34.00
   7   0   2  483.75   34.40
  -8   0  -2  136.39   17.10
  -8   0  -2  136.99   20.10
  -8   0  -2  166.88   21.00
   8   0   2  184.58   22.00
  -9   0  -2   45.10   12.00
  -9   0  -2   29.10   13.70
  -9   0  -2   39.60   13.70
   9   0   2   33.70   13.90
 -10   0  -2    6.80   11.70
 -10   0  -2    2.80   10.70
  10  -1  -2   27.90   17.50
 -10   1   2   54.29   16.10
 -10   1   2   38.30   14.10
 -10   1   2   38.20   14.70
   9  -1  -2   50.69   17.90
  -9   1   2   46.90   13.10
  -9   1   2   32.10   12.60
  -9   1   2   15.30   10.80
  -9   1   2   50.19   12.60
   8  -1  -2   41.70   15.20
  -8   1   2   38.60    9.40
  -8   1   2   34.90   11.00
  -8   1   2   48.30   10.10
  -8   1   2   35.10   11.00
  -8   1   2   22.60   10.80
  -8   1   2   27.50   10.10
   7  -1  -2  102.19   17.40
   7  -1  -2  117.89   20.90
   7  -1  -2  110.79   17.20
  -7   1   2   91.39   11.80
  -7   1   2  101.49   16.10
  -7   1   2  102.19   12.50
  -7   1   2   90.79   14.20
  -7   1   2  103.49   15.10
   6  -1  -2  553.34   38.50
   6  -1  -2  568.74   33.10
   6  -1  -2  553.14   38.80
   6  -1  -2  555.34   39.90
  -6   1   2  569.64   33.30
  -6   1   2  603.84   36.50
  -6   1   2  589.24   36.40
  -6   1   2  570.14   37.20
  -6   1   2  574.54   33.30
   5  -1  -2  430.86   30.20
   5  -1  -2  448.06   29.50
   5  -1  -2  443.76   24.30
   5  -1  -2  434.66   29.30
  -5   1   2  371.76   26.50
  -5   1   2  352.86   26.20
  -5   1   2  366.76   23.50
  -5   1   2  380.36   23.90
  -5   1   2  374.06   26.90
   4  -1  -2  855.61   51.19
   4  -1  -2  914.41   48.20
   4  -1  -2  901.31   52.59
   4  -1  -2  915.11   53.99
   4  -1  -2  868.31   52.29
  -4   1   2  978.40   49.10
  -4   1   2  968.40   51.19
  -4   1   2 1031.80   52.59
  -4   1   2 1004.20   48.70
   3  -1  -2 1572.94   81.29
   3  -1  -2 1497.35   82.89
   3  -1  -2 1572.04   77.69
   3  -1  -2 1509.65   81.59
   3  -1  -2 1609.34   81.59
  -3   1   2 1595.24   78.79
  -3   1   2 1618.64   80.69
  -3   1   2 1592.14   78.19
  -3   1   2 1640.14   81.59
   2  -1  -2 6337.07  319.27
   2  -1  -2 6570.14  318.07
   2  -1  -2 6695.13  318.27
   2  -1  -2 6592.24  314.57
  -2   1   2 6587.34  315.47
  -2   1   2 6572.84  318.27
  -2   1   2 6557.94  316.17
  -2   1   2 6582.74  317.57
   1  -1  -2  929.41   50.19
   1  -1  -2  943.81   48.30
   1  -1  -2  935.31   48.10
   1  -1  -2  958.90   47.10
   1  -1  -2  950.30   49.99
   1  -1  -2  951.90   50.69
  -1   1   2 1031.00   50.59
  -1   1   2 1000.10   47.10
  -1   1   2  979.90   48.10
  -1   1   2  992.50   48.90
  -1   1   2 1033.10   48.30
  -1   1   2 1036.00   49.70
   0  -1  -2 2269.37  103.89
   0  -1  -2 2228.98  104.69
   0  -1  -2 2176.88  103.99
   0  -1  -2 2251.37  105.39
   0  -1  -2 2237.58  104.59
   0  -1  -2 2244.28  103.99
   0  -1  -2 2322.77  104.29
   0   1   2 2068.39  103.99
   0   1   2 2018.80  105.29
   0   1   2 2051.89  103.79
   0   1   2 2107.89  104.19
   0   1   2 2069.69  103.99
   0   1   2 1984.80  104.09
   0   1   2 2003.20  104.39
  -1  -1  -2 1255.17   62.69
  -1  -1  -2 1228.58   63.89
  -1  -1  -2 1250.47   62.19
  -1  -1  -2 1194.68   63.69
  -1  -1  -2 1220.28   64.09
  -1  -1  -2 1223.28   62.09
   1   1   2 1344.47   63.89
   1   1   2 1366.66   64.39
   1   1   2 1360.06   63.39
   1   1   2 1336.97   62.69
   1   1   2 1278.67   64.19
   1   1   2 1339.07   62.19
  -2  -1  -2 3557.74  174.28
  -2  -1  -2 3509.85  173.38
  -2  -1  -2 3525.65  176.18
  -2  -1  -2 3685.03  174.38
  -2  -1  -2 3596.64  175.98
  -2  -1  -2 3530.15  176.38
   2   1   2 3629.24  175.88
   2   1   2 3723.03  175.08
   2   1   2 3697.13  176.68
   2   1   2 3672.83  174.38
  -3  -1  -2  204.68   13.90
  -3  -1  -2  206.78   12.10
  -3  -1  -2  200.68   14.20
   3   1   2  152.88   13.70
   3   1   2  150.18   13.20
  -4  -1  -2  627.04   34.00
  -4  -1  -2  632.54   35.90
  -4  -1  -2  617.14   36.10
   4   1   2  631.14   35.80
   4   1   2  629.44   36.40
  -5  -1  -2  282.97   18.60
  -5  -1  -2  270.57   20.50
  -5  -1  -2  282.27   20.70
  -5  -1  -2  285.97   17.30
   5   1   2  260.97   20.90
   5   1   2  267.37   20.70
  -6  -1  -2  172.38   18.50
  -6  -1  -2  182.88   14.90
  -6  -1  -2  184.68   13.80
  -6  -1  -2  156.68   16.00
   6   1   2  184.48   18.20
   6   1   2  184.78   17.70
  -7  -1  -2  546.25   35.40
  -7  -1  -2  558.44   36.30
  -7  -1  -2  539.75   35.90
  -7  -1  -2  537.45   33.40
  -7  -1  -2  499.25   31.50
   7   1   2  535.15   36.60
   7   1   2  563.54   37.40
  -8  -1  -2   13.30    8.60
  -8  -1  -2   29.20    8.60
  -8  -1  -2   15.70   10.70
   8   1   2   19.70   11.20
   8   1   2   23.70   11.70
  -9  -1  -2   35.20   12.20
  -9  -1  -2   79.59   16.70
   9   1   2   53.69   14.30
 -10  -1  -2   39.30   15.40
 -10  -1  -2   32.20   12.70
  10   1   2   29.50   13.60
  10  -2  -2   31.30   18.10
 -10   2   2   47.30   15.80
 -10   2   2   30.00   15.10
   9  -2  -2   12.00   16.30
  -9   2   2   19.70   10.70
  -9   2   2   16.60   11.00
  -9   2   2   28.80   13.30
   8  -2  -2  109.19   22.00
  -8   2   2  104.49   17.20
  -8   2   2   92.39   16.30
  -8   2   2   96.89   16.20
   7  -2  -2   57.39   16.30
  -7   2   2   50.79    8.90
  -7   2   2   30.60   10.50
  -7   2   2   30.00   11.00
  -7   2   2   43.20    8.40
  -7   2   2   27.90    9.90
   6  -2  -2   54.09   14.40
   6  -2  -2   47.30    8.70
  -6   2   2   31.90    9.20
  -6   2   2   24.70    8.50
  -6   2   2   33.70    7.20
  -6   2   2   24.10    8.70
  -6   2   2   43.40    7.40
   5  -2  -2 1191.48   60.19
   5  -2  -2 1144.19   62.99
   5  -2  -2 1139.59   65.69
  -5   2   2 1140.79   63.49
  -5   2   2 1109.59   62.99
  -5   2   2 1095.59   62.49
  -5   2   2 1195.28   59.69
  -5   2   2 1170.68   59.19
   4  -2  -2 1001.60   52.29
   4  -2  -2  955.40   55.79
   4  -2  -2 1013.80   49.00
   4  -2  -2 1034.30   54.89
  -4   2   2  902.41   48.10
  -4   2   2  905.51   51.79
  -4   2   2  879.91   48.70
  -4   2   2  896.31   51.99
  -4   2   2  922.61   51.69
   3  -2  -2  680.53   41.80
   3  -2  -2  691.23   37.50
   3  -2  -2  692.73   43.30
   3  -2  -2  734.53   40.70
  -3   2   2  737.93   40.90
  -3   2   2  742.93   40.80
  -3   2   2  745.33   38.10
  -3   2   2  797.72   41.00
  -3   2   2  762.12   37.20
   2  -2  -2  435.56   30.30
   2  -2  -2  440.06   28.70
   2  -2  -2  415.86   29.10
  -2   2   2  552.34   27.10
  -2   2   2  587.64   29.30
  -2   2   2  547.35   29.40
  -2   2   2  567.84   25.70
   1  -2  -2  375.46   19.50
   1  -2  -2  344.57   18.20
   1  -2  -2  352.26   22.00
   1  -2  -2  356.96   21.00
   1  -2  -2  362.66   17.30
   1  -2  -2  370.96   21.20
  -1   2   2  350.56   20.90
  -1   2   2  340.57   18.10
  -1   2   2  309.37   18.90
  -1   2   2  332.57   17.30
  -1   2   2  317.47   20.00
   0  -2  -2  319.37   17.50
   0  -2  -2  338.57   17.50
   0  -2  -2  321.67   18.40
   0  -2  -2  328.77   19.90
   0  -2  -2  331.77   18.70
   0   2   2  342.57   17.60
   0   2   2  345.57   20.30
   0   2   2  335.77   18.80
   0   2   2  349.17   18.60
  -1  -2  -2 2738.13  133.49
  -1  -2  -2 2816.02  133.39
  -1  -2  -2 2721.33  132.99
  -1  -2  -2 2712.73  133.19
  -1  -2  -2 2774.92  134.89
   1   2   2 2672.63  132.79
   1   2   2 2713.33  133.39
   1   2   2 2799.22  133.39
   1   2   2 2693.03  134.89
  -2  -2  -2 3681.13  178.78
  -2  -2  -2 3563.64  180.48
  -2  -2  -2 3648.14  180.38
  -2  -2  -2 3692.03  179.78
  -2  -2  -2 3584.24  181.48
   2   2   2 3786.82  181.58
   2   2   2 3652.63  180.48
   2   2   2 3729.23  178.88
   2   2   2 3926.01  180.18
   2   2   2 3749.22  177.98
  -3  -2  -2 1123.79   59.39
  -3  -2  -2 1204.28   58.79
  -3  -2  -2 1166.58   55.99
   3   2   2 1111.19   59.39
   3   2   2 1079.99   60.19
   3   2   2 1138.89   57.19
  -4  -2  -2   25.90    6.30
  -4  -2  -2   28.40    7.00
  -4  -2  -2   25.40    4.40
   4   2   2   57.39    8.90
   4   2   2   46.10    8.60
  -5  -2  -2  260.67   20.80
  -5  -2  -2  255.37   19.50
  -5  -2  -2  247.88   17.60
   5   2   2  316.57   22.30
   5   2   2  331.37   21.80
   5   2   2  331.67   20.60
  -6  -2  -2   79.69   11.70
  -6  -2  -2   58.89    8.50
  -6  -2  -2   63.29   11.40
   6   2   2   88.79   12.40
   6   2   2   75.99   13.00
   6   2   2   78.49   12.30
  -7  -2  -2  193.38   17.80
  -7  -2  -2  161.18   19.10
  -7  -2  -2  189.88   15.70
  -7  -2  -2  192.18   15.80
   7   2   2  192.78   21.40
   7   2   2  194.58   19.40
  -8  -2  -2  192.38   20.80
  -8  -2  -2  202.28   19.50
  -8  -2  -2  202.18   17.30
  -8  -2  -2  222.38   23.70
   8   2   2  165.78   21.20
   8   2   2  151.58   21.80
  -9  -2  -2   50.29   13.90
  -9  -2  -2   54.09   12.70
  -9  -2  -2   45.00   14.00
   9   2   2   57.99   14.50
   9   2   2   35.20   14.40
 -10  -2  -2   92.99   19.40
 -10  -2  -2   73.99   15.80
 -10  -2  -2   85.19   17.70
  10   2   2   79.89   17.10
   9  -3  -2  162.98   28.90
  -9   3   2  142.59   22.60
  -9   3   2  125.79   21.40
   8  -3  -2   63.39   18.00
  -8   3   2   71.79   15.10
  -8   3   2   54.79   13.70
  -8   3   2   71.59   16.10
   7  -3  -2   30.00   13.80
  -7   3   2   28.50   11.70
  -7   3   2   34.70   11.00
   6  -3  -2  158.68   21.50
   6  -3  -2  197.78   15.70
  -6   3   2  138.59   12.30
  -6   3   2  158.28   18.80
  -6   3   2  136.59   18.10
  -6   3   2  140.19   16.00
  -6   3   2  127.39   16.40
   5  -3  -2  503.65   30.70
   5  -3  -2  522.45   32.90
   5  -3  -2  492.45   36.60
  -5   3   2  543.95   33.80
  -5   3   2  511.35   32.80
  -5   3   2  528.15   35.10
  -5   3   2  541.05   29.70
  -5   3   2  558.14   29.00
   4  -3  -2  782.52   42.90
   4  -3  -2  800.22   40.70
   4  -3  -2  764.02   46.00
  -4   3   2  732.33   42.40
  -4   3   2  743.43   38.40
  -4   3   2  726.33   43.90
  -4   3   2  729.73   39.50
  -4   3   2  723.43   43.00
   3  -3  -2   22.10    6.00
   3  -3  -2   33.10    5.50
   3  -3  -2   36.60    9.00
  -3   3   2   37.60    3.80
  -3   3   2   35.70    4.10
  -3   3   2   33.10    5.00
  -3   3   2   40.70    8.30
  -3   3   2   37.60    7.40
  -3   3   2   38.00    7.20
   2  -3  -2  640.04   38.60
   2  -3  -2  658.83   40.00
   2  -3  -2  646.74   36.90
  -2   3   2  764.12   39.30
  -2   3   2  728.93   39.70
  -2   3   2  749.92   39.30
  -2   3   2  772.12   36.70
   1  -3  -2   42.50    6.90
   1  -3  -2   48.10    6.40
   1  -3  -2   56.39    5.80
   1  -3  -2   52.59    7.40
  -1   3   2   23.80    5.70
  -1   3   2   29.60    4.90
  -1   3   2   30.90    6.30
  -1   3   2   30.10    6.50
   0  -3  -2  517.45   28.40
   0  -3  -2  500.25   30.50
   0  -3  -2  478.15   29.50
   0  -3  -2  513.75   28.80
   0   3   2  569.94   30.90
   0   3   2  571.74   28.80
   0   3   2  575.94   29.30
   0   3   2  597.24   29.90
  -1  -3  -2 4234.88  201.68
  -1  -3  -2 4285.37  205.38
  -1  -3  -2 4261.57  203.08
  -1  -3  -2 4173.58  202.88
  -1  -3  -2 4214.48  202.18
   1   3   2 4160.28  203.18
   1   3   2 4060.29  205.28
   1   3   2 4100.19  201.78
   1   3   2 4181.18  203.18
  -2  -3  -2 1007.40   51.19
  -2  -3  -2  996.30   49.50
  -2  -3  -2  994.40   52.39
  -2  -3  -2  988.90   54.79
  -2  -3  -2  986.30   52.69
   2   3   2 1033.30   49.50
   2   3   2 1096.29   52.39
   2   3   2 1062.09   55.19
   2   3   2 1018.20   52.59
  -3  -3  -2  449.56   26.50
  -3  -3  -2  444.66   24.00
  -3  -3  -2  439.86   28.40
  -3  -3  -2  460.05   28.10
   3   3   2  526.15   28.70
   3   3   2  549.54   27.50
   3   3   2  514.15   26.50
   3   3   2  518.35   31.00
  -4  -3  -2  231.78   15.50
  -4  -3  -2  238.58   13.00
  -4  -3  -2  231.68   17.70
  -4  -3  -2  228.18   17.60
   4   3   2  229.78   19.40
   4   3   2  221.78   15.40
   4   3   2  200.08   16.50
  -5  -3  -2  335.87   24.20
  -5  -3  -2  317.57   21.30
  -5  -3  -2  331.07   23.30
  -5  -3  -2  331.07   19.30
   5   3   2  347.17   22.40
   5   3   2  332.57   23.20
   5   3   2  372.16   26.10
  -6  -3  -2  170.28   18.40
  -6  -3  -2  141.59   11.40
  -6  -3  -2  147.09   16.80
  -6  -3  -2  137.39   13.40
   6   3   2  112.59   16.70
   6   3   2  147.39   14.50
   6   3   2  141.99   16.60
  -7  -3  -2   83.89   13.80
  -7  -3  -2   92.89   12.80
  -7  -3  -2   69.99   13.80
  -7  -3  -2   73.39    9.80
   7   3   2   88.19   15.60
   7   3   2   96.59   14.00
   7   3   2   95.59   14.80
  -8  -3  -2  350.36   26.60
  -8  -3  -2  339.47   28.80
  -8  -3  -2  284.47   23.70
   8   3   2  316.97   26.70
   8   3   2  311.67   29.90
   8   3   2  303.07   25.80
  -9  -3  -2   13.50    9.60
  -9  -3  -2   28.20   12.20
  -9  -3  -2    5.70    9.60
  -9  -3  -2   13.00    8.90
   9   3   2   27.20   13.30
   9   3   2   22.50   11.40
 -10  -3  -2   39.80   13.10
 -10  -3  -2  114.49   20.40
  10   3   2   63.29   15.60
  10   3   2   65.99   19.10
 -11  -3  -2   20.70   14.60
 -11  -3  -2    7.70   10.30
   9  -4  -2  161.68   28.90
  -9   4   2  110.59   22.50
  -9   4   2  130.99   23.30
   8  -4  -2   31.60   17.50
  -8   4   2   26.10   11.80
  -8   4   2   54.29   16.10
  -8   4   2   30.50   12.90
   7  -4  -2   33.80   16.70
  -7   4   2   32.70   12.50
  -7   4   2   27.90   10.80
  -7   4   2   28.50   11.00
   6  -4  -2  161.38   15.70
   6  -4  -2  173.98   23.80
  -6   4   2  145.29   18.40
  -6   4   2  166.98   21.80
   5  -4  -2  144.19   13.60
   5  -4  -2  106.79   17.50
  -5   4   2  149.79   18.80
  -5   4   2  127.39   13.90
  -5   4   2  127.09   15.70
  -5   4   2  129.99   11.00
   4  -4  -2  656.93   37.00
   4  -4  -2  695.43   42.00
   4  -4  -2  654.73   35.30
  -4   4   2  585.14   36.80
  -4   4   2  627.54   37.90
  -4   4   2  586.94   33.20
  -4   4   2  568.94   39.00
   3  -4  -2  750.12   40.60
   3  -4  -2  696.03   43.00
  -3   4   2  723.53   42.40
  -3   4   2  694.13   40.50
  -3   4   2  694.13   41.30
  -3   4   2  718.93   37.30
   2  -4  -2  663.13   39.20
   2  -4  -2  674.73   42.00
   2  -4  -2  678.33   40.30
  -2   4   2  798.52   42.60
  -2   4   2  792.32   41.50
  -2   4   2  755.52   41.10
  -2   4   2  765.12   38.00
   1  -4  -2   84.59   10.10
   1  -4  -2   82.79    9.60
   1  -4  -2   83.09    8.70
   1  -4  -2   95.69   11.40
  -1   4   2  121.69   11.80
  -1   4   2  107.29    8.60
  -1   4   2  117.19   12.10
  -1   4   2  120.49   10.90
   0  -4  -2   67.29    7.70
   0  -4  -2   63.59    5.80
   0  -4  -2   77.39   10.30
   0  -4  -2   62.29    8.50
   0  -4  -2   59.09    7.90
   0   4   2   94.29    8.20
   0   4   2  112.99   10.60
   0   4   2  105.89    9.40
   0   4   2   95.59   10.70
  -1  -4  -2 1096.79   51.99
  -1  -4  -2 1039.10   51.69
  -1  -4  -2 1073.79   54.79
   1   4   2  913.51   52.09
   1   4   2  971.60   54.29
   1   4   2  939.01   51.49
   1   4   2  968.40   50.89
  -2  -4  -2  104.39   10.00
  -2  -4  -2  100.39    8.90
  -2  -4  -2  111.59   10.10
  -2  -4  -2   91.29   12.40
  -2  -4  -2   97.89    7.70
   2   4   2  154.48   11.30
   2   4   2  148.09   14.10
  -3  -4  -2  344.47   19.50
  -3  -4  -2  339.87   22.60
  -3  -4  -2  345.27   24.60
  -3  -4  -2  335.17   18.40
  -3  -4  -2  336.67   21.80
   3   4   2  375.66   22.20
   3   4   2  399.96   21.80
  -4  -4  -2 1611.24   76.89
  -4  -4  -2 1649.04   78.79
  -4  -4  -2 1572.74   81.79
  -4  -4  -2 1580.94   80.99
   4   4   2 1507.65   84.79
   4   4   2 1489.25   79.69
  -5  -4  -2   98.79   13.00
  -5  -4  -2  101.09    9.90
  -5  -4  -2  107.29   13.40
   5   4   2   96.59   14.80
   5   4   2  109.79   11.50
  -6  -4  -2   63.69    9.40
  -6  -4  -2   64.69    7.20
  -6  -4  -2   62.69   12.30
  -6  -4  -2   58.19   10.60
   6   4   2   46.60   11.60
   6   4   2   64.39   10.50
  -7  -4  -2  258.37   24.50
  -7  -4  -2  283.27   20.80
  -7  -4  -2  268.87   18.70
  -7  -4  -2  279.57   22.90
   7   4   2  300.87   27.30
   7   4   2  286.67   22.70
  -8  -4  -2  139.89   18.40
  -8  -4  -2  118.49   18.30
  -8  -4  -2  127.89   15.60
   8   4   2  143.39   18.40
   8   4   2  124.89   21.20
  -9  -4  -2  165.48   22.40
  -9  -4  -2  172.28   20.50
   9   4   2  143.59   24.40
 -10  -4  -2   19.10   12.80
 -10  -4  -2   28.60   12.50
  10   4   2   29.70   16.00
 -11  -4  -2   48.80   16.80
 -11  -4  -2   31.60   15.20
 -11  -4  -2   53.59   16.60
  11   4   2   56.99   19.50
   8  -5  -2   37.90   18.80
  -8   5   2   53.99   17.40
  -8   5   2   50.09   16.60
   7  -5  -2   15.00   13.20
  -7   5   2   13.00    9.70
  -7   5   2   -4.10    9.60
  -7   5   2    3.00   10.70
   6  -5  -2   16.50    8.10
   6  -5  -2   11.40   11.00
  -6   5   2    5.10    8.30
  -6   5   2    2.40    9.30
   5  -5  -2  277.47   26.00
   5  -5  -2  253.87   20.20
  -5   5   2  225.48   22.90
  -5   5   2  239.98   21.90
   4  -5  -2  386.26   31.10
   4  -5  -2  407.06   25.80
   4  -5  -2  364.86   27.40
  -4   5   2  416.76   30.20
  -4   5   2  389.36   22.40
  -4   5   2  385.66   26.60
  -4   5   2  404.46   28.00
   3  -5  -2  970.20   54.49
   3  -5  -2 1010.10   54.59
   3  -5  -2  994.10   58.29
  -3   5   2  971.40   57.19
  -3   5   2 1037.50   55.49
  -3   5   2  983.20   55.99
  -3   5   2 1042.80   51.49
   2  -5  -2  193.48   15.30
   2  -5  -2  214.08   16.20
   2  -5  -2  206.18   18.20
  -2   5   2  207.38   17.60
  -2   5   2  193.78   13.20
  -2   5   2  200.78   16.80
  -2   5   2  193.78   16.60
   1  -5  -2  490.45   23.60
   1  -5  -2  470.85   29.00
   1  -5  -2  457.05   27.80
   1  -5  -2  493.85   29.70
   1  -5  -2  486.05   27.60
  -1   5   2  427.96   25.70
  -1   5   2  434.76   29.20
  -1   5   2  451.35   28.80
  -1   5   2  445.46   28.70
   0  -5  -2  845.52   45.90
   0  -5  -2  833.22   43.50
   0  -5  -2  846.72   40.80
   0  -5  -2  831.32   44.20
   0  -5  -2  835.72   43.60
   0   5   2  750.22   43.90
   0   5   2  751.32   42.20
   0   5   2  733.43   45.60
   0   5   2  776.12   44.40
  -1  -5  -2  404.26   24.10
  -1  -5  -2  409.66   22.60
  -1  -5  -2  381.56   23.90
  -1  -5  -2  394.96   26.70
  -1  -5  -2  401.86   24.10
   1   5   2  408.76   25.30
   1   5   2  389.76   23.60
  -2  -5  -2 4511.75  219.78
  -2  -5  -2 4443.26  218.68
  -2  -5  -2 4558.94  219.08
  -2  -5  -2 4560.34  223.48
   2   5   2 4424.86  217.68
   2   5   2 4353.36  223.08
   2   5   2 4561.84  220.58
  -3  -5  -2  136.49    9.20
  -3  -5  -2  131.29   12.40
  -3  -5  -2  132.69   12.80
  -3  -5  -2  128.19   15.10
   3   5   2  150.88   16.90
   3   5   2  176.08   14.30
   3   5   2  154.78   10.10
  -4  -5  -2 1436.56   74.49
  -4  -5  -2 1450.05   72.99
  -4  -5  -2 1417.46   69.49
   4   5   2 1300.47   72.89
   4   5   2 1355.86   77.69
   4   5   2 1427.86   73.09
  -5  -5  -2  114.79   10.00
  -5  -5  -2  134.09   14.40
  -5  -5  -2  133.19   15.40
   5   5   2  155.58   20.40
   5   5   2  129.49   13.10
  -6  -5  -2   91.49   10.40
  -6  -5  -2   99.29   14.30
  -6  -5  -2   79.39   12.60
   6   5   2   94.49   17.20
   6   5   2  104.19   13.70
  -7  -5  -2   77.19   14.00
  -7  -5  -2   78.19   13.30
  -7  -5  -2  109.69   12.20
   7   5   2  105.89   19.40
   7   5   2  106.69   15.00
  -8  -5  -2  121.99   17.00
  -8  -5  -2   71.09   14.40
   8   5   2   64.59   17.80
  -9  -5  -2  186.68   22.20
  -9  -5  -2  179.18   23.60
   9   5   2  122.39   23.70
 -10  -5  -2  145.79   22.60
 -10  -5  -2  143.59   21.20
 -10  -5  -2  122.49   20.20
  10   5   2  155.68   27.30
 -11  -5  -2   19.70   14.00
 -11  -5  -2   59.79   17.30
 -11  -5  -2   49.60   15.20
  11   5   2   49.50   19.80
   8  -6  -2  132.99   27.20
  -8   6   2  115.59   21.60
  -8   6   2   90.59   22.10
   7  -6  -2   23.30   16.50
  -7   6   2  -11.20    9.30
  -7   6   2    3.60   12.10
  -7   6   2   16.60   12.80
   6  -6  -2   33.30   15.90
  -6   6   2   58.29   14.90
  -6   6   2   55.49   14.60
  -6   6   2   46.70   12.40
   5  -6  -2  140.09   16.20
   5  -6  -2  131.89   22.00
  -5   6   2   72.19   16.60
  -5   6   2  115.79   17.10
   4  -6  -2   52.99   14.10
   4  -6  -2   65.79   11.30
  -4   6   2   51.39   13.20
  -4   6   2   47.20   11.60
   3  -6  -2  369.86   29.90
   3  -6  -2  354.96   27.30
   3  -6  -2  400.96   27.00
  -3   6   2  421.26   29.20
  -3   6   2  401.56   29.50
  -3   6   2  407.86   27.10
  -3   6   2  400.86   22.50
   2  -6  -2  670.53   41.00
   2  -6  -2  647.44   38.50
   2  -6  -2  695.73   38.40
  -2   6   2  656.73   40.00
  -2   6   2  629.24   38.90
  -2   6   2  620.54   40.30
  -2   6   2  617.74   34.60
   1  -6  -2  220.68   12.60
   1  -6  -2  223.18   17.10
   1  -6  -2  203.18   18.10
   1  -6  -2  224.08   18.30
  -1   6   2  225.18   19.00
  -1   6   2  208.78   18.20
  -1   6   2  218.18   18.60
  -1   6   2  201.68   14.60
   0  -6  -2  143.09   14.80
   0  -6  -2  127.59   13.20
   0  -6  -2  134.89   10.10
   0  -6  -2  147.39   13.50
   0  -6  -2  144.29   13.40
   0   6   2  155.48   14.50
   0   6   2  176.58   15.00
  -1  -6  -2  507.85   34.70
  -1  -6  -2  509.45   31.80
  -1  -6  -2  516.75   31.30
  -1  -6  -2  575.34   32.10
  -1  -6  -2  533.45   29.70
   1   6   2  559.34   33.40
   1   6   2  576.04   32.20
  -2  -6  -2  704.53   41.10
  -2  -6  -2  735.23   39.80
  -2  -6  -2  695.43   40.20
  -2  -6  -2  723.63   39.80
   2   6   2  753.52   42.50
   2   6   2  760.02   45.50
   2   6   2  724.63   39.60
  -3  -6  -2  632.34   35.60
  -3  -6  -2  612.34   34.00
  -3  -6  -2  613.34   34.20
   3   6   2  535.65   38.50
   3   6   2  543.95   34.90
   3   6   2  554.64   31.60
  -4  -6  -2   56.29   10.00
  -4  -6  -2   65.39   10.70
  -4  -6  -2   58.59    9.50
   4   6   2   66.99    6.20
   4   6   2   66.89    7.30
   4   6   2   70.19   11.00
   4   6   2   61.79   13.70
   4   6   2   84.39   11.90
  -5  -6  -2 1444.56   78.39
  -5  -6  -2 1391.66   71.09
  -5  -6  -2 1472.45   76.49
   5   6   2 1513.85   77.39
   5   6   2 1421.56   82.99
  -6  -6  -2   69.49   12.70
  -6  -6  -2  108.09   14.20
   6   6   2   83.69   17.80
   6   6   2  103.69   14.10
  -7  -6  -2   25.70    9.50
  -7  -6  -2   19.70    9.90
   7   6   2   36.70   14.20
   7   6   2   37.40   10.90
  -8  -6  -2   27.80   10.10
  -8  -6  -2   47.10   13.40
  -8  -6  -2   28.10   11.90
   8   6   2   73.29   18.10
  -9  -6  -2  103.09   19.00
  -9  -6  -2   67.49   15.90
  -9  -6  -2   73.59   15.40
   9   6   2  101.09   21.50
 -10  -6  -2   69.19   16.30
 -10  -6  -2   65.19   16.60
 -10  -6  -2   66.49   18.20
  10   6   2   59.29   21.20
   7  -7  -2   24.90   17.80
  -7   7   2   -0.90    9.90
  -7   7   2   11.10   13.30
   6  -7  -2    4.70   12.70
  -6   7   2   -3.40   11.70
  -6   7   2   -2.10   10.50
  -6   7   2    1.30   11.60
   5  -7  -2   -1.90    7.40
   5  -7  -2   10.80   12.90
  -5   7   2   13.00   12.90
  -5   7   2   14.20   11.90
  -5   7   2   27.50   11.80
   4  -7  -2  365.96   31.70
  -4   7   2  314.77   27.90
  -4   7   2  347.57   30.30
   3  -7  -2  175.78   22.20
   3  -7  -2  105.39   15.20
  -3   7   2  171.08   19.90
  -3   7   2  197.18   22.80
   2  -7  -2  755.12   46.50
   2  -7  -2  713.33   43.60
  -2   7   2  745.13   44.70
  -2   7   2  741.93   46.80
  -2   7   2  737.23   45.20
   1  -7  -2   52.49   10.40
   1  -7  -2   35.80    9.50
   1  -7  -2   47.50    9.70
  -1   7   2   46.20   11.10
  -1   7   2   34.10    9.70
   0  -7  -2  172.28   12.40
   0  -7  -2  190.08   16.40
   0  -7  -2  175.08   16.20
   0  -7  -2  166.58   16.20
   0   7   2  196.78   17.90
   0   7   2  194.38   17.60
  -1  -7  -2  152.68   12.70
  -1  -7  -2  154.68   16.60
  -1  -7  -2  152.88   14.70
  -1  -7  -2  163.68   14.30
   1   7   2  168.98   18.80
   1   7   2  191.68   19.90
   1   7   2  183.28   16.30
  -2  -7  -2   63.89    9.60
  -2  -7  -2   56.19    8.30
  -2  -7  -2   73.69   11.70
  -2  -7  -2   49.10    8.10
   2   7   2   62.39   13.10
   2   7   2   69.79   11.80
   2   7   2   81.39   10.30
  -3  -7  -2  638.74   37.70
  -3  -7  -2  646.84   39.50
  -3  -7  -2  676.33   38.00
  -3  -7  -2  621.94   36.00
   3   7   2  631.04   43.30
   3   7   2  649.43   36.50
   3   7   2  700.93   40.60
  -4  -7  -2  387.56   25.80
  -4  -7  -2  417.36   28.40
  -4  -7  -2  428.26   27.30
   4   7   2  387.06   28.60
   4   7   2  372.66   28.00
   4   7   2  382.46   23.50
   4   7   2  396.76   32.70
  -5  -7  -2  825.42   46.90
  -5  -7  -2  819.02   49.30
  -5  -7  -2  814.02   48.60
   5   7   2  818.42   48.90
   5   7   2  834.12   54.69
  -6  -7  -2   59.79   10.90
  -6  -7  -2   33.60   11.00
  -6  -7  -2   36.60   10.90
   6   7   2   55.79   16.40
   6   7   2   58.99   12.20
  -7  -7  -2  110.89   15.60
  -7  -7  -2  150.58   20.40
  -7  -7  -2  113.89   17.60
   7   7   2  161.48   20.10
   7   7   2  135.09   22.10
  -8  -7  -2    9.40    9.10
  -8  -7  -2   36.00   13.60
  -8  -7  -2   20.70   11.70
   8   7   2   11.90   14.40
  -9  -7  -2  200.08   25.90
  -9  -7  -2  141.19   22.30
  -9  -7  -2  165.58   21.10
   9   7   2  154.78   27.10
 -10  -7  -2   35.70   15.90
 -10  -7  -2   19.60   12.60
 -10  -7  -2   16.50   13.00
  10   7   2   14.10   17.20
   6  -8  -2   38.60   18.10
  -6   8   2   30.80   13.50
  -6   8   2   13.00   13.50
  -6   8   2   24.30   14.30
   5  -8  -2  117.09   17.80
   5  -8  -2  134.09   23.20
  -5   8   2  125.09   22.90
  -5   8   2  167.98   23.80
  -5   8   2  146.49   21.20
   4  -8  -2  154.48   24.70
  -4   8   2  202.98   24.40
  -4   8   2  163.88   24.30
  -4   8   2  208.58   24.10
   3  -8  -2  704.13   47.00
   3  -8  -2  684.23   43.40
  -3   8   2  683.13   47.10
  -3   8   2  628.74   44.40
   2  -8  -2  147.99   17.30
   2  -8  -2  123.89   18.00
  -2   8   2  145.89   19.90
  -2   8   2  118.09   17.90
   1  -8  -2  953.50   56.49
   1  -8  -2 1000.20   57.79
  -1   8   2 1023.90   59.09
  -1   8   2  989.10   58.79
   0  -8  -2  162.28   16.00
   0  -8  -2  152.58   17.00
   0  -8  -2  117.59   16.00
   0   8   2  122.69   16.70
   0   8   2  146.39   18.80
  -1  -8  -2  111.49   15.50
  -1  -8  -2  119.19   11.60
  -1  -8  -2  122.09   13.60
  -1  -8  -2  125.79   15.00
   1   8   2  168.78   20.80
   1   8   2  149.49   18.10
   1   8   2  172.18   17.80
  -2  -8  -2  252.77   19.20
  -2  -8  -2  253.27   20.90
  -2  -8  -2  273.27   22.50
  -2  -8  -2  265.37   19.60
   2   8   2  303.17   21.60
   2   8   2  295.57   26.50
   2   8   2  307.57   23.80
  -3  -8  -2   67.99   11.10
  -3  -8  -2   74.09   13.00
  -3  -8  -2   77.29    9.40
  -3  -8  -2   56.89   10.00
   3   8   2   45.90   11.50
   3   8   2   55.09   14.40
   3   8   2   49.30    9.10
  -4  -8  -2  525.55   31.50
  -4  -8  -2  532.45   34.50
  -4  -8  -2  518.85   32.50
   4   8   2  466.75   29.50
   4   8   2  448.36   33.70
   4   8   2  466.65   37.80
  -5  -8  -2   54.89   12.40
  -5  -8  -2   47.60    9.90
  -5  -8  -2   25.40    9.20
   5   8   2   31.00   13.40
   5   8   2   32.40   11.40
   5   8   2   45.30   12.20
  -6  -8  -2  257.97   23.70
  -6  -8  -2  274.77   24.60
  -6  -8  -2  224.78   20.80
   6   8   2  242.38   23.40
   6   8   2  272.47   29.70
  -7  -8  -2   61.19   14.30
  -7  -8  -2   68.19   12.60
  -7  -8  -2   45.20   13.40
   7   8   2   64.99   18.80
   7   8   2   36.30   12.60
  -8  -8  -2   16.00    9.70
  -8  -8  -2   38.30   13.30
  -8  -8  -2   22.80   11.90
   8   8   2   21.20   16.20
  -9  -8  -2  139.79   19.00
  -9  -8  -2  106.49   19.70
  -9  -8  -2  156.88   24.40
   9   8   2  135.09   28.10
 -10  -8  -2   60.49   19.00
 -10  -8  -2   41.40   16.90
  10   8   2   34.20   19.20
   5  -9  -2   10.40   16.30
   5  -9  -2    2.10   12.90
  -5   9   2    3.90   11.50
  -5   9   2   21.80   14.90
  -5   9   2   -1.10   13.40
   4  -9  -2   14.00   12.50
  -4   9   2   39.10   15.00
  -4   9   2   26.50   13.20
  -4   9   2   12.80   11.40
   3  -9  -2    5.10   10.70
   3  -9  -2    1.10    8.70
  -3   9   2    8.30   10.40
  -3   9   2  -12.20   11.20
  -3   9   2   -5.80    9.60
   2  -9  -2   27.60   11.10
   2  -9  -2   12.80    9.90
  -2   9   2    4.70    9.50
  -2   9   2   23.70   11.80
  -2   9   2   16.40   10.10
   1  -9  -2  310.37   26.60
   1  -9  -2  328.07   26.40
  -1   9   2  347.67   29.30
  -1   9   2  321.97   29.00
   0  -9  -2   55.99   12.60
   0  -9  -2   72.39   12.70
   0   9   2   51.29   14.20
   0   9   2   50.39   12.40
   0   9   2   42.80   13.30
  -1  -9  -2  237.78   22.90
  -1  -9  -2  297.97   22.50
  -1  -9  -2  268.57   21.40
   1   9   2  304.17   24.00
   1   9   2  283.07   26.00
   1   9   2  232.98   25.60
  -2  -9  -2  109.29   13.00
  -2  -9  -2  107.49   14.10
  -2  -9  -2  113.29   16.40
   2   9   2  123.99   19.60
   2   9   2  136.69   19.00
   2   9   2  124.59   15.60
  -3  -9  -2  188.18   20.90
  -3  -9  -2  170.48   17.80
  -3  -9  -2  169.58   16.20
   3   9   2  142.79   21.80
   3   9   2  132.99   16.00
   3   9   2  156.38   20.10
  -4  -9  -2  178.18   20.40
  -4  -9  -2  179.68   16.70
  -4  -9  -2  162.68   18.00
   4   9   2  130.69   19.40
   4   9   2  128.59   16.40
   4   9   2  121.89   21.60
  -5  -9  -2  111.99   15.20
  -5  -9  -2  111.49   17.80
  -5  -9  -2  127.89   17.10
   5   9   2  104.69   17.90
   5   9   2  104.79   17.30
   5   9   2  112.79   20.70
  -6  -9  -2  144.39   17.30
  -6  -9  -2  156.68   20.60
  -6  -9  -2  159.48   20.50
   6   9   2  152.98   21.80
   6   9   2  131.99   24.60
  -7  -9  -2  106.59   15.60
  -7  -9  -2   66.29   15.80
  -7  -9  -2  104.59   18.10
   7   9   2   83.99   22.20
  -8  -9  -2   46.70   15.30
  -8  -9  -2   24.90   14.00
  -8  -9  -2   22.60   10.70
   8   9   2   40.10   19.10
  -9  -9  -2   16.40   13.60
  -9  -9  -2   13.30   13.80
   9   9   2   17.10   18.40
   4 -10  -2   50.29   18.30
  -4  10   2   43.10   15.10
  -4  10   2   58.19   19.10
  -4  10   2   51.69   17.40
   3 -10  -2   11.60   11.70
   3 -10  -2   10.40   12.30
  -3  10   2   21.10   13.10
  -3  10   2   20.60   12.80
  -3  10   2   -4.20   12.60
   2 -10  -2  126.19   20.60
   2 -10  -2  127.69   19.20
  -2  10   2   90.19   19.70
  -2  10   2   86.19   17.60
  -2  10   2   89.99   16.80
   1 -10  -2   58.19   14.00
  -1  10   2   49.40   15.60
  -1  10   2   66.39   13.70
  -1  10   2   80.29   16.90
   0 -10  -2  253.87   24.30
   0  10   2  245.88   27.60
   0  10   2  235.08   26.10
   0  10   2  231.08   26.50
  -1 -10  -2   58.59   12.10
  -1 -10  -2   49.90   12.90
   1  10   2   70.39   14.50
   1  10   2   48.90   13.90
   1  10   2   84.59   17.60
  -2 -10  -2   22.90   10.70
  -2 -10  -2   21.00    8.40
   2  10   2   25.00   12.90
   2  10   2   16.80    9.60
   2  10   2   32.70   13.30
  -3 -10  -2   86.89   16.40
  -3 -10  -2   75.69   12.90
  -3 -10  -2   89.99   13.90
   3  10   2   70.99   12.80
   3  10   2   77.89   18.40
   3  10   2   71.19   16.70
  -4 -10  -2   62.09   12.40
  -4 -10  -2   72.69   13.20
  -4 -10  -2   64.49   14.10
   4  10   2   83.69   19.30
   4  10   2   59.99   15.30
  -5 -10  -2  394.56   32.60
  -5 -10  -2  402.26   29.30
  -5 -10  -2  438.56   31.80
   5  10   2  418.26   34.70
   5  10   2  409.76   39.40
   5  10   2  383.26   33.70
  -6 -10  -2    2.50   10.70
  -6 -10  -2    4.20    8.60
  -6 -10  -2   11.00    8.70
   6  10   2   -0.80   14.50
   6  10   2   -5.50    9.40
  -7 -10  -2   85.29   14.90
  -7 -10  -2   88.79   18.40
  -7 -10  -2   89.99   19.00
   7  10   2   86.89   23.60
  -8 -10  -2   26.90   14.00
  -8 -10  -2   15.90   12.30
   8  10   2   11.70   17.70
  -9 -10  -2   60.29   17.60
  -9 -10  -2   93.49   21.30
   9  10   2   54.49   21.00
   2 -11  -2   22.30   13.40
  -2  11   2   45.50   17.70
  -2  11   2   22.80   13.50
   1 -11  -2   61.79   16.10
  -1  11   2   79.39   19.10
  -1  11   2   87.69   20.00
   0 -11  -2  122.59   19.50
   0  11   2  122.69   21.80
   0  11   2  107.99   19.50
  -1 -11  -2   69.29   16.00
   1  11   2   64.69   16.00
   1  11   2   74.69   16.40
   1  11   2   67.99   18.40
  -2 -11  -2  113.89   19.30
  -2 -11  -2  115.29   16.50
   2  11   2  147.19   24.60
   2  11   2   91.29   18.30
   2  11   2  109.39   17.80
  -3 -11  -2   20.90    9.70
  -3 -11  -2    7.00   11.40
   3  11   2   12.70   13.50
   3  11   2   26.90   13.70
  -4 -11  -2  276.07   29.40
  -4 -11  -2  275.57   24.70
  -4 -11  -2  253.27   23.20
   4  11   2  295.67   33.90
   4  11   2  230.78   28.90
  -5 -11  -2  113.09   17.60
  -5 -11  -2  135.89   18.10
  -5 -11  -2  103.99   19.60
   5  11   2  114.79   24.90
   5  11   2  116.39   22.10
   5  11   2   85.39   18.40
  -6 -11  -2   78.49   17.40
  -6 -11  -2   76.09   16.40
  -6 -11  -2   66.99   16.60
   6  11   2   79.99   22.60
   6  11   2  100.19   25.80
  -7 -11  -2    6.50   10.80
  -7 -11  -2    8.00   11.80
   7  11   2   15.50   17.60
  -8 -11  -2   13.90   15.10
  -8 -11  -2   33.10   14.00
   8  11   2    8.20   18.40
   0 -12  -2   22.90   12.50
   0  12   2   40.70   16.20
   0  12   2   27.40   14.80
  -1 -12  -2  102.39   19.40
   1  12   2   93.79   19.30
   1  12   2   81.49   20.00
  -2 -12  -2   38.90   13.80
   2  12   2   22.80   15.60
   2  12   2   32.60   15.20
  -3 -12  -2   61.99   14.00
  -3 -12  -2   67.99   16.20
   3  12   2   64.19   19.70
   3  12   2   48.90   15.50
  -4 -12  -2   51.39   15.20
  -4 -12  -2   40.30   12.40
   4  12   2   69.69   19.00
   4  12   2   89.79   22.90
  -5 -12  -2   69.99   18.40
  -5 -12  -2   52.59   16.90
   5  12   2   74.69   19.20
   5  12   2   82.49   20.70
   5  12   2   80.99   23.90
  -6 -12  -2   47.20   15.30
  -6 -12  -2   46.60   14.60
   6  12   2   38.00   21.60
   5  10  -3    1.00   14.30
   5  10  -3   13.50   13.70
   5  10  -3   19.00   12.90
  -5 -10   3    8.90   11.50
  -5 -10   3   34.50   13.00
  -5 -10   3    4.50   11.50
   4  10  -3  189.18   25.50
   4  10  -3  130.49   26.30
  -4 -10   3  167.18   22.70
  -4 -10   3  148.09   23.80
   3  10  -3    9.80   16.40
   3  10  -3   -7.60   11.20
  -3 -10   3   11.90   12.10
  -3 -10   3    3.00   10.40
   2  10  -3   68.39   18.40
  -2 -10   3   69.89   17.40
  -2 -10   3   83.19   19.30
   1  10  -3   40.40   16.30
  -1 -10   3   67.29   17.30
   0  10  -3   39.20   15.10
   0  10  -3   15.80   15.50
   0 -10   3   12.30   12.00
   7   9  -3  128.89   26.00
   7   9  -3  142.29   27.40
  -7  -9   3  121.09   19.70
  -7  -9   3  127.19   20.80
   6   9  -3   71.19   19.50
   6   9  -3   67.69   21.10
  -6  -9   3   64.49   16.10
  -6  -9   3   87.29   18.10
   5   9  -3  110.09   21.80
   5   9  -3  144.19   26.10
   5   9  -3   90.29   17.20
  -5  -9   3   83.89   16.80
  -5  -9   3  119.49   19.20
   4   9  -3   47.10   18.80
   4   9  -3   50.39   14.20
   4   9  -3   33.00   13.50
  -4  -9   3   19.10   11.50
  -4  -9   3   39.40   13.50
   3   9  -3  103.99   20.70
   3   9  -3  131.89   21.00
   3   9  -3  108.79   22.50
  -3  -9   3  137.79   20.50
  -3  -9   3  147.39   20.00
   2   9  -3   69.89   17.20
  -2  -9   3   84.79   16.40
  -2  -9   3   69.99   14.80
   1   9  -3   44.20   13.90
  -1  -9   3   33.10   13.40
  -1  -9   3   54.29   13.00
   0   9  -3   68.79   16.10
   0   9  -3   39.70   14.70
   0  -9   3   51.69   14.50
  -1   9  -3   12.60   11.30
  -1   9  -3   31.70   15.30
   1  -9   3   20.30   12.90
  -2   9  -3  147.79   24.90
   2  -9   3  140.69   23.50
   8   8  -3   75.99   23.40
   8   8  -3   61.89   20.70
  -8  -8   3   66.89   16.50
  -8  -8   3   99.49   18.00
   7   8  -3  140.69   26.00
   7   8  -3   97.09   23.90
  -7  -8   3   93.29   17.70
  -7  -8   3   88.29   19.00
   6   8  -3   25.20   14.80
   6   8  -3   10.00   11.90
  -6  -8   3    8.80   10.60
  -6  -8   3   24.40   12.40
   5   8  -3  160.68   27.10
   5   8  -3  148.69   23.00
   5   8  -3  133.89   19.20
  -5  -8   3  123.19   18.30
  -5  -8   3  140.79   19.60
   4   8  -3  181.98   24.30
   4   8  -3  154.48   25.10
   4   8  -3  122.29   18.70
  -4  -8   3  175.88   21.00
  -4  -8   3  165.18   20.40
  -4  -8   3  127.79   21.60
   3   8  -3  399.46   31.70
   3   8  -3  351.86   30.90
   3   8  -3  352.66   35.60
  -3  -8   3  382.46   29.80
  -3  -8   3  367.46   29.00
   2   8  -3    1.30   10.10
   2   8  -3   18.10    9.40
  -2  -8   3   28.80    9.90
  -2  -8   3    8.80   10.00
   1   8  -3  128.59   19.70
   1   8  -3  153.18   20.90
  -1  -8   3  163.98   20.30
  -1  -8   3  149.99   18.10
   0   8  -3   51.49   14.00
   0   8  -3   60.89   15.40
   0  -8   3   63.59   14.30
   0  -8   3   58.29   12.30
  -1   8  -3  158.08   20.70
  -1   8  -3  167.28   23.40
   1  -8   3  157.08   21.90
  -2   8  -3  129.19   20.00
  -2   8  -3  104.99   21.90
  -2   8  -3  155.78   19.80
   2  -8   3  143.79   21.80
  -3   8  -3   60.89   18.80
  -3   8  -3   47.20   15.10
   3  -8   3   62.89   16.90
  -4   8  -3   83.99   19.90
  -4   8  -3   91.79   21.00
   4  -8   3   36.10   15.80
   9   7  -3   70.39   23.60
   9   7  -3   78.59   21.40
  -9  -7   3   80.29   18.40
  -9  -7   3   78.29   18.80
  -9  -7   3  107.49   18.50
   8   7  -3    3.80   14.70
   8   7  -3    7.80   15.10
  -8  -7   3   13.40   10.90
  -8  -7   3   -1.90   10.40
   7   7  -3   24.50   16.30
   7   7  -3   49.99   17.80
  -7  -7   3   31.60   11.30
  -7  -7   3   46.30   14.40
   6   7  -3  140.69   24.00
   6   7  -3  123.79   22.90
  -6  -7   3  166.78   20.30
  -6  -7   3  141.09   19.60
   5   7  -3   27.40   14.10
   5   7  -3   25.80   12.90
   5   7  -3   45.80   11.70
  -5  -7   3   10.50   11.40
  -5  -7   3   43.50   12.10
  -5  -7   3   42.60   11.40
   4   7  -3  590.14   43.60
   4   7  -3  593.74   41.60
   4   7  -3  597.34   38.90
  -4  -7   3  572.84   41.50
  -4  -7   3  475.35   36.50
  -4  -7   3  523.45   37.20
   3   7  -3  253.37   22.50
   3   7  -3  218.58   27.40
   3   7  -3  212.98   21.60
  -3  -7   3  170.38   19.70
  -3  -7   3  171.78   19.90
   2   7  -3  205.48   20.30
   2   7  -3  173.78   21.90
  -2  -7   3  206.58   22.20
  -2  -7   3  198.38   20.60
   1   7  -3   76.49   13.00
   1   7  -3   77.49   14.90
   1   7  -3   84.39   14.30
  -1  -7   3  123.09   16.70
  -1  -7   3  148.09   16.20
   0   7  -3    3.60    8.60
   0   7  -3   18.20    9.60
   0   7  -3    1.90    7.00
   0  -7   3    4.60    8.10
   0  -7   3    8.10    7.60
  -1   7  -3   90.09   18.00
  -1   7  -3   80.59   14.20
  -1   7  -3   73.39   14.60
   1  -7   3   85.29   15.10
   1  -7   3   97.29   14.10
  -2   7  -3   56.99   15.20
  -2   7  -3   37.40   12.70
  -2   7  -3   52.39   12.40
   2  -7   3   52.99   12.80
  -3   7  -3   96.79   18.20
  -3   7  -3   80.19   18.10
  -3   7  -3  118.19   19.40
   3  -7   3  109.49   20.00
  -4   7  -3   -6.00   11.10
  -4   7  -3   -9.10   10.20
   4  -7   3   16.40   12.60
  -5   7  -3   26.40   15.30
  -5   7  -3   38.60   15.10
   5  -7   3   42.80   16.10
   9   6  -3  101.89   24.00
   9   6  -3  109.59   25.20
  -9  -6   3   99.39   19.00
  -9  -6   3  116.59   18.20
  -9  -6   3   96.69   19.60
   8   6  -3   19.00   15.30
   8   6  -3    2.50   13.80
  -8  -6   3    6.70    9.80
  -8  -6   3   14.50   10.30
   7   6  -3  177.88   27.80
   7   6  -3  164.18   25.20
  -7  -6   3  185.18   21.80
  -7  -6   3  195.78   23.10
   6   6  -3  115.19   21.90
   6   6  -3  111.69   20.60
  -6  -6   3  187.88   21.40
  -6  -6   3  150.08   22.60
  -6  -6   3  147.19   17.90
   5   6  -3  252.17   26.90
   5   6  -3  237.28   25.70
  -5  -6   3  202.88   24.00
  -5  -6   3  250.87   21.90
  -5  -6   3  227.38   21.90
   4   6  -3  234.18   22.80
   4   6  -3  202.28   24.90
   4   6  -3  227.68   19.90
  -4  -6   3  166.18   19.20
  -4  -6   3  182.28   20.80
  -4  -6   3  129.29   17.20
   3   6  -3   61.99   16.10
   3   6  -3   50.69   11.50
   3   6  -3   73.89   12.40
  -3  -6   3   38.00   10.20
  -3  -6   3   36.50    9.60
   2   6  -3  555.54   37.80
   2   6  -3  606.84   39.10
  -2  -6   3  627.54   37.50
  -2  -6   3  616.44   37.90
   1   6  -3  377.26   28.00
   1   6  -3  382.76   25.90
   1   6  -3  400.96   24.40
   1   6  -3  388.36   27.80
  -1  -6   3  330.17   22.30
  -1  -6   3  305.27   24.80
  -1  -6   3  343.47   26.70
   0   6  -3 1280.57   71.39
   0   6  -3 1259.37   69.29
   0   6  -3 1255.37   66.69
   0   6  -3 1247.48   67.89
   0  -6   3 1210.78   67.19
   0  -6   3 1221.08   66.99
   0  -6   3 1219.08   69.39
   0  -6   3 1264.97   69.09
  -1   6  -3   42.50   10.50
  -1   6  -3   32.20    9.70
  -1   6  -3   47.30   12.00
   1  -6   3   17.30    9.50
   1  -6   3   19.80    8.00
  -2   6  -3  657.63   44.60
  -2   6  -3  612.84   42.00
  -2   6  -3  645.24   40.40
   2  -6   3  695.43   39.70
   2  -6   3  647.84   42.70
  -3   6  -3   93.19   14.10
  -3   6  -3  101.59   17.20
  -3   6  -3   88.89   16.60
   3  -6   3  103.49   17.10
   3  -6   3   79.59   13.80
  -4   6  -3   -6.50   10.00
  -4   6  -3    3.30   10.70
   4  -6   3  -12.70    8.80
  -5   6  -3  -12.30   11.50
  -5   6  -3   -6.20   10.20
   5  -6   3    2.30   10.10
  -6   6  -3   21.20   13.10
  -6   6  -3    9.40   13.00
   6  -6   3   18.00   12.10
  10   5  -3   93.69   23.90
  10   5  -3   93.39   26.40
 -10  -5   3   66.39   17.70
 -10  -5   3   60.99   16.80
 -10  -5   3   52.59   16.10
   9   5  -3   80.69   21.90
   9   5  -3   91.29   21.50
  -9  -5   3   66.69   15.40
  -9  -5   3   73.89   17.00
  -9  -5   3   83.49   15.70
   8   5  -3  287.47   32.30
   8   5  -3  322.07   35.30
  -8  -5   3  296.17   27.60
  -8  -5   3  336.87   28.70
  -8  -5   3  279.07   25.70
   7   5  -3  187.88   26.50
   7   5  -3  184.28   26.90
  -7  -5   3  133.19   17.70
  -7  -5   3  135.79   18.50
   6   5  -3   23.80   11.60
   6   5  -3   31.00   13.70
  -6  -5   3   21.80    8.40
  -6  -5   3   24.00   11.60
  -6  -5   3    5.80    8.60
   5   5  -3  205.98   23.10
   5   5  -3  200.98   23.90
  -5  -5   3  235.58   20.00
  -5  -5   3  240.18   24.90
  -5  -5   3  257.97   21.60
   4   5  -3   78.49   16.00
   4   5  -3   76.69   14.70
   4   5  -3   65.89   11.60
  -4  -5   3  142.09   16.20
  -4  -5   3  102.09    8.00
  -4  -5   3  107.39   16.50
  -4  -5   3  120.39   14.50
   3   5  -3  965.60   56.39
   3   5  -3  978.20   48.90
   3   5  -3  920.71   58.09
   3   5  -3  946.51   54.79
  -3  -5   3 1014.10   57.49
  -3  -5   3  934.11   53.79
  -3  -5   3  935.61   53.49
   2   5  -3  174.18   17.40
   2   5  -3  195.28   17.70
   2   5  -3  192.18   13.60
  -2  -5   3  196.78   16.70
  -2  -5   3  192.98   16.40
   1   5  -3  500.55   30.50
   1   5  -3  521.75   32.90
   1   5  -3  501.65   29.00
  -1  -5   3  468.35   30.90
  -1  -5   3  477.55   28.00
  -1  -5   3  450.15   30.90
  -1  -5   3  449.46   29.60
   0   5  -3  345.77   22.50
   0   5  -3  337.97   26.00
   0   5  -3  354.86   25.00
   0   5  -3  346.37   24.00
   0  -5   3  340.67   23.70
   0  -5   3  345.27   23.30
   0  -5   3  367.06   25.30
   0  -5   3  347.57   20.70
  -1   5  -3  440.56   28.20
  -1   5  -3  425.56   24.70
  -1   5  -3  445.16   31.40
  -1   5  -3  461.55   29.40
   1  -5   3  405.96   27.40
   1  -5   3  389.56   28.60
   1  -5   3  412.96   25.10
  -2   5  -3  524.65   33.40
  -2   5  -3  562.84   36.30
  -2   5  -3  524.65   36.70
   2  -5   3  547.85   36.00
   2  -5   3  547.95   33.40
  -3   5  -3  195.18   22.60
  -3   5  -3  221.08   18.50
  -3   5  -3  215.38   22.10
   3  -5   3  238.38   21.60
   3  -5   3  224.18   18.60
  -4   5  -3  175.38   22.50
  -4   5  -3  200.18   23.80
  -4   5  -3  188.18   25.80
   4  -5   3  169.08   18.40
   4  -5   3  150.48   19.80
  -5   5  -3  191.28   24.90
  -5   5  -3  185.88   24.50
   5  -5   3  154.68   22.40
  -6   5  -3  168.08   24.10
  -6   5  -3  169.08   24.40
   6  -5   3  128.09   20.50
  -7   5  -3   34.70   14.80
  -7   5  -3   30.40   14.40
   7  -5   3   33.30   13.60
  10   4  -3   57.49   20.00
  10   4  -3   66.79   23.60
 -10  -4   3   87.99   17.70
 -10  -4   3   76.89   18.10
   9   4  -3   25.30   15.10
   9   4  -3   36.20   18.90
  -9  -4   3   42.40   11.90
  -9  -4   3   27.80   12.60
  -9  -4   3   33.50   13.30
   8   4  -3  146.79   23.90
   8   4  -3  162.08   26.50
  -8  -4   3  161.28   18.80
  -8  -4   3  153.68   20.10
  -8  -4   3  175.78   20.80
   7   4  -3  118.29   20.60
   7   4  -3  123.79   21.30
  -7  -4   3  110.99   20.00
  -7  -4   3  140.89   18.40
  -7  -4   3  185.18   20.20
  -7  -4   3  143.79   16.90
   6   4  -3  133.99   20.50
   6   4  -3  106.09   18.30
  -6  -4   3   97.89   18.00
  -6  -4   3  127.59   15.40
  -6  -4   3  125.89   15.80
   5   4  -3   36.10   12.50
   5   4  -3   38.80   11.80
  -5  -4   3   39.20   11.80
  -5  -4   3   35.10    9.50
  -5  -4   3   48.00    5.40
  -5  -4   3   34.20    8.20
   4   4  -3 1382.96   76.09
   4   4  -3 1416.66   75.89
  -4  -4   3 1297.67   74.89
  -4  -4   3 1308.57   71.49
  -4  -4   3 1290.37   65.39
  -4  -4   3 1299.67   70.39
   3   4  -3  627.44   37.60
   3   4  -3  599.54   40.80
   3   4  -3  646.44   39.80
   3   4  -3  623.04   32.20
  -3  -4   3  655.53   36.60
  -3  -4   3  595.34   31.90
  -3  -4   3  630.94   40.10
  -3  -4   3  635.34   37.40
   2   4  -3  324.57   24.20
   2   4  -3  351.46   20.30
   2   4  -3  335.37   24.50
   2   4  -3  324.17   26.50
  -2  -4   3  336.77   23.30
  -2  -4   3  373.36   23.50
  -2  -4   3  413.66   26.40
   1   4  -3   64.89    9.60
   1   4  -3   61.79    8.40
   1   4  -3   60.99   11.00
  -1  -4   3   94.09   11.60
  -1  -4   3   68.89    8.30
  -1  -4   3   65.09    9.50
  -1  -4   3   74.59   10.60
   0   4  -3  511.55   30.40
   0   4  -3  492.85   31.70
   0   4  -3  486.65   29.90
   0   4  -3  495.95   28.40
   0  -4   3  494.65   27.00
   0  -4   3  482.35   29.10
   0  -4   3  455.75   30.10
   0  -4   3  503.15   30.10
  -1   4  -3  133.29   16.40
  -1   4  -3  149.49   14.70
  -1   4  -3  132.79   10.40
  -1   4  -3  138.19   13.20
   1  -4   3  158.58   13.80
   1  -4   3  153.18   14.60
   1  -4   3  157.48    9.80
   1  -4   3  153.78   11.50
  -2   4  -3  105.19   12.10
  -2   4  -3   84.49   13.20
  -2   4  -3   88.59   13.50
   2  -4   3  100.99   12.20
   2  -4   3  108.89   14.10
  -3   4  -3  587.04   35.80
  -3   4  -3  579.14   39.10
  -3   4  -3  609.64   40.10
   3  -4   3  674.03   37.20
   3  -4   3  663.93   39.80
  -4   4  -3  101.49   11.80
  -4   4  -3   72.09   13.90
  -4   4  -3   89.09   14.60
   4  -4   3   61.19   12.80
   4  -4   3   67.29   11.10
  -5   4  -3   73.89   14.90
  -5   4  -3  103.29   18.20
   5  -4   3   92.99   15.70
  -6   4  -3   47.00   13.50
  -6   4  -3   46.60   15.10
   6  -4   3   47.10   13.70
  -7   4  -3   20.80   12.30
  -7   4  -3   14.20   12.90
   7  -4   3    8.30   11.90
  -8   4  -3   13.80   13.40
  -8   4  -3    5.10   12.10
   8  -4   3   21.50   13.30
  10   3  -3   -3.50   15.10
  10   3  -3   -1.90   15.80
 -10  -3   3   23.00   12.50
 -10  -3   3   17.60   12.30
   9   3  -3  107.59   22.50
   9   3  -3  109.89   24.50
  -9  -3   3  109.69   17.10
  -9  -3   3   89.49   15.90
  -9  -3   3   75.59   14.50
   8   3  -3   48.20   17.00
   8   3  -3   63.89   18.30
  -8  -3   3   81.79   15.10
  -8  -3   3  114.89   16.70
  -8  -3   3   80.49   13.60
   7   3  -3  260.17   27.10
   7   3  -3  257.77   20.60
   7   3  -3  232.98   26.00
  -7  -3   3  196.28   20.50
  -7  -3   3  233.78   19.70
  -7  -3   3  220.78   21.30
  -7  -3   3  197.98   23.80
   6   3  -3  425.76   28.30
   6   3  -3  438.96   35.00
   6   3  -3  397.76   34.10
  -6  -3   3  430.16   33.80
  -6  -3   3  471.75   30.60
  -6  -3   3  445.46   28.60
  -6  -3   3  465.85   30.10
  -6  -3   3  435.36   25.70
   5   3  -3  215.58   14.70
   5   3  -3  191.18   21.10
   5   3  -3  223.68   21.80
  -5  -3   3  179.18   19.40
  -5  -3   3  161.18   11.70
  -5  -3   3  173.38   16.70
  -5  -3   3  152.98   14.60
   4   3  -3 1552.44   83.49
   4   3  -3 1550.74   83.99
   4   3  -3 1532.05   75.59
  -4  -3   3 1511.15   83.19
  -4  -3   3 1494.45   79.29
  -4  -3   3 1496.95   77.99
  -4  -3   3 1464.95   73.99
   3   3  -3  586.64   30.10
   3   3  -3  584.84   35.50
   3   3  -3  619.44   30.40
   3   3  -3  615.04   37.90
   3   3  -3  605.54   38.80
   3   3  -3  587.04   31.20
  -3  -3   3  581.44   34.80
  -3  -3   3  598.24   29.80
  -3  -3   3  589.34   37.40
  -3  -3   3  603.14   34.20
   2   3  -3  209.28   13.40
   2   3  -3  206.48   17.10
   2   3  -3  203.58   18.70
   2   3  -3  221.98   17.50
   2   3  -3  216.58   12.00
   2   3  -3  209.78   11.30
  -2  -3   3  218.38   17.80
  -2  -3   3  193.08   14.70
  -2  -3   3  203.18   15.10
  -2  -3   3  213.68   16.30
   1   3  -3  707.33   37.10
   1   3  -3  667.73   39.60
   1   3  -3  674.93   38.40
  -1  -3   3  721.73   38.60
  -1  -3   3  664.23   38.10
  -1  -3   3  708.13   39.20
  -1  -3   3  653.83   36.60
   0   3  -3 1469.75   73.19
   0   3  -3 1451.45   74.89
   0   3  -3 1388.36   72.89
   0   3  -3 1451.75   71.79
   0  -3   3 1385.96   72.89
   0  -3   3 1408.36   72.49
   0  -3   3 1386.76   70.49
   0  -3   3 1377.56   73.29
  -1   3  -3   67.79   10.80
  -1   3  -3   73.99    6.40
  -1   3  -3   79.49    9.40
  -1   3  -3   82.79   10.80
   1  -3   3   67.79    9.00
   1  -3   3   66.69    9.60
   1  -3   3   82.89    7.40
   1  -3   3   68.39    6.20
  -2   3  -3  561.24   37.90
  -2   3  -3  576.74   35.30
  -2   3  -3  623.44   38.60
   2  -3   3  678.83   31.70
   2  -3   3  704.03   38.50
   2  -3   3  698.33   37.00
  -3   3  -3  374.06   26.20
  -3   3  -3  317.87   25.40
  -3   3  -3  325.67   22.10
   3  -3   3  407.46   24.40
   3  -3   3  389.26   25.80
  -4   3  -3  182.38   20.00
  -4   3  -3  144.79   18.30
  -4   3  -3  167.58   13.50
   4  -3   3  147.89   17.20
   4  -3   3  161.08   15.30
  -5   3  -3   47.30   11.60
  -5   3  -3   61.79   14.10
   5  -3   3   44.20   11.20
  -6   3  -3   75.89   15.30
  -6   3  -3   57.99   14.10
   6  -3   3   56.19   13.80
  -7   3  -3   44.60   13.70
  -7   3  -3   37.70   12.90
   7  -3   3   61.39   14.20
  -8   3  -3   12.20   12.40
  -8   3  -3   14.10   13.30
   8  -3   3   39.20   14.60
  10   2  -3  105.99   23.90
  10   2  -3   96.69   24.40
 -10  -2   3   92.99   18.40
 -10  -2   3  120.69   19.00
 -10  -2   3   99.79   17.00
 -10  -2   3   91.19   16.70
   9   2  -3  129.69   24.50
   9   2  -3  120.79   19.70
   9   2  -3  145.59   26.60
  -9  -2   3  123.19   17.70
  -9  -2   3   94.79   16.20
  -9  -2   3  121.09   17.10
   8   2  -3  407.66   33.00
   8   2  -3  379.56   36.50
   8   2  -3  403.96   38.00
  -8  -2   3  470.35   31.90
  -8  -2   3  445.76   30.40
  -8  -2   3  467.35   37.60
  -8  -2   3  382.86   29.70
   7   2  -3  188.08   25.50
   7   2  -3  168.58   18.80
   7   2  -3  192.08   25.40
  -7  -2   3  174.98   16.10
  -7  -2   3  175.88   17.00
  -7  -2   3  184.58   17.80
  -7  -2   3  181.98   18.10
  -7  -2   3  192.78   22.00
   6   2  -3  128.79   14.60
   6   2  -3  101.89   17.90
   6   2  -3  121.69   19.50
  -6  -2   3  105.99   13.90
  -6  -2   3  118.19   14.30
  -6  -2   3  125.19   13.70
  -6  -2   3  136.89   12.10
  -6  -2   3  127.59   18.20
   5   2  -3    1.20    8.40
   5   2  -3    3.60    5.10
   5   2  -3    4.30    7.70
  -5  -2   3    1.30    3.50
  -5  -2   3    1.90    6.00
  -5  -2   3    4.10    5.40
  -5  -2   3    5.40    5.60
  -5  -2   3    1.30    4.30
   4   2  -3   33.60   10.10
   4   2  -3   18.30    5.40
   4   2  -3   25.10    8.80
  -4  -2   3   19.30    6.20
  -4  -2   3   24.10    3.90
  -4  -2   3   26.50    5.50
  -4  -2   3   21.60    6.80
  -4  -2   3   14.50    7.30
   3   2  -3 1839.52   94.79
   3   2  -3 1851.61  100.99
  -3  -2   3 1971.70   96.29
  -3  -2   3 2019.60   97.39
  -3  -2   3 1999.20  100.69
  -3  -2   3 1885.51   92.59
  -3  -2   3 1916.01   97.49
   2   2  -3  591.54   33.10
   2   2  -3  591.44   33.80
   2   2  -3  536.95   29.70
   2   2  -3  556.44   35.00
   2   2  -3  587.24   27.50
   2   2  -3  560.84   29.10
  -2  -2   3  553.94   31.90
  -2  -2   3  535.75   30.90
  -2  -2   3  565.54   31.40
  -2  -2   3  537.95   33.70
   1   2  -3  318.47   20.10
   1   2  -3  311.17   15.80
   1   2  -3  302.97   21.90
   1   2  -3  291.77   19.20
   1   2  -3  298.77   17.90
  -1  -2   3  274.87   17.70
  -1  -2   3  269.27   19.40
  -1  -2   3  288.77   18.20
   0   2  -3  717.43   37.20
   0   2  -3  725.33   38.20
   0   2  -3  689.53   35.50
   0  -2   3  636.64   36.70
   0  -2   3  648.84   36.70
   0  -2   3  639.74   36.10
   0  -2   3  654.83   34.80
  -1   2  -3  688.33   33.80
  -1   2  -3  723.53   36.30
  -1   2  -3  681.43   38.10
   1  -2   3  673.03   35.00
   1  -2   3  659.83   34.20
   1  -2   3  658.43   37.50
   1  -2   3  630.84   36.80
  -2   2  -3 1742.13   88.79
  -2   2  -3 1815.82   88.89
  -2   2  -3 1802.72   85.49
   2  -2   3 1630.44   87.59
   2  -2   3 1647.74   83.09
   2  -2   3 1658.73   86.89
  -3   2  -3  160.88   11.30
  -3   2  -3  177.08   15.20
  -3   2  -3  163.48   15.80
   3  -2   3  135.49   15.20
   3  -2   3  122.29   12.90
  -4   2  -3  509.65   34.60
  -4   2  -3  533.55   34.30
  -4   2  -3  547.25   29.80
   4  -2   3  567.74   34.40
  -5   2  -3  254.27   22.20
  -5   2  -3  258.87   23.30
  -5   2  -3  261.27   17.20
   5  -2   3  292.97   23.00
  -6   2  -3   62.69   13.50
  -6   2  -3   74.69   13.40
   6  -2   3   80.69   14.40
  -7   2  -3  109.59   18.90
  -7   2  -3  125.19   17.90
   7  -2   3  117.19   19.20
  -8   2  -3   -3.70    8.90
  -8   2  -3   -8.80    8.80
   8  -2   3   10.00   12.10
  -9   2  -3   50.19   14.50
  -9   2  -3   73.89   18.70
  -9   2  -3   34.70   16.60
   9  -2   3   45.50   16.80
  10   1  -3   79.29   22.70
  10   1  -3   57.99   19.90
  10   1  -3   57.99   21.40
 -10  -1   3   87.39   16.20
 -10  -1   3   81.09   17.60
 -10  -1   3   72.49   15.00
 -10  -1   3   60.09   14.90
   9   1  -3   50.69   16.10
   9   1  -3   35.80   16.60
   9   1  -3   63.29   19.00
  -9  -1   3   55.29   12.80
  -9  -1   3   63.49   14.30
  -9  -1   3   77.79   13.70
  -9  -1   3   65.09   14.30
  -9  -1   3   58.49   13.20
  -9  -1   3   54.39   12.40
   8   1  -3  126.89   22.30
   8   1  -3  119.19   21.10
   8   1  -3  124.29   19.50
  -8  -1   3  136.29   17.30
  -8  -1   3  119.19   15.60
  -8  -1   3  109.69   19.30
  -8  -1   3  124.89   15.60
  -8  -1   3  125.59   15.90
  -8  -1   3  127.29   19.40
   7   1  -3   48.30   12.70
   7   1  -3   50.59   15.70
   7   1  -3   44.30   13.30
  -7  -1   3   43.20    9.20
  -7  -1   3   49.80    9.50
  -7  -1   3   61.19   10.00
  -7  -1   3   60.99   14.10
  -7  -1   3   46.40   10.60
   6   1  -3  302.47   26.30
   6   1  -3  280.17   26.30
   6   1  -3  279.07   22.50
  -6  -1   3  257.67   19.30
  -6  -1   3  273.47   20.20
  -6  -1   3  251.17   20.30
  -6  -1   3  250.67   24.00
  -6  -1   3  237.98   18.40
   5   1  -3   48.90   12.70
   5   1  -3   27.40    9.20
   5   1  -3   33.60    8.40
  -5  -1   3   40.30    6.50
  -5  -1   3   40.20   10.20
  -5  -1   3   37.60    6.80
  -5  -1   3   33.40    7.20
  -5  -1   3   41.40    8.00
   4   1  -3 1542.15   84.39
   4   1  -3 1602.94   85.29
   4   1  -3 1579.34   80.59
  -4  -1   3 1583.24   84.39
  -4  -1   3 1520.15   80.49
  -4  -1   3 1566.54   77.99
  -4  -1   3 1572.54   80.49
  -4  -1   3 1582.14   79.19
   3   1  -3 1337.97   71.79
   3   1  -3 1428.46   75.59
   3   1  -3 1330.57   75.89
  -3  -1   3 1465.95   69.49
  -3  -1   3 1440.26   70.89
  -3  -1   3 1422.16   72.39
  -3  -1   3 1419.96   75.49
  -3  -1   3 1477.05   72.59
   2   1  -3  588.94   31.80
   2   1  -3  610.44   35.10
   2   1  -3  589.54   35.00
   2   1  -3  607.64   31.90
   2   1  -3  637.04   36.60
  -2  -1   3  584.84   32.80
  -2  -1   3  626.34   33.30
  -2  -1   3  609.84   35.40
  -2  -1   3  591.14   31.80
   1   1  -3  115.59   11.30
   1   1  -3  127.99    7.40
   1   1  -3  123.69   11.30
   1   1  -3  125.99    9.90
   1   1  -3  126.29   12.30
   1   1  -3  120.99   10.90
  -1  -1   3  141.89    9.70
  -1  -1   3  166.58   12.50
  -1  -1   3  152.28   10.00
   0   1  -3  898.51   47.60
   0   1  -3  862.61   45.60
   0   1  -3  878.71   46.50
   0   1  -3  853.71   46.70
   0  -1   3  926.51   46.20
   0  -1   3  937.61   46.80
   0  -1   3  911.61   45.30
   0  -1   3  887.21   46.50
  -1   1  -3  217.08   14.90
  -1   1  -3  199.98   14.90
  -1   1  -3  194.98   11.90
   1  -1   3  186.48   11.90
   1  -1   3  181.18   11.30
   1  -1   3  183.58   13.30
   1  -1   3  184.48   10.80
   1  -1   3  189.58   13.70
   1  -1   3  187.58   13.80
  -2   1  -3  745.23   41.20
  -2   1  -3  752.22   40.60
  -2   1  -3  740.33   36.80
  -2   1  -3  772.12   36.40
  -2   1  -3  733.63   37.10
   2  -1   3  706.33   40.20
   2  -1   3  713.93   36.70
   2  -1   3  720.33   37.60
   2  -1   3  730.43   36.40
   2  -1   3  696.33   39.70
  -3   1  -3  824.12   47.70
  -3   1  -3  874.81   43.80
  -3   1  -3  863.91   43.60
  -3   1  -3  867.61   48.90
   3  -1   3  895.31   48.20
   3  -1   3  890.41   47.60
  -4   1  -3  595.14   36.20
  -4   1  -3  595.54   37.40
  -4   1  -3  621.64   31.70
   4  -1   3  604.14   36.40
  -5   1  -3  649.43   39.60
  -5   1  -3  619.94   31.50
  -5   1  -3  579.64   31.30
  -5   1  -3  614.94   32.60
  -5   1  -3  633.34   37.50
   5  -1   3  600.44   38.20
  -6   1  -3  172.38   18.50
  -6   1  -3  174.98   20.20
   6  -1   3  149.19   19.70
  -7   1  -3  195.98   23.60
  -7   1  -3  179.28   20.10
   7  -1   3  170.98   21.50
  -8   1  -3    6.20   11.10
  -8   1  -3   12.40   12.00
  -8   1  -3   12.50    8.80
   8  -1   3    7.80   10.90
  -9   1  -3  110.59   17.20
  -9   1  -3   59.89   16.80
  -9   1  -3   80.59   18.20
   9  -1   3   81.69   18.70
  10   0  -3   29.50   18.50
  10   0  -3   11.00   14.10
 -10   0   3    9.10   10.80
 -10   0   3   10.00   11.40
 -10   0   3   22.80   11.10
   9   0  -3   45.20   15.90
   9   0  -3   57.89   19.80
  -9   0   3   69.89   13.20
  -9   0   3   68.59   14.40
  -9   0   3   46.80   13.70
  -9   0   3   79.89   14.30
  -9   0   3   69.79   13.30
  -9   0   3   74.69   19.70
  -9   0   3   64.69   13.90
   8   0  -3   71.49   18.20
   8   0  -3   78.59   19.60
   8   0  -3   73.89   17.10
  -8   0   3  106.09   15.20
  -8   0   3   80.09   16.90
  -8   0   3   81.59   12.40
  -8   0   3   74.39   13.90
  -8   0   3  108.59   17.10
  -8   0   3   84.29   13.30
  -8   0   3   82.79   13.30
   7   0  -3  189.48   21.80
   7   0  -3  147.89   22.40
   7   0  -3  184.18   26.60
  -7   0   3  221.48   17.80
  -7   0   3  210.78   18.60
  -7   0   3  240.08   21.00
  -7   0   3  232.58   23.20
  -7   0   3  202.58   18.10
   6   0  -3  166.78   21.70
   6   0  -3  132.69   18.60
   6   0  -3  165.28   17.80
  -6   0   3  140.19   13.50
  -6   0   3  151.78   17.30
  -6   0   3  140.09   14.10
  -6   0   3  145.59   15.10
  -6   0   3  143.49   18.00
   5   0  -3   18.50    7.90
   5   0  -3   16.30    8.10
   5   0  -3   18.60   10.20
  -5   0   3   31.50    9.60
  -5   0   3   41.30    6.90
  -5   0   3   25.70    6.10
  -5   0   3   28.40    7.20
   4   0  -3 1595.04   82.49
   4   0  -3 1662.33   86.19
   4   0  -3 1660.43   84.59
   4   0  -3 1623.14   84.79
  -4   0   3 1528.15   79.29
  -4   0   3 1541.55   80.69
  -4   0   3 1534.15   80.19
  -4   0   3 1539.15   84.19
   3   0  -3  415.06   28.40
   3   0  -3  439.66   25.40
   3   0  -3  441.26   27.20
   3   0  -3  434.66   27.30
  -3   0   3  388.86   23.90
  -3   0   3  414.56   21.40
  -3   0   3  408.26   22.50
  -3   0   3  371.66   23.50
  -3   0   3  403.76   27.00
   2   0  -3  596.44   30.70
   2   0  -3  552.84   34.20
   2   0  -3  574.14   34.40
   2   0  -3  569.34   35.30
   2   0  -3  559.74   32.50
  -2   0   3  623.24   29.80
  -2   0   3  605.64   34.80
  -2   0   3  619.14   32.50
  -2   0   3  618.04   30.50
  -2   0   3  637.34   32.30
   1   0  -3  937.21   45.80
   1   0  -3  915.31   48.40
   1   0  -3  939.21   44.90
   1   0  -3  920.81   49.40
   1   0  -3  892.81   48.70
   1   0  -3  903.81   47.20
  -1   0   3  924.51   45.00
  -1   0   3  929.71   47.20
  -1   0   3  944.31   47.30
  -1   0   3  935.21   45.80
  -1   0   3  902.91   48.90
   0   0  -3 2953.90  144.69
   0   0  -3 2908.51  142.99
   0   0  -3 2971.00  145.09
   0   0  -3 3037.10  144.89
   0   0  -3 3040.70  144.69
   0   0   3 2886.61  143.19
   0   0   3 2928.91  143.49
   0   0   3 2908.91  144.69
   0   0   3 2973.60  143.49
   0   0   3 2922.21  144.09
  -1   0  -3  205.78   12.80
  -1   0  -3  205.18   13.90
  -1   0  -3  203.68   13.20
  -1   0  -3  208.78   12.20
   1   0   3  158.28   12.30
   1   0   3  170.38   10.50
   1   0   3  178.98   11.20
   1   0   3  150.08   12.20
   1   0   3  167.58   11.90
  -2   0  -3  172.18   11.80
  -2   0  -3  155.88    9.50
  -2   0  -3  165.28   11.50
  -2   0  -3  180.28   13.10
   2   0   3  127.69    9.00
   2   0   3  110.59   11.10
   2   0   3  128.39    7.20
   2   0   3  113.69    9.20
   2   0   3  126.89   11.10
   2   0   3  118.99    8.50
  -3   0  -3 1188.78   65.69
  -3   0  -3 1241.38   60.29
  -3   0  -3 1200.08   62.19
  -3   0  -3 1194.38   64.19
   3   0   3 1325.37   62.19
   3   0   3 1293.07   62.09
   3   0   3 1250.07   65.19
  -4   0  -3  252.87   15.40
  -4   0  -3  231.18   19.20
  -4   0  -3  250.57   17.30
  -4   0  -3  250.57   13.40
   4   0   3  217.58   15.60
   4   0   3  228.38   18.40
  -5   0  -3  665.13   41.40
  -5   0  -3  685.53   39.40
  -5   0  -3  692.13   35.50
  -5   0  -3  668.73   37.20
  -5   0  -3  653.33   40.70
   5   0   3  723.33   41.80
   5   0   3  709.23   38.60
  -6   0  -3  212.48   19.60
  -6   0  -3  202.28   15.60
  -6   0  -3  191.28   17.20
  -6   0  -3  199.48   15.80
  -6   0  -3  188.78   18.60
   6   0   3  190.18   17.00
   6   0   3  175.48   20.00
  -7   0  -3   16.40    9.60
  -7   0  -3   20.00    8.40
  -7   0  -3   22.50   10.50
   7   0   3   37.30   11.30
  -8   0  -3    6.50    7.90
  -8   0  -3    8.20    9.40
  -8   0  -3   16.40   11.00
   8   0   3    3.10   10.50
  -9   0  -3   48.90   15.00
  -9   0  -3   41.40   15.20
   9   0   3   59.69   16.50
 -10   0  -3   49.30   16.70
 -10   0  -3   37.20   16.50
  10   0   3   50.09   16.80
  10  -1  -3   65.69   20.80
 -10   1   3   71.79   17.60
 -10   1   3   71.59   17.00
 -10   1   3   71.39   16.20
 -10   1   3   78.89   18.20
   9  -1  -3  273.37   37.20
   9  -1  -3  283.77   32.50
  -9   1   3  271.67   26.50
  -9   1   3  284.37   25.90
  -9   1   3  302.87   28.40
  -9   1   3  319.97   28.70
   8  -1  -3  217.78   30.50
   8  -1  -3  259.27   27.60
  -8   1   3  272.27   25.10
  -8   1   3  264.37   21.30
  -8   1   3  275.57   25.40
  -8   1   3  269.27   26.80
  -8   1   3  252.47   22.20
  -8   1   3  229.68   20.10
   7  -1  -3  242.38   25.90
   7  -1  -3  228.08   29.20
  -7   1   3  271.27   23.50
  -7   1   3  214.38   19.10
  -7   1   3  267.27   19.40
  -7   1   3  260.37   21.00
  -7   1   3  259.97   24.30
  -7   1   3  246.78   22.80
   6  -1  -3   20.80   11.00
   6  -1  -3   20.50    9.10
   6  -1  -3   23.50    5.40
  -6   1   3   16.40    8.10
  -6   1   3   24.30    6.80
  -6   1   3   14.10    5.70
  -6   1   3   21.00    8.60
   5  -1  -3  285.87   23.30
   5  -1  -3  295.77   17.10
   5  -1  -3  303.17   25.60
   5  -1  -3  310.07   24.60
  -5   1   3  282.67   19.50
  -5   1   3  264.07   18.40
  -5   1   3  281.37   23.10
  -5   1   3  279.37   22.30
   4  -1  -3  601.44   27.70
   4  -1  -3  594.84   34.20
   4  -1  -3  555.24   36.30
   4  -1  -3  553.84   34.40
   4  -1  -3  558.34   33.70
  -4   1   3  466.15   29.10
  -4   1   3  452.65   31.80
  -4   1   3  505.15   30.30
  -4   1   3  501.15   33.30
   3  -1  -3 1587.44   82.49
   3  -1  -3 1596.34   81.89
   3  -1  -3 1559.64   84.19
  -3   1   3 1506.75   81.09
  -3   1   3 1576.04   78.09
  -3   1   3 1617.44   78.79
  -3   1   3 1611.14   82.79
  -3   1   3 1577.64   79.59
   2  -1  -3 3770.92  194.08
   2  -1  -3 3831.52  195.08
   2  -1  -3 3716.83  195.68
  -2   1   3 4153.28  190.58
  -2   1   3 3931.31  195.08
  -2   1   3 4162.58  192.08
  -2   1   3 4093.59  192.88
  -2   1   3 4034.60  194.08
   1  -1  -3 7395.26  366.86
   1  -1  -3 7511.05  366.76
   1  -1  -3 7729.83  363.56
   1  -1  -3 7698.93  365.96
   1  -1  -3 7569.44  362.76
   1  -1  -3 7697.83  365.16
  -1   1   3 7668.73  363.56
  -1   1   3 7488.35  364.26
  -1   1   3 7701.83  365.46
  -1   1   3 7474.45  366.66
  -1   1   3 7517.15  364.76
  -1   1   3 7489.15  363.06
   0  -1  -3 1163.28   59.29
   0  -1  -3 1236.88   59.39
   0  -1  -3 1227.98   57.89
   0  -1  -3 1227.98   60.09
   0   1   3 1136.69   58.09
   0   1   3 1113.09   58.39
   0   1   3 1140.29   58.39
   0   1   3 1168.48   59.99
   0   1   3 1109.19   58.19
  -1  -1  -3  502.15   25.90
  -1  -1  -3  490.65   25.10
  -1  -1  -3  470.45   23.60
  -1  -1  -3  488.45   24.20
  -1  -1  -3  488.85   25.40
   1   1   3  407.66   23.80
   1   1   3  409.36   22.60
   1   1   3  416.86   24.90
   1   1   3  407.76   24.90
   1   1   3  392.36   24.30
  -2  -1  -3  189.48   12.20
  -2  -1  -3  184.48   13.80
  -2  -1  -3  197.58   13.30
  -2  -1  -3  195.28   14.70
   2   1   3  189.88   14.10
   2   1   3  180.98   13.10
   2   1   3  180.88   12.20
   2   1   3  183.08   13.90
  -3  -1  -3  243.28   16.00
  -3  -1  -3  273.97   15.40
  -3  -1  -3  258.47   17.90
   3   1   3  222.38   15.00
   3   1   3  229.78   16.10
   3   1   3  211.58   17.00
  -4  -1  -3 1134.79   57.99
  -4  -1  -3 1154.18   55.39
  -4  -1  -3 1123.19   58.99
  -4  -1  -3 1130.29   60.59
  -4  -1  -3 1133.09   60.49
   4   1   3 1093.49   60.79
   4   1   3 1098.99   59.19
  -5  -1  -3  393.76   27.00
  -5  -1  -3  416.06   25.70
  -5  -1  -3  385.46   22.00
  -5  -1  -3  405.26   27.10
  -5  -1  -3  424.96   25.00
   5   1   3  404.86   26.10
   5   1   3  398.86   27.60
  -6  -1  -3  728.43   41.40
  -6  -1  -3  729.73   38.50
  -6  -1  -3  784.02   45.00
  -6  -1  -3  703.13   41.80
  -6  -1  -3  683.73   43.70
   6   1   3  709.23   44.50
   6   1   3  778.42   44.10
  -7  -1  -3    5.90    5.90
  -7  -1  -3    2.00    7.40
  -7  -1  -3   -2.60    7.30
  -7  -1  -3    5.40    6.40
   7   1   3   -7.60    6.70
   7   1   3   -5.30    7.90
  -8  -1  -3   23.80    8.60
  -8  -1  -3   25.50   10.70
  -8  -1  -3   17.50   11.30
   8   1   3    3.90   10.50
  -9  -1  -3   63.59   14.40
  -9  -1  -3   52.79   15.00
   9   1   3   44.80   14.80
 -10  -1  -3    9.70   11.20
 -10  -1  -3   14.40   13.70
  10   1   3   -0.20   11.90
  10  -2  -3   70.19   21.30
 -10   2   3   72.49   18.30
 -10   2   3   83.99   18.20
   9  -2  -3   34.60   16.80
  -9   2   3   23.40   12.60
  -9   2   3   23.30   12.80
  -9   2   3    5.80   11.80
   8  -2  -3  133.79   23.00
  -8   2   3  151.08   20.10
  -8   2   3  160.38   21.40
  -8   2   3  133.39   15.80
   7  -2  -3  109.79   19.20
   7  -2  -3  102.19   20.70
  -7   2   3  104.29   16.50
  -7   2   3   83.99   15.10
  -7   2   3   98.79   12.70
  -7   2   3   80.69   11.70
  -7   2   3  104.19   16.60
   6  -2  -3  509.75   36.60
   6  -2  -3  485.85   38.40
  -6   2   3  466.85   28.40
  -6   2   3  475.15   33.80
  -6   2   3  503.25   33.90
  -6   2   3  489.35   29.60
  -6   2   3  489.25   33.50
   5  -2  -3  158.28   21.10
   5  -2  -3  182.18   13.20
   5  -2  -3  193.28   19.60
  -5   2   3  168.58   16.60
  -5   2   3  171.68   13.10
  -5   2   3  184.08   14.20
  -5   2   3  190.38   17.60
  -5   2   3  193.08   18.00
   4  -2  -3  942.91   48.20
   4  -2  -3  908.11   53.09
   4  -2  -3  919.31   55.99
   4  -2  -3  929.81   54.19
  -4   2   3  970.70   48.60
  -4   2   3  952.50   53.49
  -4   2   3  967.00   49.90
  -4   2   3  975.10   52.99
   3  -2  -3 1159.18   62.99
   3  -2  -3 1161.78   60.59
   3  -2  -3 1130.59   61.09
   3  -2  -3 1151.28   55.19
  -3   2   3 1097.49   57.29
  -3   2   3 1076.49   55.79
  -3   2   3 1108.39   60.49
  -3   2   3 1069.59   59.39
   2  -2  -3   59.69    6.40
   2  -2  -3   53.29    9.00
   2  -2  -3   53.69   10.20
  -2   2   3   91.99    5.70
  -2   2   3   91.59    6.10
  -2   2   3   95.79   10.60
  -2   2   3   83.19    9.70
  -2   2   3   95.69    8.10
   1  -2  -3  867.31   43.60
   1  -2  -3  837.82   39.60
   1  -2  -3  830.42   43.70
   1  -2  -3  884.41   44.30
   1  -2  -3  828.82   39.00
   1  -2  -3  818.42   40.00
   1  -2  -3  832.82   41.10
  -1   2   3  732.53   41.20
  -1   2   3  773.52   43.40
  -1   2   3  738.53   39.90
  -1   2   3  770.42   42.10
  -1   2   3  731.73   38.90
   0  -2  -3  913.51   49.00
   0  -2  -3  900.21   46.90
   0  -2  -3  918.61   48.10
   0  -2  -3  887.41   48.70
   0  -2  -3  910.01   50.09
   0   2   3 1003.10   50.69
   0   2   3  988.00   47.90
   0   2   3 1005.60   47.90
   0   2   3 1007.20   48.70
   0   2   3 1025.50   48.80
  -1  -2  -3 1685.03   85.99
  -1  -2  -3 1678.63   87.59
  -1  -2  -3 1748.72   86.49
  -1  -2  -3 1632.64   84.29
   1   2   3 1793.12   86.09
   1   2   3 1748.53   84.39
   1   2   3 1818.62   87.99
   1   2   3 1794.42   84.69
   1   2   3 1750.82   86.09
   1   2   3 1774.32   85.09
   1   2   3 1689.73   86.29
  -2  -2  -3  484.45   27.90
  -2  -2  -3  447.06   27.70
  -2  -2  -3  518.95   25.30
  -2  -2  -3  484.85   28.70
  -2  -2  -3  487.15   25.10
   2   2   3  504.15   27.30
   2   2   3  482.05   28.90
   2   2   3  500.85   25.40
   2   2   3  497.45   25.00
  -3  -2  -3 1343.87   68.49
  -3  -2  -3 1402.36   68.09
  -3  -2  -3 1350.26   68.39
  -3  -2  -3 1341.57   64.49
  -3  -2  -3 1340.67   64.49
  -3  -2  -3 1321.77   64.29
   3   2   3 1221.28   68.29
   3   2   3 1267.67   64.49
   3   2   3 1288.97   66.69
   3   2   3 1218.18   67.99
  -4  -2  -3  539.05   28.60
  -4  -2  -3  496.85   32.30
  -4  -2  -3  557.44   32.20
  -4  -2  -3  527.35   32.20
   4   2   3  529.65   32.60
   4   2   3  578.64   33.60
  -5  -2  -3  658.43   34.40
  -5  -2  -3  624.54   37.40
  -5  -2  -3  671.23   38.90
  -5  -2  -3  656.33   37.70
   5   2   3  573.24   37.90
   5   2   3  600.74   38.70
  -6  -2  -3   60.79   12.70
  -6  -2  -3   73.59    9.40
  -6  -2  -3   79.69   12.20
  -6  -2  -3   96.09    9.00
   6   2   3  125.39   15.50
   6   2   3  119.59   15.80
  -7  -2  -3  130.59   12.60
  -7  -2  -3  130.69   18.00
  -7  -2  -3  115.79   16.00
   7   2   3  114.89   17.10
   7   2   3  128.89   17.50
  -8  -2  -3   57.19   12.30
  -8  -2  -3   42.80   12.00
   8   2   3   37.10   12.60
   8   2   3   36.10   12.50
  -9  -2  -3   -1.00    9.90
  -9  -2  -3   22.60   10.80
   9   2   3    7.50   10.60
 -10  -2  -3   55.69   16.70
 -10  -2  -3   72.09   18.10
 -10  -2  -3   39.60   13.00
  10   2   3   90.29   18.60
   9  -3  -3   78.39   20.70
  -9   3   3   45.50   14.30
  -9   3   3   62.59   15.40
  -9   3   3   75.39   18.10
   8  -3  -3  101.69   22.70
  -8   3   3  127.49   20.00
  -8   3   3  114.39   19.80
   7  -3  -3  455.25   39.70
  -7   3   3  484.45   35.60
  -7   3   3  554.74   37.80
  -7   3   3  464.05   30.40
  -7   3   3  487.15   35.00
   6  -3  -3  317.87   28.30
  -6   3   3  277.17   24.00
  -6   3   3  268.87   23.90
  -6   3   3  269.67   24.80
  -6   3   3  282.37   19.70
   5  -3  -3  226.78   16.10
   5  -3  -3  202.38   21.50
  -5   3   3  259.37   20.80
  -5   3   3  238.98   19.90
  -5   3   3  221.48   21.00
  -5   3   3  246.08   15.10
  -5   3   3  249.28   17.00
   4  -3  -3  227.18   14.40
   4  -3  -3  211.68   18.00
   4  -3  -3  216.48   19.70
  -4   3   3  226.58   13.20
  -4   3   3  200.58   17.60
  -4   3   3  208.98   15.10
  -4   3   3  221.38   18.20
  -4   3   3  230.98   18.80
   3  -3  -3  395.26   26.20
   3  -3  -3  405.86   27.80
   3  -3  -3  412.26   22.20
  -3   3   3  399.06   26.30
  -3   3   3  408.56   23.50
  -3   3   3  397.86   26.20
  -3   3   3  392.46   26.50
  -3   3   3  410.06   21.00
   2  -3  -3  147.49   12.70
   2  -3  -3  146.49   12.90
  -2   3   3  106.89    6.60
  -2   3   3  105.39   11.80
  -2   3   3  110.19    9.40
  -2   3   3  120.59   12.70
  -2   3   3  119.39   11.40
   1  -3  -3  536.15   25.00
   1  -3  -3  513.45   27.60
   1  -3  -3  542.25   30.00
   1  -3  -3  552.74   29.90
   1  -3  -3  527.25   26.00
  -1   3   3  474.85   29.70
  -1   3   3  455.85   27.20
  -1   3   3  456.45   25.00
  -1   3   3  442.66   28.30
   0  -3  -3 3996.80  194.68
   0  -3  -3 4084.89  198.48
   0  -3  -3 4080.89  196.38
   0  -3  -3 4134.69  194.68
   0  -3  -3 4053.59  195.98
   0   3   3 3966.70  198.38
   0   3   3 4003.80  195.98
   0   3   3 3943.51  196.48
  -1  -3  -3  203.48   13.40
  -1  -3  -3  198.18   15.60
  -1  -3  -3  191.28   12.90
  -1  -3  -3  198.68   13.80
   1   3   3  220.68   13.70
   1   3   3  202.18   16.10
  -2  -3  -3  125.29   10.50
  -2  -3  -3  140.69   11.30
  -2  -3  -3  132.69   11.50
  -2  -3  -3  129.99   12.70
   2   3   3  151.58   11.40
   2   3   3  136.09   10.20
   2   3   3  149.09   13.40
   2   3   3  135.49   11.80
  -3  -3  -3  156.18   14.50
  -3  -3  -3  141.09   14.00
  -3  -3  -3  146.39   13.50
  -3  -3  -3  156.18   15.50
   3   3   3  223.98   11.20
   3   3   3  217.88   12.90
   3   3   3  221.98   14.90
   3   3   3  204.18   16.60
   3   3   3  212.38   15.20
  -4  -3  -3  118.79   11.80
  -4  -3  -3  117.49   12.90
  -4  -3  -3  124.59   14.20
  -4  -3  -3  133.89   14.10
  -4  -3  -3  130.19    7.80
   4   3   3  116.29    9.40
   4   3   3  121.79   14.90
   4   3   3  133.59   14.60
  -5  -3  -3 1197.38   63.89
  -5  -3  -3 1247.78   60.19
  -5  -3  -3 1260.27   65.79
  -5  -3  -3 1245.28   66.39
   5   3   3 1116.59   66.69
   5   3   3 1167.08   65.49
   5   3   3 1174.18   61.99
  -6  -3  -3   48.70    9.60
  -6  -3  -3   71.89   12.50
  -6  -3  -3   65.19    7.40
   6   3   3   24.60    9.80
   6   3   3   56.29    9.20
   6   3   3   52.09   11.60
  -7  -3  -3  444.66   33.20
  -7  -3  -3  409.96   29.90
  -7  -3  -3  489.65   32.80
  -7  -3  -3  447.76   26.60
   7   3   3  454.05   33.60
   7   3   3  456.75   32.30
  -8  -3  -3   39.70   11.80
  -8  -3  -3   40.40   12.00
  -8  -3  -3   50.19   10.90
   8   3   3   40.50   13.30
   8   3   3   36.70   12.90
  -9  -3  -3   97.49   19.10
  -9  -3  -3   92.69   15.30
  -9  -3  -3   90.39   16.50
   9   3   3   75.19   16.90
   9   3   3   83.19   18.70
 -10  -3  -3   63.49   15.60
 -10  -3  -3   63.59   14.80
 -10  -3  -3   59.59   16.40
  10   3   3   47.60   15.60
   9  -4  -3  145.39   28.60
  -9   4   3   85.99   19.10
  -9   4   3   64.29   18.30
   8  -4  -3   24.40   16.00
  -8   4   3   27.70   12.70
  -8   4   3   37.80   13.70
  -8   4   3   15.00   13.50
   7  -4  -3  236.08   30.40
  -7   4   3  271.87   25.60
  -7   4   3  273.57   27.50
   6  -4  -3  149.79   22.40
  -6   4   3  167.98   21.40
  -6   4   3  160.28   19.60
  -6   4   3  147.39   20.00
  -6   4   3  139.59   17.70
   5  -4  -3  190.28   15.70
   5  -4  -3  196.08   21.70
  -5   4   3  221.58   19.40
  -5   4   3  222.38   15.70
  -5   4   3  250.87   21.10
  -5   4   3  221.08   21.60
   4  -4  -3   98.59   15.70
   4  -4  -3  126.49   11.60
   4  -4  -3  117.79   14.60
  -4   4   3  166.48   18.00
  -4   4   3  172.98   18.00
  -4   4   3  166.68    9.00
  -4   4   3  173.28   16.30
  -4   4   3  195.38   12.80
   3  -4  -3  166.88   15.90
   3  -4  -3  147.89   13.60
  -3   4   3  107.09   10.00
  -3   4   3  116.79   14.10
  -3   4   3  117.39   12.90
  -3   4   3   83.19   12.60
   2  -4  -3 1357.06   72.49
   2  -4  -3 1313.57   71.29
   2  -4  -3 1352.16   68.19
  -2   4   3 1331.97   70.99
  -2   4   3 1363.86   71.59
  -2   4   3 1368.56   71.79
  -2   4   3 1371.36   68.39
   1  -4  -3 1177.48   61.99
   1  -4  -3 1155.98   61.79
   1  -4  -3 1154.38   59.79
   1  -4  -3 1209.68   58.49
  -1   4   3 1169.38   60.99
  -1   4   3 1102.79   60.69
  -1   4   3 1127.69   58.79
  -1   4   3 1136.39   62.09
   0  -4  -3 1721.43   88.79
   0  -4  -3 1726.13   85.29
   0  -4  -3 1717.23   86.29
   0  -4  -3 1719.63   87.89
   0   4   3 1744.03   87.09
   0   4   3 1727.23   85.99
   0   4   3 1682.13   86.19
   0   4   3 1701.23   88.79
  -1  -4  -3  449.66   25.50
  -1  -4  -3  462.05   26.30
  -1  -4  -3  449.86   25.60
  -1  -4  -3  464.35   28.90
   1   4   3  455.75   26.40
   1   4   3  457.75   25.00
   1   4   3  483.35   29.20
   1   4   3  433.26   26.10
  -2  -4  -3   10.60    6.40
  -2  -4  -3    6.50    3.70
  -2  -4  -3    8.30    4.20
  -2  -4  -3    1.20    3.90
   2   4   3    5.60    5.80
   2   4   3    1.00    4.20
   2   4   3    0.20    4.20
   2   4   3    2.50    2.10
  -3  -4  -3  270.57   22.00
  -3  -4  -3  293.37   19.70
  -3  -4  -3  303.77   18.20
  -3  -4  -3  270.77   19.80
   3   4   3  305.97   22.70
   3   4   3  300.27   17.10
   3   4   3  295.77   18.70
  -4  -4  -3  430.56   28.90
  -4  -4  -3  402.76   24.00
  -4  -4  -3  429.26   26.20
  -4  -4  -3  410.36   26.80
   4   4   3  380.16   22.70
   4   4   3  365.46   28.20
   4   4   3  393.26   26.20
  -5  -4  -3  641.24   39.80
  -5  -4  -3  675.33   37.00
  -5  -4  -3  638.44   32.50
  -5  -4  -3  655.43   32.30
  -5  -4  -3  657.63   39.30
   5   4   3  613.44   41.10
   5   4   3  638.44   35.60
   5   4   3  637.64   39.20
  -6  -4  -3  351.06   19.70
  -6  -4  -3  340.87   25.70
  -6  -4  -3  342.07   23.80
  -6  -4  -3  355.26   27.20
   6   4   3  367.16   26.20
   6   4   3  346.97   28.80
   6   4   3  349.87   23.00
  -7  -4  -3   51.89   12.60
  -7  -4  -3   50.69   12.40
  -7  -4  -3   55.39   10.10
   7   4   3   56.09   13.40
   7   4   3   59.09   10.40
   7   4   3   53.89   13.40
  -8  -4  -3  246.38   25.70
  -8  -4  -3  225.68   25.90
  -8  -4  -3  263.57   21.20
   8   4   3  239.38   25.70
   8   4   3  215.18   24.30
  -9  -4  -3    6.70    7.70
  -9  -4  -3    1.20    9.10
  -9  -4  -3   -4.80    8.20
   9   4   3   -1.20   11.30
   9   4   3    4.30   11.40
 -10  -4  -3    7.10   12.50
 -10  -4  -3    1.10   10.60
  10   4   3    4.30   12.00
  10   4   3   -5.00   12.40
 -11  -4  -3   19.00   13.50
 -11  -4  -3    0.80   10.90
   8  -5  -3    1.60   16.10
  -8   5   3   11.40   11.40
  -8   5   3   27.50   12.70
  -8   5   3    9.70   11.80
   7  -5  -3   17.20   14.40
  -7   5   3   -0.80   11.00
  -7   5   3   12.10   10.70
   6  -5  -3  501.85   40.70
  -6   5   3  498.85   37.50
  -6   5   3  503.55   36.10
   5  -5  -3   62.29   14.40
   5  -5  -3   62.39   10.00
  -5   5   3   46.10   10.80
  -5   5   3   54.49   12.40
  -5   5   3   51.19   12.30
   4  -5  -3  225.58   24.30
   4  -5  -3  293.67   22.90
   4  -5  -3  280.47   20.10
  -4   5   3  300.77   23.70
  -4   5   3  319.37   23.70
  -4   5   3  340.57   19.60
  -4   5   3  314.57   25.20
   3  -5  -3   88.69   14.60
   3  -5  -3  102.19   13.50
  -3   5   3  149.19   16.80
  -3   5   3  144.99   11.20
  -3   5   3  164.78   15.50
  -3   5   3  149.49   16.30
   2  -5  -3  195.08   16.70
   2  -5  -3  175.88   14.10
   2  -5  -3  194.78   17.60
  -2   5   3  204.98   17.20
  -2   5   3  185.98   16.90
  -2   5   3  201.08   13.90
  -2   5   3  179.68   17.50
   1  -5  -3  311.97   19.90
   1  -5  -3  343.37   19.10
   1  -5  -3  321.97   22.00
   1  -5  -3  343.27   22.30
  -1   5   3  243.08   17.80
  -1   5   3  273.37   20.70
  -1   5   3  258.37   20.10
  -1   5   3  251.57   21.10
   0  -5  -3   21.40    5.80
   0  -5  -3   19.70    7.10
   0  -5  -3   25.40    3.90
   0  -5  -3   20.80    5.20
   0  -5  -3   25.80    6.40
   0   5   3   47.90    7.60
   0   5   3   42.50    7.90
   0   5   3   49.80    9.60
   0   5   3   41.10    6.70
  -1  -5  -3 2077.29  110.89
  -1  -5  -3 2079.09  114.39
  -1  -5  -3 2123.39  112.19
  -1  -5  -3 2110.09  111.39
   1   5   3 2375.66  111.89
   1   5   3 2316.27  110.69
   1   5   3 2352.36  112.69
   1   5   3 2438.96  116.09
  -2  -5  -3  805.12   40.90
  -2  -5  -3  811.82   46.50
  -2  -5  -3  814.42   42.80
  -2  -5  -3  843.92   43.00
   2   5   3  699.93   42.50
   2   5   3  740.63   43.00
   2   5   3  755.02   40.10
  -3  -5  -3  735.43   38.80
  -3  -5  -3  732.33   36.90
  -3  -5  -3  751.02   41.90
  -3  -5  -3  761.62   41.30
  -3  -5  -3  794.62   49.70
   3   5   3  722.03   36.90
   3   5   3  723.13   40.90
   3   5   3  735.83   45.00
  -4  -5  -3  211.48   15.80
  -4  -5  -3  176.18   15.70
  -4  -5  -3  193.98   13.00
   4   5   3  178.18   19.00
   4   5   3  154.88   14.40
   4   5   3  150.48   12.90
  -5  -5  -3  144.19   16.10
  -5  -5  -3  130.79   15.50
  -5  -5  -3  146.99   12.40
   5   5   3  155.68   20.10
   5   5   3  145.59   12.90
  -6  -5  -3  467.35   27.90
  -6  -5  -3  449.66   30.60
  -6  -5  -3  417.36   31.00
   6   5   3  441.06   27.90
   6   5   3  442.66   34.90
  -7  -5  -3  120.29   13.70
  -7  -5  -3  102.69   16.00
  -7  -5  -3  115.79   16.80
   7   5   3   95.29   18.30
  -8  -5  -3  140.69   20.60
  -8  -5  -3  189.28   21.40
  -8  -5  -3  181.48   19.80
   8   5   3  194.28   24.80
  -9  -5  -3   18.00   11.50
  -9  -5  -3   14.30    9.50
   9   5   3   13.20   12.50
 -10  -5  -3    8.90   11.40
 -10  -5  -3   -3.90   11.50
  10   5   3    8.20   14.90
 -11  -5  -3   10.70   12.90
  11   5   3   29.10   17.70
   8  -6  -3   -8.20   16.10
  -8   6   3    2.40   12.60
  -8   6   3   27.40   14.60
  -8   6   3   28.00   15.60
   7  -6  -3   53.99   19.30
  -7   6   3   42.10   14.20
  -7   6   3   36.00   15.00
  -7   6   3   49.10   17.10
   6  -6  -3  336.07   33.80
  -6   6   3  275.47   26.70
  -6   6   3  306.17   30.50
   5  -6  -3   76.19   11.80
   5  -6  -3   69.79   16.70
  -5   6   3   87.89   15.70
  -5   6   3  118.09   18.60
   4  -6  -3   94.79   16.30
  -4   6   3  105.69   17.00
  -4   6   3   99.39   14.90
  -4   6   3   95.79   14.00
   3  -6  -3  263.37   20.40
   3  -6  -3  256.17   21.30
   3  -6  -3  288.97   24.80
  -3   6   3  268.97   22.90
  -3   6   3  284.97   24.50
  -3   6   3  280.57   22.60
  -3   6   3  267.17   17.80
   2  -6  -3   92.59   12.90
   2  -6  -3  116.69   16.20
   2  -6  -3  111.89   12.20
  -2   6   3  116.99   10.50
  -2   6   3  112.09   14.60
  -2   6   3  127.29   16.10
  -2   6   3  109.49   14.40
   1  -6  -3  200.38   15.20
   1  -6  -3  207.48   17.60
   1  -6  -3  190.28   15.50
   1  -6  -3  190.88   17.20
  -1   6   3  170.88   18.00
  -1   6   3  166.08   17.50
  -1   6   3  161.48   16.40
  -1   6   3  144.79   13.00
   0  -6  -3 1182.78   63.19
   0  -6  -3 1194.68   65.19
   0  -6  -3 1213.78   60.19
   0  -6  -3 1226.38   66.89
   0  -6  -3 1199.68   63.89
   0   6   3 1168.78   64.19
   0   6   3 1186.28   62.89
   0   6   3 1232.88   65.19
   0   6   3 1273.57   67.79
  -1  -6  -3  214.08   15.80
  -1  -6  -3  226.18   17.00
  -1  -6  -3  201.18   19.30
  -1  -6  -3  216.28   16.50
  -1  -6  -3  214.18   14.10
   1   6   3  203.08   16.80
   1   6   3  209.58   19.00
   1   6   3  192.08   15.30
   1   6   3  194.58   15.90
  -2  -6  -3  257.77   18.30
  -2  -6  -3  249.68   17.80
   2   6   3  231.88   18.50
   2   6   3  238.48   16.20
  -3  -6  -3   18.20    6.80
  -3  -6  -3   17.30    6.40
   3   6   3   19.10    7.00
   3   6   3   22.60    4.40
   3   6   3   24.20    8.80
  -4  -6  -3   41.30    8.40
  -4  -6  -3   55.29    6.40
  -4  -6  -3   48.90   10.00
   4   6   3   17.40    7.70
   4   6   3   32.30   11.20
   4   6   3   31.90    7.70
  -5  -6  -3  293.37   18.90
  -5  -6  -3  313.77   24.50
  -5  -6  -3  324.07   23.20
   5   6   3  310.27   21.80
   5   6   3  331.27   28.20
  -6  -6  -3   26.30    9.60
  -6  -6  -3   28.30    6.30
  -6  -6  -3   28.80    9.90
   6   6   3   33.90   12.90
   6   6   3   20.60    8.00
  -7  -6  -3  707.23   42.90
  -7  -6  -3  695.53   44.60
   7   6   3  580.44   46.40
  -8  -6  -3  164.58   20.20
  -8  -6  -3  145.39   20.90
   8   6   3  115.79   22.50
  -9  -6  -3  149.49   22.20
  -9  -6  -3  137.79   19.80
   9   6   3  148.59   24.60
 -10  -6  -3   -2.20   12.10
 -10  -6  -3   21.30   13.20
  10   6   3    9.90   15.60
   7  -7  -3   13.00   17.50
  -7   7   3   24.10   13.90
  -7   7   3   -4.90   10.90
  -7   7   3    8.70   13.20
   6  -7  -3   11.20   13.00
  -6   7   3   22.00   13.80
  -6   7   3   14.00   11.40
   5  -7  -3  255.57   30.70
   5  -7  -3  227.28   28.00
  -5   7   3  248.08   24.10
  -5   7   3  235.08   27.30
   4  -7  -3   27.20   11.70
  -4   7   3   10.40   10.80
  -4   7   3   -3.20    9.10
   3  -7  -3  348.67   24.60
   3  -7  -3  358.86   28.90
  -3   7   3  331.57   26.00
  -3   7   3  318.27   28.10
  -3   7   3  282.97   26.40
   2  -7  -3   74.89   11.40
   2  -7  -3   78.79   14.00
  -2   7   3   81.69   14.30
  -2   7   3   82.19    9.90
  -2   7   3   83.39   14.10
  -2   7   3   76.99   13.10
   1  -7  -3  154.08   14.60
   1  -7  -3  172.18   15.50
   1  -7  -3  142.29   16.40
  -1   7   3  158.88   17.40
  -1   7   3  155.88   17.50
  -1   7   3  141.19   12.90
  -1   7   3  164.18   18.30
   0  -7  -3  959.50   47.50
   0  -7  -3  939.41   52.79
   0  -7  -3  924.61   51.89
   0  -7  -3  934.31   51.39
   0   7   3  879.61   50.09
   0   7   3  922.31   53.49
   0   7   3  956.40   55.49
   0   7   3  914.71   52.49
  -1  -7  -3   71.79    8.40
  -1  -7  -3   62.99   10.10
  -1  -7  -3   72.29   10.80
  -1  -7  -3   72.19   10.60
   1   7   3   53.89   10.90
   1   7   3   80.59   10.70
  -2  -7  -3  226.48   18.30
  -2  -7  -3  230.18   18.60
  -2  -7  -3  266.87   19.00
  -2  -7  -3  238.68   17.20
   2   7   3  250.27   20.30
   2   7   3  269.27   17.90
   2   7   3  217.68   22.90
  -3  -7  -3  339.67   23.00
  -3  -7  -3  353.06   24.90
  -3  -7  -3  346.77   23.70
   3   7   3  314.37   28.40
   3   7   3  355.26   21.20
   3   7   3  345.17   25.10
  -4  -7  -3   47.10   10.70
  -4  -7  -3   38.30    8.80
   4   7   3   68.99    7.20
   4   7   3   69.99   15.40
   4   7   3   76.99   11.90
   4   7   3   73.49   12.20
  -5  -7  -3   21.00    8.70
  -5  -7  -3   15.70    7.10
   5   7   3   21.20    8.40
   5   7   3   23.50   12.20
   5   7   3   24.80    9.20
  -6  -7  -3  158.28   20.90
  -6  -7  -3  163.48   19.50
   6   7   3  250.87   19.60
   6   7   3  264.57   27.60
  -7  -7  -3  355.46   28.00
  -7  -7  -3  377.16   30.10
   7   7   3  360.66   34.90
  -8  -7  -3   18.70   11.50
  -8  -7  -3    0.50    8.60
   8   7   3   10.70   14.10
  -9  -7  -3  101.29   17.90
  -9  -7  -3   84.89   18.30
  -9  -7  -3  102.59   20.10
   9   7   3  106.09   22.40
 -10  -7  -3   17.70   14.50
 -10  -7  -3   27.50   14.50
 -10  -7  -3   22.10   12.60
  10   7   3    7.10   16.20
   6  -8  -3  112.09   25.20
  -6   8   3  132.89   23.00
  -6   8   3   99.89   20.00
  -6   8   3   91.49   20.40
   5  -8  -3  192.38   28.30
  -5   8   3  214.68   27.70
  -5   8   3  189.08   24.90
   4  -8  -3  106.49   20.90
  -4   8   3  124.09   19.40
  -4   8   3  120.19   20.50
   3  -8  -3  109.79   15.50
   3  -8  -3  110.69   19.40
  -3   8   3  169.78   21.20
  -3   8   3  125.19   20.00
   2  -8  -3   64.59   13.70
   2  -8  -3   78.89   12.90
  -2   8   3  113.19   16.80
  -2   8   3  107.59   16.20
  -2   8   3  128.29   18.70
   1  -8  -3   83.09   14.50
   1  -8  -3   87.89   13.40
  -1   8   3  109.69   16.50
  -1   8   3  101.99   15.60
  -1   8   3  119.39   16.50
   0  -8  -3   58.89   10.90
   0  -8  -3   41.20   10.10
   0  -8  -3   49.60   10.90
   0   8   3   43.00   11.00
   0   8   3   48.90   10.80
  -1  -8  -3  657.73   35.00
  -1  -8  -3  614.24   37.80
  -1  -8  -3  625.34   38.30
  -1  -8  -3  637.64   38.50
   1   8   3  580.84   39.70
   1   8   3  637.24   38.50
  -2  -8  -3   48.60    9.60
  -2  -8  -3   38.70    8.80
  -2  -8  -3   44.10    8.20
  -2  -8  -3   34.70    9.60
   2   8   3   33.20   11.40
   2   8   3   44.30    8.50
   2   8   3   27.10    9.90
  -3  -8  -3 1124.79   59.19
  -3  -8  -3 1131.29   60.19
  -3  -8  -3 1082.19   58.99
  -3  -8  -3 1029.20   60.79
   3   8   3 1162.48   67.29
   3   8   3 1059.99   57.59
   3   8   3 1000.60   61.19
  -4  -8  -3   97.39   13.50
  -4  -8  -3  103.79   14.90
  -4  -8  -3  107.49   13.70
   4   8   3   93.69   14.90
   4   8   3   79.49   16.50
   4   8   3  100.69   11.30
  -5  -8  -3   12.50    8.40
  -5  -8  -3   24.10    8.50
  -5  -8  -3   13.10    8.90
   5   8   3   22.90    9.10
   5   8   3   24.10   12.10
   5   8   3   28.00    9.50
  -6  -8  -3  142.29   17.80
  -6  -8  -3  167.98   20.50
  -6  -8  -3  154.68   19.90
   6   8   3  172.18   24.60
   6   8   3  172.78   17.70
  -7  -8  -3   14.40    8.70
  -7  -8  -3    1.10    8.30
  -7  -8  -3    7.50   10.90
   7   8   3   18.30   14.60
  -8  -8  -3  225.18   25.10
  -8  -8  -3  280.97   29.80
  -8  -8  -3  268.17   26.90
   8   8   3  235.58   32.90
  -9  -8  -3  -17.10    7.90
  -9  -8  -3    5.60   11.50
  -9  -8  -3   -1.00    9.90
   9   8   3   -1.40   13.30
 -10  -8  -3   38.20   17.40
 -10  -8  -3   56.39   15.30
 -10  -8  -3   54.99   17.70
  10   8   3   69.69   23.30
   5  -9  -3   80.79   21.80
  -5   9   3   35.30   16.30
  -5   9   3   64.89   17.40
  -5   9   3   48.20   18.40
   4  -9  -3   68.19   17.90
  -4   9   3   36.00   14.90
  -4   9   3   41.80   16.90
   3  -9  -3  200.48   22.40
   3  -9  -3  188.68   25.30
  -3   9   3  207.08   26.50
  -3   9   3  170.28   22.50
   2  -9  -3   62.79   13.10
   2  -9  -3   46.30   13.00
  -2   9   3   46.40   14.80
  -2   9   3   61.49   14.90
   1  -9  -3   33.90   10.70
   1  -9  -3   24.60   10.40
  -1   9   3   32.20   11.90
  -1   9   3   19.10   10.50
   0  -9  -3  239.28   22.30
   0  -9  -3  214.88   20.40
   0  -9  -3  219.38   20.60
   0   9   3  259.47   23.30
   0   9   3  285.07   24.30
  -1  -9  -3  366.86   27.90
  -1  -9  -3  419.06   29.50
  -1  -9  -3  408.96   28.80
   1   9   3  380.16   29.30
   1   9   3  460.75   32.00
   1   9   3  421.46   35.00
  -2  -9  -3  250.87   18.60
  -2  -9  -3  260.27   21.40
  -2  -9  -3  232.38   22.00
  -2  -9  -3  242.48   19.40
   2   9   3  251.07   26.80
   2   9   3  242.48   20.10
   2   9   3  218.48   22.30
  -3  -9  -3  326.97   24.30
  -3  -9  -3  307.67   22.60
  -3  -9  -3  302.17   25.00
  -3  -9  -3  292.67   22.90
   3   9   3  341.57   31.40
   3   9   3  292.97   26.80
   3   9   3  308.87   22.20
  -4  -9  -3  157.08   17.90
  -4  -9  -3  142.29   16.90
  -4  -9  -3  163.78   19.90
   4   9   3  174.48   25.40
   4   9   3  204.38   22.60
  -5  -9  -3   23.70    9.60
  -5  -9  -3   49.10   13.00
  -5  -9  -3   44.20   11.90
   5   9   3   54.99   13.90
   5   9   3   68.49   13.70
   5   9   3   68.19   17.80
  -6  -9  -3    5.80    9.70
  -6  -9  -3   -0.90    7.10
  -6  -9  -3    9.00    9.20
   6   9   3   22.60   14.30
  -7  -9  -3  195.28   21.40
  -7  -9  -3  187.88   23.50
  -7  -9  -3  170.08   22.60
   7   9   3  190.88   30.70
  -8  -9  -3   83.29   15.30
  -8  -9  -3   69.09   17.00
  -8  -9  -3   66.49   16.30
   8   9   3   71.79   22.10
  -9  -9  -3   58.69   14.60
  -9  -9  -3   60.09   16.80
  -9  -9  -3   69.59   19.30
   9   9   3   75.89   23.90
   4 -10  -3   13.00   14.20
  -4  10   3   26.60   14.40
  -4  10   3   67.59   18.80
  -4  10   3   34.80   15.10
   3 -10  -3  148.99   20.40
   3 -10  -3  138.19   22.80
  -3  10   3  144.39   23.30
  -3  10   3  140.79   21.30
  -3  10   3  147.09   24.60
   2 -10  -3   34.90   12.20
   2 -10  -3   47.00   14.10
  -2  10   3   23.80   13.30
  -2  10   3   21.60   12.50
   1 -10  -3   43.30   12.80
   1 -10  -3   45.30   12.70
  -1  10   3   52.69   14.50
  -1  10   3   64.09   15.80
   0 -10  -3  145.49   19.70
   0 -10  -3  156.88   20.30
   0  10   3  195.98   23.00
   0  10   3  187.98   23.60
   0  10   3  230.48   27.90
  -1 -10  -3   13.00    9.40
  -1 -10  -3    4.60    8.60
   1  10   3   23.00   10.30
   1  10   3   32.10   13.90
   1  10   3   29.00   12.00
  -2 -10  -3  246.48   21.30
  -2 -10  -3  224.88   22.30
   2  10   3  185.48   20.80
   2  10   3  222.28   26.00
   2  10   3  196.88   27.90
  -3 -10  -3   21.40   10.50
  -3 -10  -3   21.80    9.20
  -3 -10  -3   30.10    9.10
   3  10   3   29.80   13.60
   3  10   3   50.19   14.20
  -4 -10  -3  261.47   24.60
  -4 -10  -3  262.47   22.10
  -4 -10  -3  248.38   22.10
   4  10   3  264.77   33.90
   4  10   3  256.67   25.10
  -5 -10  -3   59.99   12.40
  -5 -10  -3   53.09   12.80
  -5 -10  -3   72.59   15.60
   5  10   3   26.00   14.60
   5  10   3   50.79   14.60
   5  10   3   57.29   13.90
  -6 -10  -3   79.59   16.10
  -6 -10  -3   59.29   13.00
  -6 -10  -3   63.09   14.30
   6  10   3  100.19   23.60
  -7 -10  -3   95.79   18.30
  -7 -10  -3  102.69   16.40
  -7 -10  -3   90.29   17.80
   7  10   3   96.09   23.70
  -8 -10  -3   62.59   17.60
  -8 -10  -3   70.89   17.50
  -8 -10  -3   66.09   14.90
   8  10   3  103.99   25.10
  -9 -10  -3   91.59   19.20
  -9 -10  -3   87.29   20.60
   9  10   3   91.29   25.50
   3 -11  -3  108.99   19.60
  -3  11   3   99.99   21.80
  -3  11   3   71.79   18.10
  -3  11   3   88.89   20.20
   2 -11  -3   42.50   14.50
  -2  11   3   37.70   16.40
  -2  11   3   48.00   14.50
  -2  11   3   25.50   15.50
   1 -11  -3   95.89   17.30
  -1  11   3  103.09   19.40
  -1  11   3  103.59   20.30
   0 -11  -3   46.60   13.70
   0  11   3   37.60   14.20
   0  11   3   23.70   14.30
   0  11   3   39.40   14.20
  -1 -11  -3   80.59   15.80
  -1 -11  -3   91.39   17.30
   1  11   3   82.39   16.20
   1  11   3  105.59   18.60
   1  11   3   97.59   20.70
  -2 -11  -3   60.99   13.30
  -2 -11  -3   69.69   14.10
   2  11   3   41.90   13.90
   2  11   3   37.70   12.00
   2  11   3   54.39   17.30
  -3 -11  -3  308.97   28.90
  -3 -11  -3  304.27   26.00
   3  11   3  290.37   29.20
   3  11   3  351.46   35.00
  -4 -11  -3   62.19   13.10
  -4 -11  -3   62.89   15.80
  -4 -11  -3   39.10   12.10
   4  11   3   54.29   19.00
   4  11   3   51.89   15.10
  -5 -11  -3   79.09   18.10
  -5 -11  -3   85.59   15.00
  -5 -11  -3   74.39   15.40
   5  11   3   68.29   21.30
   5  11   3   82.09   17.40
   5  11   3   87.19   18.80
  -6 -11  -3   48.30   15.00
  -6 -11  -3   43.00   13.90
  -6 -11  -3   38.40   12.20
   6  11   3   68.89   22.20
  -7 -11  -3   38.90   13.00
  -7 -11  -3   38.30   14.20
  -7 -11  -3   42.10   14.80
   7  11   3   40.10   18.60
  -8 -11  -3   38.80   16.50
  -8 -11  -3   30.50   14.60
   8  11   3   38.50   20.20
   1 -12  -3   33.40   14.60
  -1  12   3   45.20   17.40
  -1  12   3   26.00   15.70
   0 -12  -3   96.79   19.30
   0  12   3   96.09   19.40
   0  12   3   97.19   20.50
  -1 -12  -3   37.80   15.10
   1  12   3   52.79   14.90
   1  12   3   33.20   14.40
   1  12   3   30.30   16.60
  -2 -12  -3  107.49   17.00
  -2 -12  -3   83.79   17.40
   2  12   3  108.89   24.00
   2  12   3   60.09   16.90
  -3 -12  -3  233.18   25.70
  -3 -12  -3  301.57   29.00
   3  12   3  238.38   29.50
   3  12   3  255.87   34.70
  -4 -12  -3    3.80    9.30
  -4 -12  -3   10.70   11.00
   4  12   3   11.10   12.50
   4  12   3    0.40   15.60
  -5 -12  -3   51.89   13.40
  -5 -12  -3   65.89   17.80
   5  12   3   55.89   20.80
   5  12   3   77.69   19.80
  -6 -12  -3   56.49   14.10
  -6 -12  -3   47.40   14.60
  -6 -12  -3   44.30   16.80
   6  12   3   74.79   23.10
  -7 -12  -3   71.49   20.00
  -7 -12  -3   66.09   16.90
   7  12   3   71.79   25.10
   6   9  -4   60.49   19.60
   6   9  -4   67.69   20.50
  -6  -9   4   62.89   17.00
  -6  -9   4   40.30   13.30
  -6  -9   4   43.30   13.90
   5   9  -4   42.80   19.30
   5   9  -4   38.60   14.20
   5   9  -4   36.50   16.30
  -5  -9   4   26.10   12.90
  -5  -9   4   20.00   12.80
  -5  -9   4   28.30   12.20
   4   9  -4   10.70   12.10
   4   9  -4    9.80   13.70
  -4  -9   4    9.00   11.80
  -4  -9   4   13.60   10.80
   3   9  -4  112.69   20.80
   3   9  -4  109.49   26.10
  -3  -9   4  103.89   19.40
  -3  -9   4  133.09   20.60
   2   9  -4   17.90   16.20
   2   9  -4   13.30   13.10
  -2  -9   4   32.10   13.00
  -2  -9   4   21.30   11.60
   1   9  -4  174.38   25.60
  -1  -9   4  109.79   19.60
  -1  -9   4  108.39   17.90
   0   9  -4   27.40   13.50
   0  -9   4    0.90   11.50
  -1   9  -4    6.40   12.10
   1  -9   4   31.90   14.50
   7   8  -4    7.10   14.10
   7   8  -4   33.40   18.10
  -7  -8   4   30.60   13.90
  -7  -8   4   13.50   12.90
  -7  -8   4   24.80   13.50
   6   8  -4  133.19   26.40
   6   8  -4  117.69   23.30
  -6  -8   4  116.69   20.40
  -6  -8   4  116.29   18.80
  -6  -8   4  117.19   19.30
   5   8  -4   51.69   14.40
   5   8  -4   35.20   16.20
   5   8  -4   50.79   16.50
  -5  -8   4   39.20   12.40
  -5  -8   4   17.50   10.70
  -5  -8   4   30.20   12.30
   4   8  -4  178.48   25.00
   4   8  -4  199.28   29.90
   4   8  -4  197.88   24.80
  -4  -8   4  209.98   21.70
  -4  -8   4  181.18   22.10
  -4  -8   4  211.48   24.70
   3   8  -4   24.00   14.50
   3   8  -4   18.20   10.70
   3   8  -4   11.80   10.80
  -3  -8   4   17.30   14.80
  -3  -8   4   28.30   10.10
  -3  -8   4   14.40   11.20
  -3  -8   4   29.40   10.60
   2   8  -4  157.18   23.40
  -2  -8   4  178.28   21.50
  -2  -8   4  138.19   19.60
   1   8  -4  138.69   21.30
  -1  -8   4  155.88   20.10
  -1  -8   4  122.09   18.90
   0   8  -4   34.30   15.00
   0  -8   4   49.50   12.90
   0  -8   4   53.69   14.40
  -1   8  -4  160.88   21.40
  -1   8  -4  140.39   23.50
   1  -8   4  177.88   24.10
  -2   8  -4   96.89   20.90
   2  -8   4   77.69   18.20
   2  -8   4   50.59   17.50
  -3   8  -4    3.70   12.90
  -3   8  -4   -7.10   13.00
   3  -8   4    4.10   13.60
   8   7  -4   22.00   16.70
   8   7  -4   25.00   16.80
  -8  -7   4   25.30   12.50
  -8  -7   4   31.60   12.20
  -8  -7   4    1.00   11.70
   7   7  -4   23.70   15.00
   7   7  -4   32.40   15.70
  -7  -7   4   46.90   13.60
  -7  -7   4   38.30   12.00
  -7  -7   4   55.99   14.70
   6   7  -4   40.70   15.70
   6   7  -4   32.40   15.20
  -6  -7   4   48.70   13.80
  -6  -7   4   32.20   12.80
  -6  -7   4   15.50   10.50
   5   7  -4  279.27   34.50
   5   7  -4  312.27   27.30
   5   7  -4  287.67   30.10
  -5  -7   4  248.38   24.60
  -5  -7   4  288.37   25.40
  -5  -7   4  272.67   24.80
   4   7  -4  126.19   20.80
   4   7  -4  111.09   18.50
   4   7  -4  122.19   23.30
  -4  -7   4  114.89   17.00
  -4  -7   4  146.09   21.70
  -4  -7   4  140.19   17.00
  -4  -7   4  103.99   16.80
   3   7  -4   33.30   11.30
   3   7  -4   52.59   14.10
   3   7  -4   22.50   14.40
  -3  -7   4   29.60   11.50
  -3  -7   4   28.00    9.10
  -3  -7   4   32.40   10.30
  -3  -7   4   26.80   11.20
   2   7  -4  304.47   26.90
   2   7  -4  314.97   29.70
   2   7  -4  348.07   34.00
  -2  -7   4  353.66   28.80
  -2  -7   4  361.36   27.90
  -2  -7   4  363.26   24.60
  -2  -7   4  344.57   27.40
   1   7  -4    1.50    9.10
  -1  -7   4   13.20    8.70
  -1  -7   4   -6.80    7.40
   0   7  -4  193.28   23.50
   0  -7   4  127.19   17.60
   0  -7   4  151.48   20.60
  -1   7  -4    1.20    9.60
  -1   7  -4   -6.70    7.30
  -1   7  -4   -0.10    8.70
   1  -7   4   -3.30    8.40
   1  -7   4    0.60    9.60
  -2   7  -4  162.08   22.30
  -2   7  -4  156.68   19.60
  -2   7  -4  140.29   22.20
   2  -7   4  205.78   25.10
   2  -7   4  158.28   22.60
  -3   7  -4    6.20   11.30
  -3   7  -4    1.30   11.90
   3  -7   4   13.20   12.10
  -4   7  -4  116.29   22.10
  -4   7  -4  113.19   21.00
   4  -7   4   71.99   18.40
   9   6  -4   21.90   17.30
   9   6  -4   13.50   16.70
  -9  -6   4   30.20   14.00
  -9  -6   4    9.80   12.40
  -9  -6   4   29.30   12.50
   8   6  -4   64.09   20.50
   8   6  -4   41.20   18.90
  -8  -6   4   78.59   15.80
  -8  -6   4   95.39   18.80
  -8  -6   4   64.29   16.70
   7   6  -4   94.69   22.20
   7   6  -4  113.89   23.60
  -7  -6   4   96.19   18.20
  -7  -6   4   96.29   16.80
  -7  -6   4   88.69   15.70
   6   6  -4  194.98   26.90
   6   6  -4  121.79   22.80
  -6  -6   4  161.08   20.80
  -6  -6   4  183.98   22.10
  -6  -6   4  213.28   21.60
   5   6  -4   72.79   17.50
   5   6  -4  104.19   19.00
  -5  -6   4   59.29   15.30
  -5  -6   4   64.79   13.50
  -5  -6   4   84.39   14.30
  -5  -6   4   71.29   13.40
   4   6  -4    5.80    9.30
   4   6  -4    4.90    7.60
   4   6  -4    8.40   11.50
  -4  -6   4   -7.10    6.70
  -4  -6   4    4.00    8.20
  -4  -6   4    0.90    9.10
  -4  -6   4  -11.30    6.40
   3   6  -4  219.58   23.20
   3   6  -4  248.98   24.30
   3   6  -4  258.07   28.40
  -3  -6   4  304.27   26.10
  -3  -6   4  294.07   23.90
  -3  -6   4  317.87   22.30
  -3  -6   4  308.87   23.90
   2   6  -4  232.48   22.00
   2   6  -4  247.68   21.10
   2   6  -4  200.88   26.20
  -2  -6   4  182.78   18.40
  -2  -6   4  193.78   17.10
  -2  -6   4  201.58   20.70
  -2  -6   4  187.08   21.10
   1   6  -4   75.29   11.50
   1   6  -4   84.29   13.10
   1   6  -4   89.09   16.30
  -1  -6   4  153.08   17.70
  -1  -6   4  105.59   15.20
  -1  -6   4   99.49   11.20
  -1  -6   4   97.79   13.90
   0   6  -4  388.96   27.90
   0   6  -4  368.06   30.30
   0  -6   4  375.96   27.50
   0  -6   4  390.46   28.80
  -1   6  -4  278.97   23.30
  -1   6  -4  261.77   25.90
  -1   6  -4  293.67   24.70
   1  -6   4  276.37   24.70
   1  -6   4  327.97   24.20
  -2   6  -4   72.09   13.10
  -2   6  -4   63.19   14.80
  -2   6  -4   63.89   14.50
   2  -6   4   85.49   13.30
   2  -6   4   91.89   15.70
   2  -6   4  101.39   17.60
  -3   6  -4   42.40   14.40
  -3   6  -4   13.60   12.30
   3  -6   4   40.90   10.70
   3  -6   4   45.90   14.50
  -4   6  -4   68.59   16.80
  -4   6  -4   57.39   16.20
   4  -6   4   54.09   15.20
  -5   6  -4   -0.20   10.90
  -5   6  -4    2.50   11.70
   5  -6   4    7.40   13.10
  -6   6  -4   14.20   12.60
  -6   6  -4   19.30   13.60
   6  -6   4   29.80   15.50
   9   5  -4   -0.10   15.20
   9   5  -4   46.60   20.50
  -9  -5   4   18.60   12.60
  -9  -5   4   10.80   10.90
  -9  -5   4   14.90   12.60
   8   5  -4  332.97   37.00
   8   5  -4  247.88   33.70
  -8  -5   4  312.47   27.90
  -8  -5   4  351.46   27.20
  -8  -5   4  322.97   28.40
   7   5  -4   95.39   21.40
   7   5  -4   75.39   19.90
  -7  -5   4   77.69   15.70
  -7  -5   4   75.39   13.80
  -7  -5   4  116.39   18.10
   6   5  -4  195.18   27.10
   6   5  -4  226.88   28.60
  -6  -5   4  213.28   22.90
  -6  -5   4  186.38   20.10
  -6  -5   4  156.08   20.10
  -6  -5   4  191.58   26.90
   5   5  -4   -2.50    8.70
   5   5  -4   18.40   10.50
  -5  -5   4   20.70    8.80
  -5  -5   4   29.00    8.90
  -5  -5   4   22.20   11.70
  -5  -5   4   26.10    9.20
   4   5  -4  483.95   39.00
   4   5  -4  525.45   38.60
   4   5  -4  522.15   36.10
  -4  -5   4  566.54   39.40
  -4  -5   4  563.24   34.70
  -4  -5   4  506.05   34.50
  -4  -5   4  542.35   34.20
   3   5  -4  224.98   20.00
   3   5  -4  203.98   20.80
   3   5  -4  193.98   24.50
  -3  -5   4  201.98   20.50
  -3  -5   4  183.98   17.00
  -3  -5   4  195.68   18.60
  -3  -5   4  172.78   16.60
   2   5  -4  421.86   24.40
   2   5  -4  405.16   28.80
   2   5  -4  423.86   30.10
   2   5  -4  378.86   32.40
  -2  -5   4  409.36   28.10
  -2  -5   4  410.46   25.90
  -2  -5   4  351.66   27.30
  -2  -5   4  386.26   29.20
   1   5  -4  455.05   29.40
   1   5  -4  468.05   32.70
   1   5  -4  469.45   28.50
  -1  -5   4  460.75   30.40
  -1  -5   4  419.76   29.70
  -1  -5   4  434.66   30.30
  -1  -5   4  427.36   26.80
   0   5  -4  350.66   23.50
   0   5  -4  309.17   27.00
   0   5  -4  307.77   24.70
   0  -5   4  375.56   24.80
   0  -5   4  390.96   27.30
   0  -5   4  384.36   22.10
   0  -5   4  411.26   26.00
  -1   5  -4  227.38   19.10
  -1   5  -4  242.78   23.30
  -1   5  -4  233.48   21.00
   1  -5   4  221.58   19.50
   1  -5   4  232.78   20.80
  -2   5  -4  118.39   18.00
  -2   5  -4   76.49   14.40
  -2   5  -4   88.99   12.80
   2  -5   4   66.09   12.20
   2  -5   4   78.59   14.10
   2  -5   4   79.99   14.50
  -3   5  -4  104.59   13.40
  -3   5  -4   95.89   17.30
  -3   5  -4  106.49   17.60
   3  -5   4  117.59   17.10
   3  -5   4  113.69   14.80
  -4   5  -4    8.30    9.60
  -4   5  -4    0.60    9.70
   4  -5   4    9.70    8.20
   4  -5   4   -5.50    8.60
  -5   5  -4  394.06   33.90
  -5   5  -4  347.47   33.20
   5  -5   4  389.16   33.50
  -6   5  -4   29.00   15.30
  -6   5  -4   36.60   14.80
   6  -5   4   46.10   15.40
  -7   5  -4   42.80   16.20
  10   4  -4  -15.40   15.10
  10   4  -4   -3.30   15.30
 -10  -4   4   19.00   13.70
 -10  -4   4   13.80   12.30
   9   4  -4   94.79   24.70
   9   4  -4   63.99   20.10
  -9  -4   4   70.29   16.30
  -9  -4   4   89.79   18.10
   8   4  -4  112.49   23.40
   8   4  -4  122.49   24.10
  -8  -4   4  118.59   18.50
  -8  -4   4  123.69   16.40
  -8  -4   4   99.99   16.80
   7   4  -4   79.59   20.30
   7   4  -4   90.89   19.90
  -7  -4   4  108.29   15.90
  -7  -4   4   89.79   13.40
  -7  -4   4  114.39   16.50
   6   4  -4   23.20   12.50
   6   4  -4   31.80   14.60
  -6  -4   4   31.90    9.80
  -6  -4   4   47.20   10.00
  -6  -4   4   32.60   10.00
  -6  -4   4   54.29   14.60
   5   4  -4  495.15   40.10
   5   4  -4  602.24   43.10
  -5  -4   4  582.54   35.60
  -5  -4   4  611.04   42.30
  -5  -4   4  592.44   36.60
  -5  -4   4  606.74   37.40
   4   4  -4  312.07   29.10
   4   4  -4  328.77   27.90
  -4  -4   4  345.57   24.80
  -4  -4   4  350.46   24.50
  -4  -4   4  336.77   23.60
  -4  -4   4  353.76   28.70
   3   4  -4   85.59   15.40
   3   4  -4   75.39    7.60
   3   4  -4   60.99   11.30
   3   4  -4   75.99   13.10
  -3  -4   4   42.80   11.30
  -3  -4   4   52.69    9.30
  -3  -4   4   49.10    9.70
  -3  -4   4   37.50    8.60
   2   4  -4  568.64   35.10
   2   4  -4  559.44   38.60
   2   4  -4  545.75   28.30
   2   4  -4  545.95   30.80
   2   4  -4  562.74   35.60
  -2  -4   4  543.95   32.10
  -2  -4   4  527.45   33.90
  -2  -4   4  558.74   33.60
  -2  -4   4  524.95   35.20
   1   4  -4    2.50    4.80
   1   4  -4   -2.40    6.10
   1   4  -4    5.70    4.90
  -1  -4   4    1.10    5.00
  -1  -4   4    3.50    4.30
  -1  -4   4    2.30    5.70
  -1  -4   4    4.00    6.30
   0   4  -4  479.65   28.70
   0   4  -4  462.85   32.90
   0   4  -4  489.55   30.90
   0  -4   4  500.35   30.80
   0  -4   4  484.25   31.40
   0  -4   4  513.15   27.80
   0  -4   4  503.55   30.10
  -1   4  -4   96.69   14.90
  -1   4  -4   97.89    8.70
  -1   4  -4  109.19   14.70
  -1   4  -4  108.59   13.00
   1  -4   4  139.39   15.50
   1  -4   4  125.99   14.20
   1  -4   4  120.19   10.40
   1  -4   4  113.39    9.00
  -2   4  -4  427.86   30.50
  -2   4  -4  437.06   26.80
  -2   4  -4  441.66   30.30
   2  -4   4  379.26   28.60
   2  -4   4  383.66   29.20
   2  -4   4  406.76   27.60
  -3   4  -4  110.29   12.80
  -3   4  -4  138.29   18.40
  -3   4  -4  154.88   19.80
   3  -4   4  108.29   16.10
   3  -4   4  123.39   15.20
  -4   4  -4   81.99   15.80
  -4   4  -4   90.49   16.40
   4  -4   4   56.19   12.00
   4  -4   4   81.79   15.80
  -5   4  -4  312.17   28.50
  -5   4  -4  303.77   28.30
   5  -4   4  329.57   29.10
  -6   4  -4   10.20   12.10
  -6   4  -4   20.60   12.60
   6  -4   4   29.50   13.90
  -7   4  -4    2.60   11.90
  -7   4  -4    6.20   12.10
   7  -4   4    4.80   10.70
  10   3  -4   63.79   22.80
  10   3  -4   41.60   20.10
 -10  -3   4   33.10   13.20
 -10  -3   4   50.89   14.50
   9   3  -4   20.20   15.50
   9   3  -4    5.20   15.30
  -9  -3   4    0.50   10.40
  -9  -3   4   -3.30    8.30
   8   3  -4   11.60   12.10
   8   3  -4    2.10   12.90
  -8  -3   4   10.40    7.80
  -8  -3   4    3.70    8.20
  -8  -3   4   11.30   10.10
   7   3  -4  113.49   22.10
   7   3  -4  111.99   20.50
  -7  -3   4   92.49   14.70
  -7  -3   4  109.19   16.30
  -7  -3   4  129.09   14.90
  -7  -3   4  105.29   19.40
   6   3  -4  290.17   29.20
   6   3  -4  294.17   29.40
  -6  -3   4  312.17   24.90
  -6  -3   4  327.47   23.10
  -6  -3   4  339.37   25.40
  -6  -3   4  333.77   29.10
   5   3  -4 1069.09   56.79
   5   3  -4 1049.59   64.59
   5   3  -4 1084.09   65.69
  -5  -3   4 1104.69   65.39
  -5  -3   4 1097.09   60.39
  -5  -3   4 1095.99   58.59
  -5  -3   4 1097.29   60.79
   4   3  -4   36.80   10.90
   4   3  -4   37.00    5.70
   4   3  -4   26.80   10.50
  -4  -3   4   46.60    9.60
  -4  -3   4   27.30    9.90
  -4  -3   4   50.79    8.40
  -4  -3   4   47.50    9.00
   3   3  -4   49.30   12.50
   3   3  -4   49.90    6.50
   3   3  -4   61.39   11.30
   3   3  -4   42.00    9.50
   3   3  -4   50.29    5.30
  -3  -3   4   34.70    9.80
  -3  -3   4   32.60    7.90
  -3  -3   4   37.10    7.70
  -3  -3   4   36.30    7.50
   2   3  -4  362.56   29.10
   2   3  -4  412.56   27.70
   2   3  -4  378.26   27.50
   2   3  -4  413.06   22.40
   2   3  -4  432.46   24.40
   2   3  -4  413.56   21.50
  -2  -3   4  425.06   25.80
  -2  -3   4  463.55   26.00
  -2  -3   4  431.56   28.90
  -2  -3   4  426.06   26.60
   1   3  -4  406.66   28.10
   1   3  -4  409.86   25.20
   1   3  -4  419.46   29.90
   1   3  -4  419.36   26.10
  -1  -3   4  436.26   27.00
  -1  -3   4  393.36   24.30
  -1  -3   4  431.06   26.30
  -1  -3   4  418.16   27.10
   0   3  -4  355.66   22.60
   0   3  -4  370.76   24.70
   0   3  -4  362.26   26.20
   0  -3   4  382.26   24.70
   0  -3   4  376.36   24.90
   0  -3   4  399.96   24.30
   0  -3   4  421.86   22.40
  -1   3  -4 1158.98   59.09
  -1   3  -4 1171.48   65.09
  -1   3  -4 1150.08   64.09
   1  -3   4 1214.98   60.89
   1  -3   4 1219.28   64.19
   1  -3   4 1173.98   63.19
   1  -3   4 1193.28   59.39
  -2   3  -4  116.79   10.70
  -2   3  -4  120.99   14.70
  -2   3  -4   83.49   12.80
   2  -3   4  128.69   14.50
   2  -3   4   97.39    6.90
   2  -3   4  113.29   14.30
   2  -3   4  100.09    7.30
   2  -3   4  112.79   13.20
  -3   3  -4   23.40    8.50
  -3   3  -4   26.40    9.20
  -3   3  -4   26.80    6.20
   3  -3   4    9.60    6.40
   3  -3   4   18.30    8.90
  -4   3  -4   49.30   12.20
  -4   3  -4   53.39   12.30
   4  -3   4   56.09   11.00
   4  -3   4   38.60   10.90
  -5   3  -4  100.79   17.20
  -5   3  -4  146.49   19.00
   5  -3   4   91.79   16.40
  -6   3  -4   13.10   10.90
  -6   3  -4   25.90   12.10
   6  -3   4   29.30   11.70
  -7   3  -4   41.10   13.50
  -7   3  -4   25.00   13.30
   7  -3   4   33.70   13.40
  -8   3  -4  133.19   21.30
  -8   3  -4  123.69   22.70
   8  -3   4  117.59   21.90
  10   2  -4  116.59   26.90
  10   2  -4   67.69   22.80
 -10  -2   4   99.89   20.30
 -10  -2   4  110.69   19.00
 -10  -2   4  102.39   18.70
   9   2  -4   32.30   17.20
   9   2  -4   21.60   15.40
  -9  -2   4   10.20    9.70
  -9  -2   4   28.60   10.70
   8   2  -4  232.58   30.80
   8   2  -4  217.98   23.30
   8   2  -4  267.97   33.20
  -8  -2   4  255.37   21.00
  -8  -2   4  251.57   22.90
  -8  -2   4  245.68   22.70
   7   2  -4    9.60   11.30
   7   2  -4   19.70   12.80
   7   2  -4   19.90    9.20
  -7  -2   4   17.20    9.10
  -7  -2   4   45.20    9.30
  -7  -2   4   46.20   10.90
  -7  -2   4   38.90   12.40
   6   2  -4  645.84   46.70
   6   2  -4  679.43   46.50
   6   2  -4  698.83   40.40
  -6  -2   4  629.14   40.00
  -6  -2   4  641.14   38.20
  -6  -2   4  640.14   39.90
  -6  -2   4  693.23   46.00
   5   2  -4   54.99    9.00
   5   2  -4   52.89   13.50
   5   2  -4   69.69   14.40
  -5  -2   4   46.10   12.30
  -5  -2   4   41.00    8.90
  -5  -2   4   34.60    9.20
  -5  -2   4   35.40    5.10
  -5  -2   4   50.19    8.00
   4   2  -4  540.95   36.90
   4   2  -4  528.25   29.70
   4   2  -4  494.15   35.10
  -4  -2   4  504.65   31.50
  -4  -2   4  513.35   29.90
  -4  -2   4  505.55   31.50
  -4  -2   4  537.35   35.50
   3   2  -4   88.59    8.30
   3   2  -4   82.49   12.40
   3   2  -4   82.69    8.10
   3   2  -4   80.49   13.90
  -3  -2   4   62.19    9.30
  -3  -2   4   64.89   11.50
  -3  -2   4   74.89   10.40
  -3  -2   4   58.89    8.10
   2   2  -4 1096.99   53.19
   2   2  -4 1086.39   57.49
   2   2  -4 1035.90   53.79
   2   2  -4  985.60   58.89
   2   2  -4 1089.49   57.19
  -2  -2   4 1017.40   55.59
  -2  -2   4 1030.00   57.89
  -2  -2   4 1006.60   54.59
  -2  -2   4 1034.60   54.39
   1   2  -4  667.93   40.10
   1   2  -4  717.93   38.20
   1   2  -4  700.53   35.20
   1   2  -4  709.63   42.50
   1   2  -4  727.63   39.30
  -1  -2   4  691.73   38.20
  -1  -2   4  665.83   38.90
  -1  -2   4  687.83   40.00
  -1  -2   4  711.83   37.80
   0   2  -4  311.07   20.40
   0   2  -4  289.37   21.00
   0   2  -4  287.47   18.20
   0  -2   4  279.37   19.60
   0  -2   4  316.57   20.00
   0  -2   4  302.47   19.60
   0  -2   4  293.27   17.70
  -1   2  -4  834.72   51.49
  -1   2  -4  849.02   51.89
   1  -2   4  977.80   47.90
   1  -2   4 1011.30   51.39
   1  -2   4  969.30   51.39
   1  -2   4  934.11   50.89
   1  -2   4  962.40   47.70
   1  -2   4  963.70   48.90
  -2   2  -4   41.80    8.70
  -2   2  -4   54.99    6.80
  -2   2  -4   45.20    9.70
   2  -2   4   51.19    9.30
   2  -2   4   49.00    5.30
   2  -2   4   45.80    8.60
   2  -2   4   43.90    4.80
  -3   2  -4  556.04   30.10
  -3   2  -4  571.74   28.00
  -3   2  -4  548.75   35.50
  -3   2  -4  563.04   35.30
   3  -2   4  520.45   33.40
   3  -2   4  569.84   35.00
   3  -2   4  553.14   28.20
  -4   2  -4   40.40   11.30
  -4   2  -4   37.40    9.60
  -4   2  -4   27.00    5.30
   4  -2   4   38.00    9.20
   4  -2   4   51.49   11.40
  -5   2  -4  122.79   17.40
  -5   2  -4  116.19   15.60
   5  -2   4  106.29   15.70
  -6   2  -4  247.68   24.10
  -6   2  -4  233.38   23.00
   6  -2   4  239.18   23.10
  -7   2  -4   37.60   13.90
  -7   2  -4   36.50   12.30
   7  -2   4   41.80   14.20
  -8   2  -4   48.50   16.40
  -8   2  -4   46.90   14.30
  -8   2  -4   47.60   16.40
   8  -2   4   38.50   14.40
  -9   2  -4   -2.10   11.50
  -9   2  -4    5.60   11.20
  -9   2  -4   10.40   19.50
   9  -2   4    5.70   13.10
  10   1  -4   52.19   20.50
  10   1  -4   68.39   22.60
  10   1  -4   58.19   28.30
 -10  -1   4   56.09   15.10
 -10  -1   4   47.50   14.80
 -10  -1   4   48.40   15.80
   9   1  -4   47.80   18.90
   9   1  -4   41.50   14.70
   9   1  -4   42.30   17.80
  -9  -1   4   42.10   12.20
  -9  -1   4   44.10   14.40
  -9  -1   4   59.79   12.70
   8   1  -4  185.78   27.80
   8   1  -4  169.08   28.20
   8   1  -4  189.78   22.90
  -8  -1   4  152.28   18.70
  -8  -1   4  148.59   18.00
  -8  -1   4  128.49   17.90
  -8  -1   4  170.48   24.10
  -8  -1   4  206.98   25.10
   7   1  -4   48.10   16.10
   7   1  -4   64.99   13.80
   7   1  -4   40.20   13.80
  -7  -1   4   57.19   11.60
  -7  -1   4   43.30    9.70
  -7  -1   4   48.00    9.90
  -7  -1   4   32.60   11.60
  -7  -1   4   55.09   10.30
   6   1  -4   43.30   12.80
   6   1  -4   47.00   13.90
   6   1  -4   49.90   10.90
  -6  -1   4   61.39   10.20
  -6  -1   4   66.09    8.90
  -6  -1   4   55.59    8.90
  -6  -1   4   55.19   13.50
  -6  -1   4   83.39   12.00
   5   1  -4 1082.79   65.59
   5   1  -4 1082.29   61.39
   5   1  -4 1095.49   67.09
  -5  -1   4 1171.68   57.99
  -5  -1   4 1177.78   61.59
  -5  -1   4 1107.19   65.49
  -5  -1   4 1142.99   61.09
  -5  -1   4 1162.48   59.19
   4   1  -4  786.22   42.90
   4   1  -4  784.22   48.10
   4   1  -4  797.72   47.00
  -4  -1   4  726.73   46.20
  -4  -1   4  732.13   40.50
  -4  -1   4  803.42   43.10
  -4  -1   4  734.13   42.70
  -4  -1   4  763.42   39.00
   3   1  -4   27.40    6.20
   3   1  -4   27.30    8.70
   3   1  -4   22.70    7.30
   3   1  -4   35.00    9.80
  -3  -1   4   45.70    6.00
  -3  -1   4   45.10    9.30
  -3  -1   4   55.89    7.90
  -3  -1   4   60.09    8.60
   2   1  -4   62.29   11.40
   2   1  -4   47.30    8.50
   2   1  -4   52.79    6.90
   2   1  -4   60.09    9.60
   2   1  -4   48.50    6.50
  -2  -1   4   24.30    7.30
  -2  -1   4   33.40    6.60
  -2  -1   4   23.80    4.90
  -2  -1   4   29.20    6.70
   1   1  -4  844.92   44.80
   1   1  -4  831.72   43.90
   1   1  -4  826.12   44.50
   1   1  -4  822.02   46.10
   1   1  -4  795.52   39.60
   1   1  -4  834.72   42.90
  -1  -1   4  756.82   42.10
  -1  -1   4  768.52   43.20
  -1  -1   4  751.32   41.70
  -1  -1   4  787.92   44.50
   0   1  -4 1138.99   58.99
   0   1  -4 1073.49   58.79
   0   1  -4 1184.58   60.19
   0   1  -4 1138.99   60.99
   0   1  -4 1152.68   56.89
   0  -1   4 1125.59   57.29
   0  -1   4 1106.99   58.79
   0  -1   4 1180.98   58.39
   0  -1   4 1117.39   57.99
   0  -1   4 1077.99   58.69
  -1   1  -4  181.38   15.30
  -1   1  -4  193.88   15.00
  -1   1  -4  188.78   12.90
   1  -1   4  186.28   12.80
   1  -1   4  169.18   13.60
   1  -1   4  195.28   14.30
   1  -1   4  191.58   12.00
   1  -1   4  172.08   11.50
   1  -1   4  189.78   14.10
  -2   1  -4 1954.10  101.69
  -2   1  -4 2013.10  101.09
  -2   1  -4 2003.20   97.09
   2  -1   4 1936.41   97.09
   2  -1   4 1958.40  100.59
   2  -1   4 1996.90   96.99
   2  -1   4 1990.40  100.39
  -3   1  -4  534.75   31.30
  -3   1  -4  519.55   25.90
  -3   1  -4  574.14   33.10
   3  -1   4  470.25   30.30
   3  -1   4  473.75   30.60
   3  -1   4  485.35   26.20
   3  -1   4  449.56   26.10
  -4   1  -4   41.50    4.70
  -4   1  -4   39.00    9.40
  -4   1  -4   41.50    9.10
   4  -1   4   51.69   10.00
  -5   1  -4  334.97   26.20
  -5   1  -4  329.67   25.00
   5  -1   4  322.87   25.80
  -6   1  -4  190.48   22.50
  -6   1  -4  169.48   19.80
  -6   1  -4  206.48   19.40
   6  -1   4  156.38   20.10
  -7   1  -4  349.57   30.10
  -7   1  -4  315.17   26.30
  -7   1  -4  312.07   28.60
   7  -1   4  300.37   28.70
  -8   1  -4   69.49   15.00
  -8   1  -4   67.49   16.00
  -8   1  -4   75.39   16.30
   8  -1   4   70.19   17.30
  -9   1  -4  147.49   24.60
  -9   1  -4  230.48   28.40
   9  -1   4  155.78   24.80
  10   0  -4   15.10   16.00
  10   0  -4   22.00   15.50
 -10   0   4   53.39   15.60
 -10   0   4   41.40   15.80
 -10   0   4   44.50   12.40
   9   0  -4   12.50   15.00
   9   0  -4   13.20   12.50
  -9   0   4    7.40    9.40
  -9   0   4    1.50   11.80
  -9   0   4    9.20   10.50
   8   0  -4  178.38   23.80
   8   0  -4  189.58   27.20
   8   0  -4  200.48   29.30
  -8   0   4  120.49   19.80
  -8   0   4  123.69   16.10
  -8   0   4  142.59   22.60
  -8   0   4  131.59   17.40
  -8   0   4  161.18   19.00
   7   0  -4   83.39   18.20
   7   0  -4   89.99   16.00
   7   0  -4   66.99   17.00
  -7   0   4   64.29   13.50
  -7   0   4   68.49   15.70
  -7   0   4   67.89   12.10
  -7   0   4   70.19   10.60
  -7   0   4   68.49   11.40
   6   0  -4   93.19   14.90
   6   0  -4   80.19   16.30
   6   0  -4   63.79   15.90
  -6   0   4   65.19   14.30
  -6   0   4   66.99    9.40
  -6   0   4   64.09   10.00
  -6   0   4   49.20   12.00
  -6   0   4   68.09   10.90
   5   0  -4 1251.07   72.89
   5   0  -4 1217.28   73.49
   5   0  -4 1301.07   69.99
  -5   0   4 1292.37   67.29
  -5   0   4 1298.27   67.99
  -5   0   4 1257.87   65.49
  -5   0   4 1320.77   72.69
   4   0  -4   35.80   11.30
   4   0  -4   15.30    7.60
   4   0  -4   34.10    8.20
  -4   0   4   36.80    8.90
  -4   0   4   39.30    7.20
  -4   0   4   30.10    5.10
  -4   0   4   49.40    8.20
   3   0  -4  234.98   19.10
   3   0  -4  238.78   16.70
   3   0  -4  248.78   20.00
   3   0  -4  222.78   18.30
  -3   0   4  215.38   18.20
  -3   0   4  202.38   15.30
  -3   0   4  212.68   15.60
  -3   0   4  199.68   12.90
   2   0  -4  678.13   43.60
   2   0  -4  721.53   42.60
   2   0  -4  669.13   39.70
   2   0  -4  712.73   40.50
   2   0  -4  701.33   42.60
  -2   0   4  802.32   40.40
  -2   0   4  783.22   36.80
  -2   0   4  794.52   43.30
  -2   0   4  822.32   38.10
  -2   0   4  781.32   40.40
   1   0  -4 1440.86   73.89
   1   0  -4 1385.46   70.99
   1   0  -4 1413.66   68.09
   1   0  -4 1379.36   72.79
  -1   0   4 1363.06   69.29
  -1   0   4 1473.35   71.29
  -1   0   4 1427.86   69.29
  -1   0   4 1343.57   68.29
  -1   0   4 1347.47   72.59
  -1   0   4 1445.16   70.79
   0   0  -4 1475.25   78.09
   0   0  -4 1501.45   78.69
   0   0  -4 1480.25   78.19
   0   0  -4 1472.15   77.79
   0   0  -4 1493.45   75.79
   0   0   4 1544.25   76.69
   0   0   4 1662.43   77.89
   0   0   4 1607.04   76.79
   0   0   4 1572.34   78.29
   0   0   4 1538.05   76.39
  -1   0  -4  953.30   48.00
  -1   0  -4  933.11   49.70
  -1   0  -4  945.11   48.90
  -1   0  -4  956.00   48.10
   1   0   4  854.01   46.60
   1   0   4  903.91   47.90
   1   0   4  901.71   48.20
   1   0   4  896.21   48.50
  -2   0  -4  470.05   33.50
  -2   0  -4  463.35   34.70
   2   0   4  656.13   30.50
   2   0   4  676.53   32.50
   2   0   4  689.93   35.20
   2   0   4  656.43   35.00
   2   0   4  636.44   32.90
  -3   0  -4  361.96   24.40
  -3   0  -4  379.06   24.00
  -3   0  -4  340.47   25.30
  -3   0  -4  382.26   21.60
   3   0   4  402.86   20.80
   3   0   4  385.46   25.10
   3   0   4  394.96   21.70
   3   0   4  382.96   25.00
  -4   0  -4   74.59    7.60
  -4   0  -4   82.89   10.70
  -4   0  -4   87.69   11.70
  -4   0  -4   78.59   12.20
   4   0   4   82.99    7.90
   4   0   4   96.79   13.20
  -5   0  -4  203.88   18.50
  -5   0  -4  171.78   19.50
  -5   0  -4  183.18   16.90
  -5   0  -4  171.18   13.30
   5   0   4  231.38   19.50
   5   0   4  228.58   14.80
  -6   0  -4   22.30    7.80
  -6   0  -4   18.00    8.80
  -6   0  -4   22.90    9.90
   6   0   4    5.30    8.20
  -7   0  -4   20.20    8.70
  -7   0  -4   30.00   10.70
  -7   0  -4   26.90   10.50
   7   0   4    3.70   10.40
  -8   0  -4  132.59   20.80
  -8   0  -4  175.18   22.90
  -8   0  -4  174.48   20.10
   8   0   4  230.78   26.80
  -9   0  -4   31.10   13.90
  -9   0  -4   57.59   16.70
   9   0   4   67.89   18.00
  10  -1  -4   63.29   20.50
  10  -1  -4   69.69   23.70
 -10   1   4   83.99   17.70
 -10   1   4   65.89   16.90
 -10   1   4   52.19   15.70
   9  -1  -4   31.50   17.20
   9  -1  -4   54.89   17.90
  -9   1   4   59.29   15.90
  -9   1   4   57.39   13.00
  -9   1   4   52.19   14.10
   8  -1  -4   94.99   18.90
   8  -1  -4  115.09   24.00
  -8   1   4  129.89   20.90
  -8   1   4  116.19   15.20
  -8   1   4   99.09   18.40
  -8   1   4  124.19   21.50
  -8   1   4  116.59   18.40
   7  -1  -4   59.59   15.20
   7  -1  -4   80.49   19.60
  -7   1   4  103.49   12.90
  -7   1   4  109.59   17.60
  -7   1   4  105.79   13.10
  -7   1   4   80.19   15.50
  -7   1   4   99.69   13.70
   6  -1  -4  237.08   22.30
   6  -1  -4  217.88   24.00
  -6   1   4  185.18   16.00
  -6   1   4  213.28   21.70
  -6   1   4  216.38   16.40
  -6   1   4  167.08   16.70
  -6   1   4  219.48   23.30
   5  -1  -4  200.68   24.50
   5  -1  -4  167.28   18.30
  -5   1   4  203.28   20.00
  -5   1   4  199.18   14.90
  -5   1   4  217.38   16.70
  -5   1   4  197.48   19.10
  -5   1   4  211.68   14.70
   4  -1  -4  188.08   16.40
   4  -1  -4  183.98   18.70
  -4   1   4  163.28   17.10
  -4   1   4  149.29   13.20
  -4   1   4  143.79   11.90
  -4   1   4  139.69   15.40
  -4   1   4  139.99   10.60
   3  -1  -4  160.08   14.10
   3  -1  -4  164.28   15.80
   3  -1  -4  177.88   17.10
  -3   1   4  165.38   15.40
  -3   1   4  155.88    9.90
  -3   1   4  177.08   12.20
  -3   1   4  157.28   12.70
  -3   1   4  156.28   14.80
   2  -1  -4  524.85   31.70
   2  -1  -4  481.65   32.50
   2  -1  -4  513.75   33.50
  -2   1   4  571.84   29.80
  -2   1   4  528.45   31.60
  -2   1   4  572.64   33.40
  -2   1   4  576.74   30.70
  -2   1   4  575.94   27.10
   1  -1  -4  910.71   50.69
   1  -1  -4  954.50   45.70
   1  -1  -4  949.31   48.90
   1  -1  -4  977.20   50.89
   1  -1  -4  909.91   46.40
  -1   1   4  925.21   50.49
  -1   1   4  951.20   48.20
  -1   1   4  920.51   46.60
  -1   1   4  899.71   48.20
   0  -1  -4  783.12   41.80
   0  -1  -4  763.02   42.00
   0  -1  -4  803.02   42.80
   0  -1  -4  790.72   40.00
   0   1   4  760.32   40.80
   0   1   4  751.42   42.40
   0   1   4  792.72   40.60
   0   1   4  775.22   41.00
   0   1   4  819.42   40.60
  -1  -1  -4 1155.48   59.59
  -1  -1  -4 1171.78   59.09
  -1  -1  -4 1180.58   58.09
  -1  -1  -4 1153.78   58.39
  -1  -1  -4 1163.38   58.29
   1   1   4 1115.59   58.69
   1   1   4 1089.59   56.29
   1   1   4 1131.79   59.09
   1   1   4 1104.19   57.59
   1   1   4 1133.29   58.69
  -2  -1  -4   59.99    7.30
  -2  -1  -4   56.89    7.60
  -2  -1  -4   69.69   10.00
  -2  -1  -4   52.29    8.10
   2   1   4   75.39    9.70
   2   1   4   59.89    6.80
   2   1   4   56.59    7.60
   2   1   4   75.39    9.70
  -3  -1  -4 3595.14  183.78
  -3  -1  -4 3770.42  186.48
  -3  -1  -4 3715.43  183.48
  -3  -1  -4 3720.03  185.68
   3   1   4 3818.12  186.18
   3   1   4 3900.91  183.28
   3   1   4 3773.82  183.58
  -4  -1  -4  138.29   15.20
  -4  -1  -4  162.98   12.70
  -4  -1  -4  133.29   12.10
  -4  -1  -4  147.49   14.90
   4   1   4  169.28   13.10
   4   1   4  162.68   15.30
  -5  -1  -4  102.09   14.00
  -5  -1  -4   94.69   13.10
  -5  -1  -4   88.09   10.10
  -5  -1  -4   92.49   10.60
   5   1   4   71.59   10.20
   5   1   4   66.59   12.90
  -6  -1  -4   39.90   10.90
  -6  -1  -4   41.10   10.00
  -6  -1  -4   34.40    8.10
   6   1   4   59.69   10.30
   6   1   4   47.20   11.50
  -7  -1  -4    4.60    6.20
  -7  -1  -4   -6.00    7.50
  -7  -1  -4    0.50    8.40
   7   1   4   16.00   11.00
  -8  -1  -4   93.39   16.10
  -8  -1  -4   71.99   16.50
   8   1   4  116.19   18.30
  -9  -1  -4    2.10   10.10
  -9  -1  -4    1.50   10.70
   9   1   4   -1.70   11.60
 -10  -1  -4    5.00   11.20
 -10  -1  -4  -13.10   11.70
  10   1   4    5.00   12.00
   9  -2  -4   34.30   17.30
  -9   2   4   39.40   14.90
  -9   2   4   29.60   13.10
   8  -2  -4   20.70   13.90
   8  -2  -4   33.50   16.70
  -8   2   4   37.50    9.90
  -8   2   4   15.60   11.10
  -8   2   4    8.40   10.40
  -8   2   4   24.40   11.40
   7  -2  -4  159.38   23.10
   7  -2  -4  267.87   32.40
  -7   2   4  187.98   17.30
  -7   2   4  216.18   27.60
  -7   2   4  197.48   21.90
  -7   2   4  180.38   21.80
  -7   2   4  180.58   22.70
   6  -2  -4  396.06   31.70
   6  -2  -4  354.46   32.50
  -6   2   4  420.56   30.30
  -6   2   4  395.06   30.30
  -6   2   4  363.66   23.80
  -6   2   4  383.36   25.50
   5  -2  -4  337.17   29.40
   5  -2  -4  321.57   25.90
  -5   2   4  341.57   20.60
  -5   2   4  332.37   25.00
  -5   2   4  333.97   26.10
  -5   2   4  302.87   21.70
   4  -2  -4 3134.59  161.28
   4  -2  -4 3065.89  163.68
   4  -2  -4 3013.30  152.68
  -4   2   4 3201.48  157.28
  -4   2   4 3335.97  160.38
  -4   2   4 3268.67  155.58
  -4   2   4 3257.47  161.58
   3  -2  -4 2435.56  115.59
   3  -2  -4 2337.57  114.89
   3  -2  -4 2247.88  116.69
  -3   2   4 2159.88  111.29
  -3   2   4 2153.78  114.79
  -3   2   4 2174.28  113.39
  -3   2   4 2129.89  109.59
  -3   2   4 2242.78  108.69
   2  -2  -4  274.87   21.00
   2  -2  -4  261.57   15.70
   2  -2  -4  248.18   18.50
   2  -2  -4  250.27   19.40
  -2   2   4  248.18   18.10
  -2   2   4  237.98   16.40
  -2   2   4  249.68   19.00
  -2   2   4  273.17   15.30
   1  -2  -4  606.64   36.90
   1  -2  -4  623.24   33.40
   1  -2  -4  637.64   37.90
   1  -2  -4  615.64   36.10
   1  -2  -4  628.64   37.90
   1  -2  -4  621.14   34.40
  -1   2   4  716.03   34.60
  -1   2   4  705.23   38.20
  -1   2   4  718.13   35.70
  -1   2   4  768.82   36.90
   0  -2  -4   68.39    8.60
   0  -2  -4   67.59    6.90
   0  -2  -4   75.49    9.60
   0  -2  -4   80.39    8.90
   0   2   4   49.10    6.50
   0   2   4   60.19    6.90
   0   2   4   65.99    7.80
   0   2   4   53.49    7.10
   0   2   4   47.80    8.30
  -1  -2  -4  940.51   51.29
  -1  -2  -4  921.61   49.40
  -1  -2  -4  932.51   48.50
  -1  -2  -4  993.60   50.69
   1   2   4  986.50   48.40
   1   2   4  982.40   48.30
   1   2   4  924.11   50.19
   1   2   4  938.41   49.40
   1   2   4  992.80   49.99
   1   2   4  984.20   51.49
  -2  -2  -4 1055.39   53.69
  -2  -2  -4  995.40   53.19
  -2  -2  -4 1011.70   49.10
  -2  -2  -4 1016.90   50.59
  -2  -2  -4 1019.50   49.50
  -2  -2  -4 1020.70   52.89
   2   2   4  937.91   51.49
   2   2   4  994.60   53.39
   2   2   4  977.50   49.40
   2   2   4  966.80   53.29
  -3  -2  -4 1694.63   80.79
  -3  -2  -4 1607.34   85.09
  -3  -2  -4 1612.34   79.89
  -3  -2  -4 1637.64   84.99
  -3  -2  -4 1619.84   85.09
  -3  -2  -4 1604.54   81.79
   3   2   4 1760.52   83.59
   3   2   4 1666.63   85.79
   3   2   4 1679.43   84.69
  -4  -2  -4  788.02   39.00
  -4  -2  -4  764.82   45.10
  -4  -2  -4  774.22   41.40
  -4  -2  -4  801.12   45.60
  -4  -2  -4  750.42   44.30
   4   2   4  848.32   46.20
   4   2   4  856.31   45.20
  -5  -2  -4   26.80    7.90
  -5  -2  -4   29.50    3.70
  -5  -2  -4   31.20    8.70
  -5  -2  -4   27.20    5.70
  -5  -2  -4   29.60    7.60
  -5  -2  -4   29.00    3.80
   5   2   4   46.00    9.80
   5   2   4   54.49    9.80
  -6  -2  -4   74.29    9.40
  -6  -2  -4   75.19   11.60
  -6  -2  -4   69.69   12.50
  -6  -2  -4   60.29   11.40
   6   2   4   86.99   12.60
   6   2   4   62.29   12.90
  -7  -2  -4   60.09   12.90
  -7  -2  -4   59.39    9.20
  -7  -2  -4   53.49   12.50
   7   2   4   45.40   13.60
   7   2   4   33.40   10.80
  -8  -2  -4   86.09   15.50
  -8  -2  -4   49.60   12.70
   8   2   4   57.89   15.60
  -9  -2  -4  130.99   20.50
  -9  -2  -4  157.38   22.10
   9   2   4  121.39   21.10
 -10  -2  -4  -14.80   11.30
 -10  -2  -4    5.80   11.40
  10   2   4    0.30   12.80
   9  -3  -4   -2.20   13.30
  -9   3   4    5.00   11.90
  -9   3   4   -2.20   11.60
   8  -3  -4  177.98   28.50
  -8   3   4  174.28   24.30
  -8   3   4  156.58   22.20
   7  -3  -4   71.49   17.80
  -7   3   4   41.50    9.40
  -7   3   4   63.39   14.90
  -7   3   4   46.70   13.10
  -7   3   4   58.59   14.70
   6  -3  -4   30.30   12.90
   6  -3  -4   25.10   14.30
  -6   3   4   30.30    7.90
  -6   3   4   40.40   11.50
  -6   3   4   16.40   10.40
  -6   3   4   33.00   10.70
   5  -3  -4  511.05   35.10
   5  -3  -4  553.64   38.40
  -5   3   4  452.25   26.70
  -5   3   4  488.75   29.30
  -5   3   4  467.95   32.80
  -5   3   4  484.35   33.50
  -5   3   4  458.75   33.30
   4  -3  -4  247.58   22.50
   4  -3  -4  244.38   23.50
   4  -3  -4  232.38   14.80
  -4   3   4  295.47   21.70
  -4   3   4  260.17   15.30
  -4   3   4  280.47   18.10
  -4   3   4  252.17   20.90
   3  -3  -4  384.96   29.20
   3  -3  -4  381.46   26.80
   3  -3  -4  402.56   20.40
   3  -3  -4  396.26   26.90
  -3   3   4  386.66   25.70
  -3   3   4  374.76   26.50
  -3   3   4  377.36   23.50
  -3   3   4  391.16   20.90
   2  -3  -4  487.05   30.90
   2  -3  -4  479.95   27.90
   2  -3  -4  484.05   30.70
   2  -3  -4  506.75   32.10
  -2   3   4  478.45   25.50
  -2   3   4  504.55   25.10
  -2   3   4  492.55   30.90
  -2   3   4  514.85   28.20
  -2   3   4  487.65   29.50
   1  -3  -4  560.44   37.00
   1  -3  -4  581.24   32.00
   1  -3  -4  565.84   36.70
   1  -3  -4  553.94   36.70
   1  -3  -4  596.54   34.50
  -1   3   4  708.83   36.30
  -1   3   4  732.73   35.30
  -1   3   4  711.23   32.20
  -1   3   4  697.03   38.00
  -1   3   4  737.23   33.30
   0  -3  -4   26.10    5.40
   0  -3  -4   33.40    6.60
   0  -3  -4   37.30    8.20
   0  -3  -4   23.20    5.70
   0  -3  -4   27.60    4.00
   0   3   4   47.10    6.80
   0   3   4   41.00    6.40
   0   3   4   43.30    7.90
   0   3   4   50.49    5.80
  -1  -3  -4   84.79    9.80
  -1  -3  -4   89.79    8.70
  -1  -3  -4   64.09    8.10
  -1  -3  -4   68.89    9.90
   1   3   4  100.59    8.70
   1   3   4  105.39    9.30
   1   3   4  105.69    9.40
   1   3   4  101.49   11.10
  -2  -3  -4 1168.78   58.99
  -2  -3  -4 1124.79   58.79
  -2  -3  -4 1120.49   58.69
  -2  -3  -4 1132.69   60.89
   2   3   4 1101.99   60.79
   2   3   4 1106.99   55.39
   2   3   4 1137.79   58.59
   2   3   4 1138.69   56.69
   2   3   4 1113.39   59.19
  -3  -3  -4  133.39   12.60
  -3  -3  -4  135.59   12.90
  -3  -3  -4  136.39    7.80
  -3  -3  -4  155.38   12.40
   3   3   4  105.59   12.70
   3   3   4  104.99   11.90
   3   3   4  111.89    7.50
   3   3   4  131.89   13.50
   3   3   4  118.39    9.20
  -4  -3  -4  110.99   13.30
  -4  -3  -4  137.59   15.30
  -4  -3  -4  133.89   14.30
  -4  -3  -4  125.09    8.30
  -4  -3  -4  112.49    8.00
   4   3   4  166.18   15.10
   4   3   4  198.88   15.60
  -5  -3  -4  107.59   13.50
  -5  -3  -4   94.99    7.70
  -5  -3  -4   92.29   12.90
  -5  -3  -4   94.39   12.70
   5   3   4   61.99   12.00
   5   3   4   72.59   12.40
  -6  -3  -4  135.19   16.80
  -6  -3  -4  105.19    9.50
  -6  -3  -4  104.19   14.00
   6   3   4   93.79   14.50
   6   3   4   99.09   15.30
  -7  -3  -4   41.50   11.30
  -7  -3  -4   15.10    8.30
   7   3   4   24.00   10.20
   7   3   4   25.60   10.30
  -8  -3  -4   49.80   12.80
  -8  -3  -4   83.49   14.50
   8   3   4   92.49   17.10
   8   3   4   83.19   16.00
  -9  -3  -4  213.88   25.40
  -9  -3  -4  262.57   29.20
  -9  -3  -4  211.48   24.80
   9   3   4  230.98   27.20
 -10  -3  -4   32.70   14.30
 -10  -3  -4   21.90   11.70
 -10  -3  -4   15.30   12.00
  10   3   4    8.00   13.00
   9  -4  -4    2.60   14.70
  -9   4   4   24.70   14.20
  -9   4   4   36.00   15.80
  -9   4   4   24.30   13.50
   8  -4  -4  112.79   23.70
  -8   4   4  135.09   21.20
  -8   4   4  105.29   18.90
   7  -4  -4   24.30   15.30
  -7   4   4   13.80   10.50
  -7   4   4   11.70   10.80
   6  -4  -4   24.00   11.90
  -6   4   4   34.40    8.10
  -6   4   4   24.30    9.80
  -6   4   4   31.30   12.30
  -6   4   4   20.50   10.50
   5  -4  -4  279.67   25.70
  -5   4   4  310.27   25.10
  -5   4   4  300.97   24.70
  -5   4   4  291.97   20.30
  -5   4   4  284.37   24.50
   4  -4  -4  113.49   16.40
   4  -4  -4  138.49   10.20
  -4   4   4  112.49    7.60
  -4   4   4  115.99   15.80
  -4   4   4  115.19   15.30
  -4   4   4  106.99   14.50
  -4   4   4  128.09   11.80
   3  -4  -4  450.25   30.70
   3  -4  -4  439.86   29.60
  -3   4   4  441.76   28.90
  -3   4   4  470.55   30.30
  -3   4   4  444.46   26.20
  -3   4   4  427.46   22.00
  -3   4   4  427.46   29.50
   2  -4  -4 1486.85   74.99
   2  -4  -4 1588.14   77.79
   2  -4  -4 1599.24   80.79
   2  -4  -4 1497.35   80.49
  -2   4   4 1494.25   79.19
  -2   4   4 1496.35   76.79
  -2   4   4 1423.76   78.89
  -2   4   4 1513.85   80.59
   1  -4  -4 1006.10   57.39
   1  -4  -4 1021.10   51.79
   1  -4  -4 1034.00   52.89
   1  -4  -4 1030.30   57.69
   1  -4  -4 1030.80   55.09
  -1   4   4 1108.49   58.59
  -1   4   4 1048.60   56.09
  -1   4   4 1105.89   56.49
  -1   4   4 1126.59   55.09
   0  -4  -4   50.39    5.80
   0  -4  -4   49.99    9.30
   0  -4  -4   35.70    6.50
   0  -4  -4   65.89   10.20
   0   4   4   61.29    8.90
   0   4   4   48.60    7.20
   0   4   4   45.40    9.50
   0   4   4   37.50    6.70
  -1  -4  -4   27.00    5.20
  -1  -4  -4   26.20    8.00
  -1  -4  -4   23.90    6.20
  -1  -4  -4   27.00    6.00
   1   4   4   49.40    7.30
   1   4   4   50.19    5.90
   1   4   4   51.29    7.50
   1   4   4   62.19   10.50
  -2  -4  -4  577.74   32.00
  -2  -4  -4  574.84   31.50
  -2  -4  -4  575.84   31.40
  -2  -4  -4  580.34   35.00
   2   4   4  562.54   29.10
   2   4   4  532.25   34.40
   2   4   4  556.64   30.70
   2   4   4  521.35   31.70
   2   4   4  526.55   28.20
  -3  -4  -4 1720.33   88.29
  -3  -4  -4 1766.72   90.89
  -3  -4  -4 1700.13   86.79
  -3  -4  -4 1761.62   88.19
   3   4   4 1675.13   85.59
   3   4   4 1703.73   90.49
   3   4   4 1710.43   87.59
   3   4   4 1656.93   88.09
  -4  -4  -4  229.08   17.70
  -4  -4  -4  205.08   18.60
  -4  -4  -4  242.28   20.90
  -4  -4  -4  212.58   18.90
   4   4   4  253.37   19.60
   4   4   4  251.77   21.30
   4   4   4  278.67   16.60
   4   4   4  267.37   13.70
  -5  -4  -4  920.21   54.69
  -5  -4  -4 1010.00   54.89
  -5  -4  -4  987.90   53.09
   5   4   4  958.90   54.69
   5   4   4  915.61   56.09
   5   4   4  940.21   48.60
  -6  -4  -4   13.30    8.20
  -6  -4  -4   12.50    8.00
  -6  -4  -4   14.40    7.00
   6   4   4   16.40    9.00
   6   4   4    3.90    8.40
  -7  -4  -4   27.00    8.70
  -7  -4  -4   26.20    9.70
  -7  -4  -4   15.80    9.20
   7   4   4   22.00   10.30
   7   4   4   18.70   10.70
  -8  -4  -4  187.28   23.50
  -8  -4  -4  173.08   19.60
   8   4   4  148.29   22.20
   8   4   4  151.98   21.30
  -9  -4  -4    1.80    9.20
  -9  -4  -4    2.00    8.30
  -9  -4  -4    8.70   10.40
   9   4   4   17.60   12.30
   9   4   4   14.50   12.60
 -10  -4  -4   25.50   13.00
 -10  -4  -4   20.00   13.50
  10   4   4   64.49   17.70
   8  -5  -4   13.80   17.30
  -8   5   4   11.60   12.60
  -8   5   4   17.60   12.30
   7  -5  -4  230.08   30.60
  -7   5   4  274.07   28.70
  -7   5   4  232.48   28.10
   6  -5  -4   57.99   15.90
  -6   5   4   49.40   13.10
  -6   5   4   66.59   15.90
   5  -5  -4   -0.90    8.00
  -5   5   4   -8.70    8.40
  -5   5   4    3.40    7.40
  -5   5   4    6.20    5.40
  -5   5   4   -2.10    8.20
   4  -5  -4  610.04   33.40
   4  -5  -4  577.84   40.30
  -4   5   4  604.14   38.90
  -4   5   4  582.94   38.80
  -4   5   4  565.94   33.80
  -4   5   4  607.74   38.30
   3  -5  -4   86.69   14.40
  -3   5   4  103.79   14.20
  -3   5   4   99.29   13.90
  -3   5   4  100.79   14.60
  -3   5   4   92.59   10.60
   2  -5  -4 1011.70   57.19
   2  -5  -4  991.90   52.39
   2  -5  -4 1053.89   58.29
   2  -5  -4  965.70   54.59
  -2   5   4 1022.40   56.49
  -2   5   4  976.30   56.39
  -2   5   4 1029.50   53.39
  -2   5   4 1058.79   57.89
   1  -5  -4   98.79   13.40
   1  -5  -4  113.59   11.60
   1  -5  -4   94.89   13.00
   1  -5  -4   82.09    8.60
   1  -5  -4   93.59    5.30
  -1   5   4   73.79   12.20
  -1   5   4   59.69   10.20
  -1   5   4   75.09    9.50
  -1   5   4   89.99   11.70
   0  -5  -4  167.38   11.60
   0  -5  -4  162.78   14.60
   0  -5  -4  158.28   12.80
   0  -5  -4  167.28   16.00
   0   5   4  147.39   13.90
   0   5   4  126.89   12.40
   0   5   4  130.49   12.40
   0   5   4  126.79   16.00
  -1  -5  -4   68.09    8.40
  -1  -5  -4   62.39    8.90
  -1  -5  -4   71.89    8.20
  -1  -5  -4   55.89   10.50
   1   5   4   60.09    7.30
   1   5   4   43.20    9.70
   1   5   4   53.49    9.00
   1   5   4   57.29    8.50
  -2  -5  -4   46.70    7.90
  -2  -5  -4   61.69    8.00
  -2  -5  -4   63.49    9.00
  -2  -5  -4   54.99   10.90
   2   5   4   65.59   12.00
   2   5   4   67.99    9.40
   2   5   4   75.79    9.60
   2   5   4   61.59    6.10
  -3  -5  -4 1678.83   86.29
  -3  -5  -4 1721.13   84.59
  -3  -5  -4 1706.73   86.19
   3   5   4 1669.03   90.09
   3   5   4 1614.94   84.99
   3   5   4 1616.84   86.09
  -4  -5  -4  178.68   18.20
  -4  -5  -4  197.28   18.30
  -4  -5  -4  201.88   16.30
   4   5   4  257.77   22.10
   4   5   4  268.47   14.70
   4   5   4  256.87   17.00
  -5  -5  -4  385.06   29.20
  -5  -5  -4  410.56   26.80
  -5  -5  -4  416.66   28.90
   5   5   4  469.65   33.00
   5   5   4  449.16   24.50
  -6  -5  -4  248.18   18.90
  -6  -5  -4  222.78   21.50
  -6  -5  -4  253.57   22.50
   6   5   4  249.88   22.50
   6   5   4  231.08   24.00
  -7  -5  -4   52.39   10.40
  -7  -5  -4   47.00   11.70
  -7  -5  -4   33.50   10.70
   7   5   4   48.20   14.00
   7   5   4   30.20   10.90
  -8  -5  -4   36.50   12.50
  -8  -5  -4   33.80   12.80
  -8  -5  -4   39.50   10.60
   8   5   4   17.70   12.10
   8   5   4   29.90   13.30
  -9  -5  -4   65.59   14.90
  -9  -5  -4   62.69   16.80
   9   5   4   69.29   17.80
   9   5   4   41.70   14.70
 -10  -5  -4   41.90   16.70
 -10  -5  -4   54.09   15.70
  10   5   4   37.90   17.50
   8  -6  -4  111.89   26.60
  -8   6   4  102.99   19.90
  -8   6   4  126.59   24.50
   7  -6  -4  125.99   25.60
  -7   6   4  112.09   21.80
  -7   6   4   67.09   16.40
   6  -6  -4   15.50   12.50
  -6   6   4   26.60   11.20
  -6   6   4   39.10   15.40
   5  -6  -4   41.30   14.20
  -5   6   4   47.80   14.60
  -5   6   4   80.89   16.10
  -5   6   4   54.49   12.70
   4  -6  -4  295.17   27.70
  -4   6   4  293.87   27.10
  -4   6   4  276.77   24.50
  -4   6   4  284.97   25.10
  -4   6   4  299.87   19.90
   3  -6  -4  309.57   24.90
   3  -6  -4  281.07   19.00
  -3   6   4  250.67   22.40
  -3   6   4  216.68   17.70
  -3   6   4  234.38   23.20
  -3   6   4  253.67   21.60
   2  -6  -4  524.65   37.10
   2  -6  -4  529.15   32.50
  -2   6   4  563.14   32.60
  -2   6   4  606.64   37.80
  -2   6   4  593.24   36.20
  -2   6   4  624.04   37.50
   1  -6  -4 2128.79  110.89
   1  -6  -4 2153.28  112.79
   1  -6  -4 2229.18  115.29
  -1   6   4 2301.87  116.39
  -1   6   4 2225.48  111.59
  -1   6   4 2253.07  114.29
  -1   6   4 2257.27  114.29
   0  -6  -4  114.79   11.20
   0  -6  -4  119.39    9.00
   0  -6  -4  130.59   14.10
   0  -6  -4  117.59   13.20
   0   6   4  141.09   12.70
   0   6   4  136.99   13.30
   0   6   4  151.68   16.00
   0   6   4  153.88   16.50
  -1  -6  -4  560.44   31.40
  -1  -6  -4  521.45   32.90
  -1  -6  -4  536.75   31.80
   1   6   4  549.15   31.90
   1   6   4  555.84   32.80
   1   6   4  502.45   30.60
  -2  -6  -4  377.36   23.00
  -2  -6  -4  363.26   23.00
   2   6   4  321.37   22.80
   2   6   4  348.37   20.40
   2   6   4  330.97   23.40
   2   6   4  321.67   26.70
  -3  -6  -4   88.19   11.30
  -3  -6  -4   60.19    9.70
  -3  -6  -4   72.99    8.40
   3   6   4   72.89   11.00
   3   6   4   65.49   12.80
   3   6   4   63.69    6.00
  -4  -6  -4  882.21   46.00
  -4  -6  -4  903.61   49.50
   4   6   4  859.41   53.49
   4   6   4  835.22   48.00
   4   6   4  846.92   45.90
  -5  -6  -4    2.00    4.70
  -5  -6  -4    1.40    6.70
  -5  -6  -4    4.60    7.20
   5   6   4    4.60    6.10
   5   6   4   -2.90    7.20
   5   6   4   -2.00    4.30
  -6  -6  -4  966.60   59.09
  -6  -6  -4 1010.50   54.69
  -6  -6  -4 1013.30   58.49
   6   6   4 1025.50   63.19
  -7  -6  -4   -9.80    8.10
  -7  -6  -4   -3.90    5.50
  -7  -6  -4   12.60    9.60
   7   6   4   -2.20   10.20
  -8  -6  -4   16.40   10.70
  -8  -6  -4    8.10   10.30
   8   6   4   11.70   12.70
  -9  -6  -4   23.80   13.80
  -9  -6  -4   38.00   13.70
   9   6   4   37.90   16.20
 -10  -6  -4    8.20   13.60
 -10  -6  -4   13.30   13.60
  10   6   4   24.60   15.90
   7  -7  -4    9.10   15.40
  -7   7   4   13.90   14.30
  -7   7   4   14.30   11.70
   6  -7  -4   19.40   14.80
  -6   7   4   12.20   13.40
  -6   7   4   53.89   15.40
   5  -7  -4   35.40   14.90
  -5   7   4   30.30   12.80
  -5   7   4   36.50   12.40
   4  -7  -4   35.80   12.30
  -4   7   4    8.40   11.10
  -4   7   4   18.20   10.40
  -4   7   4   18.90   10.00
   3  -7  -4  316.57   21.80
   3  -7  -4  309.47   27.30
  -3   7   4  254.27   25.40
  -3   7   4  275.17   24.60
  -3   7   4  258.47   19.40
  -3   7   4  282.37   24.20
   2  -7  -4  275.47   24.70
   2  -7  -4  266.17   20.00
  -2   7   4  264.07   22.80
  -2   7   4  263.17   23.80
  -2   7   4  266.47   23.50
  -2   7   4  272.67   19.20
   1  -7  -4  894.91   51.59
   1  -7  -4  865.21   52.89
   1  -7  -4  882.91   55.19
  -1   7   4 1019.40   55.59
  -1   7   4  998.90   51.89
  -1   7   4 1009.50   54.99
  -1   7   4 1008.90   57.29
   0  -7  -4  357.46   26.30
   0  -7  -4  348.77   23.70
   0  -7  -4  379.56   20.10
   0  -7  -4  372.26   24.70
   0   7   4  326.57   24.50
   0   7   4  343.87   23.70
   0   7   4  365.76   28.40
   0   7   4  361.86   26.20
  -1  -7  -4  197.18   16.50
  -1  -7  -4  163.78   12.80
  -1  -7  -4  191.88   17.00
  -1  -7  -4  193.18   15.70
   1   7   4  174.28   15.60
   1   7   4  167.18   19.70
   1   7   4  184.38   17.50
   1   7   4  161.58   14.70
  -2  -7  -4   78.09   11.80
  -2  -7  -4   59.79   10.70
  -2  -7  -4   73.49   10.90
   2   7   4  130.29   15.00
   2   7   4  107.29   10.20
   2   7   4  152.98   15.30
  -3  -7  -4  358.96   24.00
  -3  -7  -4  320.67   23.40
   3   7   4  306.37   27.80
   3   7   4  321.47   23.80
   3   7   4  325.97   19.30
  -4  -7  -4  104.89   14.00
  -4  -7  -4   87.49   12.30
  -4  -7  -4  103.59    9.50
   4   7   4   69.89   14.70
   4   7   4   98.99   13.50
   4   7   4  106.79   12.60
  -5  -7  -4  861.61   48.20
  -5  -7  -4  846.62   49.70
  -5  -7  -4  838.72   43.60
   5   7   4  789.42   47.20
   5   7   4  745.13   44.80
   5   7   4  793.32   53.79
  -6  -7  -4   36.10    9.80
  -6  -7  -4   31.00   10.00
   6   7   4    5.60   11.20
  -7  -7  -4   56.29   12.40
  -7  -7  -4   60.69   13.60
   7   7   4   46.60   15.50
  -8  -7  -4   17.80   10.40
  -8  -7  -4   34.50   12.60
   8   7   4   47.70   16.40
  -9  -7  -4   24.00   13.40
  -9  -7  -4   26.20   11.60
   9   7   4   22.70   15.20
 -10  -7  -4   62.29   16.80
 -10  -7  -4   32.90   15.60
  10   7   4   69.29   21.40
   6  -8  -4   49.99   17.90
  -6   8   4   49.10   16.50
  -6   8   4   64.09   17.80
   5  -8  -4   67.39   18.20
  -5   8   4   48.70   15.70
  -5   8   4   49.20   17.20
   4  -8  -4   53.79   16.90
  -4   8   4   45.70   14.40
  -4   8   4   48.40   14.50
   3  -8  -4   47.00   10.60
   3  -8  -4   56.79   14.20
  -3   8   4   66.89   14.20
  -3   8   4   58.99   13.90
  -3   8   4   59.49   15.20
   2  -8  -4  396.16   25.20
   2  -8  -4  352.46   29.30
  -2   8   4  293.57   26.60
  -2   8   4  316.57   22.50
  -2   8   4  318.97   27.70
  -2   8   4  299.37   27.40
   1  -8  -4  199.38   18.50
   1  -8  -4  190.38   17.40
   1  -8  -4  219.88   21.20
  -1   8   4  208.18   20.20
  -1   8   4  200.98   20.10
  -1   8   4  193.88   16.80
  -1   8   4  208.08   21.80
   0  -8  -4  331.97   22.70
   0  -8  -4  342.57   24.00
   0  -8  -4  321.07   24.70
   0   8   4  260.57   23.60
   0   8   4  271.77   23.40
   0   8   4  291.17   21.70
   0   8   4  289.07   26.70
  -1  -8  -4   44.50    9.30
  -1  -8  -4   46.90    7.20
  -1  -8  -4   40.00    9.90
  -1  -8  -4   62.99   10.70
   1   8   4   48.70   10.90
   1   8   4   37.10    8.80
   1   8   4   47.40    9.70
  -2  -8  -4  102.59   13.30
  -2  -8  -4   82.39   12.10
  -2  -8  -4  103.19   11.70
  -2  -8  -4   87.09   13.00
   2   8   4  115.39   12.80
   2   8   4  124.89   16.00
  -3  -8  -4  264.47   22.80
  -3  -8  -4  261.67   21.20
  -3  -8  -4  284.17   22.50
  -3  -8  -4  323.87   22.90
   3   8   4  344.47   25.30
   3   8   4  336.47   29.30
   3   8   4  314.37   19.70
  -4  -8  -4   29.60    9.70
  -4  -8  -4   42.80   10.20
   4   8   4   44.70   11.40
   4   8   4   34.00   13.00
  -5  -8  -4  558.74   35.40
  -5  -8  -4  527.65   36.20
   5   8   4  516.95   35.70
   5   8   4  531.75   42.20
   5   8   4  528.35   33.60
  -6  -8  -4   46.90   11.10
  -6  -8  -4   53.59   13.20
   6   8   4   43.60   16.40
  -7  -8  -4  243.98   23.90
  -7  -8  -4  251.37   25.80
   7   8   4  288.67   34.50
  -8  -8  -4   30.70   12.30
  -8  -8  -4   28.90   13.60
   8   8   4   57.19   18.70
  -9  -8  -4   17.20   12.40
  -9  -8  -4    8.50   13.20
   9   8   4   12.10   15.50
 -10  -8  -4   15.20   14.20
 -10  -8  -4   19.60   13.70
 -10  -8  -4   23.10   14.20
  10   8   4   16.40   16.10
   5  -9  -4  182.18   29.80
  -5   9   4  189.48   28.40
  -5   9   4  202.68   26.60
   4  -9  -4   54.19   17.70
  -4   9   4   89.19   20.00
  -4   9   4   86.39   18.30
   3  -9  -4   82.99   14.50
   3  -9  -4  109.59   19.50
  -3   9   4   87.49   17.10
  -3   9   4   95.79   19.60
   2  -9  -4   29.30    9.90
   2  -9  -4   22.70   10.90
  -2   9   4   27.70   11.40
  -2   9   4   34.80   11.70
  -2   9   4   38.10   13.10
   1  -9  -4  232.78   20.40
   1  -9  -4  231.28   22.70
  -1   9   4  201.08   23.30
  -1   9   4  188.08   17.20
  -1   9   4  189.08   22.70
  -1   9   4  181.48   22.70
   0  -9  -4  173.98   19.30
   0  -9  -4  173.48   18.80
   0  -9  -4  166.38   18.50
   0   9   4  143.69   18.20
   0   9   4  161.78   20.90
  -1  -9  -4  570.44   36.00
  -1  -9  -4  554.74   35.80
  -1  -9  -4  544.35   36.00
   1   9   4  558.74   36.00
   1   9   4  529.45   37.50
  -2  -9  -4  126.29   13.30
  -2  -9  -4  132.09   16.50
  -2  -9  -4  115.69   15.90
  -2  -9  -4  101.59   14.50
   2   9   4   94.59   13.30
   2   9   4  107.49   16.70
   2   9   4   90.89   18.90
  -3  -9  -4   20.00    8.40
  -3  -9  -4   22.60    7.80
  -3  -9  -4   31.50    8.90
  -3  -9  -4   21.50    9.60
   3   9   4   11.70    6.30
   3   9   4    1.90    9.40
   3   9   4    8.00   11.60
  -4  -9  -4   98.09   14.70
  -4  -9  -4  119.39   16.90
  -4  -9  -4   78.29   13.30
  -4  -9  -4   99.99   14.20
   4   9   4  123.79   21.90
   4   9   4  139.59   18.60
  -5  -9  -4  103.49   16.20
  -5  -9  -4   94.39   14.80
  -5  -9  -4  131.09   17.30
   5   9   4   91.59   15.70
   5   9   4   99.49   16.30
   5   9   4  104.69   21.40
  -6  -9  -4  259.97   23.10
  -6  -9  -4  264.27   26.10
   6   9   4  266.77   25.00
   6   9   4  249.88   32.90
  -7  -9  -4   68.19   15.40
  -7  -9  -4   95.79   15.50
  -7  -9  -4   63.09   15.30
   7   9   4  101.49   23.40
  -8  -9  -4  127.79   21.40
  -8  -9  -4  118.69   20.70
  -8  -9  -4   91.49   17.60
   8   9   4  158.08   28.80
  -9  -9  -4   12.50   13.30
  -9  -9  -4    9.80   12.20
  -9  -9  -4    8.60   11.70
   9   9   4   24.90   17.30
   4 -10  -4   66.59   18.20
  -4  10   4   53.89   17.30
  -4  10   4   35.80   15.50
   3 -10  -4   54.99   16.70
   3 -10  -4   47.30   12.80
  -3  10   4   57.99   17.90
  -3  10   4   33.70   13.50
   2 -10  -4    4.10    9.00
   2 -10  -4   16.30   11.80
  -2  10   4    2.00   11.10
  -2  10   4   33.60   13.10
   1 -10  -4  279.97   26.90
   1 -10  -4  284.17   25.10
  -1  10   4  278.47   27.30
  -1  10   4  286.47   30.30
   0 -10  -4    3.10    8.40
   0 -10  -4   10.90    8.90
   0 -10  -4    6.50    8.60
   0  10   4    1.30   10.40
   0  10   4   -0.90    8.90
  -1 -10  -4  326.57   26.20
  -1 -10  -4  288.07   25.70
  -1 -10  -4  324.67   26.60
   1  10   4  315.37   26.70
   1  10   4  346.27   29.10
   1  10   4  335.17   32.60
  -2 -10  -4   28.80   10.60
  -2 -10  -4   27.30    9.20
  -2 -10  -4   37.50   11.00
   2  10   4   30.30   14.60
   2  10   4   36.60   10.00
   2  10   4   48.00   14.70
  -3 -10  -4    3.90    7.30
  -3 -10  -4    9.60    9.00
  -3 -10  -4    7.50    7.20
   3  10   4   24.50   14.40
   3  10   4    5.10    9.20
  -4 -10  -4   96.89   14.30
  -4 -10  -4   94.49   16.20
  -4 -10  -4   98.79   15.30
   4  10   4  168.28   26.60
   4  10   4  122.69   18.60
  -5 -10  -4  138.49   19.90
  -5 -10  -4  120.19   17.30
  -5 -10  -4  131.29   18.20
   5  10   4  105.59   17.80
   5  10   4   98.59   21.30
  -6 -10  -4  322.47   28.60
  -6 -10  -4  357.36   30.40
  -6 -10  -4  346.27   27.70
   6  10   4  346.27   36.30
   6  10   4  271.77   28.30
  -7 -10  -4   15.30   12.40
  -7 -10  -4   16.70   11.10
  -7 -10  -4   17.60   11.90
   7  10   4   39.10   18.30
  -8 -10  -4   76.39   15.80
  -8 -10  -4   70.39   17.30
  -8 -10  -4   82.89   18.90
   8  10   4   53.39   22.20
  -9 -10  -4   -1.80   11.00
  -9 -10  -4   -3.40   10.40
  -9 -10  -4    4.40   12.10
   9  10   4   17.20   19.40
   3 -11  -4    2.40   12.50
  -3  11   4   12.70   14.30
  -3  11   4   13.20   13.60
   2 -11  -4   97.59   17.40
   2 -11  -4   86.59   19.30
  -2  11   4  101.59   20.70
  -2  11   4   87.69   18.60
   1 -11  -4  106.49   17.70
   1 -11  -4   98.09   18.60
  -1  11   4   86.79   18.60
  -1  11   4   95.29   19.00
   0 -11  -4   94.59   16.20
   0  11   4   55.69   14.20
   0  11   4   52.89   17.70
   0  11   4   60.09   16.60
  -1 -11  -4  118.49   17.40
  -1 -11  -4  125.69   18.50
   1  11   4  142.09   23.80
   1  11   4  144.19   21.80
   1  11   4  111.99   18.20
  -2 -11  -4  134.59   18.90
  -2 -11  -4  153.98   20.80
   2  11   4  149.29   22.20
   2  11   4  140.79   25.10
  -3 -11  -4  131.79   19.90
  -3 -11  -4  138.09   18.50
   3  11   4  132.79   21.10
   3  11   4  163.28   27.00
  -4 -11  -4   -2.40    7.70
  -4 -11  -4   18.50    9.60
  -4 -11  -4    9.10    9.40
   4  11   4  -13.50   12.30
   4  11   4   14.90   11.80
  -5 -11  -4  221.18   24.00
  -5 -11  -4  247.28   23.30
  -5 -11  -4  246.18   26.90
   5  11   4  222.78   33.30
   5  11   4  187.28   25.50
  -6 -11  -4   78.49   15.80
  -6 -11  -4  112.79   18.00
  -6 -11  -4   78.09   18.60
   6  11   4  106.89   24.10
   6  11   4   97.39   18.60
  -7 -11  -4  195.28   27.00
  -7 -11  -4  189.78   23.10
  -7 -11  -4  184.48   25.00
   7  11   4  200.68   33.60
  -8 -11  -4    3.40   11.30
  -8 -11  -4    0.90   10.10
  -8 -11  -4    8.50   11.40
   8  11   4   -0.70   14.70
   1 -12  -4    7.90   11.70
  -1  12   4   10.40   13.00
  -1  12   4   14.90   13.50
   0 -12  -4   96.79   17.70
   0  12   4   73.19   18.20
   0  12   4  119.59   24.40
   0  12   4   84.59   18.80
  -1 -12  -4   54.49   14.10
  -1 -12  -4   77.79   17.30
   1  12   4   66.09   19.00
   1  12   4   90.79   22.30
   1  12   4   70.39   17.20
  -2 -12  -4  152.48   21.90
  -2 -12  -4  178.58   22.60
   2  12   4  114.89   20.90
   2  12   4  147.89   27.20
  -3 -12  -4   38.10   12.10
  -3 -12  -4   27.70   12.80
   3  12   4   30.80   15.50
   3  12   4   31.50   17.30
  -4 -12  -4   64.39   14.50
  -4 -12  -4   69.19   17.20
   4  12   4   46.90   17.00
   4  12   4   35.00   16.50
  -5 -12  -4   24.10   11.10
  -5 -12  -4   26.40   14.20
   5  12   4   38.10   18.70
   5  12   4   26.70   14.80
  -6 -12  -4   50.09   14.10
  -6 -12  -4   41.10   16.60
  -6 -12  -4   54.89   15.30
   6  12   4   77.39   19.30
   6  12   4   95.59   24.80
  -7 -12  -4  140.49   20.40
  -7 -12  -4  136.09   24.70
  -7 -12  -4  130.89   22.40
   7  12   4  138.59   29.50
  -2 -13  -4   71.39   18.00
  -2 -13  -4   45.70   13.30
   2  13   4   47.60   20.20
   2  13   4   11.80   15.30
  -3 -13  -4   64.29   17.10
  -3 -13  -4   59.79   15.60
   3  13   4   61.99   17.20
   3  13   4   59.09   21.80
  -4 -13  -4   40.00   13.20
  -4 -13  -4   45.30   15.50
   4  13   4   40.90   19.70
   4  13   4   30.00   14.50
   4   9  -5  103.89   21.10
   4   9  -5   98.19   23.70
  -4  -9   5  123.79   20.90
  -4  -9   5  137.09   21.90
   3   9  -5   42.50   15.00
   3   9  -5   16.60   14.90
  -3  -9   5   40.10   15.20
  -3  -9   5   22.50   11.80
   2   9  -5  104.59   21.50
   2   9  -5  101.99   24.80
  -2  -9   5   98.29   19.20
  -2  -9   5   90.19   18.60
   1   9  -5   -1.80   12.90
  -1  -9   5    8.00   12.90
  -1  -9   5   -6.00   10.30
  -7  -8   5   12.30   11.70
   6   8  -5    6.80   12.90
   6   8  -5   12.70   13.40
  -6  -8   5    4.50   10.30
  -6  -8   5   10.10   10.90
  -6  -8   5    7.90   11.20
   5   8  -5   31.00   14.40
   5   8  -5   50.79   17.10
   5   8  -5   34.10   18.50
  -5  -8   5   26.30   12.00
  -5  -8   5   31.80   11.80
  -5  -8   5   38.30   14.40
   4   8  -5   94.39   19.90
   4   8  -5  104.99   20.40
   4   8  -5  104.99   24.60
  -4  -8   5  140.89   19.00
  -4  -8   5   99.19   18.50
  -4  -8   5  110.99   19.00
   3   8  -5  113.49   24.50
   3   8  -5  131.39   22.40
  -3  -8   5   85.49   16.50
  -3  -8   5  116.29   20.00
   2   8  -5   78.89   18.80
   2   8  -5   82.99   21.70
  -2  -8   5   68.79   16.20
  -2  -8   5   70.99   15.90
   1   8  -5   32.50   15.30
  -1  -8   5    7.40   11.00
  -1  -8   5   20.50   11.00
   0   8  -5   72.69   19.60
   0  -8   5  115.49   20.10
   0  -8   5  113.19   18.30
  -1   8  -5   14.20   13.90
   1  -8   5   39.40   13.60
  -2   8  -5   51.69   16.70
   2  -8   5   57.79   17.00
   2  -8   5   64.09   18.80
   8   7  -5  102.19   25.00
   8   7  -5   83.89   24.70
  -8  -7   5   73.89   17.10
  -8  -7   5   93.79   19.50
  -8  -7   5   86.09   17.30
   7   7  -5  -16.10   11.90
   7   7  -5   -1.00   14.40
  -7  -7   5   -6.20   11.00
  -7  -7   5    8.30   10.20
  -7  -7   5    1.50   10.00
   6   7  -5  112.59   22.20
   6   7  -5   87.49   21.80
  -6  -7   5  119.69   20.00
  -6  -7   5  124.29   18.80
  -6  -7   5  101.79   16.60
   5   7  -5   93.59   21.30
   5   7  -5  100.79   20.30
   5   7  -5  103.49   18.80
  -5  -7   5  118.59   18.30
  -5  -7   5  114.19   17.90
  -5  -7   5   92.29   16.10
   4   7  -5   38.70   13.10
   4   7  -5   38.20   16.30
   4   7  -5   41.20   13.40
  -4  -7   5   34.70   12.30
  -4  -7   5   30.90   11.20
  -4  -7   5   35.30   12.00
   3   7  -5  218.58   25.80
   3   7  -5  196.98   28.80
   3   7  -5  262.77   25.10
  -3  -7   5  215.48   24.10
  -3  -7   5  207.58   19.90
  -3  -7   5  212.58   24.10
  -3  -7   5  239.28   25.60
   2   7  -5   27.70   13.30
   2   7  -5   20.60   13.30
  -2  -7   5   18.10   10.90
  -2  -7   5   22.70   11.30
   1   7  -5  210.38   26.80
  -1  -7   5  258.57   24.00
  -1  -7   5  234.38   26.20
   0   7  -5   88.19   18.30
   0  -7   5  124.59   19.00
   0  -7   5  115.69   17.70
  -1   7  -5   42.60   15.00
   1  -7   5   61.59   14.10
   1  -7   5   51.59   13.70
  -2   7  -5    9.70   11.50
  -2   7  -5    7.40   11.90
   2  -7   5   -5.90    8.70
   2  -7   5   10.10   12.20
  -3   7  -5  127.19   21.50
  -3   7  -5  146.29   23.90
   3  -7   5  146.09   23.30
  -4   7  -5   70.49   20.30
  -4   7  -5   71.69   20.40
   4  -7   5  103.79   21.90
   8   6  -5   33.30   19.70
   8   6  -5   39.50   19.90
  -8  -6   5   41.40   13.50
  -8  -6   5   53.69   15.60
  -8  -6   5   53.99   16.40
   7   6  -5  171.28   26.30
   7   6  -5  139.59   25.20
  -7  -6   5  145.59   19.00
  -7  -6   5  130.49   20.10
  -7  -6   5  116.89   19.30
   6   6  -5  241.08   31.40
   6   6  -5  256.17   34.90
  -6  -6   5  259.37   28.00
  -6  -6   5  303.07   25.20
  -6  -6   5  254.77   24.40
   5   6  -5    3.00    9.90
   5   6  -5    3.40   12.20
  -5  -6   5    5.70    8.30
  -5  -6   5    2.00    9.20
  -5  -6   5    6.10    8.30
   4   6  -5  160.68   25.70
   4   6  -5  148.89   21.00
   4   6  -5  161.48   22.70
  -4  -6   5  203.88   20.70
  -4  -6   5  176.98   20.90
  -4  -6   5  191.58   20.60
  -4  -6   5  181.88   24.30
   3   6  -5   24.50   11.10
   3   6  -5   20.80   10.00
   3   6  -5   10.50   11.20
  -3  -6   5    6.20    8.60
  -3  -6   5    8.60    9.30
  -3  -6   5   -1.50    7.80
  -3  -6   5    3.70    7.40
   2   6  -5  124.39   18.60
   2   6  -5  122.89   16.10
   2   6  -5  131.99   23.00
  -2  -6   5   62.29   13.10
  -2  -6   5   89.79   15.70
  -2  -6   5   96.79   15.30
  -2  -6   5   66.59   11.40
   1   6  -5  124.79   19.80
  -1  -6   5  139.39   18.30
  -1  -6   5  128.69   18.10
   0   6  -5  133.49   16.80
   0   6  -5  112.99   19.00
   0  -6   5   76.59   14.90
   0  -6   5   83.69   15.00
  -1   6  -5   81.29   15.20
  -1   6  -5   91.89   18.00
   1  -6   5   69.59   14.20
   1  -6   5   99.79   16.30
  -2   6  -5   40.10   13.80
  -2   6  -5   32.00   12.30
   2  -6   5   25.40   12.00
   2  -6   5   35.80   12.30
   2  -6   5   33.20   11.10
  -3   6  -5  171.38   24.40
  -3   6  -5  143.79   23.40
   3  -6   5  154.88   19.60
   3  -6   5  166.78   23.60
  -4   6  -5   38.90   15.10
  -4   6  -5   22.30   13.60
   4  -6   5   53.79   17.30
  -5   6  -5  -12.80   12.50
  -5   6  -5   -1.10   12.30
   5  -6   5    3.40   12.70
   9   5  -5  115.59   26.80
   9   5  -5   85.49   23.70
  -9  -5   5  118.79   20.70
  -9  -5   5   80.19   17.50
   8   5  -5   32.80   17.50
   8   5  -5   11.80   15.10
  -8  -5   5   23.20   12.20
  -8  -5   5   32.20   12.90
  -8  -5   5   19.40   12.10
   7   5  -5  249.08   32.60
   7   5  -5  238.08   33.10
  -7  -5   5  178.98   22.30
  -7  -5   5  158.08   22.40
  -7  -5   5  167.68   20.00
   6   5  -5  118.69   21.70
   6   5  -5  112.99   23.60
  -6  -5   5  108.09   17.00
  -6  -5   5  118.89   17.00
  -6  -5   5  101.49   14.80
   5   5  -5   75.29   16.50
   5   5  -5   42.00   14.90
  -5  -5   5   55.29   13.10
  -5  -5   5   51.19   14.70
  -5  -5   5   85.99   14.30
  -5  -5   5   55.69   11.30
   4   5  -5  347.17   33.00
   4   5  -5  315.07   28.00
   4   5  -5  337.17   30.00
  -4  -5   5  366.36   27.60
  -4  -5   5  391.66   26.60
  -4  -5   5  378.06   31.60
  -4  -5   5  369.46   26.50
   3   5  -5  169.38   18.40
   3   5  -5  133.39   18.60
   3   5  -5  136.49   22.70
  -3  -5   5  120.79   16.30
  -3  -5   5  140.79   16.70
  -3  -5   5  127.99   15.10
  -3  -5   5  135.49   18.80
   2   5  -5  672.43   43.20
   2   5  -5  719.13   45.80
   2   5  -5  717.73   49.20
   2   5  -5  692.93   41.80
  -2  -5   5  684.83   43.20
  -2  -5   5  701.33   40.60
  -2  -5   5  736.33   45.30
  -2  -5   5  703.63   43.20
   1   5  -5  375.16   25.50
   1   5  -5  398.46   26.30
   1   5  -5  399.46   30.10
  -1  -5   5  331.57   26.70
  -1  -5   5  381.46   28.00
  -1  -5   5  354.06   27.00
  -1  -5   5  364.36   24.10
   0   5  -5  224.58   22.50
   0   5  -5  228.68   21.10
   0  -5   5  244.78   22.10
   0  -5   5  264.17   21.90
  -1   5  -5  193.98   20.30
  -1   5  -5  219.18   24.80
   1  -5   5  245.48   22.20
   1  -5   5  195.78   21.30
  -2   5  -5   36.20   12.10
  -2   5  -5   48.30   12.80
   2  -5   5   56.39   13.20
   2  -5   5   34.00   10.30
   2  -5   5   28.90   10.50
  -3   5  -5   63.69   15.70
  -3   5  -5   37.10   12.90
   3  -5   5   72.99   12.90
   3  -5   5   50.29   13.10
  -4   5  -5   16.60   11.80
  -4   5  -5   28.10   12.90
   4  -5   5   62.89   13.30
   4  -5   5   64.09   15.70
  -5   5  -5   96.39   18.80
  -5   5  -5   94.19   19.30
   5  -5   5   84.69   18.70
  -6   5  -5   12.10   13.70
  -6   5  -5   41.80   17.40
   6  -5   5   31.90   16.00
   9   4  -5   50.09   20.90
   9   4  -5   50.19   21.00
  -9  -4   5   42.30   14.10
  -9  -4   5   59.29   16.20
   8   4  -5   33.90   18.80
   8   4  -5   28.20   17.40
  -8  -4   5   26.90   11.20
  -8  -4   5    7.80    9.80
   7   4  -5   35.40   15.00
   7   4  -5   23.80   13.30
  -7  -4   5   26.30   10.90
  -7  -4   5   30.90   11.50
  -7  -4   5   25.80    9.30
   6   4  -5  192.08   26.30
   6   4  -5  147.79   24.10
  -6  -4   5  190.98   18.10
  -6  -4   5  170.08   20.20
  -6  -4   5  175.68   20.00
  -6  -4   5  191.08   26.40
   5   4  -5  287.07   26.60
   5   4  -5  215.38   28.60
  -5  -4   5  272.67   22.80
  -5  -4   5  274.17   21.00
  -5  -4   5  244.28   26.40
  -5  -4   5  274.77   22.30
   4   4  -5   57.79   14.40
   4   4  -5   53.99   13.30
  -4  -4   5   35.90    9.30
  -4  -4   5   48.10   12.20
  -4  -4   5   38.20    8.90
  -4  -4   5   42.50   10.20
   3   4  -5  946.51   55.99
   3   4  -5  958.20   50.19
   3   4  -5  905.31   59.09
   3   4  -5  987.60   56.79
  -3  -4   5  986.50   57.79
  -3  -4   5  920.61   52.89
  -3  -4   5  928.71   52.89
  -3  -4   5  963.30   54.69
   2   4  -5  330.77   25.30
   2   4  -5  373.36   22.90
   2   4  -5  343.17   29.40
   2   4  -5  360.16   27.20
  -2  -4   5  347.27   26.80
  -2  -4   5  340.87   23.20
  -2  -4   5  355.46   25.30
  -2  -4   5  331.27   24.60
   1   4  -5  376.36   29.10
   1   4  -5  379.46   25.80
   1   4  -5  368.96   31.50
   1   4  -5  378.96   25.40
  -1  -4   5  391.06   27.30
  -1  -4   5  360.46   27.00
  -1  -4   5  393.56   24.20
  -1  -4   5  398.66   27.00
   0   4  -5  111.39   14.60
   0   4  -5  116.89   11.70
   0   4  -5  117.39   16.30
   0  -4   5  133.49   13.30
   0  -4   5  142.09   16.60
   0  -4   5  118.59   11.20
   0  -4   5  141.79   16.50
  -1   4  -5  487.85   33.50
  -1   4  -5  452.75   31.70
   1  -4   5  448.96   31.90
   1  -4   5  426.66   31.20
   1  -4   5  480.95   31.20
  -2   4  -5   45.80   11.80
  -2   4  -5   41.60   11.00
   2  -4   5   21.30    8.90
   2  -4   5   41.80   10.60
   2  -4   5   40.70   10.30
  -3   4  -5  358.36   29.30
  -3   4  -5  326.27   28.80
   3  -4   5  333.07   27.00
   3  -4   5  311.37   25.20
  -4   4  -5  214.78   26.40
  -4   4  -5  250.87   27.20
   4  -4   5  281.07   23.70
   4  -4   5  285.77   26.60
  -5   4  -5   10.80   10.80
  -5   4  -5   43.30   14.80
   5  -4   5   17.10   11.40
  -6   4  -5   11.60   12.20
  -6   4  -5   -3.50    9.40
   6  -4   5   -0.80   11.50
  -7   4  -5   15.60   13.30
  -7   4  -5   11.80   13.80
   7  -4   5  -19.80   10.90
  10   3  -5  129.09   28.60
  10   3  -5  128.99   28.70
 -10  -3   5  110.49   20.90
 -10  -3   5  117.79   19.80
   9   3  -5   -0.60   14.90
   9   3  -5    2.50   15.50
  -9  -3   5   -4.40    9.70
  -9  -3   5    6.80    9.60
   8   3  -5  107.29   22.60
   8   3  -5   83.89   19.60
  -8  -3   5   62.09   13.60
  -8  -3   5   67.09   15.20
   7   3  -5  129.69   22.90
   7   3  -5  151.18   24.30
  -7  -3   5  126.59   18.60
  -7  -3   5  125.09   18.40
  -7  -3   5  161.08   16.60
   6   3  -5  483.85   38.50
   6   3  -5  439.86   36.70
  -6  -3   5  415.56   30.90
  -6  -3   5  414.06   27.90
  -6  -3   5  404.66   35.10
  -6  -3   5  428.26   30.60
   5   3  -5  328.77   30.10
   5   3  -5  310.17   30.80
  -5  -3   5  351.66   23.70
  -5  -3   5  330.57   29.90
  -5  -3   5  373.76   26.60
  -5  -3   5  368.76   26.60
   4   3  -5   99.79   17.70
   4   3  -5  115.39   17.00
  -4  -3   5  111.19   12.40
  -4  -3   5   94.79   15.70
  -4  -3   5  117.39   14.60
  -4  -3   5   90.59   12.80
   3   3  -5  199.58   15.40
   3   3  -5  206.38   22.70
   3   3  -5  210.18   20.40
   3   3  -5  203.68   13.90
   3   3  -5  205.48   19.70
  -3  -3   5  259.67   17.70
  -3  -3   5  265.87   21.80
  -3  -3   5  238.88   19.20
  -3  -3   5  256.87   18.10
   2   3  -5  265.37   22.20
   2   3  -5  293.17   23.70
   2   3  -5  286.37   15.70
   2   3  -5  296.97   19.70
   2   3  -5  276.47   24.90
  -2  -3   5  316.17   23.90
  -2  -3   5  314.87   21.20
  -2  -3   5  324.77   20.70
  -2  -3   5  299.17   22.10
   1   3  -5  288.47   21.20
   1   3  -5  328.17   27.20
   1   3  -5  341.17   25.20
   1   3  -5  321.97   22.30
  -1  -3   5  315.57   23.20
  -1  -3   5  349.77   22.80
  -1  -3   5  323.27   23.10
  -1  -3   5  309.17   20.60
   0   3  -5  222.28   20.00
   0   3  -5  233.08   16.30
   0   3  -5  208.88   18.70
   0  -3   5  242.08   18.10
   0  -3   5  236.88   15.90
   0  -3   5  218.48   18.90
   0  -3   5  237.88   18.30
  -1   3  -5  456.95   32.10
  -1   3  -5  479.55   31.90
   1  -3   5  494.65   31.20
   1  -3   5  466.75   30.90
   1  -3   5  484.05   31.50
   1  -3   5  469.55   26.70
   1  -3   5  495.25   28.20
  -2   3  -5   25.60    9.90
  -2   3  -5   38.60   10.80
   2  -3   5   31.30    8.40
   2  -3   5   35.90    9.70
  -3   3  -5  483.15   34.40
  -3   3  -5  430.06   33.20
   3  -3   5  514.25   32.50
   3  -3   5  522.85   34.00
  -4   3  -5  111.79   17.60
  -4   3  -5  132.69   17.40
   4  -3   5  108.09   15.70
   4  -3   5   94.59   16.00
  -5   3  -5   59.89   13.10
  -5   3  -5   55.69   15.00
   5  -3   5   40.50   12.60
  -6   3  -5   20.20   11.60
  -6   3  -5   23.60   12.30
   6  -3   5   40.00   15.20
  -7   3  -5   14.00   13.40
  -7   3  -5   27.50   12.80
   7  -3   5   19.80   13.90
  -8   3  -5   64.89   19.10
  -8   3  -5   80.89   18.20
  -8   3  -5   60.29   19.20
   8  -3   5   80.59   19.90
  10   2  -5    4.90   15.10
  10   2  -5   -9.60   14.90
 -10  -2   5    8.20   10.70
 -10  -2   5   32.10   13.20
 -10  -2   5   -6.90   10.80
   9   2  -5  125.49   27.10
   9   2  -5  114.19   26.40
  -9  -2   5  113.59   18.40
  -9  -2   5  119.49   18.80
   8   2  -5   86.59   20.60
   8   2  -5   79.19   21.60
  -8  -2   5  118.29   18.00
  -8  -2   5   97.59   16.30
   7   2  -5  410.96   36.50
   7   2  -5  392.86   37.60
  -7  -2   5  415.66   39.60
  -7  -2   5  437.46   30.70
  -7  -2   5  434.66   28.00
  -7  -2   5  415.06   30.70
   6   2  -5  201.18   25.80
   6   2  -5  160.38   23.60
   6   2  -5  188.78   17.30
  -6  -2   5  162.18   14.60
  -6  -2   5  172.28   18.50
  -6  -2   5  168.98   22.60
  -6  -2   5  142.59   18.00
   5   2  -5  135.09   19.00
   5   2  -5  152.38   23.00
   5   2  -5  159.18   14.30
  -5  -2   5  149.29   13.10
  -5  -2   5  149.29   20.80
  -5  -2   5  132.19   15.90
  -5  -2   5  138.69   15.80
   4   2  -5   58.99   14.40
   4   2  -5   70.29   14.10
   4   2  -5   78.19    9.70
  -4  -2   5   66.09    8.70
  -4  -2   5   78.39   13.90
  -4  -2   5   70.69   10.80
  -4  -2   5   68.39   11.30
   3   2  -5  285.87   18.20
   3   2  -5  282.67   25.40
   3   2  -5  267.17   18.40
   3   2  -5  301.77   23.40
  -3  -2   5  280.67   19.90
  -3  -2   5  275.47   18.70
  -3  -2   5  296.57   21.20
  -3  -2   5  267.67   23.30
   2   2  -5 1404.96   78.69
   2   2  -5 1419.56   78.29
   2   2  -5 1384.66   75.29
   2   2  -5 1503.55   81.89
  -2  -2   5 1503.75   76.49
  -2  -2   5 1537.85   75.99
  -2  -2   5 1519.75   79.99
  -2  -2   5 1538.65   77.69
   1   2  -5  784.22   43.30
   1   2  -5  803.02   42.70
   1   2  -5  794.32   39.30
   1   2  -5  777.62   46.80
  -1  -2   5  761.62   44.40
  -1  -2   5  732.33   41.50
  -1  -2   5  747.13   42.20
  -1  -2   5  729.33   43.30
   0   2  -5   62.89   10.20
   0   2  -5   48.10   10.10
   0   2  -5   64.59    8.40
   0  -2   5   79.89    9.70
   0  -2   5   86.69    9.10
   0  -2   5   85.89   10.90
   0  -2   5   90.69   11.50
   0  -2   5   80.69   10.30
  -1   2  -5  109.39   13.80
  -1   2  -5   96.19   12.50
   1  -2   5   95.09   12.20
   1  -2   5   87.29    8.80
   1  -2   5   85.29   11.00
   1  -2   5   78.99   11.30
   1  -2   5   84.99    9.40
  -2   2  -5   52.29   11.10
  -2   2  -5   60.99   11.10
   2  -2   5   47.70    6.10
   2  -2   5   53.19    9.50
   2  -2   5   35.00    9.60
   2  -2   5   47.10    6.00
  -3   2  -5  178.58   20.40
  -3   2  -5  183.68   19.50
   3  -2   5  180.78   17.40
   3  -2   5  176.18   17.00
  -4   2  -5   68.99   12.40
  -4   2  -5   58.69   14.00
   4  -2   5   76.99   13.40
   4  -2   5  109.29   15.10
  -5   2  -5   54.89   13.40
  -5   2  -5   77.09   13.70
   5  -2   5   59.69   14.10
  -6   2  -5  118.19   18.70
  -6   2  -5  107.39   16.60
  -6   2  -5  133.89   20.70
   6  -2   5  102.89   18.80
  -7   2  -5   85.89   17.30
  -7   2  -5   88.49   19.20
  -7   2  -5   58.59   14.30
   7  -2   5   60.19   17.20
  -8   2  -5   24.80   12.40
  -8   2  -5   46.00   16.50
  -8   2  -5   17.00   13.70
   8  -2   5   16.70   15.00
  10   1  -5   36.00   18.60
 -10  -1   5   59.79   18.90
 -10  -1   5   68.69   15.30
   9   1  -5  127.69   27.20
   9   1  -5  140.09   27.10
  -9  -1   5  182.18   25.70
  -9  -1   5  144.19   19.60
  -9  -1   5  165.88   21.00
   8   1  -5   90.89   16.90
   8   1  -5  107.69   23.70
   8   1  -5   73.79   18.90
  -8  -1   5   71.19   14.40
  -8  -1   5   74.89   17.50
  -8  -1   5   60.39   13.00
   7   1  -5  116.89   16.80
   7   1  -5  124.79   21.90
   7   1  -5  114.79   22.10
  -7  -1   5   80.49   17.10
  -7  -1   5   79.39   13.30
  -7  -1   5  125.29   16.80
   6   1  -5  152.78   17.30
   6   1  -5  142.69   21.70
   6   1  -5  159.78   24.40
  -6  -1   5  196.88   19.60
  -6  -1   5  166.28   22.80
  -6  -1   5  143.09   16.50
  -6  -1   5  173.18   13.80
   5   1  -5  252.47   24.00
   5   1  -5  236.18   18.90
   5   1  -5  235.98   24.00
  -5  -1   5  214.38   17.90
  -5  -1   5  196.58   14.30
  -5  -1   5  230.38   19.00
  -5  -1   5  226.48   15.70
  -5  -1   5  214.98   21.80
   4   1  -5    0.60    9.00
   4   1  -5   12.20    5.80
   4   1  -5    7.40    7.50
  -4  -1   5    8.00    5.70
  -4  -1   5    5.80    6.90
  -4  -1   5    9.90    4.10
  -4  -1   5    4.90    5.50
   3   1  -5  804.62   50.39
   3   1  -5  851.81   49.30
   3   1  -5  908.61   45.30
   3   1  -5  866.51   45.30
  -3  -1   5  794.52   45.70
  -3  -1   5  777.42   48.90
  -3  -1   5  802.92   46.00
  -3  -1   5  805.72   43.40
   2   1  -5 1666.23   89.99
   2   1  -5 1713.63   86.29
   2   1  -5 1716.93   86.19
   2   1  -5 1644.34   88.79
   2   1  -5 1685.63   91.19
  -2  -1   5 1692.03   86.49
  -2  -1   5 1779.22   85.19
  -2  -1   5 1732.63   87.39
  -2  -1   5 1641.04   89.59
   1   1  -5  418.16   22.40
   1   1  -5  415.96   26.80
   1   1  -5  436.16   27.80
   1   1  -5  405.76   27.60
   1   1  -5  467.65   30.10
   1   1  -5  451.15   26.40
  -1  -1   5  451.85   25.10
  -1  -1   5  422.76   28.00
  -1  -1   5  412.66   25.40
  -1  -1   5  439.46   27.10
   0   1  -5  470.95   29.20
   0   1  -5  518.25   31.70
   0   1  -5  458.15   28.80
   0   1  -5  473.95   26.40
   0   1  -5  464.35   29.90
   0  -1   5  491.05   27.10
   0  -1   5  476.35   28.80
   0  -1   5  465.05   27.60
   0  -1   5  465.85   27.90
   0  -1   5  479.25   29.10
  -1   1  -5 1395.36   69.49
  -1   1  -5 1387.46   71.99
  -1   1  -5 1366.76   69.19
  -1   1  -5 1387.66   71.79
   1  -1   5 1296.17   68.89
   1  -1   5 1273.07   67.79
   1  -1   5 1361.06   70.29
   1  -1   5 1303.07   70.49
  -2   1  -5  367.06   26.40
  -2   1  -5  395.16   22.40
  -2   1  -5  388.16   26.20
  -2   1  -5  386.36   24.60
   2  -1   5  396.26   21.90
   2  -1   5  397.66   25.50
   2  -1   5  380.06   22.30
   2  -1   5  355.86   25.00
  -3   1  -5    1.40    7.60
  -3   1  -5   -4.40    5.60
  -3   1  -5    2.60    2.60
  -3   1  -5    7.30    5.70
   3  -1   5    3.90    3.60
   3  -1   5   -0.10    5.50
   3  -1   5    4.70    6.10
  -4   1  -5  582.44   38.20
  -4   1  -5  590.04   40.70
  -4   1  -5  621.64   39.10
   4  -1   5  720.73   39.80
   4  -1   5  633.54   39.40
  -5   1  -5   16.80    9.40
  -5   1  -5   17.10    8.50
  -5   1  -5    5.30    8.40
   5  -1   5   43.60   12.00
  -6   1  -5  138.29   18.90
  -6   1  -5  119.19   18.50
  -6   1  -5  129.09   16.70
   6  -1   5  201.48   23.40
  -7   1  -5   42.90   12.30
  -7   1  -5   57.19   15.20
  -7   1  -5   29.40   13.30
   7  -1   5   47.40   15.00
  -8   1  -5   39.70   15.10
  -8   1  -5   39.40   14.30
  -8   1  -5   32.70   12.40
   8  -1   5   35.70   14.90
  -9   1  -5   -4.60   13.40
  -9   1  -5    9.70   11.70
   9  -1   5   12.00   15.10
  10   0  -5   28.60   16.50
  10   0  -5   14.50   18.30
 -10   0   5   48.50   14.90
 -10   0   5   30.10   15.80
 -10   0   5   23.50   12.80
   9   0  -5   71.79   18.70
   9   0  -5   67.19   22.20
  -9   0   5   49.10   15.90
  -9   0   5   56.89   13.60
   8   0  -5  145.79   22.00
   8   0  -5  123.69   25.40
  -8   0   5  131.79   21.30
  -8   0   5  129.69   16.40
  -8   0   5  125.89   18.00
   7   0  -5  284.87   30.30
   7   0  -5  236.78   31.40
   7   0  -5  281.97   26.30
  -7   0   5  308.67   22.90
  -7   0   5  297.37   24.50
  -7   0   5  323.77   30.20
  -7   0   5  312.37   27.80
   6   0  -5  690.93   48.70
   6   0  -5  653.23   43.50
   6   0  -5  675.03   47.40
  -6   0   5  720.23   46.80
  -6   0   5  670.03   37.80
  -6   0   5  667.03   41.30
  -6   0   5  693.23   40.30
   5   0  -5   68.69   15.30
   5   0  -5   41.10   11.50
   5   0  -5   58.09   11.10
  -5   0   5   47.30    6.60
  -5   0   5   52.19    9.70
  -5   0   5   46.10    9.00
  -5   0   5   38.80   11.00
   4   0  -5   74.29   13.30
   4   0  -5   71.19   14.30
   4   0  -5   74.49   11.10
  -4   0   5   65.49   10.30
  -4   0   5   62.59    6.90
  -4   0   5   50.09   11.10
  -4   0   5   63.49    9.40
  -4   0   5   69.39    6.40
   3   0  -5  932.81   50.09
   3   0  -5  924.31   52.89
   3   0  -5  975.60   54.99
  -3   0   5  919.71   49.20
  -3   0   5  906.31   46.20
  -3   0   5  889.61   44.70
  -3   0   5  853.31   52.59
  -3   0   5  895.01   49.40
   2   0  -5   80.39   10.00
   2   0  -5  102.49   13.60
   2   0  -5   90.59   10.20
   2   0  -5   74.59   12.80
  -2   0   5  100.19    7.90
  -2   0   5  100.69    6.10
  -2   0   5  104.39   11.00
  -2   0   5   91.09   12.50
  -2   0   5  100.49    7.60
  -2   0   5  104.39   10.80
   1   0  -5  543.55   29.70
   1   0  -5  534.95   33.00
   1   0  -5  525.35   35.50
   1   0  -5  557.84   34.80
   1   0  -5  549.05   34.60
  -1   0   5  624.44   35.60
  -1   0   5  646.44   31.40
  -1   0   5  639.54   33.30
  -1   0   5  621.04   31.70
  -1   0   5  646.64   33.90
   0   0  -5  783.92   44.20
   0   0  -5  761.72   43.20
   0   0  -5  779.42   43.30
   0   0  -5  783.92   43.00
   0   0  -5  748.33   40.10
   0   0   5  805.42   41.50
   0   0   5  750.42   42.30
   0   0   5  754.92   43.00
   0   0   5  806.62   41.40
  -1   0  -5 2124.19  102.69
  -1   0  -5 1993.00  100.89
  -1   0  -5 1948.71  102.59
  -1   0  -5 2034.40  102.69
  -1   0  -5 2051.29  101.49
   1   0   5 1945.31  101.29
   1   0   5 2050.49  101.59
   1   0   5 2015.40  102.09
   1   0   5 1971.20   99.89
  -2   0  -5  175.98   14.70
  -2   0  -5  188.68   16.90
  -2   0  -5  180.08   14.90
  -2   0  -5  182.48   13.10
   2   0   5  175.08   12.40
   2   0   5  179.08   14.80
   2   0   5  178.58   13.40
   2   0   5  168.78   10.70
   2   0   5  159.28   15.00
  -3   0  -5  625.84   34.50
  -3   0  -5  641.64   35.20
  -3   0  -5  630.54   36.80
  -3   0  -5  623.94   31.50
   3   0   5  539.95   29.60
   3   0   5  531.25   31.30
   3   0   5  521.15   34.20
   3   0   5  542.95   34.40
   3   0   5  529.85   30.90
  -4   0  -5  987.20   55.39
  -4   0  -5 1008.60   50.39
  -4   0  -5 1014.80   56.89
  -4   0  -5 1000.10   54.19
   4   0   5  946.81   50.69
   4   0   5  961.60   55.69
   4   0   5  950.90   49.60
  -5   0  -5  765.32   47.00
  -5   0  -5  807.32   45.20
   5   0   5  738.33   47.50
  -6   0  -5   66.19   13.70
  -6   0  -5   86.29   14.60
  -6   0  -5   92.39   13.10
   6   0   5   81.89   14.90
  -7   0  -5  332.57   30.50
  -7   0  -5  368.86   30.60
  -7   0  -5  348.77   27.30
   7   0   5  368.66   31.60
  -8   0  -5   -8.50    9.40
  -8   0  -5   -1.00   11.30
   8   0   5  -10.90    9.80
  -9   0  -5   -3.90   10.20
  -9   0  -5   11.80   12.90
   9   0   5    4.90   13.10
  10  -1  -5   -1.60   16.00
  10  -1  -5   -2.00   14.00
 -10   1   5    1.00   11.70
 -10   1   5   -2.10   13.40
   9  -1  -5   53.99   20.60
   9  -1  -5   66.59   18.20
  -9   1   5   68.69   14.30
  -9   1   5   54.79   15.90
  -9   1   5   53.69   17.10
   8  -1  -5  195.88   26.40
   8  -1  -5  164.78   27.40
  -8   1   5  169.88   19.90
  -8   1   5  184.08   24.70
   7  -1  -5  354.06   34.90
   7  -1  -5  310.17   29.50
  -7   1   5  308.07   25.10
  -7   1   5  336.97   23.70
  -7   1   5  344.77   29.80
  -7   1   5  355.06   31.10
   6  -1  -5  120.89   20.80
   6  -1  -5   98.79   16.10
  -6   1   5  132.19   19.70
  -6   1   5  104.89   11.10
  -6   1   5  112.69   13.10
  -6   1   5  124.69   17.70
  -6   1   5  105.49   14.10
   5  -1  -5   95.29   17.00
   5  -1  -5   72.39   13.10
  -5   1   5   47.20    6.50
  -5   1   5   63.69   12.60
  -5   1   5   56.59   10.40
  -5   1   5   48.80    8.30
  -5   1   5   48.70   12.10
   4  -1  -5  506.45   34.50
   4  -1  -5  459.45   30.50
  -4   1   5  447.36   30.30
  -4   1   5  438.86   28.20
  -4   1   5  419.56   31.20
  -4   1   5  461.25   27.20
  -4   1   5  456.25   24.30
   3  -1  -5  243.78   18.90
   3  -1  -5  282.87   23.10
  -3   1   5  247.58   19.50
  -3   1   5  226.18   13.10
  -3   1   5  246.38   20.10
  -3   1   5  230.78   17.00
  -3   1   5  236.98   16.30
   2  -1  -5 2393.06  119.09
   2  -1  -5 2404.86  115.69
   2  -1  -5 2447.16  114.99
   2  -1  -5 2360.46  122.59
   2  -1  -5 2395.86  120.29
   2  -1  -5 2467.85  122.19
  -2   1   5 2296.37  118.49
  -2   1   5 2336.97  118.09
  -2   1   5 2431.86  115.29
  -2   1   5 2280.07  114.69
  -2   1   5 2335.17  121.69
   1  -1  -5  345.47   18.80
   1  -1  -5  355.86   19.30
   1  -1  -5  341.87   24.00
   1  -1  -5  344.27   22.10
   1  -1  -5  319.17   24.20
  -1   1   5  358.26   24.00
  -1   1   5  379.46   21.90
  -1   1   5  372.66   20.00
  -1   1   5  365.56   21.80
   0  -1  -5  833.42   46.70
   0  -1  -5  869.21   47.10
   0  -1  -5  793.02   47.10
   0  -1  -5  872.91   44.50
   0  -1  -5  896.71   48.00
   0   1   5  887.21   46.30
   0   1   5  881.21   45.70
   0   1   5  872.51   47.70
   0   1   5  875.01   45.30
  -1  -1  -5   32.30    6.50
  -1  -1  -5   25.70    5.80
  -1  -1  -5   31.80    7.70
  -1  -1  -5   36.00    6.90
  -1  -1  -5   21.80    6.00
   1   1   5   21.50    5.70
   1   1   5   30.70    4.70
   1   1   5   26.40    6.60
   1   1   5   21.40    5.90
   1   1   5   21.80    6.40
  -2  -1  -5  191.38   13.70
  -2  -1  -5  224.78   16.10
  -2  -1  -5  213.58   14.90
   2   1   5  142.69   13.90
   2   1   5  148.49    9.30
   2   1   5  153.08   13.00
   2   1   5  138.59   13.50
   2   1   5  148.09   12.30
  -3  -1  -5  168.08   15.10
  -3  -1  -5  133.29   12.30
  -3  -1  -5  144.59   14.70
  -3  -1  -5  152.68   12.90
   3   1   5  161.78   14.20
   3   1   5  143.39   11.90
   3   1   5  149.79   14.50
   3   1   5  148.09   11.70
   3   1   5  142.59   12.60
  -4  -1  -5  258.27   17.90
  -4  -1  -5  285.97   21.90
  -4  -1  -5  250.47   20.50
  -4  -1  -5  281.37   18.70
   4   1   5  269.57   17.70
   4   1   5  244.88   17.50
   4   1   5  252.07   21.60
  -5  -1  -5  322.97   25.60
  -5  -1  -5  304.37   20.90
  -5  -1  -5  319.27   21.90
  -5  -1  -5  283.27   23.80
   5   1   5  329.47   25.90
   5   1   5  336.17   21.10
  -6  -1  -5  307.57   22.20
  -6  -1  -5  356.86   27.40
  -6  -1  -5  330.07   25.80
   6   1   5  240.98   25.30
  -7  -1  -5  385.26   32.30
  -7  -1  -5  409.66   28.20
  -7  -1  -5  429.76   32.20
   7   1   5  404.16   32.30
  -8  -1  -5   -2.20    9.20
  -8  -1  -5    6.80    9.70
   8   1   5  -15.00   10.50
  -9  -1  -5    2.20   10.70
  -9  -1  -5   -7.10   10.30
   9   1   5    0.50   12.60
 -10  -1  -5  -21.10   11.60
 -10  -1  -5    2.80   12.50
  10   1   5   -4.50   13.90
   9  -2  -5  105.89   26.40
   9  -2  -5   65.59   19.20
  -9   2   5   80.59   19.20
  -9   2   5   65.59   17.50
  -9   2   5  129.99   24.00
   8  -2  -5   17.00   13.60
   8  -2  -5   12.60   14.80
  -8   2   5    9.90    8.50
  -8   2   5   15.90   13.40
  -8   2   5   10.10   10.50
  -8   2   5   10.90   10.70
   7  -2  -5  141.59   22.00
   7  -2  -5  119.79   23.30
  -7   2   5  126.69   16.00
  -7   2   5  103.39   19.00
  -7   2   5  119.79   19.00
   6  -2  -5   30.30   11.10
   6  -2  -5   52.89   15.70
  -6   2   5   29.40    8.60
  -6   2   5   43.00   12.30
  -6   2   5   20.10    6.50
  -6   2   5   30.80   11.70
   5  -2  -5  782.92   55.19
   5  -2  -5  912.31   53.69
  -5   2   5  865.81   46.60
  -5   2   5  905.91   45.50
  -5   2   5  813.02   51.49
  -5   2   5  904.81   48.90
  -5   2   5  857.01   53.09
   4  -2  -5   23.40    9.10
   4  -2  -5   17.40   10.70
  -4   2   5   33.40    4.30
  -4   2   5   34.90   10.30
  -4   2   5   36.90    7.90
  -4   2   5   29.30    5.80
  -4   2   5   33.10    9.00
   3  -2  -5 1401.76   73.19
   3  -2  -5 1406.26   76.29
  -3   2   5 1352.46   70.39
  -3   2   5 1320.87   72.29
  -3   2   5 1298.17   65.39
  -3   2   5 1373.86   74.29
  -3   2   5 1360.56   68.69
   2  -2  -5 1384.66   68.19
   2  -2  -5 1384.36   74.49
   2  -2  -5 1371.96   73.39
   2  -2  -5 1411.06   72.69
  -2   2   5 1344.27   70.19
  -2   2   5 1302.27   73.19
  -2   2   5 1344.17   68.79
  -2   2   5 1344.97   71.29
   1  -2  -5   39.60    7.00
   1  -2  -5   51.09    9.90
   1  -2  -5   39.80    5.20
   1  -2  -5   37.10    8.10
  -1   2   5   31.00    4.50
  -1   2   5   23.30    5.70
  -1   2   5   28.10    7.70
  -1   2   5   30.30    6.40
  -1   2   5   28.40    5.50
   0  -2  -5  170.48   15.20
   0  -2  -5  163.88   11.90
   0  -2  -5  177.58   14.20
   0  -2  -5  171.38   13.70
   0   2   5  180.68   12.90
   0   2   5  192.58   13.30
   0   2   5  175.48   13.40
   0   2   5  194.28   13.00
   0   2   5  161.28   14.70
  -1  -2  -5 2563.44  125.99
  -1  -2  -5 2489.45  126.09
  -1  -2  -5 2471.85  128.19
  -1  -2  -5 2507.15  127.69
   1   2   5 2495.15  124.69
   1   2   5 2650.03  128.69
   1   2   5 2589.44  126.29
   1   2   5 2571.74  127.09
   1   2   5 2635.44  126.89
  -2  -2  -5  847.92   45.90
  -2  -2  -5  873.11   47.10
  -2  -2  -5  840.82   46.50
  -2  -2  -5  843.62   42.90
  -2  -2  -5  826.12   44.10
   2   2   5  822.82   41.90
   2   2   5  852.31   46.70
   2   2   5  818.42   46.50
   2   2   5  836.32   44.70
   2   2   5  836.32   46.20
  -3  -2  -5   25.50    7.10
  -3  -2  -5   17.10    5.00
  -3  -2  -5   27.20    7.00
  -3  -2  -5   20.80    7.70
   3   2   5   31.10    8.10
   3   2   5   42.70    6.70
   3   2   5   33.60    7.50
  -4  -2  -5  404.66   26.40
  -4  -2  -5  410.36   22.80
  -4  -2  -5  387.66   25.10
  -4  -2  -5  400.06   26.60
   4   2   5  323.97   24.10
   4   2   5  356.56   26.10
   4   2   5  359.96   23.40
  -5  -2  -5  270.37   18.20
  -5  -2  -5  265.07   22.60
  -5  -2  -5  254.77   22.50
  -5  -2  -5  259.27   20.00
   5   2   5  283.77   23.50
   5   2   5  285.57   21.00
  -6  -2  -5  344.67   25.20
  -6  -2  -5  349.17   21.70
  -6  -2  -5  350.46   26.70
  -6  -2  -5  341.47   26.00
   6   2   5  286.47   23.60
   6   2   5  303.17   26.10
  -7  -2  -5   37.60   11.60
  -7  -2  -5   39.70   11.90
   7   2   5   31.20   11.50
  -8  -2  -5   80.69   16.80
  -8  -2  -5  108.69   18.40
   8   2   5  115.99   20.00
  -9  -2  -5   18.10   13.40
  -9  -2  -5   -2.70    9.60
   9   2   5   -4.70    9.90
 -10  -2  -5    6.20   13.80
 -10  -2  -5   34.20   13.90
  10   2   5   13.90   13.80
   9  -3  -5   48.50   18.90
  -9   3   5   78.59   19.10
  -9   3   5   52.69   17.60
   8  -3  -5  170.68   26.50
  -8   3   5  129.79   20.80
  -8   3   5  164.98   23.80
  -8   3   5  133.59   17.50
  -8   3   5  142.69   22.90
   7  -3  -5   57.79   17.10
   7  -3  -5   46.00   18.80
  -7   3   5   79.39   16.80
  -7   3   5   72.39   12.20
  -7   3   5   71.69   16.00
  -7   3   5   88.89   17.60
   6  -3  -5  857.61   57.69
   6  -3  -5  889.61   60.79
  -6   3   5  948.91   56.59
  -6   3   5  940.91   57.59
  -6   3   5  907.51   55.79
  -6   3   5  922.91   51.79
   5  -3  -5   23.40   12.00
   5  -3  -5   23.40    9.60
  -5   3   5   17.20    9.70
  -5   3   5   18.20    6.70
  -5   3   5   17.70    9.40
  -5   3   5   15.60    4.70
   4  -3  -5  115.49   16.10
   4  -3  -5  138.89   20.30
  -4   3   5  130.49   17.30
  -4   3   5   96.79   12.10
  -4   3   5   92.09   14.10
  -4   3   5   90.69    8.60
   3  -3  -5   56.29   10.70
   3  -3  -5   62.49   13.70
  -3   3   5   66.09   11.30
  -3   3   5   57.89   10.30
  -3   3   5   64.39    6.80
  -3   3   5   58.39    4.50
  -3   3   5   62.39    8.80
   2  -3  -5  447.26   29.10
   2  -3  -5  432.26   28.60
   2  -3  -5  445.26   30.40
   2  -3  -5  432.26   24.90
   2  -3  -5  446.96   22.20
  -2   3   5  402.26   28.60
  -2   3   5  425.16   25.60
  -2   3   5  433.56   27.60
  -2   3   5  404.06   23.50
   1  -3  -5 1770.62   89.59
   1  -3  -5 1836.92   91.99
   1  -3  -5 1768.22   90.99
   1  -3  -5 1764.92   91.29
   1  -3  -5 1777.52   87.59
  -1   3   5 1698.93   88.99
  -1   3   5 1701.33   88.49
  -1   3   5 1750.02   86.89
  -1   3   5 1686.93   91.39
   0  -3  -5  572.04   29.30
   0  -3  -5  593.44   33.10
   0  -3  -5  577.34   27.20
   0  -3  -5  614.14   31.10
   0  -3  -5  612.74   31.20
   0   3   5  459.15   28.40
   0   3   5  452.15   28.90
   0   3   5  462.35   28.10
   0   3   5  425.76   28.90
   0   3   5  456.65   31.60
  -1  -3  -5 4663.73  228.48
  -1  -3  -5 4817.32  230.58
  -1  -3  -5 4610.24  226.58
  -1  -3  -5 4741.73  226.38
  -1  -3  -5 4673.13  227.28
   1   3   5 4538.05  227.48
   1   3   5 4706.33  226.48
   1   3   5 4752.72  230.58
   1   3   5 4521.45  227.38
   1   3   5 4625.34  227.58
  -2  -3  -5  494.75   30.50
  -2  -3  -5  481.45   29.20
  -2  -3  -5  510.85   28.70
  -2  -3  -5  512.35   24.20
   2   3   5  420.46   29.50
   2   3   5  471.05   25.70
   2   3   5  451.85   27.60
   2   3   5  432.66   28.50
  -3  -3  -5   22.60    4.20
  -3  -3  -5   27.10    7.30
  -3  -3  -5   31.40    8.20
  -3  -3  -5   22.80    7.20
   3   3   5   35.80    8.40
   3   3   5   45.30    9.40
   3   3   5   44.20    8.10
   3   3   5   34.50    4.60
  -4  -3  -5  245.08   20.60
  -4  -3  -5  242.28   15.20
  -4  -3  -5  257.57   20.50
  -4  -3  -5  226.78   19.80
  -4  -3  -5  234.48   14.00
   4   3   5  301.47   19.30
   4   3   5  285.57   21.10
   4   3   5  288.57   20.80
  -5  -3  -5   25.90    9.30
  -5  -3  -5   31.50    5.10
  -5  -3  -5   25.10    8.10
  -5  -3  -5   22.00    8.60
   5   3   5    6.20    7.10
   5   3   5   10.90    8.40
  -6  -3  -5  503.55   33.80
  -6  -3  -5  493.85   28.10
  -6  -3  -5  537.75   34.50
   6   3   5  467.65   34.40
   6   3   5  490.15   33.80
  -7  -3  -5  160.28   20.00
  -7  -3  -5  202.08   21.70
   7   3   5  157.08   20.40
   7   3   5  161.28   18.60
  -8  -3  -5   42.40   11.80
  -8  -3  -5   48.00   13.50
   8   3   5   67.79   15.40
  -9  -3  -5   18.30   12.50
  -9  -3  -5   17.50   11.40
   9   3   5   11.20   12.20
 -10  -3  -5   18.70   14.40
 -10  -3  -5   26.20   12.90
 -10  -3  -5   37.90   15.80
  10   3   5   17.00   15.20
   9  -4  -5   66.29   23.20
  -9   4   5   30.80   15.50
  -9   4   5   31.90   16.40
   8  -4  -5  126.89   25.40
  -8   4   5   75.39   17.60
  -8   4   5   85.19   18.90
   7  -4  -5   56.49   17.20
  -7   4   5   36.10   12.60
  -7   4   5   35.60    9.30
  -7   4   5   19.90   11.80
  -7   4   5   18.80   11.00
   6  -4  -5  140.29   21.50
  -6   4   5  201.58   17.60
  -6   4   5  180.88   22.50
  -6   4   5  223.78   24.50
  -6   4   5  180.28   21.10
   5  -4  -5  376.26   31.70
  -5   4   5  373.76   24.90
  -5   4   5  344.07   28.00
  -5   4   5  371.56   29.00
  -5   4   5  388.66   29.90
   4  -4  -5  282.27   26.60
   4  -4  -5  258.87   22.80
  -4   4   5  220.08   21.20
  -4   4   5  213.08   13.40
  -4   4   5  230.98   20.20
  -4   4   5  216.68   17.00
  -4   4   5  196.38   21.60
   3  -4  -5  250.27   25.40
   3  -4  -5  248.88   23.50
  -3   4   5  335.07   25.00
  -3   4   5  322.97   16.90
  -3   4   5  311.07   20.70
  -3   4   5  330.07   23.20
   2  -4  -5   82.89    9.80
   2  -4  -5   87.69   14.60
   2  -4  -5   73.39   11.70
  -2   4   5   71.99    6.20
  -2   4   5   63.89   11.10
  -2   4   5   50.09    9.50
  -2   4   5   69.19    9.50
   1  -4  -5  982.10   57.69
   1  -4  -5 1043.40   54.49
   1  -4  -5  992.60   57.39
   1  -4  -5  992.70   57.39
   1  -4  -5  998.10   51.19
  -1   4   5 1096.99   54.89
  -1   4   5 1061.49   52.29
  -1   4   5 1089.99   58.69
  -1   4   5 1051.79   55.79
   0  -4  -5  537.85   28.40
   0  -4  -5  538.95   30.80
   0  -4  -5  517.55   31.50
   0  -4  -5  538.05   34.30
   0   4   5  551.34   31.50
   0   4   5  545.55   31.20
   0   4   5  564.44   34.60
  -1  -4  -5   96.59    8.90
  -1  -4  -5  106.09   11.50
  -1  -4  -5   98.69   10.50
  -1  -4  -5  103.79   13.40
   1   4   5   90.39   13.10
   1   4   5   85.29    9.80
   1   4   5   92.49   10.50
  -2  -4  -5  372.96   24.30
  -2  -4  -5  368.76   23.90
  -2  -4  -5  347.97   23.40
  -2  -4  -5  370.46   26.50
   2   4   5  404.46   24.80
   2   4   5  393.16   22.70
   2   4   5  389.56   20.40
   2   4   5  419.26   24.50
   2   4   5  388.16   26.90
  -3  -4  -5    4.70    6.10
  -3  -4  -5    6.50    5.60
  -3  -4  -5    8.80    5.50
  -3  -4  -5    1.10    5.00
   3   4   5    8.50    4.20
   3   4   5    8.10    2.20
   3   4   5    5.60    6.10
   3   4   5    1.00    5.90
   3   4   5   10.20    6.70
  -4  -4  -5  152.28   16.40
  -4  -4  -5  140.99   14.00
  -4  -4  -5  130.19   15.00
   4   4   5  107.89   14.60
   4   4   5  137.39   16.00
   4   4   5  123.89   13.40
   4   4   5  120.59   10.10
  -5  -4  -5  182.08   19.30
  -5  -4  -5  168.38   16.10
  -5  -4  -5  175.28   19.20
   5   4   5  148.79   18.10
   5   4   5  131.49   17.50
  -6  -4  -5  172.48   20.30
  -6  -4  -5  177.78   17.90
  -6  -4  -5  153.68   19.30
   6   4   5  206.18   22.70
   6   4   5  180.38   19.80
  -7  -4  -5  492.45   36.80
  -7  -4  -5  534.75   37.10
  -7  -4  -5  536.75   35.20
   7   4   5  537.35   37.70
   7   4   5  471.15   35.80
  -8  -4  -5    8.80    9.10
  -8  -4  -5   -0.90    7.90
  -8  -4  -5    6.00    9.20
   8   4   5    0.60   11.00
   8   4   5   -0.70    9.10
  -9  -4  -5  133.49   22.30
  -9  -4  -5  152.48   22.30
  -9  -4  -5  133.19   18.90
   9   4   5  137.99   22.50
 -10  -4  -5   -7.00   11.20
 -10  -4  -5   26.10   13.70
 -10  -4  -5   19.70   11.90
  10   4   5   25.00   14.50
   8  -5  -5    3.80   14.20
  -8   5   5    9.30   12.70
  -8   5   5   10.20   14.30
   7  -5  -5   49.30   17.30
  -7   5   5   27.30   13.10
  -7   5   5   68.39   17.10
   6  -5  -5   11.20   12.20
  -6   5   5   11.80   11.20
  -6   5   5   16.20    7.50
  -6   5   5   11.40    9.60
  -6   5   5   21.70   10.70
   5  -5  -5  481.25   39.00
  -5   5   5  525.25   31.90
  -5   5   5  525.35   37.10
  -5   5   5  508.25   37.30
  -5   5   5  518.55   37.00
   4  -5  -5  103.49   17.10
  -4   5   5   60.89   12.60
  -4   5   5   55.29   12.10
  -4   5   5   74.09   10.30
  -4   5   5   69.29   13.50
   3  -5  -5  386.26   31.00
  -3   5   5  429.96   29.60
  -3   5   5  461.05   27.10
  -3   5   5  438.76   30.10
   2  -5  -5  136.49   10.10
   2  -5  -5  140.89   15.50
   2  -5  -5  150.08   13.10
  -2   5   5  116.89   15.50
  -2   5   5  125.29   12.90
  -2   5   5  119.39   14.80
  -2   5   5  125.39   15.70
   1  -5  -5  125.89    9.60
   1  -5  -5  135.59   14.60
   1  -5  -5  130.49   12.60
  -1   5   5  140.79   14.90
  -1   5   5  148.29   13.80
  -1   5   5  131.49   14.80
  -1   5   5  106.19   11.80
   0  -5  -5  484.65   31.10
   0  -5  -5  498.65   26.40
   0  -5  -5  524.05   28.70
   0   5   5  427.96   28.00
   0   5   5  465.15   29.20
   0   5   5  456.05   28.20
   0   5   5  451.95   31.50
  -1  -5  -5  789.32   41.20
  -1  -5  -5  740.53   42.30
  -1  -5  -5  755.62   42.30
   1   5   5  766.52   41.10
   1   5   5  763.62   42.80
   1   5   5  747.33   42.60
   1   5   5  820.12   46.80
  -2  -5  -5 1364.46   71.19
  -2  -5  -5 1318.67   71.99
  -2  -5  -5 1323.57   71.29
   2   5   5 1369.06   68.49
   2   5   5 1419.66   72.39
   2   5   5 1422.86   71.19
   2   5   5 1429.86   76.19
  -3  -5  -5  279.87   19.10
  -3  -5  -5  307.17   20.30
  -3  -5  -5  261.77   19.40
   3   5   5  264.97   18.10
   3   5   5  257.77   19.70
   3   5   5  253.17   14.60
   3   5   5  235.38   21.60
  -4  -5  -5  145.59   16.20
  -4  -5  -5  131.09   12.80
  -4  -5  -5  126.69   14.70
   4   5   5  116.49   15.10
   4   5   5  105.69   15.70
   4   5   5   95.99   12.90
   4   5   5  117.29   11.00
  -5  -5  -5  217.98   17.80
  -5  -5  -5  214.08   19.10
  -5  -5  -5  242.88   20.90
   5   5   5  184.38   20.60
   5   5   5  157.38   19.00
  -6  -5  -5  125.59   17.50
  -6  -5  -5  132.79   15.60
  -6  -5  -5  125.29   17.80
   6   5   5  123.29   18.00
   6   5   5  144.79   20.40
  -7  -5  -5  340.07   27.90
  -7  -5  -5  337.97   25.80
  -7  -5  -5  334.07   28.50
   7   5   5  345.87   29.10
   7   5   5  316.97   30.10
  -8  -5  -5   36.30   10.70
  -8  -5  -5   37.00   13.40
  -8  -5  -5   35.70   12.10
   8   5   5   38.80   14.30
   8   5   5   32.90   13.80
  -9  -5  -5    2.50   10.80
  -9  -5  -5   24.80   12.10
  -9  -5  -5   26.90   10.90
   9   5   5    2.10   12.00
   9   5   5   10.30   12.40
 -10  -5  -5    8.00   12.60
 -10  -5  -5   34.00   14.50
  10   5   5    3.00   13.90
   8  -6  -5   28.70   17.70
  -8   6   5   23.10   14.90
  -8   6   5   42.60   18.40
   7  -6  -5   48.10   19.60
  -7   6   5   48.40   16.80
  -7   6   5   47.80   15.00
   6  -6  -5   71.59   19.60
  -6   6   5  103.49   19.10
  -6   6   5   98.19   18.70
   5  -6  -5  161.18   23.50
  -5   6   5  173.68   21.80
  -5   6   5  145.59   21.10
  -5   6   5  151.58   16.10
  -5   6   5  157.58   22.00
   4  -6  -5  163.48   22.40
  -4   6   5  188.58   16.10
  -4   6   5  159.48   20.10
  -4   6   5  201.68   21.00
  -4   6   5  168.58   20.70
   3  -6  -5   37.50   11.80
  -3   6   5   24.40   10.20
  -3   6   5   21.50    9.70
  -3   6   5   38.30   11.10
  -3   6   5   32.00    7.70
   2  -6  -5   92.49   12.00
   2  -6  -5  101.69    9.70
   2  -6  -5  117.09   15.80
  -2   6   5   59.59   11.90
  -2   6   5   59.79   12.50
  -2   6   5   73.79   10.60
  -2   6   5   78.49   13.00
   1  -6  -5  210.78   15.10
   1  -6  -5  215.28   20.10
   1  -6  -5  192.38   16.70
  -1   6   5  219.18   20.80
  -1   6   5  207.38   16.70
  -1   6   5  230.28   19.10
  -1   6   5  232.88   18.80
   0  -6  -5  171.08   13.90
   0  -6  -5  132.59   11.70
   0  -6  -5  159.18   16.30
   0   6   5  161.58   14.30
   0   6   5  115.99   13.20
   0   6   5  144.89   16.30
   0   6   5  141.19   15.60
  -1  -6  -5 2005.20  101.59
  -1  -6  -5 2078.59  103.39
   1   6   5 1978.60  107.49
   1   6   5 2030.00  103.79
   1   6   5 2010.30  101.69
   1   6   5 2028.90  103.29
  -2  -6  -5  393.46   25.30
  -2  -6  -5  406.76   25.80
   2   6   5  387.96   25.90
   2   6   5  432.56   23.60
   2   6   5  443.16   27.60
   2   6   5  417.56   30.70
  -3  -6  -5  617.54   38.40
  -3  -6  -5  658.83   37.10
  -3  -6  -5  595.54   38.10
   3   6   5  685.33   39.30
   3   6   5  668.13   32.90
   3   6   5  671.73   38.00
  -4  -6  -5   87.49   12.80
  -4  -6  -5   97.79   11.70
  -4  -6  -5   96.69   13.00
   4   6   5  100.69   16.70
   4   6   5  107.19    8.70
   4   6   5  122.49   13.40
  -5  -6  -5    2.20    6.60
  -5  -6  -5    7.20    6.20
  -5  -6  -5    9.40    8.00
   5   6   5    5.70    5.80
   5   6   5    0.00    7.40
  -6  -6  -5  188.48   17.30
  -6  -6  -5  204.88   23.10
  -6  -6  -5  193.88   20.90
   6   6   5  158.98   23.20
  -7  -6  -5   31.40   12.90
  -7  -6  -5   51.69   10.80
  -7  -6  -5   57.09   14.10
   7   6   5   51.29   14.90
  -8  -6  -5  262.07   29.90
  -8  -6  -5  284.97   26.60
   8   6   5  308.97   30.90
  -9  -6  -5   -1.10   11.80
  -9  -6  -5    6.20   11.90
   9   6   5   23.00   13.80
 -10  -6  -5  117.49   22.30
 -10  -6  -5  116.49   21.20
  10   6   5  112.49   23.50
   7  -7  -5    3.50   14.10
  -7   7   5    8.60   12.80
  -7   7   5    7.70   14.30
   6  -7  -5   76.79   20.00
  -6   7   5   90.19   19.00
  -6   7   5   94.69   20.60
   5  -7  -5   82.29   18.80
  -5   7   5   68.49   17.30
  -5   7   5   60.69   14.90
   4  -7  -5  465.35   38.60
  -4   7   5  499.65   36.60
  -4   7   5  457.55   35.10
  -4   7   5  495.15   37.30
  -4   7   5  549.74   39.20
   3  -7  -5  279.07   20.50
   3  -7  -5  279.27   27.10
  -3   7   5  267.87   25.20
  -3   7   5  286.67   20.70
  -3   7   5  306.47   25.00
  -3   7   5  277.17   25.40
   2  -7  -5  113.89   17.70
   2  -7  -5  117.79   12.60
   2  -7  -5  115.59   14.70
  -2   7   5  132.79   18.50
  -2   7   5  100.39   15.50
  -2   7   5  111.89   16.40
  -2   7   5  120.79   13.30
   1  -7  -5    2.20    6.70
   1  -7  -5    4.50    5.90
   1  -7  -5   14.20    5.70
  -1   7   5    2.90    7.20
  -1   7   5    4.50    5.80
  -1   7   5    3.70    6.90
  -1   7   5   -1.10    6.80
   0  -7  -5   83.69    7.90
   0  -7  -5   74.69   13.20
   0  -7  -5   71.89   11.80
   0  -7  -5   75.99   10.30
   0   7   5  147.99   14.60
   0   7   5  144.79   16.30
   0   7   5  145.09   15.00
   0   7   5  158.48   19.00
  -1  -7  -5  987.00   54.69
  -1  -7  -5  993.70   51.69
  -1  -7  -5 1000.20   52.69
   1   7   5  863.01   51.69
   1   7   5  928.41   51.09
   1   7   5  937.61   57.39
   1   7   5  870.91   52.89
  -2  -7  -5  126.19   14.30
  -2  -7  -5  117.39   14.50
   2   7   5  166.78   16.10
   2   7   5  200.78   20.90
   2   7   5  184.78   15.80
   2   7   5  156.18   12.60
  -3  -7  -5  778.42   45.60
  -3  -7  -5  745.33   43.30
  -3  -7  -5  787.12   45.90
   3   7   5  811.82   40.70
   3   7   5  821.92   45.80
   3   7   5  781.82   46.10
  -4  -7  -5  718.83   44.40
  -4  -7  -5  696.53   44.60
  -4  -7  -5  756.72   41.60
   4   7   5  762.92   41.00
   4   7   5  785.62   44.00
   4   7   5  751.82   49.80
  -5  -7  -5  148.99   13.90
  -5  -7  -5  158.18   17.90
  -5  -7  -5  156.58   18.20
   5   7   5  142.49   21.60
   5   7   5  165.98   16.00
  -6  -7  -5   19.00    9.10
  -6  -7  -5    9.00    6.50
  -6  -7  -5   23.00   10.30
   6   7   5   19.00   12.50
  -7  -7  -5   79.39   15.90
  -7  -7  -5   80.69   15.60
   7   7   5   99.29   19.70
  -8  -7  -5   52.79   14.90
  -8  -7  -5   51.09   15.60
   8   7   5   41.20   16.40
  -9  -7  -5   76.29   18.50
  -9  -7  -5  118.69   19.90
   9   7   5  128.79   24.60
 -10  -7  -5   20.10   14.40
 -10  -7  -5   -6.40   11.70
  10   7   5   -0.80   13.20
   6  -8  -5   16.50   16.40
  -6   8   5   -7.90   13.30
  -6   8   5   22.40   12.80
   5  -8  -5  298.77   35.40
  -5   8   5  251.57   31.60
  -5   8   5  292.87   31.60
   4  -8  -5  127.19   22.10
  -4   8   5  144.59   21.00
  -4   8   5   93.39   18.30
   3  -8  -5  465.35   32.40
   3  -8  -5  509.35   39.30
  -3   8   5  551.74   39.50
  -3   8   5  526.25   38.20
  -3   8   5  545.85   38.70
   2  -8  -5   95.29   13.00
   2  -8  -5   80.89   16.40
  -2   8   5   94.89   15.70
  -2   8   5  109.09   17.20
  -2   8   5  112.79   17.90
  -2   8   5  101.59   13.00
   1  -8  -5   98.99   16.00
   1  -8  -5  109.49   13.20
   1  -8  -5  112.39   15.50
  -1   8   5  139.89   14.90
  -1   8   5  115.49   16.50
  -1   8   5  141.49   17.50
  -1   8   5  147.09   20.30
   0  -8  -5   43.50    9.20
   0  -8  -5   17.80    8.00
   0  -8  -5   26.80    9.80
   0   8   5   41.70   10.60
   0   8   5   28.70    9.40
   0   8   5   43.80    9.60
   0   8   5   33.90   12.20
  -1  -8  -5    6.60    6.30
  -1  -8  -5    8.40    4.70
  -1  -8  -5    8.30    6.50
  -1  -8  -5   17.70    8.60
   1   8   5    9.70    9.40
   1   8   5   10.70    7.10
   1   8   5    6.70    6.80
   1   8   5   13.40    8.50
  -2  -8  -5  868.51   49.40
  -2  -8  -5  871.91   50.59
  -2  -8  -5  910.01   49.30
   2   8   5  755.32   49.40
   2   8   5  839.12   46.50
   2   8   5  862.71   49.70
  -3  -8  -5   63.39   11.50
  -3  -8  -5   42.20    9.40
   3   8   5   73.49   13.20
   3   8   5   65.49   16.20
   3   8   5   58.99    7.90
  -4  -8  -5  239.78   21.50
  -4  -8  -5  243.38   17.30
  -4  -8  -5  259.17   21.80
   4   8   5  204.48   20.20
   4   8   5  224.98   27.80
  -5  -8  -5   70.29   13.50
  -5  -8  -5  107.29   15.30
   5   8   5   66.09   16.40
   5   8   5   76.89   13.20
  -6  -8  -5   17.40    8.70
  -6  -8  -5   24.20   11.60
   6   8   5   44.20   11.10
   6   8   5   40.10   16.00
  -7  -8  -5  213.18   25.40
  -7  -8  -5  230.08   22.70
   7   8   5  244.28   31.70
  -8  -8  -5    5.90    9.60
  -8  -8  -5   -1.20    9.30
   8   8   5    2.60   12.20
  -9  -8  -5   89.49   18.70
  -9  -8  -5  153.58   23.30
   9   8   5  113.59   24.10
 -10  -8  -5    0.00   11.60
 -10  -8  -5   -1.30   12.50
  10   8   5   10.30   14.80
   5  -9  -5  143.19   25.30
  -5   9   5   82.99   21.10
  -5   9   5   79.09   18.60
   4  -9  -5  147.89   24.70
  -4   9   5  123.49   21.70
  -4   9   5  124.79   21.30
   3  -9  -5  289.87   29.40
  -3   9   5  267.57   30.00
  -3   9   5  231.38   27.70
   2  -9  -5   81.49   13.10
   2  -9  -5   76.39   16.60
  -2   9   5   99.59   17.50
  -2   9   5   84.89   17.10
  -2   9   5   94.49   17.70
   1  -9  -5   74.99   13.60
   1  -9  -5   73.59   15.40
   1  -9  -5   77.79   12.40
  -1   9   5   96.19   17.90
  -1   9   5  104.69   17.20
  -1   9   5   92.39   12.80
  -1   9   5   80.59   14.80
   0  -9  -5   28.50   10.70
   0  -9  -5   17.20    9.10
   0  -9  -5   38.40    9.70
   0   9   5   11.30    7.80
   0   9   5   21.40    9.20
   0   9   5   24.10   10.50
   0   9   5   11.70    9.30
  -1  -9  -5  268.47   23.80
  -1  -9  -5  256.17   22.50
  -1  -9  -5  247.28   22.00
   1   9   5  299.97   22.90
   1   9   5  295.27   24.90
   1   9   5  329.77   23.70
  -2  -9  -5  402.36   26.40
  -2  -9  -5  396.66   29.40
  -2  -9  -5  441.16   31.10
  -2  -9  -5  432.76   30.20
   2   9   5  437.76   31.70
   2   9   5  447.36   28.10
  -3  -9  -5  251.57   19.40
  -3  -9  -5  223.68   20.90
  -3  -9  -5  251.77   21.70
  -3  -9  -5  237.38   21.50
   3   9   5  239.68   22.30
   3   9   5  196.48   26.40
  -4  -9  -5  102.89   16.00
  -4  -9  -5  106.79   15.40
   4   9   5  146.69   22.70
   4   9   5  146.29   18.90
  -5  -9  -5  187.38   21.60
  -5  -9  -5  156.38   20.40
   5   9   5  185.28   21.10
   5   9   5  178.38   26.50
  -6  -9  -5  103.39   16.60
  -6  -9  -5   61.59   15.20
   6   9   5  102.69   16.40
   6   9   5   78.29   20.80
  -7  -9  -5   13.50   11.00
  -7  -9  -5   14.20   10.80
   7   9   5    3.00   12.40
  -8  -9  -5  134.99   23.30
  -8  -9  -5  171.18   22.90
   8   9   5  162.38   29.00
  -9  -9  -5   13.50   12.40
  -9  -9  -5   15.40   14.30
   9   9   5   17.00   15.60
   4 -10  -5   44.40   16.70
  -4  10   5   40.90   16.50
  -4  10   5   43.20   17.40
   3 -10  -5   24.10   13.70
  -3  10   5   36.50   13.80
  -3  10   5   59.29   17.70
   2 -10  -5  238.68   28.80
   2 -10  -5  195.98   21.70
  -2  10   5  221.58   27.40
  -2  10   5  227.98   27.30
   1 -10  -5    3.90    9.30
   1 -10  -5    5.40    8.20
  -1  10   5   10.60   10.40
  -1  10   5    3.70   10.80
  -1  10   5    4.40   10.00
   0 -10  -5  177.78   20.10
   0 -10  -5  200.58   22.50
   0 -10  -5  217.58   20.90
   0  10   5  214.28   23.00
   0  10   5  192.88   24.20
  -1 -10  -5  122.79   16.70
  -1 -10  -5   92.59   14.40
  -1 -10  -5  103.89   16.20
   1  10   5  100.99   15.30
   1  10   5   96.09   17.20
  -2 -10  -5   38.10   11.50
  -2 -10  -5   27.70   10.20
  -2 -10  -5   36.40   10.50
   2  10   5   43.20   12.50
   2  10   5   42.40   15.70
   2  10   5   33.60    9.30
  -3 -10  -5  189.98   21.10
  -3 -10  -5  189.38   17.70
  -3 -10  -5  204.18   20.10
  -3 -10  -5  226.98   20.90
   3  10   5  189.58   22.80
   3  10   5  154.28   24.60
  -4 -10  -5   44.70   11.10
  -4 -10  -5   62.69   14.10
  -4 -10  -5   50.49   12.00
  -4 -10  -5   42.00   12.00
   4  10   5   58.29   14.80
   4  10   5   46.10   16.90
  -5 -10  -5  206.18   23.90
  -5 -10  -5  179.38   21.20
  -5 -10  -5  159.18   20.40
   5  10   5  226.58   31.50
   5  10   5  241.78   25.30
  -6 -10  -5   27.20   11.70
  -6 -10  -5   52.29   14.50
  -6 -10  -5   39.30   13.30
   6  10   5   49.60   14.10
   6  10   5   70.29   21.60
  -7 -10  -5   18.70   11.50
  -7 -10  -5   19.70   11.30
  -7 -10  -5   40.20   14.60
   7  10   5   60.09   19.00
  -8 -10  -5   39.10   14.00
  -8 -10  -5   38.30   15.60
  -8 -10  -5   15.40   11.50
   8  10   5   36.20   19.50
  -9 -10  -5   39.50   15.70
  -9 -10  -5   16.20   13.20
  -9 -10  -5   19.30   13.80
   9  10   5   32.20   20.00
   3 -11  -5   24.90   15.40
  -3  11   5   52.89   17.90
  -3  11   5   23.20   14.30
   2 -11  -5   49.90   16.40
  -2  11   5   42.80   15.70
  -2  11   5   63.49   17.30
   1 -11  -5  135.29   21.90
   1 -11  -5  130.19   18.90
  -1  11   5  140.79   23.20
  -1  11   5  139.79   21.20
   0 -11  -5   31.50   12.30
   0 -11  -5   56.59   14.10
   0 -11  -5   31.00   11.70
   0  11   5   52.39   15.80
   0  11   5   39.50   13.50
  -1 -11  -5    3.40    9.20
  -1 -11  -5   27.90   11.30
  -1 -11  -5   15.50   10.20
   1  11   5   11.00   13.10
   1  11   5    7.10    9.70
   1  11   5   15.10   11.50
  -2 -11  -5  141.49   19.30
  -2 -11  -5  122.39   19.00
   2  11   5  198.98   25.00
   2  11   5  189.88   28.80
  -3 -11  -5   35.30   12.00
  -3 -11  -5   17.40   10.10
   3  11   5   34.30   16.90
   3  11   5   41.60   15.00
  -4 -11  -5  344.37   26.00
  -4 -11  -5  319.87   29.30
  -4 -11  -5  313.67   27.70
   4  11   5  318.77   33.20
   4  11   5  308.47   36.30
  -5 -11  -5   22.70   12.30
  -5 -11  -5   21.00   10.80
  -5 -11  -5   34.60   12.20
   5  11   5   19.70   12.90
   5  11   5   28.10   17.40
  -6 -11  -5   73.19   15.40
  -6 -11  -5   89.29   16.60
  -6 -11  -5   77.89   18.40
   6  11   5   74.59   20.60
   6  11   5   85.29   17.70
  -7 -11  -5   47.40   13.20
  -7 -11  -5   57.39   17.20
  -7 -11  -5   38.90   14.50
   7  11   5   61.29   20.90
  -8 -11  -5   32.00   13.30
  -8 -11  -5   40.10   13.70
  -8 -11  -5   49.30   16.60
   8  11   5   24.10   19.00
   1 -12  -5  143.49   21.00
  -1  12   5  137.69   24.20
  -1  12   5  144.09   22.90
   0 -12  -5    9.30   10.70
   0  12   5   -6.60   10.20
   0  12   5    4.90   14.20
   0  12   5   -1.70   10.60
  -1 -12  -5   97.49   18.00
  -1 -12  -5   86.59   17.90
   1  12   5   82.19   19.60
   1  12   5  116.29   24.50
  -2 -12  -5   31.80   11.90
  -2 -12  -5   42.90   13.80
   2  12   5   36.90   17.40
   2  12   5   25.90   15.30
  -3 -12  -5   23.70   11.00
  -3 -12  -5   38.40   13.70
   3  12   5   60.89   16.40
   3  12   5   61.79   19.60
  -4 -12  -5   89.59   17.30
  -4 -12  -5  114.99   19.00
   4  12   5  109.19   21.20
   4  12   5  123.89   26.70
  -5 -12  -5   43.00   14.40
  -5 -12  -5   35.00   12.80
   5  12   5   52.29   17.40
   5  12   5   53.29   20.40
  -6 -12  -5    8.20   10.60
  -6 -12  -5    2.50   12.30
  -6 -12  -5   -2.60   11.00
   6  12   5  -22.00   14.80
   6  12   5    9.00   12.90
  -7 -12  -5   14.40   11.90
  -7 -12  -5   12.70   14.60
  -7 -12  -5   37.90   14.20
   7  12   5   29.20   20.50
  -1 -13  -5   84.39   18.90
  -1 -13  -5   81.99   18.60
   1  13   5  118.39   26.50
   1  13   5   89.79   20.50
  -2 -13  -5   11.50   12.40
  -2 -13  -5   23.90   13.40
   2  13   5   17.40   13.10
   2  13   5   16.20   17.30
  -3 -13  -5   32.20   14.10
  -3 -13  -5   60.09   15.70
   3  13   5   34.60   19.20
   3  13   5   28.90   15.20
  -4 -13  -5   37.80   14.40
  -4 -13  -5   20.10   11.60
   4  13   5   23.30   15.10
   4  13   5   28.20   18.90
  -5 -13  -5   85.69   19.70
  -5 -13  -5  114.39   19.40
   5  13   5  104.29   21.20
   5  13   5  100.89   26.50
   5   8  -6   28.70   19.00
   5   8  -6   49.80   16.70
  -5  -8   6   56.29   16.20
  -5  -8   6   59.39   15.10
  -5  -8   6   72.09   17.00
   4   8  -6   40.00   15.50
   4   8  -6   35.20   17.50
  -4  -8   6   44.50   14.50
  -4  -8   6   57.39   15.90
   3   8  -6   17.50   13.80
   3   8  -6   27.40   15.50
  -3  -8   6   44.70   14.50
  -3  -8   6   51.79   14.90
   2   8  -6    8.40   13.40
   2   8  -6   12.50   15.30
  -2  -8   6    3.20   10.40
  -2  -8   6    3.60   11.10
   1   8  -6   49.10   17.20
   1   8  -6   41.00   18.10
  -1  -8   6   83.99   17.50
  -1  -8   6   50.99   15.20
   0   8  -6  152.28   25.90
   0  -8   6  114.69   19.80
   0  -8   6  157.88   24.40
   7   7  -6    5.10   14.00
   7   7  -6   18.40   16.80
  -7  -7   6    5.60   12.00
  -7  -7   6   12.90   11.20
  -7  -7   6   18.60   11.60
   6   7  -6  151.98   26.20
   6   7  -6  155.88   29.70
  -6  -7   6  134.29   20.70
  -6  -7   6  159.78   22.40
  -6  -7   6  127.79   19.30
   5   7  -6   28.10   14.30
   5   7  -6   30.00   16.80
  -5  -7   6   -2.60    9.50
  -5  -7   6    6.80   11.40
  -5  -7   6    9.30   10.40
   4   7  -6  230.28   26.60
   4   7  -6  216.88   27.90
   4   7  -6  206.58   32.30
  -4  -7   6  217.68   23.40
  -4  -7   6  208.08   25.10
  -4  -7   6  230.18   25.60
   3   7  -6   14.40   14.40
   3   7  -6   13.10   11.30
  -3  -7   6    8.80   13.90
  -3  -7   6    9.40    9.90
  -3  -7   6   13.80    9.80
   2   7  -6   43.90   17.50
   2   7  -6   38.40   13.90
  -2  -7   6   36.00   13.30
  -2  -7   6   40.90   13.70
   1   7  -6  174.08   29.20
   1   7  -6  151.18   24.00
  -1  -7   6  192.08   23.20
  -1  -7   6  146.09   21.20
   0   7  -6   31.20   14.60
   0  -7   6    8.20   10.80
   0  -7   6   17.10   12.00
  -1   7  -6  113.59   22.20
   1  -7   6  111.99   21.30
   1  -7   6   93.09   17.30
   1  -7   6   78.69   18.30
  -2   7  -6   -3.90   10.90
   2  -7   6    1.00   11.10
  -3   7  -6   54.99   16.80
  -3   7  -6   48.40   18.00
   3  -7   6   89.49   21.00
   8   6  -6  -13.20   14.90
   8   6  -6    9.30   16.00
  -8  -6   6  -11.30    9.90
  -8  -6   6   10.00   13.20
   7   6  -6  105.39   23.80
   7   6  -6   72.49   22.60
  -7  -6   6  101.29   18.30
  -7  -6   6   82.89   16.70
  -7  -6   6   81.29   18.10
   6   6  -6  245.68   31.50
   6   6  -6  165.58   30.30
  -6  -6   6  173.58   21.10
  -6  -6   6  189.08   25.10
  -6  -6   6  206.58   23.60
   5   6  -6  117.99   24.50
   5   6  -6  172.68   25.00
  -5  -6   6  137.29   18.60
  -5  -6   6  121.19   19.30
  -5  -6   6  181.58   21.30
   4   6  -6   55.99   15.00
   4   6  -6   66.79   16.40
   4   6  -6   42.40   16.00
  -4  -6   6   62.89   13.20
  -4  -6   6   47.60   14.30
  -4  -6   6   52.09   12.60
   3   6  -6  148.29   21.80
   3   6  -6  139.99   19.90
   3   6  -6  108.79   22.00
  -3  -6   6  161.38   21.20
  -3  -6   6  125.09   19.80
  -3  -6   6  162.98   18.20
  -3  -6   6  129.59   18.10
   2   6  -6   76.79   18.90
   2   6  -6   78.59   17.80
  -2  -6   6  108.59   17.60
  -2  -6   6   81.89   15.50
  -2  -6   6  111.79   14.30
   1   6  -6   21.80   14.60
   1   6  -6   25.10   13.30
  -1  -6   6   13.90   10.20
  -1  -6   6   11.30    9.90
   0   6  -6  188.68   25.40
   0  -6   6  155.18   20.40
   0  -6   6  183.48   23.00
  -1   6  -6   63.09   14.50
  -1   6  -6   43.00   14.10
   1  -6   6   39.90   13.40
   1  -6   6   65.79   15.90
   1  -6   6   38.00   12.90
  -2   6  -6  195.98   24.90
  -2   6  -6  164.38   24.10
   2  -6   6  189.18   22.40
   2  -6   6  173.78   23.70
  -3   6  -6  102.69   20.60
  -3   6  -6   85.39   18.60
   3  -6   6  100.69   16.90
   3  -6   6   66.69   17.40
  -4   6  -6   10.40   14.30
  -4   6  -6   10.30   13.80
   4  -6   6   29.00   15.30
   8   5  -6   68.49   22.20
   8   5  -6   62.39   20.10
  -8  -5   6   44.00   13.70
  -8  -5   6   56.69   15.90
   7   5  -6   55.89   21.40
   7   5  -6   55.29   19.50
  -7  -5   6   56.09   14.20
  -7  -5   6   62.49   14.60
   6   5  -6  172.58   26.50
   6   5  -6  144.99   26.80
  -6  -5   6  147.99   18.00
  -6  -5   6  168.58   22.10
  -6  -5   6  158.88   20.00
   5   5  -6   34.20   15.70
   5   5  -6   21.10   12.90
  -5  -5   6    8.60    7.90
  -5  -5   6    6.40    8.40
  -5  -5   6   -2.80    8.50
   4   5  -6   27.20   11.90
   4   5  -6   22.10   12.50
   4   5  -6   17.40   11.40
  -4  -5   6   32.60   11.40
  -4  -5   6    7.70    7.70
  -4  -5   6   30.90   10.30
  -4  -5   6    4.10    9.80
   3   5  -6  499.25   36.60
   3   5  -6  461.65   39.70
   3   5  -6  454.45   34.70
  -3  -5   6  503.45   31.90
  -3  -5   6  474.45   36.10
  -3  -5   6  461.65   32.50
  -3  -5   6  443.26   33.80
   2   5  -6  100.69   19.80
   2   5  -6  107.09   18.30
   2   5  -6   87.59   14.30
  -2  -5   6   98.89   15.10
  -2  -5   6   81.89   15.40
  -2  -5   6   83.79   12.40
  -2  -5   6  111.39   16.70
   1   5  -6  179.08   18.00
   1   5  -6  182.38   23.30
   1   5  -6  193.08   27.00
  -1  -5   6  190.98   22.20
  -1  -5   6  188.58   16.50
  -1  -5   6  207.58   20.20
   0   5  -6  137.99   17.20
   0   5  -6  126.89   20.10
   0  -5   6  122.19   17.70
   0  -5   6  124.39   17.70
  -1   5  -6   53.99   13.90
  -1   5  -6   56.29   13.50
   1  -5   6   97.09   15.80
   1  -5   6  114.79   17.30
   1  -5   6   99.29   16.90
  -2   5  -6   76.99   16.60
  -2   5  -6   77.19   16.50
   2  -5   6   67.59   16.20
   2  -5   6   73.69   14.80
  -3   5  -6   49.00   15.10
  -3   5  -6   35.20   14.00
   3  -5   6   41.90   12.50
   3  -5   6   39.80   15.20
  -4   5  -6   14.70   11.90
  -4   5  -6   23.10   13.50
   4  -5   6   25.30   11.80
   4  -5   6    7.00   13.10
  -5   5  -6   -2.70   12.20
  -5   5  -6    1.60   14.20
   5  -5   6   28.30   15.90
   9   4  -6   18.40   18.30
   9   4  -6    2.10   17.30
  -9  -4   6   20.10   12.90
  -9  -4   6   27.40   12.30
   8   4  -6   79.99   22.20
   8   4  -6   58.29   19.20
  -8  -4   6   28.80   13.20
  -8  -4   6   62.19   15.20
   7   4  -6   92.39   21.50
   7   4  -6   71.39   21.50
  -7  -4   6   44.30   13.90
  -7  -4   6   58.29   13.50
   6   4  -6   87.29   19.20
   6   4  -6   67.29   19.10
  -6  -4   6   86.29   15.10
  -6  -4   6  109.69   14.20
  -6  -4   6   79.79   15.40
   5   4  -6   39.80   13.50
   5   4  -6   26.50   14.30
  -5  -4   6   43.70    9.60
  -5  -4   6   34.30   11.30
  -5  -4   6   40.00   12.00
  -5  -4   6   38.60   13.90
   4   4  -6  724.53   50.19
   4   4  -6  749.82   47.30
  -4  -4   6  692.73   41.20
  -4  -4   6  634.14   42.60
  -4  -4   6  665.53   46.80
  -4  -4   6  644.14   41.40
   3   4  -6  168.18   20.80
   3   4  -6  177.18   22.00
   3   4  -6  150.18   23.40
  -3  -4   6  188.08   20.30
  -3  -4   6  157.78   17.40
  -3  -4   6  169.98   17.50
  -3  -4   6  167.68   21.40
   2   4  -6   37.90    8.10
   2   4  -6   36.00   12.90
   2   4  -6   38.40   10.00
   2   4  -6   16.90    9.60
  -2  -4   6   10.10    8.10
  -2  -4   6   18.20    7.50
  -2  -4   6    9.20    7.30
  -2  -4   6   23.50    9.10
   1   4  -6  421.06   32.10
   1   4  -6  408.76   27.80
   1   4  -6  415.96   27.80
  -1  -4   6  413.16   29.70
  -1  -4   6  412.96   29.00
  -1  -4   6  441.06   26.80
  -1  -4   6  372.16   28.80
   0   4  -6    4.10    9.00
   0   4  -6    7.80    7.50
   0  -4   6    3.40    7.10
   0  -4   6   -0.60    6.10
   0  -4   6   11.00    8.50
   0  -4   6   -0.30    5.00
  -1   4  -6  379.86   30.20
  -1   4  -6  360.96   28.40
   1  -4   6  355.26   27.60
   1  -4   6  350.06   27.90
   1  -4   6  353.46   28.30
  -2   4  -6  110.99   18.40
  -2   4  -6   72.09   15.40
   2  -4   6  102.69   15.40
   2  -4   6  109.19   16.60
  -3   4  -6  417.46   33.30
  -3   4  -6  389.56   33.60
   3  -4   6  449.26   33.20
   3  -4   6  413.76   31.00
  -4   4  -6   -3.90    9.30
  -4   4  -6   -4.10    8.60
   4  -4   6   14.10   12.40
   4  -4   6    6.70    9.70
  -5   4  -6   46.30   15.10
  -5   4  -6   56.59   16.20
   5  -4   6   73.49   18.50
   5  -4   6   44.00   13.20
  -6   4  -6   30.10   15.50
  -6   4  -6   18.60   13.70
   6  -4   6    8.90   14.00
   9   3  -6   78.99   23.10
   9   3  -6   82.09   24.30
  -9  -3   6   58.59   16.10
  -9  -3   6   49.40   14.10
   8   3  -6    8.40   13.80
   8   3  -6    0.10   15.00
  -8  -3   6   27.40   11.40
  -8  -3   6   10.60   10.80
   7   3  -6  123.29   22.70
   7   3  -6   94.59   22.90
  -7  -3   6  121.39   17.50
  -7  -3   6  124.49   17.70
   6   3  -6  135.29   24.80
   6   3  -6   86.39   18.00
  -6  -3   6  125.79   17.60
  -6  -3   6  105.49   13.20
  -6  -3   6  118.39   17.50
   5   3  -6  386.86   31.90
   5   3  -6  347.17   33.50
  -5  -3   6  348.57   26.90
  -5  -3   6  331.77   30.20
  -5  -3   6  332.67   23.70
  -5  -3   6  355.76   27.30
   4   3  -6  482.25   27.60
   4   3  -6  467.05   37.60
   4   3  -6  458.35   34.20
  -4  -3   6  456.15   35.10
  -4  -3   6  429.06   31.00
  -4  -3   6  406.86   29.40
  -4  -3   6  437.06   28.40
   3   3  -6   90.49   15.10
   3   3  -6   69.89   13.90
   3   3  -6   86.89   11.10
   3   3  -6  100.59   19.00
  -3  -3   6   97.19   12.30
  -3  -3   6   98.99   13.40
  -3  -3   6  121.89   17.40
  -3  -3   6  113.49   15.20
   2   3  -6   38.40    8.00
   2   3  -6   33.40   10.00
   2   3  -6   32.50   11.60
   2   3  -6   27.40    8.40
  -2  -3   6   29.80    7.60
  -2  -3   6   39.80   10.20
  -2  -3   6   44.90    8.80
  -2  -3   6   41.10   10.10
   1   3  -6  397.46   26.30
   1   3  -6  421.56   32.40
   1   3  -6  347.97   28.10
   1   3  -6  400.06   26.30
  -1  -3   6  356.56   26.70
  -1  -3   6  361.06   24.40
  -1  -3   6  400.86   26.30
  -1  -3   6  386.46   27.70
   0   3  -6  305.07   27.10
   0   3  -6  317.77   24.90
   0   3  -6  308.07   22.90
   0  -3   6  275.57   21.40
   0  -3   6  291.17   22.60
   0  -3   6  270.67   19.00
   0  -3   6  276.47   22.30
   0  -3   6  275.97   22.20
  -1   3  -6  133.79   17.10
  -1   3  -6  151.18   17.20
   1  -3   6  113.19   15.00
   1  -3   6  106.59   11.80
   1  -3   6  108.59   15.10
   1  -3   6  122.99   16.20
   1  -3   6  112.69   10.60
  -2   3  -6  562.54   38.20
  -2   3  -6  558.94   38.50
   2  -3   6  537.85   37.00
   2  -3   6  569.64   36.60
  -3   3  -6   84.69   17.00
  -3   3  -6  115.69   17.50
   3  -3   6  108.29   17.30
   3  -3   6  106.59   15.40
  -4   3  -6   65.09   15.10
  -4   3  -6   83.69   15.60
   4  -3   6   51.99   12.50
   4  -3   6   38.10   13.40
  -5   3  -6   20.30   11.60
  -5   3  -6   24.20   12.00
   5  -3   6   16.50   10.00
   5  -3   6   13.90   13.10
  -6   3  -6   33.30   13.20
  -6   3  -6   53.59   15.00
  -6   3  -6   18.50   13.20
   6  -3   6   50.09   16.80
  -7   3  -6   14.70   13.10
  -7   3  -6   29.20   14.40
  -7   3  -6   34.10   15.90
   7  -3   6   28.60   14.60
   9   2  -6  100.19   26.30
   9   2  -6   52.09   21.50
  -9  -2   6   80.89   16.00
  -9  -2   6   78.69   17.20
   8   2  -6   81.29   21.90
   8   2  -6   49.99   19.40
  -8  -2   6   56.69   13.90
  -8  -2   6   68.79   14.30
   7   2  -6  420.56   38.00
   7   2  -6  359.76   37.40
  -7  -2   6  338.97   28.50
  -7  -2   6  405.06   29.40
   6   2  -6   34.80   13.90
   6   2  -6   27.70   13.70
  -6  -2   6   28.90   10.60
  -6  -2   6   20.70    9.00
  -6  -2   6   33.60    7.80
  -6  -2   6   30.70   12.80
   5   2  -6  190.38   26.90
   5   2  -6  147.29   20.80
  -5  -2   6  188.18   20.10
  -5  -2   6  178.98   19.20
  -5  -2   6  153.28   21.40
  -5  -2   6  169.58   14.40
   4   2  -6   78.49   15.00
   4   2  -6  112.69   12.10
   4   2  -6  143.89   21.80
  -4  -2   6  131.49   19.50
  -4  -2   6  126.09   12.00
  -4  -2   6  111.39   14.10
  -4  -2   6  132.29   15.70
   3   2  -6  793.32   42.60
   3   2  -6  827.92   51.39
   3   2  -6  797.62   43.20
   3   2  -6  755.62   47.70
  -3  -2   6  777.42   44.50
  -3  -2   6  721.63   45.00
  -3  -2   6  785.72   43.00
  -3  -2   6  760.42   48.40
   2   2  -6   24.10    7.10
   2   2  -6   39.80   10.00
   2   2  -6   24.00   10.00
   2   2  -6   28.60    8.40
  -2  -2   6   40.30   10.00
  -2  -2   6   63.29   10.80
  -2  -2   6   51.49    9.10
  -2  -2   6   54.59    8.30
   1   2  -6  386.36   21.20
   1   2  -6  386.66   25.70
   1   2  -6  405.06   25.50
   1   2  -6  424.36   28.70
   1   2  -6  396.66   30.00
  -1  -2   6  394.26   24.30
  -1  -2   6  325.27   25.20
  -1  -2   6  362.06   26.70
  -1  -2   6  341.37   24.00
   0   2  -6  287.67   19.10
   0   2  -6  303.27   22.50
   0   2  -6  310.97   23.80
   0   2  -6  290.77   25.20
   0  -2   6  314.07   22.50
   0  -2   6  296.27   21.30
   0  -2   6  293.57   21.00
   0  -2   6  286.17   21.70
   0  -2   6  327.17   20.00
  -1   2  -6  218.28   19.40
  -1   2  -6  223.58   19.40
  -1   2  -6  193.18   15.70
   1  -2   6  198.78   17.50
   1  -2   6  182.78   15.30
   1  -2   6  201.38   17.60
   1  -2   6  181.78   17.00
   1  -2   6  182.68   14.10
  -2   2  -6  279.57   24.40
  -2   2  -6  320.17   24.80
  -2   2  -6  328.87   22.80
   2  -2   6  294.07   23.60
   2  -2   6  331.47   24.40
   2  -2   6  321.47   19.50
   2  -2   6  321.07   19.90
  -3   2  -6  112.19   17.30
  -3   2  -6  114.79   16.30
  -3   2  -6  121.39   15.70
   3  -2   6  127.79   16.50
   3  -2   6  141.09   17.30
  -4   2  -6  170.18   19.40
  -4   2  -6  185.38   22.70
  -4   2  -6  197.18   21.60
   4  -2   6  139.99   18.70
   4  -2   6  182.18   22.10
  -5   2  -6   12.10   10.60
  -5   2  -6   14.20    9.90
  -5   2  -6    3.40   10.50
   5  -2   6   14.90   11.30
  -6   2  -6   64.79   16.00
  -6   2  -6  122.29   18.80
  -6   2  -6   83.59   18.80
   6  -2   6   88.09   18.30
  -7   2  -6   83.29   19.20
  -7   2  -6   91.39   18.40
  -7   2  -6   67.39   15.90
   7  -2   6   93.89   20.50
  -8   2  -6   14.10   12.40
  -8   2  -6   12.80   13.10
  -8   2  -6   17.40   12.80
   8  -2   6   18.80   15.70
   9   1  -6   27.40   19.70
  -9  -1   6    8.40   13.50
  -9  -1   6   31.20   12.20
  -9  -1   6   38.10   12.60
   8   1  -6   35.40   18.60
   8   1  -6   69.89   20.80
  -8  -1   6   58.69   16.40
  -8  -1   6   44.20   13.30
  -8  -1   6   65.09   13.60
   7   1  -6  165.18   25.80
   7   1  -6  140.99   25.00
   7   1  -6  165.08   20.20
  -7  -1   6  144.49   17.90
  -7  -1   6  148.09   18.70
   6   1  -6   26.50   13.10
   6   1  -6   10.20   11.60
   6   1  -6   15.80    8.10
  -6  -1   6   11.50    8.80
  -6  -1   6    3.70    7.30
  -6  -1   6    8.10    9.50
   5   1  -6    5.90    6.70
   5   1  -6    9.60   11.90
   5   1  -6   23.30   11.00
  -5  -1   6   16.10   10.60
  -5  -1   6   12.50    7.70
  -5  -1   6   20.00    5.40
  -5  -1   6   18.00    8.70
   4   1  -6 1158.58   72.49
   4   1  -6 1277.27   70.79
   4   1  -6 1212.68   64.99
  -4  -1   6 1164.08   65.39
  -4  -1   6 1191.18   70.19
  -4  -1   6 1222.28   65.79
  -4  -1   6 1233.18   62.39
   3   1  -6  539.15   30.00
   3   1  -6  519.25   33.70
   3   1  -6  527.85   36.80
   3   1  -6  560.64   30.40
  -3  -1   6  418.96   29.60
  -3  -1   6  452.95   30.30
  -3  -1   6  446.36   33.30
  -3  -1   6  451.55   27.50
   2   1  -6   29.70    7.30
   2   1  -6   25.30    8.30
   2   1  -6   40.00   11.80
  -2  -1   6   53.29    8.40
  -2  -1   6   38.10   10.00
  -2  -1   6   40.40    6.70
  -2  -1   6   45.90    9.40
   1   1  -6  106.19   14.10
   1   1  -6   80.69   13.90
   1   1  -6   90.99   11.70
   1   1  -6   79.09    7.10
   1   1  -6   85.29   12.50
  -1  -1   6   98.89   11.00
  -1  -1   6  118.79   10.50
  -1  -1   6  125.49   13.60
  -1  -1   6  117.49   13.10
  -1  -1   6  106.69   10.20
   0   1  -6  328.67   24.70
   0   1  -6  341.07   23.80
   0   1  -6  336.77   25.60
   0   1  -6  318.37   23.10
   0   1  -6  352.96   20.60
   0  -1   6  337.57   21.40
   0  -1   6  347.47   23.30
   0  -1   6  331.17   22.10
   0  -1   6  345.57   22.00
   0  -1   6  316.97   23.00
  -1   1  -6  495.85   30.20
  -1   1  -6  477.85   29.40
  -1   1  -6  473.75   32.10
  -1   1  -6  507.15   33.40
  -1   1  -6  470.35   31.90
   1  -1   6  526.75   28.80
   1  -1   6  523.15   30.30
   1  -1   6  507.35   31.80
   1  -1   6  511.65   31.30
  -2   1  -6   61.59   10.90
  -2   1  -6   48.10    7.40
  -2   1  -6   34.60   10.00
  -2   1  -6   40.30    8.40
   2  -1   6   46.80   10.20
   2  -1   6   34.60    8.50
   2  -1   6   42.80    6.80
   2  -1   6   50.39    7.60
  -3   1  -6  507.75   38.60
  -3   1  -6  545.25   36.50
  -3   1  -6  589.04   37.90
   3  -1   6  640.74   35.10
   3  -1   6  610.94   32.70
   3  -1   6  633.84   38.50
   3  -1   6  641.84   38.10
  -4   1  -6  181.18   21.60
  -4   1  -6  151.08   18.60
  -4   1  -6  152.18   17.60
   4  -1   6  166.48   19.10
   4  -1   6  159.48   19.50
  -5   1  -6   20.70   10.40
  -5   1  -6   13.70   10.60
  -5   1  -6   14.00    9.50
   5  -1   6    6.50    9.50
  -6   1  -6   75.99   16.40
  -6   1  -6   89.49   15.50
  -6   1  -6  103.49   17.20
   6  -1   6  109.59   19.50
  -7   1  -6   17.60   11.40
  -7   1  -6   33.00   14.20
  -7   1  -6   39.70   12.30
   7  -1   6   31.10   15.60
  -8   1  -6   12.50   13.20
  -8   1  -6   27.50   14.50
   8  -1   6   20.70   15.50
   9   0  -6   57.79   17.50
   9   0  -6   72.49   22.60
  -9   0   6   64.49   14.90
  -9   0   6   44.50   15.60
   8   0  -6   30.00   14.00
   8   0  -6   57.89   20.00
  -8   0   6   43.40   15.40
  -8   0   6   63.99   12.60
  -8   0   6   41.10   13.30
   7   0  -6  147.79   26.20
   7   0  -6  142.99   19.90
  -7   0   6  147.99   17.70
  -7   0   6  107.19   19.10
  -7   0   6  132.79   16.30
   6   0  -6  111.29   16.70
   6   0  -6  138.99   23.60
  -6   0   6  138.29   16.00
  -6   0   6  167.58   22.90
  -6   0   6  133.99   17.10
   5   0  -6  140.69   22.10
   5   0  -6  131.49   16.10
  -5   0   6  113.39   18.70
  -5   0   6  139.49   15.90
  -5   0   6  106.49    9.80
  -5   0   6  116.39   13.90
   4   0  -6  951.20   59.79
   4   0  -6  982.30   54.69
  -4   0   6  944.31   52.99
  -4   0   6  984.00   54.09
  -4   0   6  966.10   47.90
  -4   0   6  970.90   49.60
  -4   0   6  975.50   58.59
   3   0  -6   89.99   15.80
   3   0  -6   92.19   12.10
   3   0  -6   90.99   11.70
  -3   0   6  104.29   15.00
  -3   0   6  108.99   12.40
  -3   0   6  102.49    7.70
  -3   0   6  110.99   12.50
  -3   0   6  101.39    8.30
   2   0  -6  263.37   23.70
   2   0  -6  270.27   14.30
   2   0  -6  278.97   20.30
   2   0  -6  253.17   19.30
  -2   0   6  282.27   22.70
  -2   0   6  294.97   19.90
  -2   0   6  292.87   17.00
  -2   0   6  290.97   19.80
  -2   0   6  278.07   16.60
   1   0  -6  356.96   25.00
   1   0  -6  356.66   26.20
   1   0  -6  358.56   27.70
   1   0  -6  377.96   26.40
   1   0  -6  360.36   20.70
  -1   0   6  432.46   23.50
  -1   0   6  409.36   22.50
  -1   0   6  413.76   27.40
  -1   0   6  440.46   25.80
  -1   0   6  404.96   24.20
   0   0  -6  445.66   28.10
   0   0  -6  449.66   28.60
   0   0  -6  440.56   24.50
   0   0  -6  439.16   29.20
   0   0  -6  447.46   28.00
   0   0   6  427.46   27.40
   0   0   6  416.46   26.00
   0   0   6  412.06   27.70
   0   0   6  406.36   25.40
  -1   0  -6  573.14   32.90
  -1   0  -6  586.34   34.20
  -1   0  -6  556.84   34.60
  -1   0  -6  584.84   35.60
  -1   0  -6  601.84   35.70
   1   0   6  568.54   32.30
   1   0   6  537.75   34.20
   1   0   6  588.34   34.30
   1   0   6  602.64   34.10
  -2   0  -6  558.14   33.50
  -2   0  -6  482.05   34.40
  -2   0  -6  551.64   37.00
  -2   0  -6  571.04   34.80
   2   0   6  641.64   34.30
   2   0   6  615.74   35.60
   2   0   6  624.94   32.90
   2   0   6  656.83   36.40
  -3   0  -6  430.26   26.60
  -3   0  -6  433.16   29.40
  -3   0  -6  399.66   29.30
  -3   0  -6  450.05   32.00
   3   0   6  465.55   27.20
   3   0   6  473.25   24.70
   3   0   6  498.35   30.90
   3   0   6  492.75   31.10
   3   0   6  484.25   26.70
  -4   0  -6   47.60   11.20
  -4   0  -6   58.69   12.30
  -4   0  -6   73.29   11.60
   4   0   6   53.59    7.70
   4   0   6   49.00   11.40
   4   0   6   44.10   11.30
  -5   0  -6  336.77   24.40
  -5   0  -6  292.37   26.10
  -5   0  -6  301.67   25.00
   5   0   6  314.47   26.20
  -6   0  -6  133.69   19.90
  -6   0  -6  119.79   16.20
  -6   0  -6  149.09   20.30
   6   0   6  146.99   21.90
  -7   0  -6  126.09   16.90
  -7   0  -6  102.79   18.40
  -7   0  -6  111.59   20.00
   7   0   6  147.49   22.80
  -8   0  -6    1.80   10.90
  -8   0  -6   19.20   13.70
   8   0   6   22.50   14.90
  -9   0  -6   92.59   20.30
  -9   0  -6  112.69   22.10
   9   0   6   83.19   21.20
   9  -1  -6   66.59   19.30
   9  -1  -6   98.19   25.50
  -9   1   6   69.29   15.40
  -9   1   6   76.89   19.70
   8  -1  -6  143.49   27.30
   8  -1  -6  111.29   20.20
  -8   1   6  110.29   20.80
  -8   1   6  130.19   18.00
   7  -1  -6  120.09   23.60
   7  -1  -6  151.88   21.50
  -7   1   6  113.59   16.20
  -7   1   6  126.09   15.20
  -7   1   6  129.99   21.20
  -7   1   6  144.29   21.40
   6  -1  -6  288.97   26.00
   6  -1  -6  305.87   31.60
  -6   1   6  291.07   21.20
  -6   1   6  267.57   27.20
  -6   1   6  269.37   26.30
  -6   1   6  298.77   22.80
   5  -1  -6  205.38   20.10
   5  -1  -6  224.48   24.10
  -5   1   6  182.88   17.20
  -5   1   6  162.98   15.20
  -5   1   6  149.99   19.60
  -5   1   6  172.68   19.80
   4  -1  -6   12.20    7.50
   4  -1  -6   -1.90    8.40
  -4   1   6    4.30    7.00
  -4   1   6   14.70    8.00
  -4   1   6    6.60    2.70
  -4   1   6    6.70    5.80
  -4   1   6   11.00    5.60
   3  -1  -6 1092.69   65.99
   3  -1  -6 1092.09   62.39
  -3   1   6 1123.19   60.79
  -3   1   6 1220.88   60.49
  -3   1   6 1154.98   65.09
  -3   1   6 1137.69   55.89
   2  -1  -6  251.37   18.60
   2  -1  -6  261.47   14.50
   2  -1  -6  270.77   14.20
   2  -1  -6  277.17   22.80
   2  -1  -6  276.77   19.80
  -2   1   6  233.78   14.80
  -2   1   6  236.78   13.80
  -2   1   6  230.08   20.50
  -2   1   6  241.88   17.90
  -2   1   6  246.28   18.10
   1  -1  -6  806.52   46.80
   1  -1  -6  784.32   40.10
   1  -1  -6  768.42   43.90
   1  -1  -6  817.12   46.40
  -1   1   6  801.72   46.10
  -1   1   6  791.02   41.30
  -1   1   6  771.82   43.10
  -1   1   6  742.53   43.00
   0  -1  -6   34.40    8.30
   0  -1  -6   29.70    7.20
   0  -1  -6   30.80    7.90
   0  -1  -6   20.60    6.70
   0  -1  -6   26.00    5.00
   0   1   6   25.00    5.90
   0   1   6   16.80    6.40
   0   1   6   22.10    6.90
   0   1   6   18.40    6.10
  -1  -1  -6   58.89    8.00
  -1  -1  -6   50.29    8.80
  -1  -1  -6   57.99   10.30
  -1  -1  -6   81.99   10.60
  -1  -1  -6   55.49    9.20
   1   1   6   51.69    6.50
   1   1   6   49.20    7.70
   1   1   6   48.00    9.20
   1   1   6   50.89    9.10
   1   1   6   44.80    8.20
  -2  -1  -6 1050.49   54.99
  -2  -1  -6  971.20   55.09
  -2  -1  -6 1038.80   55.49
  -2  -1  -6  991.90   57.19
  -2  -1  -6 1050.99   55.39
   2   1   6 1029.90   55.59
   2   1   6 1054.79   51.19
   2   1   6 1025.10   53.79
   2   1   6  996.00   55.99
   2   1   6 1019.50   56.09
  -3  -1  -6   48.70   10.00
  -3  -1  -6   47.00    8.10
  -3  -1  -6   64.19   12.30
  -3  -1  -6   44.30    8.20
   3   1   6   65.09    8.30
   3   1   6   66.09    9.50
   3   1   6   70.09   11.90
   3   1   6   77.19   12.00
  -4  -1  -6  338.57   25.90
  -4  -1  -6  362.86   23.50
  -4  -1  -6  370.16   28.10
  -4  -1  -6  390.56   25.00
   4   1   6  374.36   23.00
   4   1   6  342.27   26.60
   4   1   6  371.46   22.60
  -5  -1  -6  318.87   23.20
  -5  -1  -6  341.27   27.80
  -5  -1  -6  309.77   25.80
   5   1   6  366.56   28.30
  -6  -1  -6   42.50   12.10
  -6  -1  -6   21.00   11.20
  -6  -1  -6   57.29   10.30
   6   1   6   61.79   15.50
  -7  -1  -6   82.19   16.20
  -7  -1  -6   97.09   19.90
  -7  -1  -6  122.89   19.40
   7   1   6   94.89   17.90
  -8  -1  -6    7.40   11.00
  -8  -1  -6   11.80   11.50
   8   1   6    1.70   12.70
  -9  -1  -6   45.00   16.70
  -9  -1  -6   37.80   15.10
   9   1   6   28.80   15.90
   9  -2  -6   52.19   18.40
   9  -2  -6   81.19   24.80
  -9   2   6   53.89   16.70
  -9   2   6   54.29   16.70
  -9   2   6   58.29   13.90
   8  -2  -6   25.40   13.00
   8  -2  -6   16.70   17.50
  -8   2   6   53.09   12.60
  -8   2   6   61.09   16.50
   7  -2  -6   27.00   14.90
   7  -2  -6   13.50   11.50
  -7   2   6   33.00   12.50
  -7   2   6   30.00   12.50
  -7   2   6   35.40   10.70
   6  -2  -6  253.67   31.40
   6  -2  -6  225.18   23.30
  -6   2   6  161.08   22.60
  -6   2   6  174.58   15.30
  -6   2   6  150.78   21.30
  -6   2   6  188.68   18.20
   5  -2  -6   99.29   16.70
   5  -2  -6  102.59   19.40
  -5   2   6  103.99   11.50
  -5   2   6  106.99   13.90
  -5   2   6  102.69   16.70
  -5   2   6  112.99   16.50
   4  -2  -6  649.93   47.00
   4  -2  -6  692.03   44.40
  -4   2   6  709.43   43.90
  -4   2   6  761.62   46.90
  -4   2   6  714.93   41.50
  -4   2   6  733.83   35.80
  -4   2   6  744.13   39.90
   3  -2  -6 1734.93   93.69
   3  -2  -6 1734.73   97.19
  -3   2   6 1792.32   93.29
  -3   2   6 1764.82   95.49
  -3   2   6 1801.02   91.49
  -3   2   6 1821.22   89.99
   2  -2  -6  482.25   32.90
   2  -2  -6  449.86   34.30
   2  -2  -6  486.35   31.50
   2  -2  -6  489.75   28.00
  -2   2   6  577.74   31.40
  -2   2   6  547.85   34.60
  -2   2   6  557.04   26.40
  -2   2   6  535.65   32.20
  -2   2   6  535.05   30.00
   1  -2  -6   81.79   10.80
   1  -2  -6   87.29    5.70
   1  -2  -6  124.99   15.50
   1  -2  -6   95.09    8.10
   1  -2  -6   84.59   12.50
  -1   2   6   98.89   11.00
  -1   2   6   76.09   11.80
  -1   2   6   59.39    9.10
  -1   2   6   73.69    9.60
  -1   2   6   78.39    8.40
   0  -2  -6  171.08   13.90
   0  -2  -6  175.48   11.50
   0  -2  -6  162.68   14.00
   0  -2  -6  174.58   15.40
   0   2   6  126.09   12.40
   0   2   6  131.19   11.50
   0   2   6  130.49   14.10
   0   2   6  102.09   11.90
   0   2   6  105.89   11.40
  -1  -2  -6  369.66   23.80
  -1  -2  -6  359.96   25.10
  -1  -2  -6  357.06   23.10
  -1  -2  -6  387.56   25.80
   1   2   6  419.86   22.50
   1   2   6  385.66   24.50
   1   2   6  389.76   23.90
   1   2   6  390.46   26.00
   1   2   6  382.26   24.50
  -2  -2  -6  260.27   19.40
  -2  -2  -6  253.97   16.80
  -2  -2  -6  244.98   19.80
  -2  -2  -6  254.67   17.90
  -2  -2  -6  267.67   19.10
   2   2   6  261.47   19.90
   2   2   6  276.87   19.50
   2   2   6  271.47   15.20
   2   2   6  240.48   17.80
   2   2   6  275.17   20.00
  -3  -2  -6  439.96   31.00
  -3  -2  -6  480.65   28.60
  -3  -2  -6  492.95   31.40
  -3  -2  -6  506.35   27.10
  -3  -2  -6  486.75   30.60
   3   2   6  476.65   30.70
   3   2   6  522.45   32.30
   3   2   6  478.25   31.10
   3   2   6  488.15   28.80
  -4  -2  -6  171.58   13.50
  -4  -2  -6  188.98   17.60
  -4  -2  -6  172.58   16.40
  -4  -2  -6  158.18   14.80
   4   2   6  154.58   13.80
   4   2   6  161.98   18.80
   4   2   6  139.29   14.00
  -5  -2  -6  283.07   21.60
  -5  -2  -6  269.17   24.30
  -5  -2  -6  278.37   24.60
  -5  -2  -6  291.67   20.20
   5   2   6  313.07   22.10
   5   2   6  355.66   26.00
  -6  -2  -6   17.80    9.90
  -6  -2  -6   24.30    7.30
  -6  -2  -6    2.30    8.00
   6   2   6   15.10   11.10
  -7  -2  -6   90.99   17.10
  -7  -2  -6   96.99   16.90
   7   2   6   46.80   14.50
  -8  -2  -6   51.79   14.20
  -8  -2  -6   20.00   12.00
   8   2   6   28.50   13.40
  -9  -2  -6   10.60   12.80
  -9  -2  -6   -3.70   11.80
   9   2   6   24.60   15.40
   9  -3  -6   70.99   21.10
  -9   3   6  109.79   20.60
  -9   3   6   69.09   19.80
   8  -3  -6   16.40   16.20
   8  -3  -6   11.10   14.40
  -8   3   6   21.60   14.30
  -8   3   6   19.40   10.10
  -8   3   6   20.90   12.60
   7  -3  -6  310.97   34.60
   7  -3  -6  322.27   32.00
  -7   3   6  379.86   32.60
  -7   3   6  347.37   26.60
  -7   3   6  346.67   32.80
  -7   3   6  382.66   31.50
   6  -3  -6  213.98   26.00
   6  -3  -6  178.38   26.30
  -6   3   6  192.28   18.00
  -6   3   6  158.48   22.10
  -6   3   6  166.48   21.70
   5  -3  -6  160.38   24.10
   5  -3  -6  189.18   20.90
  -5   3   6  146.39   19.80
  -5   3   6  188.38   20.60
  -5   3   6  185.08   13.80
  -5   3   6  191.38   17.10
   4  -3  -6  701.23   45.90
   4  -3  -6  735.73   43.40
  -4   3   6  643.54   40.90
  -4   3   6  579.14   37.60
  -4   3   6  633.54   35.40
  -4   3   6  633.34   42.30
   3  -3  -6    7.10    9.50
   3  -3  -6   27.50    9.00
  -3   3   6   13.30    8.40
  -3   3   6   19.80    6.90
  -3   3   6   18.30    7.40
  -3   3   6   19.40    5.10
   2  -3  -6  221.78   20.30
   2  -3  -6  240.98   13.90
   2  -3  -6  234.88   16.70
   2  -3  -6  242.78   22.60
  -2   3   6  308.07   20.60
  -2   3   6  297.27   19.10
  -2   3   6  313.67   17.40
  -2   3   6  305.57   23.20
   1  -3  -6  540.95   34.20
   1  -3  -6  578.44   32.10
   1  -3  -6  564.04   36.30
   1  -3  -6  591.94   36.80
  -1   3   6  600.94   34.30
  -1   3   6  616.24   34.00
  -1   3   6  583.24   32.50
  -1   3   6  613.14   37.50
   0  -3  -6  681.53   42.60
   0  -3  -6  672.83   36.80
   0  -3  -6  675.23   40.70
   0  -3  -6  680.73   40.70
   0  -3  -6  694.83   38.70
   0   3   6  759.92   39.50
   0   3   6  750.62   40.10
   0   3   6  784.32   39.80
   0   3   6  736.53   43.00
   0   3   6  762.42   38.80
  -1  -3  -6  421.86   25.30
  -1  -3  -6  435.76   29.00
  -1  -3  -6  436.86   25.60
  -1  -3  -6  457.85   28.10
   1   3   6  426.56   29.00
   1   3   6  454.75   24.90
   1   3   6  415.26   26.40
   1   3   6  404.36   25.90
   1   3   6  420.76   26.00
  -2  -3  -6  134.49    9.50
  -2  -3  -6  141.89   14.70
  -2  -3  -6  158.68   14.20
  -2  -3  -6  145.49   12.80
   2   3   6  108.59   12.80
   2   3   6  132.69   12.80
   2   3   6  125.29   14.40
   2   3   6  136.29   10.00
   2   3   6  128.39   14.50
  -3  -3  -6  786.72   42.80
  -3  -3  -6  826.32   46.80
  -3  -3  -6  765.72   46.80
  -3  -3  -6  816.22   47.10
   3   3   6  808.62   45.00
   3   3   6  802.52   40.90
   3   3   6  879.41   48.00
   3   3   6  829.42   47.50
  -4  -3  -6  211.78   18.00
  -4  -3  -6  198.18   13.80
  -4  -3  -6  230.28   19.40
  -4  -3  -6  204.28   18.50
   4   3   6  197.98   16.40
   4   3   6  175.68   17.20
   4   3   6  191.68   18.40
  -5  -3  -6  239.98   16.70
  -5  -3  -6  263.97   22.30
  -5  -3  -6  262.47   22.10
  -5  -3  -6  237.58   23.20
   5   3   6  264.87   19.70
   5   3   6  272.27   24.00
   5   3   6  267.87   21.50
  -6  -3  -6   48.10   12.70
  -6  -3  -6   48.30   11.60
   6   3   6   69.99   14.50
   6   3   6   64.49   12.30
  -7  -3  -6   25.60   12.20
  -7  -3  -6   52.89   13.40
   7   3   6   31.50   13.90
  -8  -3  -6    6.80   10.20
  -8  -3  -6   23.00   11.40
   8   3   6    6.50   12.20
  -9  -3  -6   18.10   11.50
  -9  -3  -6   26.70   12.20
   9   3   6   28.80   15.30
 -10  -3  -6   71.29   18.20
 -10  -3  -6   71.29   17.20
  10   3   6   78.39   20.40
   8  -4  -6  194.88   29.10
  -8   4   6  152.98   24.70
  -8   4   6  187.68   26.40
   7  -4  -6   82.69   19.80
  -7   4   6   79.49   17.00
  -7   4   6  107.59   19.60
  -7   4   6   89.99   18.60
  -7   4   6  117.39   15.90
   6  -4  -6   33.60   15.40
   6  -4  -6   45.10   14.00
  -6   4   6   51.89   10.90
  -6   4   6   39.30   12.70
  -6   4   6   44.90   13.60
  -6   4   6   48.90   13.80
   5  -4  -6   11.50   12.70
   5  -4  -6   19.10   11.80
  -5   4   6    8.10    9.30
  -5   4   6   14.70   10.00
  -5   4   6    8.20    7.00
   4  -4  -6  121.89   20.60
   4  -4  -6  117.49   17.90
  -4   4   6  114.89   13.40
  -4   4   6   79.19   15.20
  -4   4   6   91.89   14.60
  -4   4   6  101.19    8.90
   3  -4  -6  438.86   34.00
   3  -4  -6  429.06   31.90
  -3   4   6  424.66   24.30
  -3   4   6  470.85   28.40
  -3   4   6  456.05   32.40
  -3   4   6  442.86   30.30
   2  -4  -6  201.58   19.30
   2  -4  -6  227.58   16.60
   2  -4  -6  259.77   21.60
  -2   4   6  251.07   21.60
  -2   4   6  230.38   17.30
  -2   4   6  234.98   18.90
  -2   4   6  229.48   14.70
   1  -4  -6 1642.84   84.29
   1  -4  -6 1593.44   78.19
   1  -4  -6 1597.34   82.19
   1  -4  -6 1609.34   85.89
   1  -4  -6 1592.34   85.99
  -1   4   6 1646.54   83.29
  -1   4   6 1616.04   80.89
  -1   4   6 1639.24   84.09
  -1   4   6 1603.94   87.09
   0  -4  -6  236.88   17.20
   0  -4  -6  218.08   16.80
   0  -4  -6  219.58   15.70
   0  -4  -6  231.78   13.10
   0   4   6  198.78   18.50
   0   4   6  201.38   15.10
   0   4   6  192.58   16.10
   0   4   6  189.78   15.80
  -1  -4  -6   45.90    7.50
  -1  -4  -6   48.10    7.20
  -1  -4  -6   63.99    9.80
   1   4   6   22.00    6.80
   1   4   6   21.60    6.20
   1   4   6   18.20    7.90
   1   4   6   34.90    7.30
   1   4   6   22.70    6.30
  -2  -4  -6   72.99   10.50
  -2  -4  -6   44.60   11.60
  -2  -4  -6   57.99   10.10
  -2  -4  -6   51.39    9.00
   2   4   6  111.49   11.60
   2   4   6  102.79    9.20
   2   4   6   92.49   11.70
   2   4   6   89.59   13.00
   2   4   6   90.79    6.80
  -3  -4  -6  385.16   26.30
  -3  -4  -6  421.86   27.20
  -3  -4  -6  410.66   26.70
   3   4   6  386.26   28.50
   3   4   6  374.16   22.50
   3   4   6  411.86   27.60
   3   4   6  405.76   25.70
  -4  -4  -6  931.31   52.09
  -4  -4  -6  930.01   52.39
   4   4   6  928.21   52.69
   4   4   6  881.81   46.20
   4   4   6  878.31   50.19
   4   4   6  897.21   52.69
  -5  -4  -6  129.29   16.40
  -5  -4  -6  117.19   12.30
  -5  -4  -6  132.69   17.40
   5   4   6  106.39   15.80
   5   4   6  137.19   17.00
  -6  -4  -6  196.28   22.40
  -6  -4  -6  191.78   21.90
   6   4   6  238.38   25.30
   6   4   6  237.18   21.80
  -7  -4  -6   16.60    9.70
  -7  -4  -6   24.60   10.70
   7   4   6    1.00    8.40
   7   4   6   -2.70   10.50
  -8  -4  -6   14.70   10.10
  -8  -4  -6   19.40   12.10
   8   4   6   17.10   11.60
  -9  -4  -6  101.89   18.10
  -9  -4  -6   93.29   17.80
  -9  -4  -6   85.79   18.70
   9   4   6   89.19   19.90
 -10  -4  -6   -2.10   10.10
 -10  -4  -6   22.20   14.30
 -10  -4  -6    7.90   14.10
  10   4   6  -16.30    9.60
   8  -5  -6   78.99   21.70
  -8   5   6  113.89   21.90
  -8   5   6   78.39   18.70
   7  -5  -6   21.10   15.80
  -7   5   6   36.50   15.10
  -7   5   6    7.70   11.00
   6  -5  -6  195.68   27.00
  -6   5   6  191.08   25.80
  -6   5   6  177.88   23.20
  -6   5   6  188.28   18.10
  -6   5   6  186.88   24.60
   5  -5  -6   65.99   16.40
  -5   5   6   95.49   16.70
  -5   5   6  114.09   18.60
  -5   5   6   96.89   17.10
  -5   5   6  109.19   13.80
   4  -5  -6   27.30   10.80
  -4   5   6   38.20   11.50
  -4   5   6   27.00    7.90
  -4   5   6   13.70    8.60
  -4   5   6   20.90    9.80
   3  -5  -6 1059.69   62.49
  -3   5   6 1063.39   60.19
  -3   5   6 1034.70   62.29
  -3   5   6 1040.10   56.99
  -3   5   6 1067.79   60.59
   2  -5  -6   48.40   11.30
   2  -5  -6   62.69    9.60
  -2   5   6   58.89    6.30
  -2   5   6   68.89   13.10
  -2   5   6   80.19   12.50
  -2   5   6   52.29    9.60
   1  -5  -6  424.66   29.90
   1  -5  -6  393.86   25.50
   1  -5  -6  396.46   22.10
  -1   5   6  427.86   27.70
  -1   5   6  419.86   26.00
  -1   5   6  416.56   29.80
   0  -5  -6  224.68   19.70
   0  -5  -6  224.68   14.30
   0  -5  -6  226.48   17.20
   0  -5  -6  226.18   18.30
   0   5   6  232.98   18.30
   0   5   6  255.27   21.30
   0   5   6  216.18   17.60
  -1  -5  -6  118.39   12.00
  -1  -5  -6   94.19    9.70
  -1  -5  -6   88.99   11.60
   1   5   6  130.29   16.80
   1   5   6  135.59   12.30
   1   5   6  118.59   12.80
  -2  -5  -6   58.19    9.70
  -2  -5  -6   57.19    8.50
  -2  -5  -6   49.80    9.00
   2   5   6   52.09    8.80
   2   5   6   77.69    9.60
   2   5   6   69.39   13.00
  -3  -5  -6   62.19   10.40
  -3  -5  -6   52.19    9.30
  -3  -5  -6   58.29   10.80
   3   5   6   49.10   10.40
   3   5   6   47.40    4.80
   3   5   6   55.69   10.00
   3   5   6   38.80   10.30
   3   5   6   48.00    7.60
  -4  -5  -6  396.36   28.40
  -4  -5  -6  398.06   27.40
  -4  -5  -6  384.66   27.90
   4   5   6  427.06   29.50
   4   5   6  418.86   27.40
   4   5   6  409.96   24.20
   4   5   6  408.36   30.50
  -5  -5  -6  381.06   28.70
  -5  -5  -6  396.66   29.30
  -5  -5  -6  396.36   27.70
   5   5   6  380.26   30.20
   5   5   6  394.66   29.00
  -6  -5  -6   30.40   10.70
  -6  -5  -6   27.60    9.70
  -6  -5  -6   34.80   11.00
   6   5   6   93.99   16.10
   6   5   6   87.19   15.70
  -7  -5  -6  300.07   26.00
  -7  -5  -6  323.97   29.20
  -7  -5  -6  324.27   28.60
   7   5   6  303.67   27.30
   7   5   6  319.27   29.20
  -8  -5  -6   12.90   11.60
  -8  -5  -6   22.10   10.40
  -8  -5  -6   36.10   13.30
   8   5   6   17.10   11.90
   8   5   6   11.90   12.80
  -9  -5  -6    7.60    9.90
  -9  -5  -6   14.30   11.10
  -9  -5  -6    0.40   11.10
   9   5   6    5.40   13.00
 -10  -5  -6   40.90   15.70
 -10  -5  -6   25.00   13.70
  10   5   6   37.10   15.50
   8  -6  -6   11.30   15.80
  -8   6   6   12.00   14.50
  -8   6   6   22.60   16.10
   7  -6  -6  223.08   31.80
  -7   6   6  203.58   28.70
  -7   6   6  184.28   25.70
   6  -6  -6   68.99   19.40
  -6   6   6   69.19   17.90
  -6   6   6   61.89   16.50
  -6   6   6   64.89   16.40
   5  -6  -6    6.40   12.00
  -5   6   6   22.60   11.30
  -5   6   6   24.10   12.20
  -5   6   6   32.20    9.10
  -5   6   6   21.10   10.90
   4  -6  -6   48.70   13.90
  -4   6   6   79.99   15.50
  -4   6   6   66.69   14.40
  -4   6   6   62.89   10.80
  -4   6   6   77.49   15.60
   3  -6  -6  336.77   28.40
  -3   6   6  319.27   26.60
  -3   6   6  366.96   27.00
  -3   6   6  313.47   27.40
  -3   6   6  352.46   23.70
   2  -6  -6  294.27   21.30
   2  -6  -6  291.77   24.90
   2  -6  -6  303.07   17.90
  -2   6   6  260.57   20.50
  -2   6   6  293.27   23.70
  -2   6   6  297.17   23.30
  -2   6   6  254.67   24.70
   1  -6  -6   30.70    8.00
   1  -6  -6   34.00    5.80
   1  -6  -6   34.10   10.50
  -1   6   6   53.39   10.40
  -1   6   6   64.99   10.10
  -1   6   6   49.90   12.20
  -1   6   6   34.10    9.30
   0  -6  -6 1306.37   66.79
   0  -6  -6 1306.07   72.59
   0  -6  -6 1262.17   69.29
   0   6   6 1280.17   69.29
   0   6   6 1322.67   69.49
   0   6   6 1360.16   74.49
   0   6   6 1335.27   70.49
  -1  -6  -6   23.70    5.80
  -1  -6  -6   17.60    6.50
  -1  -6  -6   28.70    7.80
   1   6   6   34.00    6.60
   1   6   6   12.50    6.80
   1   6   6   30.80    8.50
   1   6   6   17.80    9.30
  -2  -6  -6   44.40    8.70
  -2  -6  -6   43.20    8.70
  -2  -6  -6   31.40    7.20
   2   6   6   19.40    9.10
   2   6   6   28.30    5.50
   2   6   6   34.70    8.80
   2   6   6   31.70    7.80
  -3  -6  -6  298.47   21.10
  -3  -6  -6  302.67   20.90
  -3  -6  -6  305.97   21.60
   3   6   6  264.17   15.20
   3   6   6  244.08   20.50
   3   6   6  255.87   19.40
   3   6   6  282.67   24.90
  -4  -6  -6   25.90    8.50
  -4  -6  -6   18.40    7.80
  -4  -6  -6   25.60    7.90
   4   6   6   16.70    6.50
   4   6   6   20.60    8.20
   4   6   6   20.50   10.40
  -5  -6  -6  685.23   40.70
  -5  -6  -6  645.14   42.30
  -5  -6  -6  693.43   42.60
   5   6   6  676.53   45.30
   5   6   6  643.84   37.90
  -6  -6  -6   15.50    9.70
  -6  -6  -6   12.40   10.00
  -6  -6  -6   21.50    8.60
   6   6   6   13.00   10.40
   6   6   6    8.30    9.30
  -7  -6  -6  192.48   22.90
  -7  -6  -6  157.08   19.20
  -7  -6  -6  182.18   23.20
   7   6   6  133.99   21.70
   7   6   6  145.49   21.40
  -8  -6  -6   66.49   16.50
  -8  -6  -6   43.90   14.30
  -8  -6  -6   61.29   13.30
   8   6   6   79.29   16.80
   8   6   6   65.99   17.50
  -9  -6  -6    5.20   11.00
  -9  -6  -6    3.50   12.50
   9   6   6  -14.70   10.90
   9   6   6   -6.00   11.70
 -10  -6  -6   -6.90   10.00
 -10  -6  -6   -8.60   11.00
   7  -7  -6   83.29   23.00
  -7   7   6  103.99   22.40
  -7   7   6   86.49   20.30
   6  -7  -6   14.70   13.80
  -6   7   6   -8.30   11.30
  -6   7   6    7.70   13.60
   5  -7  -6   54.59   16.20
  -5   7   6   67.99   16.60
  -5   7   6   57.69   15.90
  -5   7   6   62.19   16.70
   4  -7  -6   36.40   14.70
  -4   7   6   27.80   12.40
  -4   7   6   14.40    9.90
  -4   7   6   41.40    9.80
  -4   7   6   25.40   11.70
   3  -7  -6  136.29   21.50
  -3   7   6  137.59   15.80
  -3   7   6  158.78   20.20
  -3   7   6  126.59   18.30
  -3   7   6  156.88   20.90
   2  -7  -6  298.27   19.80
   2  -7  -6  311.17   23.90
   2  -7  -6  305.17   26.40
  -2   7   6  288.67   24.60
  -2   7   6  309.67   22.60
  -2   7   6  318.87   25.80
   1  -7  -6  806.72   44.50
   1  -7  -6  795.42   48.30
   1  -7  -6  815.42   41.30
  -1   7   6  678.63   45.20
  -1   7   6  692.73   44.60
  -1   7   6  707.63   42.90
  -1   7   6  717.13   48.20
   0  -7  -6  580.94   37.80
   0  -7  -6  589.74   35.20
   0  -7  -6  588.74   40.30
   0   7   6  638.54   39.20
   0   7   6  689.03   38.20
   0   7   6  654.73   38.10
   0   7   6  666.63   42.90
  -1  -7  -6  289.37   23.50
  -1  -7  -6  301.57   19.50
  -1  -7  -6  262.17   20.40
   1   7   6  244.58   20.60
   1   7   6  263.17   19.40
   1   7   6  238.98   20.10
   1   7   6  264.57   24.50
  -2  -7  -6    6.20    5.40
  -2  -7  -6    5.30    6.00
  -2  -7  -6   -3.00    4.90
   2   7   6   -1.90    4.00
   2   7   6    0.80    6.00
   2   7   6   -4.00    6.30
   2   7   6   -3.80    7.70
  -3  -7  -6   78.19   11.20
  -3  -7  -6   88.79   12.50
  -3  -7  -6   95.39   13.10
   3   7   6   85.79   15.80
   3   7   6  100.69   13.10
   3   7   6   97.99   10.10
   3   7   6   98.29   13.60
  -4  -7  -6  414.76   27.30
  -4  -7  -6  434.26   29.50
  -4  -7  -6  446.96   30.00
   4   7   6  407.76   34.00
   4   7   6  400.66   27.40
   4   7   6  397.16   28.90
  -5  -7  -6   92.99   15.30
  -5  -7  -6  113.79   14.10
  -5  -7  -6  106.89   16.20
   5   7   6  106.69   18.40
   5   7   6   99.59   13.00
  -6  -7  -6  531.85   37.30
  -6  -7  -6  499.25   32.70
  -6  -7  -6  466.55   35.50
   6   7   6  500.05   40.00
  -7  -7  -6   10.90   10.80
  -7  -7  -6    6.20    8.00
  -7  -7  -6    3.80   10.20
   7   7   6   -2.70   10.60
  -8  -7  -6   84.89   17.90
  -8  -7  -6   98.19   19.30
   8   7   6  100.19   22.00
  -9  -7  -6   48.40   15.60
  -9  -7  -6    7.00   11.70
   9   7   6   16.50   14.70
 -10  -7  -6   12.10   13.90
 -10  -7  -6    8.80   14.10
  10   7   6   13.80   15.30
   6  -8  -6  170.58   29.70
  -6   8   6  186.58   26.70
  -6   8   6  165.88   27.10
   5  -8  -6   24.70   14.10
  -5   8   6   14.50   13.10
  -5   8   6   19.70   14.50
   4  -8  -6   23.30   12.90
  -4   8   6   41.60   14.10
  -4   8   6   32.60   14.60
  -4   8   6   46.50   13.40
   3  -8  -6   22.90   12.70
  -3   8   6   57.59   13.60
  -3   8   6   50.79   14.20
  -3   8   6   58.39   10.50
  -3   8   6   59.59   15.30
   2  -8  -6   15.30    9.30
   2  -8  -6    4.30   10.30
   2  -8  -6   23.50    7.80
  -2   8   6   11.10    7.10
  -2   8   6   17.00   10.60
  -2   8   6   10.00    9.60
  -2   8   6    4.00    9.20
   1  -8  -6  428.06   26.80
   1  -8  -6  436.46   32.40
   1  -8  -6  396.56   29.50
  -1   8   6  427.86   28.60
  -1   8   6  425.56   31.00
  -1   8   6  398.06   30.90
   0  -8  -6   19.00    6.70
   0  -8  -6   19.30    9.80
   0  -8  -6   13.20    7.70
   0   8   6   10.80    7.50
   0   8   6   34.80   12.20
   0   8   6   21.00    9.30
   0   8   6    9.10    7.90
  -1  -8  -6  263.17   22.60
  -1  -8  -6  254.87   21.50
  -1  -8  -6  286.67   25.50
   1   8   6  353.16   24.50
   1   8   6  368.66   29.90
   1   8   6  349.37   25.70
   1   8   6  322.07   22.60
  -2  -8  -6  709.53   40.00
  -2  -8  -6  708.63   41.30
  -2  -8  -6  654.13   42.80
   2   8   6  662.53   40.90
   2   8   6  692.83   47.30
   2   8   6  616.54   37.30
   2   8   6  644.24   41.00
  -3  -8  -6   14.00    7.40
  -3  -8  -6   16.50    7.10
  -3  -8  -6   11.10    7.30
   3   8   6   20.30    8.70
   3   8   6    0.50    8.10
  -4  -8  -6   69.59   13.10
  -4  -8  -6   51.29   11.90
  -4  -8  -6   65.49   10.40
   4   8   6  122.39   15.40
   4   8   6  104.69   18.90
  -5  -8  -6   94.19   15.10
  -5  -8  -6   99.29   13.00
  -5  -8  -6   95.49   16.30
   5   8   6  162.08   17.30
   5   8   6  126.19   20.30
  -6  -8  -6  248.58   25.80
  -6  -8  -6  265.37   25.60
   6   8   6  215.78   28.40
   6   8   6  239.58   20.60
  -7  -8  -6   66.79   14.60
  -7  -8  -6   60.59   15.40
   7   8   6   64.69   19.10
  -8  -8  -6   88.29   18.20
  -8  -8  -6   69.79   17.70
   8   8   6   71.69   19.30
  -9  -8  -6   28.70   15.10
  -9  -8  -6   16.80   13.70
   9   8   6    8.70   15.10
 -10  -8  -6    7.60   12.90
 -10  -8  -6    8.20   12.80
  10   8   6    5.50   16.00
   5  -9  -6    7.10   15.00
  -5   9   6    5.90   15.10
  -5   9   6    7.10   12.30
   4  -9  -6   14.00   13.90
  -4   9   6   59.09   17.10
  -4   9   6   73.79   18.30
   3  -9  -6   88.19   19.50
  -3   9   6   52.29   15.00
  -3   9   6   50.99   15.00
  -3   9   6   43.80   14.30
   2  -9  -6   19.20   12.00
  -2   9   6   15.50    8.50
  -2   9   6    5.10    9.40
  -2   9   6    9.10    9.70
  -2   9   6    7.40    9.20
   1  -9  -6  272.37   26.90
   1  -9  -6  281.47   21.90
   1  -9  -6  276.77   24.20
  -1   9   6  287.57   28.40
  -1   9   6  293.77   26.20
  -1   9   6  330.57   23.60
  -1   9   6  288.17   25.90
   0  -9  -6  472.15   35.10
   0  -9  -6  528.35   34.10
   0  -9  -6  513.45   31.20
   0   9   6  466.95   37.30
   0   9   6  445.06   32.40
   0   9   6  483.35   32.40
   0   9   6  414.96   33.80
  -1  -9  -6  231.38   19.70
  -1  -9  -6  234.18   23.20
  -1  -9  -6  236.28   21.30
   1   9   6  226.28   26.30
   1   9   6  228.58   22.20
   1   9   6  257.37   20.50
   1   9   6  244.98   21.30
  -2  -9  -6  435.56   31.30
  -2  -9  -6  394.96   28.40
  -2  -9  -6  397.06   29.10
   2   9   6  404.76   28.90
   2   9   6  386.56   30.40
   2   9   6  370.56   25.60
  -3  -9  -6   56.59   12.70
  -3  -9  -6   65.09   13.50
  -3  -9  -6   72.89   13.10
   3   9   6   61.89   17.10
   3   9   6   66.19   12.70
   3   9   6   47.40   11.70
  -4  -9  -6    4.30    8.30
  -4  -9  -6    3.80    7.50
   4   9   6   -5.30    9.70
   4   9   6    5.00    7.90
  -5  -9  -6  138.99   19.30
  -5  -9  -6  121.29   18.10
   5   9   6  214.58   28.30
   5   9   6  154.98   19.20
  -6  -9  -6   28.30   12.40
  -6  -9  -6   10.40    9.50
   6   9   6   27.70   14.40
   6   9   6   24.50   10.20
  -7  -9  -6  115.69   20.40
  -7  -9  -6  151.58   21.20
   7   9   6  136.49   26.20
  -8  -9  -6    9.60   10.80
  -8  -9  -6   -4.20   12.40
   8   9   6   11.40   14.70
  -9  -9  -6   39.10   15.30
  -9  -9  -6   23.70   14.60
   9   9   6   35.10   17.70
   4 -10  -6   70.89   19.80
  -4  10   6   50.69   16.60
  -4  10   6   53.09   17.90
   3 -10  -6   60.89   17.70
  -3  10   6    7.10   12.90
  -3  10   6   25.80   14.00
   2 -10  -6   13.60   11.70
  -2  10   6   11.60   11.30
  -2  10   6    6.80   11.20
  -2  10   6    9.50   11.40
   1 -10  -6    4.40   10.60
   1 -10  -6   17.50    8.50
   1 -10  -6   13.50   10.60
  -1  10   6   27.30   12.60
  -1  10   6   32.90   10.10
  -1  10   6   29.70   13.20
  -1  10   6   30.90   13.40
   0 -10  -6  345.17   25.90
   0 -10  -6  318.77   28.60
   0 -10  -6  315.37   26.40
   0  10   6  284.17   26.40
   0  10   6  343.67   25.90
   0  10   6  286.07   31.00
   0  10   6  342.97   29.90
  -1 -10  -6    4.80    8.10
  -1 -10  -6    9.10    8.50
  -1 -10  -6   18.50    9.80
   1  10   6   -7.10    8.50
   1  10   6   11.70    8.80
   1  10   6    7.40    7.90
  -2 -10  -6  128.09   17.50
  -2 -10  -6  122.79   17.10
  -2 -10  -6  147.99   19.60
   2  10   6  147.29   20.40
  -3 -10  -6   62.19   12.90
  -3 -10  -6   80.59   12.30
  -3 -10  -6   57.19   12.10
  -3 -10  -6   52.99   13.10
   3  10   6   73.79   19.20
   3  10   6   89.39   16.90
  -4 -10  -6   31.60   10.40
  -4 -10  -6   47.90   12.70
  -4 -10  -6   32.10   10.50
  -4 -10  -6   43.30   12.60
   4  10   6   39.70   16.80
   4  10   6   39.00   12.70
  -5 -10  -6  130.39   19.20
  -5 -10  -6  128.79   19.60
   5  10   6  117.29   18.10
   5  10   6  135.39   25.30
  -6 -10  -6  149.19   20.30
  -6 -10  -6   67.49   15.50
   6  10   6  104.69   22.40
   6  10   6  104.19   17.90
  -7 -10  -6  204.58   27.00
  -7 -10  -6  184.08   24.20
   7  10   6  162.18   30.20
  -8 -10  -6   56.29   17.90
  -8 -10  -6   78.79   17.90
   8  10   6   72.29   23.20
  -9 -10  -6   34.80   16.90
  -9 -10  -6   25.60   15.30
   9  10   6   27.20   18.10
   3 -11  -6    6.20   14.70
  -3  11   6   11.30   12.80
  -3  11   6   25.60   15.70
   2 -11  -6   -2.60   11.10
  -2  11   6    1.90   13.30
  -2  11   6    0.60   12.70
   1 -11  -6   67.19   17.40
  -1  11   6   77.29   18.10
  -1  11   6   46.60   14.70
   0 -11  -6   69.59   16.10
   0 -11  -6   87.69   15.30
   0 -11  -6   99.19   18.70
   0  11   6   77.49   15.60
   0  11   6   97.99   19.10
  -1 -11  -6  103.29   18.00
  -1 -11  -6  114.79   18.10
  -1 -11  -6  107.19   16.00
   1  11   6   65.19   16.50
  -2 -11  -6   14.00   10.00
  -2 -11  -6   19.80    9.80
  -2 -11  -6    5.60    9.90
   2  11   6    6.10   10.50
   2  11   6   13.30   14.80
  -3 -11  -6  277.37   26.20
  -3 -11  -6  256.07   26.70
  -3 -11  -6  298.07   25.80
   3  11   6  346.47   35.70
   3  11   6  303.77   28.10
  -4 -11  -6   35.20   16.30
  -4 -11  -6   34.10   12.60
  -4 -11  -6   19.40   10.20
   4  11   6   27.10   13.40
   4  11   6   37.90   17.90
  -5 -11  -6    3.50    8.90
  -5 -11  -6   13.60   10.20
  -5 -11  -6    3.80    9.30
   5  11   6   -2.90   13.90
   5  11   6   13.80   12.20
  -6 -11  -6  109.99   20.80
  -6 -11  -6  108.99   19.00
  -6 -11  -6  130.99   20.00
   6  11   6  123.29   20.80
   6  11   6  107.99   24.70
  -7 -11  -6   17.00   12.10
  -7 -11  -6   24.40   13.10
  -7 -11  -6   16.00   13.10
   7  11   6   17.50   18.80
  -8 -11  -6  152.08   23.90
  -8 -11  -6  171.18   26.20
  -8 -11  -6  131.09   22.00
   8  11   6  129.79   29.00
  -2  12   6   30.60   16.20
   1 -12  -6   17.60   13.10
  -1  12   6   33.30   14.40
  -1  12   6   -0.90   12.80
   0 -12  -6   31.60   12.60
   0 -12  -6   44.00   13.50
   0 -12  -6   36.20   16.90
   0  12   6   41.40   16.40
   0  12   6   45.30   14.60
  -1 -12  -6  220.88   25.70
  -1 -12  -6  190.08   23.00
   1  12   6  144.49   23.60
   1  12   6  178.88   30.40
  -2 -12  -6  161.18   22.20
  -2 -12  -6  156.38   21.00
   2  12   6  129.29   22.20
   2  12   6  149.09   28.00
  -3 -12  -6  283.57   27.20
  -3 -12  -6  233.78   26.60
   3  12   6  213.18   27.50
   3  12   6  276.37   37.70
  -4 -12  -6   50.19   13.60
  -4 -12  -6   43.30   14.00
   4  12   6   71.09   21.50
   4  12   6   72.79   17.30
  -5 -12  -6   98.19   18.20
  -5 -12  -6  104.99   19.60
   5  12   6  105.39   25.40
   5  12   6  115.49   20.90
  -6 -12  -6    5.20   10.80
  -6 -12  -6    4.60   13.20
  -6 -12  -6   17.10   12.20
   6  12   6   -0.20   12.40
   6  12   6   15.40   17.90
  -7 -12  -6   47.60   14.20
  -7 -12  -6   61.29   16.70
  -7 -12  -6   47.70   17.10
   7  12   6   44.20   19.40
  -1 -13  -6   20.40   13.40
  -1 -13  -6   16.20   12.40
   1  13   6   16.70   13.20
   1  13   6   24.00   18.50
  -2 -13  -6  148.49   22.30
  -2 -13  -6  106.49   19.70
   2  13   6  108.69   21.50
   2  13   6  118.79   27.80
  -3 -13  -6   -7.80   10.00
  -3 -13  -6    4.90   12.00
   3  13   6   -3.70   10.60
   3  13   6   17.60   17.40
  -4 -13  -6   20.70   12.20
  -4 -13  -6   55.19   16.20
   4  13   6   75.59   24.00
   4  13   6   63.29   17.00
  -5 -13  -6   57.59   17.40
  -5 -13  -6   55.59   16.00
   5  13   6   49.40   16.10
   5  13   6   46.60   21.70
   5   7  -7   12.40   16.00
  -5  -7   7   45.20   14.00
  -5  -7   7   36.60   14.20
  -5  -7   7   49.80   14.40
   4   7  -7   39.10   17.00
   4   7  -7   33.50   16.10
  -4  -7   7   29.80   12.40
  -4  -7   7   20.60   11.10
  -4  -7   7   49.00   16.10
   3   7  -7   58.89   17.60
   3   7  -7   38.50   17.20
  -3  -7   7   65.29   15.10
  -3  -7   7   68.39   16.10
   2   7  -7  129.39   23.00
   2   7  -7  163.78   29.40
  -2  -7   7  110.09   19.30
  -2  -7   7  141.59   21.50
   1   7  -7   10.80   13.40
   1   7  -7    5.50   14.40
  -1  -7   7   -1.10   10.60
  -1  -7   7    4.80   11.70
   0   7  -7   58.19   20.80
   0   7  -7   80.09   20.40
   0  -7   7   94.99   18.40
   0  -7   7   73.89   17.60
   0  -7   7   61.19   15.70
  -1   7  -7   40.00   17.80
   1  -7   7   44.70   17.60
   1  -7   7   42.60   15.20
   1  -7   7   52.69   16.40
   7   6  -7   21.60   15.80
   7   6  -7    7.30   15.80
  -7  -6   7   15.30   13.30
  -7  -6   7   23.70   12.60
   6   6  -7   96.89   23.80
   6   6  -7  135.39   23.90
  -6  -6   7  123.99   19.20
  -6  -6   7  122.89   20.20
   5   6  -7   73.39   20.80
   5   6  -7   88.19   19.70
  -5  -6   7  102.39   16.50
  -5  -6   7   56.29   15.20
  -5  -6   7   70.89   14.40
   4   6  -7   20.30   12.30
   4   6  -7   35.10   15.20
   4   6  -7   18.20   14.10
  -4  -6   7   19.60   10.30
  -4  -6   7   31.90   13.80
  -4  -6   7   14.10   10.40
   3   6  -7  188.08   25.70
   3   6  -7  175.98   28.90
  -3  -6   7  174.88   21.50
  -3  -6   7  169.18   19.80
  -3  -6   7  169.48   22.40
   2   6  -7   75.99   18.60
   2   6  -7   60.29   18.70
  -2  -6   7   42.40   13.30
  -2  -6   7   41.10   11.80
   1   6  -7  156.38   27.50
   1   6  -7  161.58   23.90
  -1  -6   7  110.49   18.80
  -1  -6   7  137.89   19.40
   0   6  -7   19.40   15.70
   0   6  -7   19.70   14.80
   0  -6   7   39.50   14.40
   0  -6   7   32.40   12.60
   0  -6   7   27.90   13.60
  -1   6  -7  155.58   25.20
   1  -6   7  152.48   21.40
   1  -6   7  189.08   25.80
   1  -6   7  207.38   25.50
  -2   6  -7   49.99   16.90
  -2   6  -7   34.20   15.10
   2  -6   7   62.59   18.20
   2  -6   7   12.80   12.00
  -3   6  -7   32.10   15.80
  -3   6  -7   56.49   17.70
   3  -6   7   64.89   20.00
   3  -6   7   41.80   14.30
   8   5  -7  210.58   35.70
  -8  -5   7  203.68   27.30
  -8  -5   7  256.77   30.70
   7   5  -7   45.30   22.10
   7   5  -7   26.80   16.60
  -7  -5   7   37.30   13.40
  -7  -5   7   16.20   11.10
   6   5  -7   21.80   14.20
   6   5  -7   37.10   18.00
  -6  -5   7   37.90   14.20
  -6  -5   7   38.90   13.40
   5   5  -7   40.20   16.80
   5   5  -7   69.89   17.40
  -5  -5   7   85.39   13.70
  -5  -5   7   84.59   17.10
  -5  -5   7   92.29   15.70
   4   5  -7   15.60   13.60
   4   5  -7   15.00   10.60
  -4  -5   7   21.10   10.50
  -4  -5   7   15.60    9.50
  -4  -5   7   29.30   11.60
   3   5  -7   59.79   13.70
   3   5  -7   52.59   18.10
   3   5  -7   44.40   14.40
  -3  -5   7   68.59   13.00
  -3  -5   7   50.59   13.80
  -3  -5   7   55.69   11.80
  -3  -5   7   82.89   16.60
   2   5  -7   90.09   20.80
   2   5  -7   76.69   16.50
  -2  -5   7   81.39   15.90
  -2  -5   7   77.69   12.70
  -2  -5   7   82.09   13.90
   1   5  -7  270.57   33.60
   1   5  -7  239.28   27.30
  -1  -5   7  240.98   26.30
  -1  -5   7  231.08   22.80
   0   5  -7   86.39   14.80
   0   5  -7   45.10   14.00
   0   5  -7   67.79   19.00
   0  -5   7   62.39   15.50
   0  -5   7   64.59   13.70
   0  -5   7   65.19   14.30
  -1   5  -7  239.78   29.60
  -1   5  -7  219.98   25.30
   1  -5   7  262.77   28.40
   1  -5   7  254.97   26.50
   1  -5   7  230.88   26.40
  -2   5  -7   91.59   18.50
  -2   5  -7   81.89   18.30
   2  -5   7  114.69   20.30
   2  -5   7  104.89   17.60
  -3   5  -7   26.50   13.70
  -3   5  -7   25.00   14.40
   3  -5   7   19.40   11.80
   3  -5   7    1.10   12.30
  -4   5  -7    6.30   12.70
  -4   5  -7   -3.70   12.20
   4  -5   7   -0.30   10.20
   4  -5   7   -6.50   11.10
   8   4  -7   84.19   25.00
   8   4  -7   90.59   23.30
  -8  -4   7   80.09   17.40
  -8  -4   7  106.59   19.30
   7   4  -7   14.10   17.60
   7   4  -7   19.90   15.50
  -7  -4   7    6.30    9.80
  -7  -4   7  -11.40    9.90
   6   4  -7   16.80   13.50
   6   4  -7   19.20   16.10
  -6  -4   7   34.50   12.10
  -6  -4   7   34.70   12.80
   5   4  -7  322.17   34.40
   5   4  -7  361.46   32.40
  -5  -4   7  346.37   25.40
  -5  -4   7  318.07   28.40
  -5  -4   7  328.77   27.80
   4   4  -7  304.37   28.60
   4   4  -7  342.17   34.00
  -4  -4   7  307.07   25.70
  -4  -4   7  327.67   25.10
  -4  -4   7  315.27   30.00
  -4  -4   7  326.47   26.70
   3   4  -7  117.59   22.50
   3   4  -7  145.49   19.90
   3   4  -7  148.49   20.50
  -3  -4   7  117.39   18.10
  -3  -4   7  136.09   20.10
  -3  -4   7  139.79   16.40
  -3  -4   7  144.59   16.90
   2   4  -7  307.37   30.30
   2   4  -7  349.07   33.70
   2   4  -7  367.36   28.30
   2   4  -7  321.57   25.40
  -2  -4   7  394.76   30.90
  -2  -4   7  415.86   28.20
  -2  -4   7  382.36   30.00
  -2  -4   7  427.36   27.30
   1   4  -7  126.19   19.10
   1   4  -7  110.99   20.40
   1   4  -7  128.99   16.30
  -1  -4   7  122.99   17.80
  -1  -4   7  125.89   14.20
  -1  -4   7  129.19   16.60
  -1  -4   7  105.49   16.10
   0   4  -7   86.99   14.70
   0   4  -7   39.80   14.10
   0   4  -7   49.80   13.10
   0  -4   7   61.79   14.10
   0  -4   7   76.69   14.00
   0  -4   7   56.79   13.00
  -1   4  -7   32.10   13.10
  -1   4  -7   35.20   11.30
   1  -4   7   23.60   10.60
   1  -4   7   14.20    9.20
   1  -4   7   23.80   11.20
  -2   4  -7   91.19   17.10
  -2   4  -7   75.69   15.80
   2  -4   7   86.39   16.10
   2  -4   7   49.20   13.10
  -3   4  -7   25.00   13.30
  -3   4  -7   34.70   13.00
   3  -4   7   61.99   15.90
   3  -4   7   51.69   13.20
  -4   4  -7  127.69   19.30
  -4   4  -7  179.88   24.80
  -4   4  -7  164.58   24.90
   4  -4   7  159.78   24.30
   4  -4   7  131.89   20.40
  -5   4  -7   78.89   17.00
  -5   4  -7   70.09   18.20
  -5   4  -7   92.39   18.70
   5  -4   7   86.89   17.30
   5  -4   7   60.29   17.30
   9   3  -7   43.10   21.00
  -9  -3   7   38.90   13.90
  -9  -3   7   52.99   15.50
   8   3  -7   31.00   18.90
   8   3  -7   32.50   18.50
  -8  -3   7   37.70   13.50
  -8  -3   7   36.70   13.60
   7   3  -7  144.79   25.90
   7   3  -7  124.49   26.20
  -7  -3   7  157.78   20.70
  -7  -3   7  169.98   21.60
   6   3  -7  167.28   25.50
   6   3  -7  188.98   30.60
  -6  -3   7  236.58   24.70
  -6  -3   7  177.78   21.90
   5   3  -7  492.45   41.00
   5   3  -7  506.35   38.40
  -5  -3   7  402.46   42.70
  -5  -3   7  419.26   31.70
  -5  -3   7  469.75   33.00
  -5  -3   7  439.66   29.40
   4   3  -7   63.89   15.50
   4   3  -7   52.99   16.60
  -4  -3   7   50.39    9.70
  -4  -3   7   65.89   12.80
  -4  -3   7   56.89   13.80
  -4  -3   7   62.29   11.80
   3   3  -7  175.88   24.40
   3   3  -7  234.28   22.90
   3   3  -7  222.78   22.10
   3   3  -7  200.58   17.10
  -3  -3   7  187.78   17.30
  -3  -3   7  193.08   18.60
  -3  -3   7  185.78   22.00
  -3  -3   7  177.88   20.40
   2   3  -7   33.50   13.40
   2   3  -7   26.70   10.50
   2   3  -7   46.00   10.80
   2   3  -7   25.20    8.40
  -2  -3   7   79.79   13.30
  -2  -3   7   86.99   11.90
  -2  -3   7   79.79   14.50
  -2  -3   7   55.99   10.30
   1   3  -7  256.47   22.00
   1   3  -7  285.37   27.90
   1   3  -7  231.18   23.90
  -1  -3   7  264.77   21.90
  -1  -3   7  275.97   23.60
  -1  -3   7  260.67   23.40
  -1  -3   7  331.07   21.40
  -1  -3   7  289.87   22.10
   0   3  -7  192.88   22.80
   0   3  -7  239.18   21.20
   0   3  -7  240.68   24.50
   0  -3   7  259.07   20.90
   0  -3   7  220.68   20.50
   0  -3   7  233.78   21.20
   0  -3   7  218.48   19.60
   0  -3   7  249.88   18.30
  -1   3  -7  249.48   24.40
  -1   3  -7  254.27   22.80
  -1   3  -7  234.28   19.20
   1  -3   7  245.08   21.50
   1  -3   7  228.48   22.30
  -2   3  -7   78.29   12.80
  -2   3  -7   97.49   16.70
  -2   3  -7   60.79   14.70
   2  -3   7  107.89   16.20
   2  -3   7   66.69   13.60
  -3   3  -7    4.00    8.30
  -3   3  -7    2.80    9.90
  -3   3  -7    4.00    9.60
   3  -3   7    9.80    9.60
   3  -3   7   19.40   10.70
  -4   3  -7  116.19   17.30
  -4   3  -7  117.39   19.50
  -4   3  -7  103.09   20.10
   4  -3   7  120.09   18.30
   4  -3   7  130.39   20.80
  -5   3  -7   -2.00   10.30
  -5   3  -7   22.10   11.80
  -5   3  -7    8.40   12.40
   5  -3   7   -3.50   12.50
   5  -3   7   -6.70    8.90
  -6   3  -7    7.90   13.70
  -6   3  -7  -12.10   10.40
  -6   3  -7   -4.00   11.50
   6  -3   7   -5.60   13.10
   9   2  -7   22.20   18.30
   9   2  -7   23.00   17.60
  -9  -2   7   38.10   13.40
  -9  -2   7   26.80   12.40
   8   2  -7  188.98   30.60
   8   2  -7  200.98   33.20
  -8  -2   7  216.78   24.90
  -8  -2   7  214.48   24.40
   7   2  -7   37.40   16.40
   7   2  -7   62.69   19.20
  -7  -2   7   79.99   15.00
  -7  -2   7   77.59   14.90
   6   2  -7  183.28   27.90
   6   2  -7  173.28   25.60
  -6  -2   7  192.98   21.90
  -6  -2   7  179.98   20.50
   5   2  -7    6.40   10.40
   5   2  -7   21.60   14.10
  -5  -2   7    0.20    8.30
  -5  -2   7   -0.30    8.50
  -5  -2   7   11.00    8.70
   4   2  -7   99.59   17.00
   4   2  -7  119.59   13.80
   4   2  -7   91.79   19.70
  -4  -2   7  107.19   12.30
  -4  -2   7  133.89   20.20
  -4  -2   7   89.79   14.10
  -4  -2   7  126.09   16.60
   3   2  -7  112.99   13.80
   3   2  -7  152.68   19.40
   3   2  -7  129.09   21.90
  -3  -2   7  135.69   15.50
  -3  -2   7  159.88   13.70
  -3  -2   7  141.09   19.70
  -3  -2   7  156.38   17.60
   2   2  -7  215.98   22.90
   2   2  -7  231.98   21.60
   2   2  -7  196.48   17.40
  -2  -2   7  217.08   21.30
  -2  -2   7  207.98   18.00
  -2  -2   7  206.28   16.80
  -2  -2   7  218.98   17.10
  -2  -2   7  214.28   20.20
   1   2  -7  649.43   42.00
   1   2  -7  618.94   39.20
   1   2  -7  643.34   44.40
  -1  -2   7  653.43   38.10
  -1  -2   7  631.04   40.80
  -1  -2   7  646.74   38.40
  -1  -2   7  724.13   41.40
  -1  -2   7  645.64   38.40
   0   2  -7  406.56   28.40
   0   2  -7  386.06   31.60
   0   2  -7  401.36   24.50
   0   2  -7  411.46   30.40
   0  -2   7  383.86   28.60
   0  -2   7  391.66   26.90
   0  -2   7  399.06   25.60
   0  -2   7  384.76   27.60
   0  -2   7  418.26   27.40
  -1   2  -7  234.78   21.90
  -1   2  -7  236.28   23.60
  -1   2  -7  235.68   22.20
  -1   2  -7  232.28   18.30
   1  -2   7  237.78   20.30
   1  -2   7  240.48   18.70
   1  -2   7  247.68   17.60
   1  -2   7  248.08   21.70
  -2   2  -7  153.58   18.60
  -2   2  -7  166.38   17.10
  -2   2  -7  173.48   21.10
   2  -2   7  138.69   17.50
   2  -2   7  114.49   16.10
  -3   2  -7  105.69   18.40
  -3   2  -7   94.19   14.80
  -3   2  -7  120.79   17.30
   3  -2   7   84.99   15.20
   3  -2   7  110.79   16.40
  -4   2  -7   22.10   10.00
  -4   2  -7   29.80   11.60
  -4   2  -7   22.00   11.20
   4  -2   7   24.30   11.50
   4  -2   7   23.40   10.90
  -5   2  -7  142.09   22.90
  -5   2  -7  124.69   19.10
  -5   2  -7  119.69   19.00
   5  -2   7  127.29   20.90
   5  -2   7  158.58   21.00
  -6   2  -7   53.79   16.60
  -6   2  -7   69.09   16.20
  -6   2  -7   70.49   16.70
   6  -2   7   67.39   18.40
  -7   2  -7   64.89   17.00
  -7   2  -7  108.69   21.50
  -7   2  -7   82.69   18.20
   7  -2   7   50.99   19.40
   9   1  -7  146.49   29.80
  -9  -1   7  136.69   20.90
  -9  -1   7  162.18   21.50
  -9  -1   7  165.98   26.80
   8   1  -7  180.48   32.40
  -8  -1   7  122.89   19.00
  -8  -1   7  165.08   20.40
  -8  -1   7  128.09   22.40
   7   1  -7   42.50   18.60
  -7  -1   7   44.30   12.10
  -7  -1   7   27.80   10.60
   6   1  -7  101.89   20.50
   6   1  -7   91.39   19.10
  -6  -1   7  100.69   15.20
  -6  -1   7  106.99   15.40
   5   1  -7  418.36   35.60
   5   1  -7  420.56   30.00
   5   1  -7  419.46   36.80
  -5  -1   7  458.55   36.70
  -5  -1   7  458.35   31.50
  -5  -1   7  472.35   31.10
   4   1  -7  248.98   20.60
   4   1  -7  267.67   25.60
   4   1  -7  240.98   27.00
  -4  -1   7  278.87   18.10
  -4  -1   7  267.57   21.50
  -4  -1   7  297.47   22.70
  -4  -1   7  270.07   25.70
   3   1  -7    0.10   10.00
   3   1  -7    9.60    6.30
   3   1  -7   10.10    6.60
  -3  -1   7   21.40    8.50
  -3  -1   7   13.80    5.20
  -3  -1   7   15.50    5.00
  -3  -1   7   12.70    9.40
  -3  -1   7   17.90    7.10
   2   1  -7  317.27   24.20
   2   1  -7  316.77   29.10
  -2  -1   7  368.46   22.40
  -2  -1   7  392.96   28.30
  -2  -1   7  351.56   22.30
  -2  -1   7  348.17   25.70
  -2  -1   7  368.66   24.20
   1   1  -7  233.88   22.80
   1   1  -7  230.58   13.70
   1   1  -7  226.98   20.60
   1   1  -7  244.98   19.40
  -1  -1   7  209.48   20.20
  -1  -1   7  216.18   17.00
  -1  -1   7  253.57   17.20
  -1  -1   7  245.58   19.50
  -1  -1   7  217.68   17.80
   0   1  -7  242.38   22.20
   0   1  -7  246.58   21.60
   0   1  -7  200.68   15.60
   0   1  -7  187.18   18.90
   0  -1   7  251.57   17.70
   0  -1   7  240.88   18.40
   0  -1   7  245.98   19.70
   0  -1   7  258.57   20.50
  -1   1  -7   51.19   11.20
  -1   1  -7   44.40    9.30
  -1   1  -7   61.79   13.10
  -1   1  -7   58.09   11.90
  -1   1  -7   54.89    9.20
   1  -1   7   71.19    9.50
   1  -1   7   55.49    9.80
   1  -1   7   59.69   10.80
   1  -1   7   49.99    9.80
  -2   1  -7  262.57   21.30
  -2   1  -7  271.07   19.80
  -2   1  -7  285.57   22.60
   2  -1   7  200.08   19.70
   2  -1   7  194.28   16.80
   2  -1   7  212.98   19.70
   2  -1   7  211.18   16.10
  -3   1  -7   62.19   11.80
  -3   1  -7   65.49   14.10
  -3   1  -7   74.79   12.70
   3  -1   7   58.29   12.50
   3  -1   7   57.09   12.80
  -4   1  -7   27.60   10.60
  -4   1  -7   24.60   10.10
  -4   1  -7   37.90   13.00
   4  -1   7   22.30   11.00
   4  -1   7   21.60   10.30
  -5   1  -7  268.37   27.90
  -5   1  -7  271.47   24.90
  -5   1  -7  277.57   25.70
   5  -1   7  310.47   28.40
  -6   1  -7   19.20   13.10
  -6   1  -7    6.20    9.70
  -6   1  -7   10.00   11.50
   6  -1   7  -12.00    9.50
  -7   1  -7    1.50   11.20
  -7   1  -7   12.90   11.00
  -7   1  -7    7.80   13.00
   7  -1   7    8.90   13.90
  -8   1  -7   14.90   14.00
  -8   1  -7   16.30   13.60
   8  -1   7   31.30   16.70
   9   0  -7   36.70   19.10
  -9   0   7   19.20   12.40
  -9   0   7   45.50   18.50
   8   0  -7   19.60   16.20
  -8   0   7   44.70   11.80
  -8   0   7   12.10   12.50
  -8   0   7    9.50   11.00
   7   0  -7   58.19   14.70
   7   0  -7   55.39   19.70
  -7   0   7   71.59   13.70
  -7   0   7   74.49   13.90
  -7   0   7   72.09   16.50
   6   0  -7  308.57   32.00
   6   0  -7  298.67   26.30
  -6   0   7  302.27   24.20
  -6   0   7  297.07   29.30
  -6   0   7  312.97   25.70
   5   0  -7  540.75   35.20
   5   0  -7  531.75   41.70
  -5   0   7  460.15   32.80
  -5   0   7  505.25   32.80
  -5   0   7  499.25   38.80
   4   0  -7  289.77   28.30
   4   0  -7  292.27   22.80
  -4   0   7  295.07   21.00
  -4   0   7  264.17   21.40
  -4   0   7  263.57   21.30
  -4   0   7  279.37   26.30
   3   0  -7   50.79   10.20
   3   0  -7   39.20   13.10
   3   0  -7   34.10    8.50
  -3   0   7   34.20    8.50
  -3   0   7   52.69   10.20
  -3   0   7   40.10    5.90
  -3   0   7   31.20    5.50
  -3   0   7   34.50   10.40
   2   0  -7  675.03   45.00
   2   0  -7  697.13   40.60
   2   0  -7  685.73   40.20
   2   0  -7  694.73   35.10
  -2   0   7  705.63   39.90
  -2   0   7  693.73   37.20
  -2   0   7  676.03   36.60
  -2   0   7  662.03   40.10
  -2   0   7  652.53   43.20
   1   0  -7  743.33   41.80
   1   0  -7  715.83   36.00
   1   0  -7  689.93   44.60
  -1   0   7  719.53   41.30
  -1   0   7  703.93   38.90
  -1   0   7  690.33   37.90
  -1   0   7  682.23   42.90
  -1   0   7  656.63   39.90
   0   0  -7  254.57   22.40
   0   0  -7  260.57   20.80
   0   0  -7  271.07   23.40
   0   0  -7  260.97   21.70
   0   0  -7  253.87   17.40
   0   0   7  268.57   19.20
   0   0   7  321.47   22.50
   0   0   7  290.07   19.70
   0   0   7  292.47   21.50
  -1   0  -7  538.35   34.30
  -1   0  -7  548.55   31.40
  -1   0  -7  540.05   33.00
  -1   0  -7  515.75   34.20
  -1   0  -7  541.45   34.30
   1   0   7  496.15   33.20
   1   0   7  522.25   32.90
   1   0   7  533.85   32.60
   1   0   7  496.25   30.50
  -2   0  -7  192.68   18.00
  -2   0  -7  204.18   18.30
  -2   0  -7  196.68   16.80
  -2   0  -7  199.38   16.10
  -2   0  -7  193.98   19.40
   2   0   7  174.78   17.40
   2   0   7  176.58   17.60
   2   0   7  177.78   14.80
   2   0   7  178.78   15.80
  -3   0  -7   64.29   13.40
  -3   0  -7   71.49   11.90
  -3   0  -7   63.09   11.30
   3   0   7   59.59   11.80
   3   0   7   62.99   11.90
   3   0   7   68.89    9.10
   3   0   7   62.19    9.20
  -4   0  -7  115.19   16.10
  -4   0  -7  130.19   16.20
  -4   0  -7  121.59   18.30
   4   0   7  124.19   13.80
   4   0   7   99.19   15.60
   4   0   7  100.29   15.40
  -5   0  -7  286.57   28.00
  -5   0  -7  317.97   27.00
  -5   0  -7  319.87   25.40
   5   0   7  294.97   26.90
  -6   0  -7  140.59   17.90
  -6   0  -7  137.69   20.70
  -6   0  -7  123.89   19.90
   6   0   7  165.18   23.60
  -7   0  -7   33.90   13.40
  -7   0  -7   37.70   14.40
   7   0   7    5.20   13.60
  -8   0  -7   31.60   14.70
  -8   0  -7   59.79   17.20
   8   0   7   71.29   20.30
   9  -1  -7   18.90   14.90
   9  -1  -7   16.80   17.70
  -9   1   7    0.20   11.70
  -9   1   7    9.30   11.20
   8  -1  -7  161.18   28.70
   8  -1  -7  142.09   23.10
  -8   1   7  143.89   20.30
  -8   1   7  159.28   25.10
   7  -1  -7   27.70   16.50
   7  -1  -7   44.30   14.10
  -7   1   7   49.40   11.30
  -7   1   7   60.69   13.30
  -7   1   7   51.39   15.30
   6  -1  -7  236.38   24.00
   6  -1  -7  172.48   27.70
  -6   1   7  257.97   20.10
  -6   1   7  253.07   26.20
  -6   1   7  233.58   21.10
  -6   1   7  257.07   24.90
   5  -1  -7   14.40   11.70
   5  -1  -7    6.30    8.70
  -5   1   7    8.30    9.40
  -5   1   7   17.60    7.60
  -5   1   7   15.10    7.80
  -5   1   7    4.00    8.30
   4  -1  -7  166.38   17.30
   4  -1  -7  123.09   20.50
  -4   1   7  131.09   18.80
  -4   1   7  159.88   16.90
  -4   1   7  175.28   20.10
  -4   1   7  155.58   14.60
   3  -1  -7   19.30    7.10
   3  -1  -7   18.50   11.40
   3  -1  -7   18.60    8.20
  -3   1   7   19.40    3.70
  -3   1   7   18.70    7.20
  -3   1   7   17.00    8.70
  -3   1   7   19.50    3.30
  -3   1   7    4.60    6.00
  -3   1   7   10.70    8.30
   2  -1  -7  396.46   26.10
   2  -1  -7  385.86   20.70
   2  -1  -7  388.46   30.10
   2  -1  -7  382.66   26.80
  -2   1   7  376.96   22.00
  -2   1   7  381.26   25.60
  -2   1   7  373.66   28.20
  -2   1   7  367.06   24.70
   1  -1  -7 1957.90   94.09
   1  -1  -7 1881.51  101.69
   1  -1  -7 1890.71   98.69
  -1   1   7 1912.21   97.49
  -1   1   7 1937.61   95.69
  -1   1   7 1906.91   97.79
  -1   1   7 1839.22  100.49
   0  -1  -7  263.57   20.90
   0  -1  -7  222.88   19.20
   0  -1  -7  277.27   16.70
   0   1   7  260.87   17.80
   0   1   7  250.27   20.80
   0   1   7  229.68   17.40
   0   1   7  241.88   18.70
   0   1   7  242.48   17.90
  -1  -1  -7  762.52   44.40
  -1  -1  -7  734.03   43.90
  -1  -1  -7  764.52   42.30
  -1  -1  -7  783.82   45.10
  -1  -1  -7  788.82   45.60
   1   1   7  768.82   40.80
   1   1   7  728.83   43.90
   1   1   7  804.02   45.10
   1   1   7  778.42   42.50
   1   1   7  749.73   43.50
  -2  -1  -7  122.99   14.10
  -2  -1  -7  116.09   15.90
  -2  -1  -7  119.39   13.30
  -2  -1  -7  140.39   13.60
  -2  -1  -7  138.59   15.10
   2   1   7  116.59   12.40
   2   1   7  123.89    9.30
   2   1   7  156.28   16.60
   2   1   7  130.79   15.20
   2   1   7  122.99   13.70
  -3  -1  -7  840.52   49.80
  -3  -1  -7  908.31   49.10
  -3  -1  -7  870.31   49.70
  -3  -1  -7  832.52   51.89
  -3  -1  -7  904.01   49.10
   3   1   7  891.71   51.69
   3   1   7  879.71   47.60
   3   1   7  880.41   51.39
   3   1   7  869.61   49.10
  -4  -1  -7  216.78   22.70
  -4  -1  -7  224.38   18.90
  -4  -1  -7  218.48   20.40
   4   1   7  222.98   22.10
   4   1   7  220.48   20.80
   4   1   7  259.87   18.70
   4   1   7  250.87   17.80
  -5  -1  -7  340.27   25.00
  -5  -1  -7  356.16   29.40
  -5  -1  -7  366.16   27.80
   5   1   7  333.37   22.50
   5   1   7  307.17   27.70
  -6  -1  -7   53.99   10.90
  -6  -1  -7   54.99   14.20
  -6  -1  -7   46.80   13.20
   6   1   7  112.89   18.80
  -7  -1  -7   55.09   14.90
  -7  -1  -7   65.29   16.10
   7   1   7   62.39   17.30
  -8  -1  -7  129.49   22.30
  -8  -1  -7  109.29   20.10
   8   1   7  124.19   22.60
  -9  -1  -7   -3.20   12.40
  -9  -1  -7   -4.20   13.30
   9   1   7    1.30   15.10
   9  -2  -7    3.10   15.10
   9  -2  -7    5.50   15.80
  -9   2   7   21.70   13.70
  -9   2   7   10.20   11.20
  -9   2   7   14.20   13.30
   8  -2  -7  149.49   24.30
   8  -2  -7  189.48   32.10
  -8   2   7  149.19   24.00
  -8   2   7  169.58   21.60
   7  -2  -7   33.60   14.30
   7  -2  -7   21.10   15.20
  -7   2   7   43.60   12.40
  -7   2   7   32.30   13.20
   6  -2  -7   82.09   20.80
   6  -2  -7   84.79   17.20
  -6   2   7   61.29   10.00
  -6   2   7   47.70   11.30
  -6   2   7   58.19   16.10
  -6   2   7   41.00   12.90
   5  -2  -7  225.98   23.00
   5  -2  -7  270.37   31.90
  -5   2   7  220.78   17.20
  -5   2   7  220.28   23.40
  -5   2   7  207.38   19.00
  -5   2   7  186.58   22.50
   4  -2  -7  438.36   31.60
   4  -2  -7  427.56   36.00
  -4   2   7  434.06   28.70
  -4   2   7  378.66   30.50
  -4   2   7  450.15   33.70
  -4   2   7  445.26   27.30
   3  -2  -7    5.90    7.40
   3  -2  -7    3.70    8.80
  -3   2   7    0.80    5.10
  -3   2   7    2.00    6.20
  -3   2   7   -1.20    7.00
  -3   2   7    5.20    5.00
   2  -2  -7   26.40    7.90
   2  -2  -7   30.30    8.80
   2  -2  -7   26.60    4.80
   2  -2  -7   26.80   10.70
  -2   2   7   11.60    5.60
  -2   2   7    8.40    6.00
  -2   2   7    4.70    5.80
  -2   2   7   10.00    3.40
  -2   2   7   10.10    7.80
   1  -2  -7  684.73   36.00
   1  -2  -7  675.73   39.80
   1  -2  -7  651.43   42.10
  -1   2   7  707.13   38.70
  -1   2   7  653.13   41.70
  -1   2   7  683.53   36.90
  -1   2   7  693.23   38.80
  -1   2   7  642.24   38.40
   0  -2  -7  235.08   15.70
   0  -2  -7  229.88   19.60
   0  -2  -7  245.58   19.50
   0   2   7  255.07   18.30
   0   2   7  231.88   17.00
   0   2   7  216.18   19.50
   0   2   7  229.58   16.60
   0   2   7  214.28   17.40
  -1  -2  -7   50.59    9.30
  -1  -2  -7   42.90    7.60
  -1  -2  -7   48.00    9.70
  -1  -2  -7   43.00   10.20
   1   2   7   73.69   11.00
   1   2   7   73.49   10.70
   1   2   7   82.89   10.70
   1   2   7   73.99   11.90
   1   2   7   85.69    8.70
  -2  -2  -7 1140.49   62.09
  -2  -2  -7 1198.68   61.89
  -2  -2  -7 1164.98   63.59
  -2  -2  -7 1142.99   60.89
   2   2   7 1159.88   62.99
   2   2   7 1155.48   57.99
   2   2   7 1153.48   63.19
   2   2   7 1180.38   61.39
   2   2   7 1091.19   63.19
  -3  -2  -7  213.68   19.20
  -3  -2  -7  234.78   17.00
  -3  -2  -7  221.28   15.00
  -3  -2  -7  204.08   17.40
  -3  -2  -7  260.37   19.00
   3   2   7  175.58   19.90
   3   2   7  144.79   17.60
   3   2   7  182.78   17.60
   3   2   7  165.28   15.30
  -4  -2  -7   18.50    8.60
  -4  -2  -7   11.50    8.10
  -4  -2  -7    8.90    6.20
  -4  -2  -7   11.20    4.90
  -4  -2  -7   13.80    6.40
   4   2   7   15.20    9.60
   4   2   7   19.40    7.70
   4   2   7   20.30    7.10
   4   2   7   22.10    7.10
  -5  -2  -7  174.98   15.50
  -5  -2  -7  157.18   20.00
  -5  -2  -7  150.08   18.70
   5   2   7  186.28   15.60
   5   2   7  138.39   19.30
  -6  -2  -7   31.90   12.20
  -6  -2  -7   36.50   11.30
  -6  -2  -7   34.30   11.30
   6   2   7   33.40   13.40
  -7  -2  -7   40.90   13.40
  -7  -2  -7   80.49   16.50
   7   2   7   56.49   16.00
  -8  -2  -7   54.59   15.90
  -8  -2  -7   67.29   17.00
   8   2   7   62.59   18.80
  -9  -2  -7   18.40   12.80
  -9  -2  -7   12.10   11.30
   9   2   7    9.30   16.10
   9  -3  -7   -2.60   14.10
   9  -3  -7  -22.80   15.10
  -9   3   7    6.40   15.00
  -9   3   7    1.70   14.30
   8  -3  -7  188.38   27.60
   8  -3  -7  122.79   26.40
  -8   3   7  111.79   22.20
  -8   3   7  122.79   21.50
  -8   3   7  125.39   18.70
   7  -3  -7  269.17   36.70
   7  -3  -7  313.27   31.90
  -7   3   7  274.27   31.80
  -7   3   7  295.17   24.40
   6  -3  -7   43.80   13.60
   6  -3  -7   49.80   17.80
  -6   3   7   42.60   13.00
  -6   3   7   45.00   15.20
  -6   3   7   46.80   11.80
   5  -3  -7 1165.58   77.19
   5  -3  -7 1224.98   74.39
  -5   3   7 1327.77   73.99
  -5   3   7 1277.37   69.89
  -5   3   7 1309.27   75.99
  -5   3   7 1291.07   66.59
   4  -3  -7    2.10   10.50
   4  -3  -7    3.40    8.00
  -4   3   7    9.80    5.20
  -4   3   7    2.80    7.90
  -4   3   7   10.00    7.90
  -4   3   7    1.40    6.00
   3  -3  -7  190.48   18.70
   3  -3  -7  190.38   20.90
  -3   3   7  159.18   18.10
  -3   3   7  160.78   15.30
  -3   3   7  164.18   13.70
  -3   3   7  159.78   20.20
   2  -3  -7  199.48   14.20
   2  -3  -7  190.08   17.70
   2  -3  -7  206.38   21.00
   2  -3  -7  205.78   19.10
  -2   3   7  207.98   17.00
  -2   3   7  209.58   20.00
  -2   3   7  186.98   14.70
  -2   3   7  184.88   17.60
   1  -3  -7  306.77   24.00
   1  -3  -7  309.87   18.40
   1  -3  -7  286.87   21.20
  -1   3   7  271.17   23.20
  -1   3   7  258.37   20.30
  -1   3   7  282.27   20.10
  -1   3   7  279.17   17.30
  -1   3   7  279.87   19.40
   0  -3  -7  929.41   48.10
   0  -3  -7  886.51   50.69
   0  -3  -7  916.61   50.89
   0   3   7  870.41   48.70
   0   3   7  867.51   52.59
   0   3   7  936.01   49.30
   0   3   7  895.21   48.40
   0   3   7  912.31   49.60
  -1  -3  -7  172.58   14.90
  -1  -3  -7  187.78   17.10
  -1  -3  -7  204.98   15.60
   1   3   7  197.68   14.30
   1   3   7  204.58   15.80
   1   3   7  211.88   17.00
   1   3   7  198.58   16.20
   1   3   7  196.98   18.10
  -2  -3  -7  759.22   43.70
  -2  -3  -7  735.33   41.80
  -2  -3  -7  742.83   39.00
   2   3   7  742.83   44.20
   2   3   7  717.93   41.40
   2   3   7  701.53   42.70
   2   3   7  696.03   38.20
   2   3   7  731.83   42.40
  -3  -3  -7  229.68   17.30
  -3  -3  -7  278.77   20.50
  -3  -3  -7  227.98   14.40
  -3  -3  -7  246.18   21.40
  -3  -3  -7  220.38   22.70
   3   3   7  251.07   14.30
   3   3   7  247.28   18.20
   3   3   7  275.77   21.80
   3   3   7  261.57   21.20
  -4  -3  -7   10.80    5.30
  -4  -3  -7   23.90    9.30
  -4  -3  -7   25.00    8.90
   4   3   7    1.90    7.10
   4   3   7    1.20    5.60
   4   3   7    7.80    7.00
   4   3   7   18.80    8.70
  -5  -3  -7  153.38   13.40
  -5  -3  -7  154.38   18.60
  -5  -3  -7  172.88   20.60
   5   3   7  166.08   15.60
   5   3   7  121.79   17.70
   5   3   7  129.79   16.20
  -6  -3  -7   66.29   13.90
  -6  -3  -7   54.99   13.90
   6   3   7   70.09   15.60
  -7  -3  -7   66.79   14.40
  -7  -3  -7   99.89   17.90
   7   3   7   75.39   17.40
  -8  -3  -7  162.88   22.60
  -8  -3  -7  169.78   22.70
   8   3   7  190.48   26.20
  -9  -3  -7    4.90   10.70
  -9  -3  -7    7.80   11.80
   9   3   7    9.50   15.60
   8  -4  -7   25.50   17.30
  -8   4   7   46.10   16.60
  -8   4   7   10.10   14.30
  -8   4   7   58.19   15.00
   7  -4  -7   47.00   16.60
   7  -4  -7   47.80   18.60
  -7   4   7   34.00   14.80
  -7   4   7   58.89   12.60
  -7   4   7   53.39   15.20
   6  -4  -7   92.59   21.70
   6  -4  -7  133.79   22.50
  -6   4   7   75.89   17.70
  -6   4   7   87.89   14.50
  -6   4   7   73.59   16.90
   5  -4  -7   88.89   17.10
   5  -4  -7   84.49   19.30
  -5   4   7   79.19   12.60
  -5   4   7  100.59   16.50
  -5   4   7  111.59   18.70
   4  -4  -7  352.16   32.00
   4  -4  -7  310.87   28.60
  -4   4   7  328.17   26.60
  -4   4   7  343.97   29.40
  -4   4   7  349.07   20.70
  -4   4   7  300.97   23.20
   3  -4  -7  215.78   23.10
   3  -4  -7  193.78   21.00
  -3   4   7  195.98   18.60
  -3   4   7  178.18   17.10
  -3   4   7  207.38   21.60
  -3   4   7  182.88   13.80
   2  -4  -7  526.85   36.20
   2  -4  -7  534.65   37.10
   2  -4  -7  506.65   30.60
  -2   4   7  524.65   36.50
  -2   4   7  544.65   30.10
  -2   4   7  525.85   32.40
  -2   4   7  537.35   33.70
   1  -4  -7  452.65   31.30
   1  -4  -7  527.65   34.20
   1  -4  -7  514.05   29.00
   1  -4  -7  500.45   33.00
  -1   4   7  472.85   33.80
  -1   4   7  485.65   28.20
  -1   4   7  450.35   30.40
  -1   4   7  500.45   30.40
   0  -4  -7   92.59   12.90
   0  -4  -7   74.49    7.40
   0  -4  -7   87.69   12.60
   0  -4  -7   79.09   10.30
   0   4   7  142.99   12.60
   0   4   7  122.39   11.40
   0   4   7  137.79   12.40
   0   4   7  118.09   15.40
  -1  -4  -7  385.56   25.10
  -1  -4  -7  414.86   26.20
  -1  -4  -7  406.06   24.60
  -1  -4  -7  392.86   27.30
   1   4   7  435.96   27.20
   1   4   7  442.96   30.80
   1   4   7  396.66   25.10
   1   4   7  435.76   26.30
   1   4   7  458.55   27.00
  -2  -4  -7  145.09   10.00
  -2  -4  -7  134.29   15.80
  -2  -4  -7  153.18   15.40
  -2  -4  -7  117.89   13.20
   2   4   7  108.99   13.80
   2   4   7  122.09   10.80
   2   4   7  116.69   16.30
   2   4   7  119.59   13.80
  -3  -4  -7  511.85   34.30
  -3  -4  -7  515.45   34.00
   3   4   7  554.44   33.20
   3   4   7  557.74   36.60
   3   4   7  527.45   29.40
   3   4   7  587.64   35.60
  -4  -4  -7   35.50    9.80
  -4  -4  -7   27.50   10.40
   4   4   7   40.00   11.00
   4   4   7   30.50    8.60
   4   4   7   34.90   10.40
   4   4   7   21.20    9.00
   4   4   7   32.40    5.30
  -5  -4  -7   79.79   13.50
  -5  -4  -7   84.49   14.10
   5   4   7   55.89   12.10
   5   4   7   74.19   12.50
   5   4   7   62.99   13.40
  -6  -4  -7   64.29   14.10
  -6  -4  -7   59.99   13.00
   6   4   7   60.79   13.20
   6   4   7   64.69   14.40
  -7  -4  -7   23.90   11.20
  -7  -4  -7   21.80   10.10
   7   4   7   30.80   13.00
  -8  -4  -7  305.97   28.80
  -8  -4  -7  311.47   29.80
   8   4   7  289.47   32.90
  -9  -4  -7    9.40   11.20
  -9  -4  -7  -15.40    9.20
   9   4   7   -2.30   11.60
 -10  -4  -7   10.00   12.70
 -10  -4  -7   14.10   14.20
  10   4   7   11.40   15.70
   8  -5  -7   36.30   17.80
  -8   5   7   35.70   16.20
  -8   5   7   15.00   15.20
   7  -5  -7   62.29   19.20
  -7   5   7   50.79   13.10
  -7   5   7   61.19   17.70
  -7   5   7   56.99   17.20
   6  -5  -7   54.99   16.10
  -6   5   7   63.99   16.90
  -6   5   7   30.90   10.70
  -6   5   7   18.80   12.70
  -6   5   7   42.80   14.50
   5  -5  -7   44.20   13.80
  -5   5   7   40.10   13.10
  -5   5   7   38.20   10.70
  -5   5   7   34.30   13.10
  -5   5   7   45.60   13.30
   4  -5  -7  336.37   32.80
   4  -5  -7  256.17   27.60
  -4   5   7  380.06   31.00
  -4   5   7  403.36   28.90
  -4   5   7  358.96   25.30
   3  -5  -7  108.09   19.40
   3  -5  -7  116.89   17.30
  -3   5   7  102.89   16.00
  -3   5   7   85.29   15.60
  -3   5   7   96.59   12.80
   2  -5  -7   94.79   15.10
   2  -5  -7  128.49   18.70
   2  -5  -7   85.99   11.00
  -2   5   7   95.59   12.60
  -2   5   7   94.79   14.40
  -2   5   7  100.79   16.20
  -2   5   7   93.19    9.10
   1  -5  -7   96.79   11.40
   1  -5  -7  108.59    6.90
   1  -5  -7  134.59   17.30
   1  -5  -7  127.69   16.60
  -1   5   7   72.49   12.30
  -1   5   7   89.59   10.00
  -1   5   7   76.39   12.00
  -1   5   7   72.69   13.70
   0  -5  -7   44.50    8.00
   0  -5  -7   56.29    6.20
   0  -5  -7   57.99   10.90
   0   5   7   56.39   10.30
   0   5   7   43.60   10.70
   0   5   7   48.70    8.20
   0   5   7   45.60    8.80
  -1  -5  -7  667.63   41.40
  -1  -5  -7  715.03   40.70
  -1  -5  -7  707.53   38.40
   1   5   7  690.43   44.60
   1   5   7  740.03   41.40
   1   5   7  728.83   40.30
  -2  -5  -7  673.03   39.00
  -2  -5  -7  647.14   37.90
  -2  -5  -7  662.33   39.70
   2   5   7  659.73   42.80
   2   5   7  658.23   39.40
   2   5   7  699.53   37.70
   2   5   7  636.94   38.80
  -3  -5  -7  748.93   43.30
  -3  -5  -7  754.22   43.60
  -3  -5  -7  697.23   42.10
   3   5   7  663.33   38.90
   3   5   7  726.53   42.40
   3   5   7  731.83   46.20
   3   5   7  737.03   43.60
  -4  -5  -7  145.29   18.00
  -4  -5  -7  119.09   16.70
  -4  -5  -7  155.18   18.00
   4   5   7  171.98   18.10
   4   5   7  160.88   12.30
   4   5   7  171.38   18.50
  -5  -5  -7  117.69   16.40
  -5  -5  -7  129.59   16.20
  -5  -5  -7   87.09   14.60
   5   5   7  118.69   17.50
   5   5   7  145.29   16.90
   5   5   7  108.79   16.70
  -6  -5  -7   33.00   11.40
  -6  -5  -7   27.80   11.40
  -6  -5  -7   61.59   13.10
   6   5   7   30.60   11.70
   6   5   7   25.50   11.10
  -7  -5  -7  192.38   21.40
  -7  -5  -7  144.39   21.00
  -7  -5  -7  171.68   21.70
   7   5   7  129.69   20.10
   7   5   7  114.79   19.50
  -8  -5  -7   52.39   13.70
  -8  -5  -7   46.40   15.20
  -8  -5  -7   35.00   13.50
   8   5   7   26.00   14.30
  -9  -5  -7   46.00   14.50
  -9  -5  -7   35.20   14.50
  -9  -5  -7   67.49   18.20
   9   5   7   69.39   18.30
 -10  -5  -7   -1.00   11.50
 -10  -5  -7   -5.30   11.20
 -10  -5  -7   -4.50   12.20
  10   5   7   -6.00   13.30
   7  -6  -7   54.29   20.60
  -7   6   7   48.60   15.70
  -7   6   7   24.10   13.80
   6  -6  -7   70.99   18.60
  -6   6   7   59.39   16.90
  -6   6   7   74.19   18.10
  -6   6   7   52.19   12.10
   5  -6  -7  263.57   29.30
  -5   6   7  305.97   28.00
  -5   6   7  310.87   23.90
  -5   6   7  277.37   28.90
  -5   6   7  309.37   29.80
   4  -6  -7   50.89   14.20
  -4   6   7   68.09   14.40
  -4   6   7   74.79   16.40
  -4   6   7   79.49   16.30
  -4   6   7   71.99   12.20
   3  -6  -7  260.77   26.00
  -3   6   7  235.58   23.90
  -3   6   7  266.87   21.10
  -3   6   7  284.67   26.40
  -3   6   7  250.07   22.90
   2  -6  -7   47.80   12.70
   2  -6  -7   49.50    9.80
  -2   6   7   31.80    8.60
  -2   6   7   57.49   13.70
  -2   6   7   36.60   10.40
  -2   6   7   36.40   10.60
   1  -6  -7   87.69    8.00
   1  -6  -7   87.99   15.20
   1  -6  -7   88.89   12.10
  -1   6   7  100.29   14.00
  -1   6   7  108.19   17.30
  -1   6   7  105.09   13.30
   0  -6  -7   40.60    8.60
   0  -6  -7   68.79    7.40
   0  -6  -7   63.89   12.50
   0   6   7   44.80    9.40
   0   6   7   46.10   10.20
   0   6   7   52.19   12.60
  -1  -6  -7   66.29   11.10
  -1  -6  -7   61.69   10.50
  -1  -6  -7   57.09    8.00
   1   6   7   76.79   11.10
   1   6   7   55.19   12.00
   1   6   7   63.99   11.00
  -2  -6  -7  979.10   51.49
  -2  -6  -7  961.20   53.09
  -2  -6  -7  952.60   53.19
   2   6   7  923.71   51.59
   2   6   7  922.91   52.89
   2   6   7  890.91   56.79
  -3  -6  -7   79.29   11.40
  -3  -6  -7   76.89   12.50
  -3  -6  -7   87.69   12.70
   3   6   7   82.29   10.80
   3   6   7   87.79   12.60
   3   6   7   87.39    7.60
   3   6   7   91.39   16.60
  -4  -6  -7  417.46   30.60
  -4  -6  -7  425.66   30.00
  -4  -6  -7  396.66   30.00
   4   6   7  479.35   27.60
   4   6   7  425.66   30.40
   4   6   7  476.25   34.90
   4   6   7  453.15   31.30
  -5  -6  -7   52.29   12.20
  -5  -6  -7   71.69   14.20
  -5  -6  -7   66.29   12.30
   5   6   7   67.59   13.10
   5   6   7   73.79   14.00
   5   6   7   68.19   15.40
   5   6   7   64.29    9.10
  -6  -6  -7   30.40   11.40
  -6  -6  -7   49.10   11.50
  -6  -6  -7   35.50   11.60
   6   6   7   41.90   13.60
   6   6   7   47.80   14.20
  -7  -6  -7  182.68   22.80
  -7  -6  -7  134.69   18.10
  -7  -6  -7  168.78   22.00
   7   6   7   87.29   18.10
   7   6   7  102.49   18.70
  -8  -6  -7   45.90   14.80
  -8  -6  -7   41.00   14.40
  -8  -6  -7   32.80   11.80
   8   6   7   51.99   16.60
   8   6   7   36.60   16.30
  -9  -6  -7  145.39   23.90
  -9  -6  -7  186.28   25.60
   9   6   7  177.28   26.10
 -10  -6  -7   29.40   14.70
 -10  -6  -7   16.50   15.80
  10   6   7   17.50   16.20
   7  -7  -7    9.00   17.60
  -7   7   7    8.50   14.70
  -7   7   7    9.50   13.00
   6  -7  -7    8.30   14.80
  -6   7   7    5.70   12.90
  -6   7   7   -2.80   11.70
   5  -7  -7  216.08   29.60
  -5   7   7  214.18   27.80
  -5   7   7  200.18   27.30
  -5   7   7  192.48   25.90
  -5   7   7  181.88   20.10
   4  -7  -7   86.69   17.80
  -4   7   7   72.19   15.30
  -4   7   7   54.59   14.40
  -4   7   7   49.00   15.00
  -4   7   7   65.39   11.60
   3  -7  -7  567.24   40.60
  -3   7   7  522.45   38.40
  -3   7   7  522.95   39.90
  -3   7   7  520.15   34.00
  -3   7   7  536.75   38.40
   2  -7  -7  455.25   34.70
   2  -7  -7  409.06   29.10
  -2   7   7  450.25   31.80
  -2   7   7  431.76   32.00
  -2   7   7  401.26   33.90
  -2   7   7  412.46   29.00
   1  -7  -7  234.38   23.30
   1  -7  -7  252.67   16.30
   1  -7  -7  235.08   19.50
  -1   7   7  231.78   21.00
  -1   7   7  214.38   19.00
  -1   7   7  233.38   23.40
  -1   7   7  218.88   20.50
   0  -7  -7   20.70    8.30
   0  -7  -7   15.30    5.20
   0  -7  -7   27.90   10.20
   0   7   7   16.50    7.20
   0   7   7    5.90    8.00
   0   7   7   20.30   10.50
   0   7   7   22.50    7.80
  -1  -7  -7  125.59   12.00
  -1  -7  -7  140.89   18.50
  -1  -7  -7  123.49   14.90
   1   7   7  110.39   17.40
   1   7   7  114.49   12.90
   1   7   7  112.39   14.50
   1   7   7  112.09   15.20
  -2  -7  -7  212.98   16.40
  -2  -7  -7  143.29   16.70
  -2  -7  -7  198.38   17.30
   2   7   7  167.58   22.60
   2   7   7  200.88   17.20
   2   7   7  160.78   17.80
   2   7   7  169.38   13.90
  -3  -7  -7  589.44   37.40
  -3  -7  -7  607.94   36.80
  -3  -7  -7  569.34   36.60
   3   7   7  561.24   42.50
   3   7   7  593.14   36.00
   3   7   7  659.63   39.00
  -4  -7  -7  208.88   19.10
  -4  -7  -7  193.08   19.70
  -4  -7  -7  217.38   21.00
   4   7   7  268.97   26.50
   4   7   7  233.58   19.00
   4   7   7  271.17   21.60
  -5  -7  -7  214.68   22.60
  -5  -7  -7  259.97   23.50
  -5  -7  -7  243.88   21.20
   5   7   7  265.57   27.20
   5   7   7  257.47   19.50
  -6  -7  -7    7.70    9.90
  -6  -7  -7   28.00    9.80
  -6  -7  -7   21.00   10.30
   6   7   7   20.50   12.50
  -7  -7  -7   33.30   10.60
  -7  -7  -7   25.60   13.20
  -7  -7  -7   21.40   10.90
   7   7   7   37.50   15.10
  -8  -7  -7  186.08   25.60
  -8  -7  -7  157.48   22.50
   8   7   7  162.78   25.60
  -9  -7  -7   24.30   13.20
  -9  -7  -7   33.80   16.10
   9   7   7   44.00   16.80
 -10  -7  -7  128.29   23.60
 -10  -7  -7  156.18   25.40
   6  -8  -7  -12.40   10.80
  -6   8   7    4.50   12.70
  -6   8   7    4.30   13.40
   5  -8  -7  -14.80   11.50
  -5   8   7    9.80   11.90
  -5   8   7  -10.80   11.70
   4  -8  -7  178.28   26.20
  -4   8   7  188.58   25.40
  -4   8   7  192.88   26.10
  -4   8   7  140.49   21.40
  -4   8   7  174.08   20.90
   3  -8  -7   28.40   13.50
  -3   8   7    6.70   10.10
  -3   8   7   31.40   12.40
  -3   8   7   21.00   11.10
  -3   8   7   21.60    9.10
   2  -8  -7  359.16   26.30
   2  -8  -7  361.86   31.00
  -2   8   7  296.97   27.10
  -2   8   7  330.97   25.20
  -2   8   7  285.87   26.60
  -2   8   7  335.47   30.60
   1  -8  -7   26.10   10.60
   1  -8  -7   30.80    9.70
  -1   8   7   23.00   10.20
  -1   8   7   13.10    8.00
  -1   8   7   26.80   11.20
  -1   8   7   31.10   10.70
   0  -8  -7   95.89   11.70
   0  -8  -7  150.28   20.00
   0  -8  -7  136.09   16.80
   0   8   7  114.99   15.20
   0   8   7   97.19   18.30
   0   8   7  119.19   15.20
   0   8   7  131.49   18.10
  -1  -8  -7  383.66   29.00
  -1  -8  -7  380.36   25.50
  -1  -8  -7  362.36   23.20
   1   8   7  287.47   24.10
   1   8   7  302.07   29.50
   1   8   7  292.57   22.90
   1   8   7  291.47   24.80
  -2  -8  -7  312.47   24.00
  -2  -8  -7  293.37   21.50
   2   8   7  272.67   23.10
   2   8   7  259.27   19.10
   2   8   7  278.77   22.90
   2   8   7  298.47   28.90
  -3  -8  -7 1019.70   57.19
  -3  -8  -7 1110.19   57.29
  -3  -8  -7 1013.90   58.29
   3   8   7  964.00   57.09
   3   8   7  944.51   62.89
   3   8   7  978.90   57.99
  -4  -8  -7  286.87   24.20
  -4  -8  -7  281.77   21.90
  -4  -8  -7  288.77   24.00
   4   8   7  281.17   23.30
   4   8   7  272.47   29.60
   4   8   7  325.27   25.20
  -5  -8  -7   49.00   11.80
  -5  -8  -7   64.09   13.00
  -5  -8  -7   63.09   11.60
   5   8   7   48.50   10.90
   5   8   7   40.00   13.80
  -6  -8  -7   20.90    9.00
  -6  -8  -7   13.10   10.60
  -6  -8  -7   13.60    9.90
   6   8   7   21.80    9.40
   6   8   7   17.10   13.50
  -7  -8  -7    5.00   10.40
  -7  -8  -7   14.50   11.30
   7   8   7   24.20   14.70
  -8  -8  -7   47.70   15.20
  -8  -8  -7   36.70   14.30
   8   8   7   71.19   19.50
  -9  -8  -7    4.10   11.00
  -9  -8  -7   22.30   13.30
   9   8   7   19.80   16.40
   5  -9  -7   27.20   17.30
  -5   9   7   20.00   16.00
  -5   9   7   11.00   13.20
   4  -9  -7   36.20   15.70
  -4   9   7   40.30   16.80
  -4   9   7   28.00   14.80
   3  -9  -7  190.98   27.40
  -3   9   7  140.89   23.40
  -3   9   7  147.49   23.00
  -3   9   7  147.49   21.80
   2  -9  -7  111.79   20.70
   2  -9  -7  111.59   16.80
  -2   9   7  138.09   16.50
  -2   9   7   89.39   16.70
  -2   9   7  109.69   20.20
  -2   9   7   85.39   16.90
   1  -9  -7  137.59   18.60
   1  -9  -7  144.29   22.10
  -1   9   7  151.38   20.30
  -1   9   7  132.69   21.20
  -1   9   7  162.38   20.10
  -1   9   7  173.48   18.70
   0  -9  -7    2.20    9.20
   0  -9  -7   21.20    7.50
   0  -9  -7   14.80    9.40
   0   9   7   30.00   10.00
   0   9   7    7.30   10.90
   0   9   7    8.60   10.30
   0   9   7   11.50    8.60
  -1  -9  -7    8.20    7.00
  -1  -9  -7   -2.90    6.50
  -1  -9  -7    5.50    9.00
   1   9   7   -1.00    6.60
   1   9   7    9.20    9.70
   1   9   7    4.60    8.30
   1   9   7   -3.40    7.80
  -2  -9  -7   48.20   10.20
  -2  -9  -7   62.29   12.90
  -2  -9  -7   46.40   12.80
   2   9   7   70.59   13.60
   2   9   7   44.50   12.40
   2   9   7   68.09   17.60
  -3  -9  -7  257.57   23.90
  -3  -9  -7  293.17   23.90
   3   9   7  327.07   25.90
   3   9   7  326.77   26.50
  -4  -9  -7  389.36   26.20
  -4  -9  -7  340.77   28.10
  -4  -9  -7  344.87   28.00
   4   9   7  352.16   27.40
   4   9   7  401.36   36.30
  -5  -9  -7   17.50   10.50
  -5  -9  -7   18.30    9.90
   5   9   7   30.50   14.60
   5   9   7   21.30    9.60
  -6  -9  -7  142.89   21.60
  -6  -9  -7  160.88   21.70
   6   9   7  201.28   21.10
   6   9   7  192.38   28.80
  -7  -9  -7    6.70   11.00
  -7  -9  -7    5.00   11.20
   7   9   7   -1.40   13.10
  -8  -9  -7   12.60   13.30
  -8  -9  -7   35.20   14.60
   8   9   7   35.60   17.90
  -9  -9  -7   68.69   17.70
  -9  -9  -7   26.80   15.30
   9   9   7   22.60   18.00
   4 -10  -7    1.30   14.60
  -4  10   7   10.70   13.20
  -4  10   7   11.70   13.80
   3 -10  -7  180.48   27.10
  -3  10   7  164.78   24.30
  -3  10   7  169.48   25.60
   2 -10  -7   48.30   16.00
  -2  10   7   49.60   15.80
  -2  10   7   38.50   14.60
   1 -10  -7  281.47   29.00
   1 -10  -7  281.67   25.70
  -1  10   7  304.77   24.80
  -1  10   7  288.27   27.10
  -1  10   7  278.07   30.70
  -1  10   7  285.27   27.50
   0 -10  -7   41.10   12.30
   0 -10  -7   53.99   15.40
   0 -10  -7   52.29   12.20
   0  10   7   76.99   14.20
   0  10   7   50.39   14.90
   0  10   7   35.90   11.50
   0  10   7   56.69   14.80
  -1 -10  -7   57.59   14.30
  -1 -10  -7   55.99   11.50
  -1 -10  -7   64.89   13.10
   1  10   7   36.10   12.50
   1  10   7   90.49   19.70
   1  10   7   72.29   12.80
   1  10   7   76.49   14.40
  -2 -10  -7  171.28   20.40
  -2 -10  -7  177.68   22.60
  -2 -10  -7  181.18   19.30
   2  10   7  118.29   19.50
   2  10   7  134.09   18.50
  -3 -10  -7   42.30   12.00
  -3 -10  -7   54.59   13.50
  -3 -10  -7   66.39   14.50
   3  10   7   61.39   13.60
   3  10   7   68.69   15.10
  -4 -10  -7  403.76   31.10
  -4 -10  -7  430.86   32.00
   4  10   7  392.56   38.60
   4  10   7  384.16   31.20
  -5 -10  -7  129.19   19.50
  -5 -10  -7  136.19   19.50
   5  10   7  120.49   18.00
   5  10   7  133.09   25.00
  -6 -10  -7  111.59   19.50
  -6 -10  -7  111.09   20.20
   6  10   7  179.58   29.10
   6  10   7  141.49   19.30
  -7 -10  -7   62.99   15.50
  -7 -10  -7   52.39   15.70
   7  10   7   57.99   20.80
  -8 -10  -7    8.70   13.80
  -8 -10  -7   31.80   15.50
   8  10   7   35.60   17.80
  -9 -10  -7   26.10   16.70
  -9 -10  -7   36.50   14.30
   9  10   7   32.50   19.30
   3 -11  -7   15.90   15.90
  -3  11   7   26.30   15.00
  -3  11   7   36.00   15.60
   2 -11  -7  243.98   31.10
  -2  11   7  220.88   28.90
  -2  11   7  214.38   28.10
   1 -11  -7   13.50   12.80
   1 -11  -7   23.70   11.70
  -1  11   7   34.10   13.90
  -1  11   7    9.50   11.90
   0 -11  -7  109.89   20.40
   0 -11  -7  141.39   20.30
   0  11   7  184.58   21.90
   0  11   7  135.89   19.10
   0  11   7  142.39   22.00
  -1 -11  -7    3.80    9.70
  -1 -11  -7    6.40   10.40
  -1 -11  -7   -4.60    7.70
   1  11   7    8.30   10.00
   1  11   7    1.20   10.30
  -2 -11  -7    2.00    8.60
  -2 -11  -7   10.40    9.00
  -2 -11  -7    0.00    9.50
   2  11   7   10.20   11.10
  -3 -11  -7  154.48   20.30
  -3 -11  -7  153.58   20.30
  -3 -11  -7  166.68   22.90
   3  11   7  161.08   28.10
   3  11   7  165.68   23.00
  -4 -11  -7   22.20   11.40
  -4 -11  -7   22.60   10.90
  -4 -11  -7   27.30   11.60
   4  11   7   21.70   16.70
   4  11   7   35.20   13.20
  -5 -11  -7  159.08   21.60
  -5 -11  -7  164.08   22.30
   5  11   7  166.68   23.50
   5  11   7  177.18   28.80
  -6 -11  -7    4.50   10.70
  -6 -11  -7    4.20   11.50
   6  11   7   -6.10   14.40
   6  11   7   -1.50   10.50
  -7 -11  -7   51.39   16.50
  -7 -11  -7   63.29   16.20
   7  11   7   46.40   18.70
  -8 -11  -7   38.00   16.90
  -8 -11  -7   49.10   16.10
   8  11   7   19.80   17.30
   1 -12  -7    9.70   13.30
  -1  12   7    6.70   12.00
  -1  12   7   -3.40   11.50
   0 -12  -7   35.30   13.00
   0 -12  -7   49.90   16.40
   0  12   7   41.60   15.60
  -1 -12  -7   30.60   13.50
  -1 -12  -7   69.49   16.90
   1  12   7   33.90   14.20
  -2 -12  -7   37.70   14.90
  -2 -12  -7   49.40   13.40
   2  12   7   75.29   17.20
   2  12   7   49.70   19.90
  -3 -12  -7   93.89   17.30
  -3 -12  -7   49.90   14.30
   3  12   7   85.29   21.50
   3  12   7   66.19   18.20
  -4 -12  -7   50.59   14.30
  -4 -12  -7   97.49   18.00
   4  12   7   69.79   21.10
   4  12   7   65.79   16.10
  -5 -12  -7   59.39   16.70
  -5 -12  -7   63.29   15.90
   5  12   7   72.99   23.90
   5  12   7   67.99   17.80
  -6 -12  -7  112.69   20.60
  -6 -12  -7  111.49   19.50
  -6 -12  -7  111.89   19.20
   6  12   7   89.09   25.30
   6  12   7  125.69   21.40
  -7 -12  -7   17.80   14.00
  -7 -12  -7    9.90   12.10
  -7 -12  -7   -0.10   11.60
   7  12   7   -4.30   10.30
   7  12   7   16.80   19.60
  -1 -13  -7  138.89   23.20
   1  13   7  148.09   30.20
   1  13   7  143.29   24.10
  -2 -13  -7   25.30   13.10
  -2 -13  -7   16.20   12.50
   2  13   7   38.80   16.10
   2  13   7   39.10   21.00
  -3 -13  -7    0.70   11.50
  -3 -13  -7   11.60   12.10
   3  13   7    3.80   13.40
   3  13   7    3.40   15.40
  -4 -13  -7   35.80   13.60
  -4 -13  -7    7.50   11.10
   4  13   7   11.90   16.40
   4  13   7    1.70   11.30
  -5 -13  -7   23.30   12.80
  -5 -13  -7    9.70   11.10
   5  13   7   21.80   20.10
   5  13   7   16.20   14.30
   5   6  -8   95.89   22.60
   5   6  -8  110.49   26.40
  -5  -6   8   79.59   17.10
  -5  -6   8   79.19   19.20
   4   6  -8   83.59   22.90
  -4  -6   8   95.49   17.00
  -4  -6   8   79.99   18.60
  -4  -6   8   77.39   15.60
   3   6  -8   36.40   16.60
   3   6  -8   27.80   15.50
  -3  -6   8   34.00   12.30
  -3  -6   8   27.90   13.30
   2   6  -8   61.79   18.80
   2   6  -8   70.59   20.80
  -2  -6   8   48.40   14.00
  -2  -6   8   70.39   17.20
   1   6  -8   35.00   17.20
   1   6  -8   19.70   13.30
  -1  -6   8   13.90   12.90
  -1  -6   8    9.60   10.10
  -1  -6   8   17.90   11.10
   0   6  -8   28.30   17.10
   0   6  -8    6.70   12.10
   0  -6   8   -0.50   10.00
   0  -6   8   -0.90   11.50
   0  -6   8   -2.20   10.30
  -1   6  -8  105.09   23.10
  -1   6  -8  136.49   26.70
   1  -6   8   98.69   19.30
   1  -6   8  103.49   21.30
   6   5  -8    4.20   12.90
   6   5  -8    4.70   15.10
  -6  -5   8   10.10   12.00
  -6  -5   8  -12.20   10.30
   5   5  -8   29.60   15.00
   5   5  -8   11.60   15.30
  -5  -5   8   39.10   13.50
  -5  -5   8   43.10   15.20
   4   5  -8   29.90   16.20
   4   5  -8   29.90   13.50
  -4  -5   8   34.40   13.90
  -4  -5   8   31.60   10.50
  -4  -5   8   37.70   12.40
   3   5  -8  135.49   23.20
   3   5  -8  123.89   24.90
  -3  -5   8  108.79   16.60
  -3  -5   8  128.09   17.50
  -3  -5   8   68.99   16.90
   2   5  -8   43.60   16.50
   2   5  -8   92.29   21.80
  -2  -5   8   80.59   14.70
  -2  -5   8  120.99   19.30
   1   5  -8   29.20   15.80
   1   5  -8   27.30   14.60
  -1  -5   8   35.80   11.60
  -1  -5   8   22.00   12.20
  -1  -5   8   47.40   13.20
   0   5  -8  101.79   20.40
   0   5  -8   82.19   21.90
   0  -5   8  132.49   20.70
   0  -5   8   87.69   16.70
   0  -5   8  126.79   19.90
  -1   5  -8   54.89   18.10
  -1   5  -8   46.10   14.40
  -1   5  -8   35.30   16.00
   1  -5   8   34.00   13.10
   1  -5   8   53.79   16.30
  -2   5  -8   46.40   15.50
  -2   5  -8   36.70   16.70
   2  -5   8   29.60   13.40
   2  -5   8   55.79   16.90
  -3   5  -8   -9.10   11.50
  -3   5  -8    2.40   12.50
   3  -5   8   20.30   12.70
   3  -5   8   16.40   13.30
   7   4  -8   -6.40   12.30
   7   4  -8    8.10   17.50
  -7  -4   8    1.30   11.20
  -7  -4   8    6.00   11.40
   6   4  -8   71.69   19.60
   6   4  -8   78.19   22.00
  -6  -4   8   64.39   15.90
  -6  -4   8   71.49   16.30
   5   4  -8   75.69   20.50
   5   4  -8  130.29   22.10
  -5  -4   8  133.49   18.80
  -5  -4   8  108.29   18.10
   4   4  -8   37.40   13.50
   4   4  -8   31.50   15.60
  -4  -4   8   40.60   12.60
  -4  -4   8   52.89   11.50
  -4  -4   8   43.70   13.10
   3   4  -8  532.95   43.20
   3   4  -8  518.65   38.90
   3   4  -8  553.64   37.60
  -3  -4   8  426.26   37.00
  -3  -4   8  413.96   32.20
  -3  -4   8  447.26   36.20
  -3  -4   8  492.05   33.60
   2   4  -8   26.60   13.30
   2   4  -8   18.70   13.70
  -2  -4   8   30.00    9.70
  -2  -4   8    6.30    9.40
  -2  -4   8   12.40    8.60
  -2  -4   8   17.30    9.70
  -2  -4   8    8.10    9.40
   1   4  -8   67.39   13.20
   1   4  -8   71.59   17.60
   1   4  -8   87.39   17.80
  -1  -4   8   46.00   11.80
  -1  -4   8   55.89   11.90
  -1  -4   8   60.09   14.20
  -1  -4   8   40.80   10.30
   0   4  -8  123.79   18.40
   0   4  -8  144.89   22.20
   0   4  -8  123.39   22.70
   0  -4   8  138.49   18.90
   0  -4   8  155.38   19.70
   0  -4   8  114.59   18.20
  -1   4  -8   23.40   11.50
  -1   4  -8    2.80   12.50
  -1   4  -8   15.70   13.30
   1  -4   8    8.20   10.70
   1  -4   8    1.70   10.10
  -2   4  -8   28.20   14.40
  -2   4  -8   44.30   14.40
   2  -4   8   27.70   11.70
   2  -4   8   28.10   13.00
  -3   4  -8   46.50   16.10
  -3   4  -8   35.50   15.30
   3  -4   8   47.30   14.30
   3  -4   8   48.80   16.80
  -4   4  -8  140.89   21.80
  -4   4  -8  124.89   21.90
  -4   4  -8  150.48   21.50
   4  -4   8  113.59   21.70
   4  -4   8  130.69   21.40
   8   3  -8   42.50   20.00
   8   3  -8   16.70   18.10
  -8  -3   8   54.89   16.10
  -8  -3   8   28.90   13.70
   7   3  -8   56.89   18.00
   7   3  -8   67.89   21.20
  -7  -3   8   58.09   14.60
  -7  -3   8   53.69   14.60
   6   3  -8  175.98   26.50
   6   3  -8  156.58   29.20
  -6  -3   8  184.08   22.40
  -6  -3   8  189.58   23.50
   5   3  -8  122.29   21.00
   5   3  -8  132.19   25.90
  -5  -3   8   93.49   16.20
  -5  -3   8  130.79   18.70
   4   3  -8  140.19   21.60
   4   3  -8  145.09   25.40
  -4  -3   8  172.88   20.30
  -4  -3   8  146.39   18.00
  -4  -3   8  139.99   22.20
  -4  -3   8  179.48   21.40
   3   3  -8  283.07   25.40
  -3  -3   8  237.88   25.90
  -3  -3   8  260.27   24.00
  -3  -3   8  249.88   21.70
  -3  -3   8  252.87   21.10
   2   3  -8  133.49   16.50
   2   3  -8  174.68   26.20
   2   3  -8  156.38   21.80
  -2  -3   8  133.19   18.20
  -2  -3   8  119.99   15.40
  -2  -3   8  107.19   17.80
  -2  -3   8  127.89   15.70
  -2  -3   8  146.49   17.00
   1   3  -8  110.79   15.40
   1   3  -8   93.99   17.00
   1   3  -8   73.39   17.20
  -1  -3   8   84.39   13.70
  -1  -3   8  115.99   15.30
  -1  -3   8  107.99   16.30
  -1  -3   8  100.99   16.20
  -1  -3   8  108.49   13.90
   0   3  -8  119.79   20.70
   0   3  -8  137.59   18.20
   0   3  -8  142.99   20.10
   0  -3   8  154.58   19.90
   0  -3   8  140.89   18.20
   0  -3   8  151.38   15.30
   0  -3   8  131.79   17.20
  -1   3  -8  192.98   23.70
  -1   3  -8  170.48   22.80
  -1   3  -8  242.88   29.50
   1  -3   8  221.88   24.30
   1  -3   8  195.48   23.10
  -2   3  -8  150.18   20.80
  -2   3  -8  118.49   18.30
   2  -3   8   66.29   14.90
   2  -3   8  104.29   17.90
  -3   3  -8  193.18   24.40
  -3   3  -8  152.98   22.90
  -3   3  -8  233.38   23.10
   3  -3   8  195.38   24.60
   3  -3   8  171.28   22.50
  -4   3  -8   36.50   15.20
  -4   3  -8   31.30   12.70
  -4   3  -8   45.30   14.50
   4  -3   8   53.89   15.00
   4  -3   8   50.99   16.60
  -5   3  -8    9.60   12.60
  -5   3  -8   13.80   12.50
  -5   3  -8    2.60   10.70
   5  -3   8   20.10   12.60
   5  -3   8   11.30   12.40
   8   2  -8   12.70   17.40
  -8  -2   8   28.20   12.70
  -8  -2   8   35.60   13.10
   7   2  -8  122.69   27.10
   7   2  -8  129.79   23.90
  -7  -2   8  100.59   18.10
  -7  -2   8  103.79   17.90
   6   2  -8  116.29   23.90
   6   2  -8  134.69   23.10
  -6  -2   8  144.49   19.30
  -6  -2   8  145.19   19.40
   5   2  -8   28.00   15.10
   5   2  -8   36.30   13.70
  -5  -2   8   26.40   10.40
  -5  -2   8   21.20    9.80
   4   2  -8   43.50   10.10
   4   2  -8   25.40   13.40
  -4  -2   8   69.29   14.50
  -4  -2   8   58.59   12.90
  -4  -2   8   82.19   17.50
   3   2  -8  141.49   16.30
   3   2  -8  182.88   26.40
  -3  -2   8  129.59   20.10
  -3  -2   8  120.39   15.60
  -3  -2   8  127.99   17.60
  -3  -2   8  122.09   14.00
  -3  -2   8  140.89   14.00
   2   2  -8  686.13   44.90
   2   2  -8  652.73   46.70
   2   2  -8  696.73   40.20
  -2  -2   8  609.84   43.00
  -2  -2   8  635.74   41.70
  -2  -2   8  628.54   38.10
  -2  -2   8  639.34   38.30
  -2  -2   8  635.44   39.20
   1   2  -8   51.69   11.20
   1   2  -8   31.90   11.10
   1   2  -8   34.80   13.50
  -1  -2   8   56.69   12.30
  -1  -2   8   59.39   10.50
  -1  -2   8   56.89   12.20
  -1  -2   8   52.39   10.10
  -1  -2   8   41.50    9.80
   0   2  -8   83.89   17.10
   0   2  -8   84.29   15.30
   0   2  -8  104.59   16.20
   0  -2   8   84.59   13.90
   0  -2   8   89.79   13.90
   0  -2   8   82.99   12.00
   0  -2   8  108.19   16.60
  -1   2  -8  122.19   17.90
  -1   2  -8  118.69   17.60
  -1   2  -8  180.38   24.10
   1  -2   8  154.98   15.20
   1  -2   8  176.98   20.00
   1  -2   8  133.89   18.10
  -2   2  -8   93.19   18.20
  -2   2  -8   82.89   16.10
  -2   2  -8   88.49   12.90
  -2   2  -8   80.99   15.70
   2  -2   8   56.79   13.00
   2  -2   8   87.99   15.70
  -3   2  -8   47.70   14.00
  -3   2  -8   58.19   12.60
  -3   2  -8   46.90   13.30
   3  -2   8   39.90   11.80
   3  -2   8   53.49   14.00
  -4   2  -8   13.20   10.10
  -4   2  -8   54.89   15.80
  -4   2  -8   30.00   11.50
   4  -2   8   42.40   14.90
   4  -2   8   31.50   12.60
  -5   2  -8   35.30   12.70
  -5   2  -8   11.50   12.40
  -5   2  -8   35.90   13.60
   5  -2   8   29.00   12.80
   5  -2   8   35.30   14.70
  -6   2  -8   -2.60   11.90
  -6   2  -8   -7.00   11.20
  -6   2  -8   -6.10   10.60
   6  -2   8   -3.60   12.30
   8   1  -8   12.90   17.70
  -8  -1   8   12.70   13.60
  -8  -1   8    0.70   10.90
  -8  -1   8   20.30   11.40
   7   1  -8   12.30   14.90
  -7  -1   8   11.50   10.00
  -7  -1   8   15.00   10.10
   6   1  -8  125.69   24.70
  -6  -1   8  201.58   23.10
  -6  -1   8  168.48   20.20
   5   1  -8   74.39   19.70
  -5  -1   8   44.30   11.00
  -5  -1   8   43.70   11.90
   4   1  -8   -3.00   12.10
  -4  -1   8    4.60    7.70
  -4  -1   8    8.20    9.80
  -4  -1   8   11.00    9.00
   3   1  -8  650.73   39.60
   3   1  -8  638.74   39.60
   3   1  -8  641.74   46.50
  -3  -1   8  647.54   41.40
  -3  -1   8  649.43   44.80
  -3  -1   8  656.73   36.70
  -3  -1   8  663.13   40.50
  -3  -1   8  652.63   36.60
   2   1  -8  385.56   31.30
   2   1  -8  380.46   25.20
  -2  -1   8  310.37   21.30
  -2  -1   8  301.57   24.90
  -2  -1   8  299.57   23.70
  -2  -1   8  299.77   21.50
  -2  -1   8  296.87   26.90
   1   1  -8   70.49   12.60
   1   1  -8   83.89   16.50
   1   1  -8   82.79   14.20
  -1  -1   8   62.29   10.40
  -1  -1   8   59.89   12.40
  -1  -1   8   60.99   12.20
  -1  -1   8   53.49   10.40
  -1  -1   8   63.39    9.80
   0   1  -8  110.29   18.20
   0   1  -8  110.39   16.00
   0   1  -8   88.19   14.30
   0  -1   8   99.69   13.30
   0  -1   8   97.69   12.70
   0  -1   8   97.99   14.50
   0  -1   8  119.49   16.20
  -1   1  -8  259.17   20.40
  -1   1  -8  269.27   24.20
  -1   1  -8  257.57   24.80
  -1   1  -8  269.97   24.10
   1  -1   8  324.67   21.40
   1  -1   8  330.67   24.90
   1  -1   8  314.27   23.00
   1  -1   8  295.27   23.50
  -2   1  -8   61.49   12.60
  -2   1  -8   50.99   13.00
  -2   1  -8   66.99   14.60
  -2   1  -8   69.09   11.80
   2  -1   8   66.99   10.00
   2  -1   8   55.19   12.20
   2  -1   8   65.39   13.10
  -3   1  -8   92.39   16.60
  -3   1  -8   92.39   16.10
  -3   1  -8   96.69   14.90
   3  -1   8   99.39   16.30
   3  -1   8   90.59   16.00
  -4   1  -8  240.58   23.80
  -4   1  -8  264.77   24.10
  -4   1  -8  217.58   26.50
   4  -1   8  283.37   25.90
   4  -1   8  242.68   24.40
  -5   1  -8   37.70   14.90
  -5   1  -8   41.30   12.70
  -5   1  -8   24.60   11.00
   5  -1   8   40.70   14.70
   5  -1   8   57.89   14.70
  -6   1  -8   29.20   13.10
  -6   1  -8   37.50   14.20
  -6   1  -8   31.50   12.90
   6  -1   8   51.99   18.00
  -7   1  -8   20.70   12.80
  -7   1  -8   19.30   13.20
   7  -1   8   19.10   16.60
   8   0  -8  123.59   28.10
  -8   0   8   75.19   14.60
  -8   0   8   77.29   19.20
  -8   0   8   66.19   14.90
   7   0  -8  130.19   27.50
  -7   0   8  123.69   17.70
  -7   0   8  129.19   19.30
  -7   0   8  124.89   21.30
   6   0  -8  158.98   26.90
   6   0  -8  194.58   22.00
  -6   0   8  220.88   26.60
  -6   0   8  220.38   20.20
  -6   0   8  187.78   21.10
   5   0  -8  106.59   16.20
   5   0  -8   66.69   18.20
  -5   0   8  118.49   20.70
  -5   0   8  107.89   15.20
  -5   0   8  126.09   16.10
   4   0  -8   88.99   19.30
   4   0  -8   80.99   13.80
  -4   0   8   98.89   17.60
  -4   0   8  100.39   14.70
  -4   0   8   89.99   13.80
   3   0  -8  316.67   24.70
   3   0  -8  298.47   30.20
   3   0  -8  352.76   24.60
  -3   0   8  357.96   25.40
  -3   0   8  296.37   27.90
  -3   0   8  292.87   23.60
   2   0  -8   74.99   15.90
   2   0  -8   71.99   12.10
  -2   0   8  106.59   16.80
  -2   0   8  104.59   13.30
  -2   0   8  127.19   11.40
  -2   0   8  128.09   14.90
  -2   0   8  130.69   10.70
   1   0  -8  338.87   28.90
   1   0  -8  347.97   25.80
  -1   0   8  331.47   24.30
  -1   0   8  352.86   27.70
  -1   0   8  350.16   23.10
  -1   0   8  371.76   26.10
   0   0  -8   73.39   13.90
   0   0  -8   69.59   12.60
   0   0  -8   79.39   13.70
   0   0  -8   75.79    8.90
   0   0   8   70.69   12.80
   0   0   8   53.99    9.90
   0   0   8   65.69   11.70
   0   0   8   81.09   11.30
  -1   0  -8  168.88   20.00
  -1   0  -8  154.88   18.70
  -1   0  -8  146.89   14.40
  -1   0  -8  168.48   18.40
   1   0   8  159.48   14.50
   1   0   8  152.28   17.50
   1   0   8  133.09   15.70
   1   0   8  150.58   16.60
  -2   0  -8   56.09   10.20
  -2   0  -8   66.89   12.10
  -2   0  -8   34.90   10.70
  -2   0  -8   40.70   11.30
   2   0   8   51.29   10.20
   2   0   8   44.10    8.70
   2   0   8   33.70   10.00
   2   0   8   39.80   10.10
  -3   0  -8  389.16   31.80
  -3   0  -8  389.46   29.60
  -3   0  -8  355.76   28.20
  -3   0  -8  430.96   29.90
   3   0   8  395.16   25.50
   3   0   8  459.05   30.90
   3   0   8  404.66   30.50
  -4   0  -8   98.09   18.40
  -4   0  -8   98.29   15.20
  -4   0  -8  109.89   16.80
   4   0   8   67.89   14.90
   4   0   8   56.69   14.10
  -5   0  -8   15.70    9.20
  -5   0  -8    5.90    9.50
  -5   0  -8    5.50   11.50
   5   0   8    2.80   10.10
  -6   0  -8   96.29   18.30
  -6   0  -8   95.09   15.70
  -6   0  -8   71.99   18.00
   6   0   8   92.59   19.80
  -7   0  -8   14.10   11.60
  -7   0  -8    9.90   12.00
   7   0   8   -7.00   12.10
  -8   0  -8   42.50   15.50
  -8   0  -8   25.00   14.70
   8   0   8   47.60   19.70
   8  -1  -8   96.19   24.80
   8  -1  -8  126.39   22.10
  -8   1   8  116.29   22.20
  -8   1   8   83.19   16.90
   7  -1  -8  145.99   28.90
   7  -1  -8  124.59   21.00
  -7   1   8  137.89   19.00
  -7   1   8  149.19   18.10
  -7   1   8  148.39   23.00
   6  -1  -8  110.49   23.40
   6  -1  -8  117.49   19.00
  -6   1   8   88.59   17.80
  -6   1   8   90.39   14.00
  -6   1   8  121.19   16.80
   5  -1  -8  160.68   24.90
   5  -1  -8  170.78   20.70
  -5   1   8  141.29   17.70
  -5   1   8  170.78   16.90
  -5   1   8  171.78   24.30
  -5   1   8  144.29   20.00
   4  -1  -8   89.09   14.80
   4  -1  -8   98.29   20.00
  -4   1   8   60.09   14.60
  -4   1   8   98.89   14.50
  -4   1   8   91.19   13.10
  -4   1   8   88.79   15.70
   3  -1  -8  133.59   21.60
   3  -1  -8  136.89   16.80
   3  -1  -8  101.49   14.70
  -3   1   8   91.39   13.10
  -3   1   8  128.79   19.10
  -3   1   8   97.89   15.10
  -3   1   8  134.29   15.60
   2  -1  -8  628.04   39.00
   2  -1  -8  638.54   44.20
   2  -1  -8  639.94   40.40
  -2   1   8  640.64   38.70
  -2   1   8  604.34   38.30
  -2   1   8  663.23   35.50
  -2   1   8  640.54   39.80
  -2   1   8  658.53   42.70
   1  -1  -8  544.55   35.50
   1  -1  -8  529.75   38.10
   1  -1  -8  546.95   30.10
  -1   1   8  599.74   34.70
  -1   1   8  540.65   37.20
  -1   1   8  587.74   32.70
  -1   1   8  556.04   34.90
  -1   1   8  564.94   34.50
   0  -1  -8  116.29   15.20
   0  -1  -8   82.59   14.00
   0  -1  -8  103.99   10.10
   0   1   8   52.89   10.20
   0   1   8   66.59   12.20
   0   1   8   77.39   11.40
   0   1   8   75.79   10.40
   0   1   8   74.09   10.70
  -1  -1  -8  276.87   22.90
  -1  -1  -8  285.47   19.40
  -1  -1  -8  303.37   22.50
  -1  -1  -8  292.07   22.30
   1   1   8  242.78   17.50
   1   1   8  253.27   20.40
   1   1   8  242.38   21.10
   1   1   8  228.58   19.10
   1   1   8  234.58   21.20
  -2  -1  -8    9.80    6.70
  -2  -1  -8   11.20    6.60
  -2  -1  -8   17.80    9.60
  -2  -1  -8   20.60    8.00
  -2  -1  -8   10.60    7.20
   2   1   8   10.50    7.00
   2   1   8    8.40    6.40
   2   1   8    6.80    7.00
   2   1   8   15.80    5.50
   2   1   8   11.50    8.00
  -3  -1  -8 1283.07   69.09
  -3  -1  -8 1336.67   68.39
  -3  -1  -8 1305.97   68.99
  -3  -1  -8 1258.87   71.89
   3   1   8 1213.18   67.59
   3   1   8 1245.98   66.09
   3   1   8 1194.28   69.99
   3   1   8 1143.79   69.79
  -4  -1  -8  217.38   22.70
  -4  -1  -8  225.58   20.30
  -4  -1  -8  238.58   24.20
   4   1   8  246.88   23.80
   4   1   8  204.18   22.80
   4   1   8  214.48   17.70
  -5  -1  -8   80.79   15.50
  -5  -1  -8   93.49   14.00
  -5  -1  -8   62.09   15.00
   5   1   8   92.29   17.80
  -6  -1  -8   88.09   17.80
  -6  -1  -8  102.69   17.40
  -6  -1  -8  112.79   16.80
   6   1   8  110.59   20.20
  -7  -1  -8  -12.20    9.40
  -7  -1  -8    6.10   10.90
   7   1   8    6.70   14.40
  -8  -1  -8   -3.70   11.20
  -8  -1  -8   31.70   15.40
   8   1   8   34.80   17.60
   8  -2  -8   49.50   21.00
   8  -2  -8   28.40   16.80
  -8   2   8   54.69   18.70
  -8   2   8   40.40   13.70
   7  -2  -8   24.60   16.20
   7  -2  -8   32.50   14.20
  -7   2   8   17.70   12.40
  -7   2   8   41.10   11.90
   6  -2  -8   48.50   15.30
   6  -2  -8   49.99   19.20
  -6   2   8   83.99   16.50
  -6   2   8   84.69   14.80
  -6   2   8   77.79   12.10
   5  -2  -8  177.38   27.20
   5  -2  -8  158.68   21.80
  -5   2   8  195.28   23.10
  -5   2   8  180.98   16.50
  -5   2   8  146.29   22.30
  -5   2   8  180.38   19.20
   4  -2  -8   54.19   13.10
   4  -2  -8   58.19   17.40
  -4   2   8   61.89   13.30
  -4   2   8   69.99   10.90
  -4   2   8   71.09   15.80
  -4   2   8   66.49   12.40
   3  -2  -8  982.10   57.09
   3  -2  -8 1023.40   61.39
  -3   2   8  931.61   54.09
  -3   2   8  974.40   59.29
  -3   2   8  931.41   55.79
  -3   2   8  920.81   52.79
   2  -2  -8  391.56   26.70
   2  -2  -8  332.57   28.50
   2  -2  -8  366.86   26.90
   2  -2  -8  393.66   21.10
  -2   2   8  324.77   24.40
  -2   2   8  356.36   24.30
  -2   2   8  345.97   28.10
  -2   2   8  353.66   21.00
  -2   2   8  321.47   25.40
   1  -2  -8  244.58   16.50
   1  -2  -8  224.18   20.30
   1  -2  -8  233.18   22.90
  -1   2   8  296.97   18.80
  -1   2   8  279.77   20.30
  -1   2   8  247.78   23.30
  -1   2   8  273.87   20.30
  -1   2   8  289.27   20.40
   0  -2  -8   20.40    5.80
   0  -2  -8   15.30    8.40
   0  -2  -8   19.20    7.90
   0   2   8    5.70    5.70
   0   2   8   15.20    6.20
   0   2   8   11.00    6.90
   0   2   8   13.60    6.30
   0   2   8   10.70    8.40
  -1  -2  -8  239.28   18.10
  -1  -2  -8  272.67   20.80
  -1  -2  -8  242.08   21.50
   1   2   8  251.47   20.10
   1   2   8  257.17   19.00
   1   2   8  241.28   17.00
   1   2   8  236.08   19.50
   1   2   8  249.97   22.00
  -2  -2  -8  114.29   13.90
  -2  -2  -8  114.69   14.10
  -2  -2  -8  110.69   12.30
  -2  -2  -8  109.29   15.30
   2   2   8   88.89   13.40
   2   2   8  111.79   15.20
   2   2   8   98.39    9.30
   2   2   8   95.99   13.60
   2   2   8  133.69   13.90
  -3  -2  -8   27.40   10.40
  -3  -2  -8   20.90    8.50
  -3  -2  -8   28.50    7.50
  -3  -2  -8   18.70    7.50
   3   2   8   24.60    9.80
   3   2   8   17.20    7.30
   3   2   8   19.80    8.20
   3   2   8   27.50   10.30
  -4  -2  -8  271.97   23.90
  -4  -2  -8  271.57   25.40
  -4  -2  -8  287.17   21.20
   4   2   8  281.77   20.70
   4   2   8  266.97   22.40
   4   2   8  275.97   23.60
   4   2   8  268.37   25.10
  -5  -2  -8  160.68   20.70
  -5  -2  -8  156.88   17.00
  -5  -2  -8  172.88   22.10
   5   2   8  156.48   21.10
   5   2   8  161.88   16.70
  -6  -2  -8  236.68   25.30
  -6  -2  -8  204.88   24.70
   6   2   8  197.18   26.20
  -7  -2  -8   14.70   12.50
  -7  -2  -8   23.60   12.70
   7   2   8   29.40   14.60
  -8  -2  -8   16.10   11.20
  -8  -2  -8    7.90   12.60
   8   2   8   11.60   15.60
  -9  -2  -8   22.50   15.50
  -9  -2  -8    0.70   13.30
   9   2   8    6.20   14.30
   8  -3  -8   34.80   20.80
   8  -3  -8   22.70   14.90
  -8   3   8   13.70   11.70
  -8   3   8   30.60   16.00
   7  -3  -8   80.89   21.20
   7  -3  -8   61.49   17.50
  -7   3   8   86.59   18.80
  -7   3   8   76.49   15.10
   6  -3  -8  206.98   26.80
   6  -3  -8  231.58   33.20
  -6   3   8  226.68   21.30
  -6   3   8  209.98   26.60
   5  -3  -8  212.68   23.50
   5  -3  -8  204.98   29.00
  -5   3   8  225.38   24.60
  -5   3   8  231.38   18.10
  -5   3   8  212.28   20.00
  -5   3   8  207.98   24.50
   4  -3  -8   -4.20   11.30
   4  -3  -8   -2.70    8.50
  -4   3   8   -3.50    7.20
  -4   3   8   -0.20    7.60
  -4   3   8   -5.20    5.90
  -4   3   8   -2.70    5.20
   3  -3  -8  508.15   37.30
   3  -3  -8  460.55   32.60
  -3   3   8  416.66   29.00
  -3   3   8  433.16   27.50
  -3   3   8  412.66   33.50
  -3   3   8  439.56   31.00
   2  -3  -8   79.69   12.90
   2  -3  -8   88.49   14.50
   2  -3  -8   97.89   10.10
   2  -3  -8   87.49   16.80
  -2   3   8  102.09   13.20
  -2   3   8  116.99   12.80
  -2   3   8  108.99   14.70
  -2   3   8   86.39   15.90
   1  -3  -8  451.95   33.30
   1  -3  -8  460.85   31.60
   1  -3  -8  467.45   28.00
  -1   3   8  493.95   30.80
  -1   3   8  502.55   30.30
  -1   3   8  496.25   30.90
  -1   3   8  498.45   35.00
  -1   3   8  509.45   28.00
   0  -3  -8  493.15   28.50
   0  -3  -8  486.45   32.30
   0  -3  -8  468.45   31.70
   0   3   8  496.05   30.50
   0   3   8  485.55   29.70
   0   3   8  483.35   34.30
   0   3   8  461.75   29.40
   0   3   8  484.25   30.80
  -1  -3  -8  531.75   30.90
  -1  -3  -8  522.85   29.80
  -1  -3  -8  494.55   32.60
   1   3   8  470.65   30.70
   1   3   8  489.05   28.50
   1   3   8  439.06   30.10
   1   3   8  462.65   33.00
   1   3   8  446.56   29.90
  -2  -3  -8  108.99   15.10
  -2  -3  -8  153.68   15.60
  -2  -3  -8  138.59   11.80
   2   3   8  118.59   16.50
   2   3   8   96.29   13.00
   2   3   8  104.89   14.20
   2   3   8  128.59   16.00
   2   3   8  123.29   10.40
  -3  -3  -8   76.59   10.70
  -3  -3  -8   85.49    9.90
  -3  -3  -8   85.09   13.20
  -3  -3  -8   71.19   13.10
   3   3   8   70.99   11.10
   3   3   8   77.59   12.70
   3   3   8   77.09   13.40
   3   3   8   54.59   11.60
  -4  -3  -8  471.15   29.60
  -4  -3  -8  442.46   32.90
  -4  -3  -8  472.55   34.30
   4   3   8  461.05   30.60
   4   3   8  495.15   33.80
   4   3   8  485.05   34.50
   4   3   8  514.85   32.60
  -5  -3  -8    8.30    9.40
  -5  -3  -8   29.60   11.90
   5   3   8   52.99   13.70
   5   3   8   43.30   10.00
  -6  -3  -8  108.19   18.40
  -6  -3  -8  152.18   20.10
   6   3   8  151.48   22.30
  -7  -3  -8   23.30   12.00
  -7  -3  -8   28.40   11.90
   7   3   8   47.40   15.90
  -8  -3  -8   17.30   11.60
  -8  -3  -8   19.30   13.90
   8   3   8    7.10   15.00
  -9  -3  -8   23.30   14.20
  -9  -3  -8   15.30   14.40
   9   3   8   14.10   14.60
   8  -4  -8   67.99   23.60
   8  -4  -8   77.89   20.70
  -8   4   8   81.39   16.10
  -8   4   8   67.49   18.90
  -8   4   8   87.19   21.00
   7  -4  -8  377.96   40.30
   7  -4  -8  417.16   38.60
  -7   4   8  400.66   36.20
  -7   4   8  350.16   30.10
   6  -4  -8   22.20   14.10
   6  -4  -8   43.20   17.80
  -6   4   8    8.10   10.90
  -6   4   8    7.30    9.40
   5  -4  -8  127.89   21.40
   5  -4  -8  143.99   24.90
  -5   4   8   95.29   18.10
  -5   4   8  110.99   17.90
  -5   4   8  112.09   15.70
   4  -4  -8   46.00   13.00
   4  -4  -8   70.89   18.30
  -4   4   8   59.49    8.90
  -4   4   8   50.89   13.00
  -4   4   8   37.20   12.50
  -4   4   8   48.10   11.00
   3  -4  -8   41.40    8.30
   3  -4  -8   53.49   15.20
   3  -4  -8   36.20   11.30
  -3   4   8   25.20   10.50
  -3   4   8   41.00    7.70
  -3   4   8   25.10    9.30
  -3   4   8   39.50   10.40
   2  -4  -8 1030.40   54.39
   2  -4  -8 1026.00   61.19
   2  -4  -8 1039.60   61.99
  -2   4   8 1022.20   56.89
  -2   4   8 1030.20   58.19
  -2   4   8 1023.70   54.59
  -2   4   8  966.00   61.39
   1  -4  -8  296.97   20.10
   1  -4  -8  314.27   23.50
   1  -4  -8  336.27   25.50
   1  -4  -8  302.47   25.30
  -1   4   8  295.27   20.80
  -1   4   8  307.47   22.80
  -1   4   8  281.47   21.90
  -1   4   8  290.37   25.70
   0  -4  -8 1061.09   59.79
   0  -4  -8 1063.19   53.89
   0  -4  -8 1047.10   56.79
   0  -4  -8 1024.90   59.19
   0   4   8 1048.50   58.29
   0   4   8 1067.79   57.39
   0   4   8 1140.09   63.39
   0   4   8 1031.60   56.29
   0   4   8 1096.79   57.79
  -1  -4  -8  120.19   11.30
  -1  -4  -8  100.59   12.00
  -1  -4  -8  133.89   12.40
  -1  -4  -8  127.19   15.60
   1   4   8   96.89   15.20
   1   4   8   88.39   12.30
   1   4   8  100.49   11.70
   1   4   8   93.79   12.80
   1   4   8   91.69   12.60
  -2  -4  -8   20.70    8.50
  -2  -4  -8   20.00    5.20
  -2  -4  -8   16.90    7.00
   2   4   8   17.50    7.70
   2   4   8   15.80    8.30
   2   4   8   11.90    5.40
   2   4   8    2.10    6.90
   2   4   8    7.20    6.70
  -3  -4  -8  155.38   18.50
  -3  -4  -8  137.29   15.90
   3   4   8  143.19   10.90
   3   4   8  110.39   14.00
   3   4   8  136.69   17.50
   3   4   8  119.79   16.10
  -4  -4  -8   38.90   11.10
  -4  -4  -8   44.40   12.60
   4   4   8   42.00   10.00
   4   4   8   46.40   11.80
   4   4   8   43.50   12.00
  -5  -4  -8  267.67   25.20
  -5  -4  -8  257.07   25.00
   5   4   8  273.07   22.40
   5   4   8  300.37   26.50
   5   4   8  275.87   23.90
  -6  -4  -8  103.49   16.80
  -6  -4  -8   88.79   16.00
   6   4   8   96.69   17.90
  -7  -4  -8   52.69   14.00
  -7  -4  -8   45.70   14.10
   7   4   8   64.19   15.90
  -8  -4  -8   18.60   11.90
  -8  -4  -8    5.80   11.20
   8   4   8   -7.10   13.10
  -9  -4  -8    6.30   13.10
  -9  -4  -8   20.90   14.00
   9   4   8   12.10   14.90
   7  -5  -8   32.20   17.30
  -7   5   8   63.39   19.10
  -7   5   8   40.00   12.80
  -7   5   8   57.09   18.30
   6  -5  -8   76.69   23.10
   6  -5  -8   89.09   20.40
  -6   5   8   93.59   19.10
  -6   5   8   66.89   14.30
  -6   5   8   96.89   20.00
   5  -5  -8  162.48   24.90
   5  -5  -8  132.99   26.50
  -5   5   8  138.89   18.30
  -5   5   8  163.58   23.70
  -5   5   8  133.59   19.90
   4  -5  -8   13.80   12.20
   4  -5  -8   18.30   11.60
  -4   5   8   27.10    9.90
  -4   5   8   13.30    9.40
  -4   5   8   22.90   11.40
   3  -5  -8   97.79   12.70
   3  -5  -8  131.79   20.30
   3  -5  -8  114.59   19.70
  -3   5   8  105.69   18.30
  -3   5   8   86.79   13.40
  -3   5   8  106.39   16.60
   2  -5  -8  569.74   40.90
   2  -5  -8  591.74   35.10
   2  -5  -8  602.84   41.40
  -2   5   8  579.34   37.80
  -2   5   8  595.64   33.40
  -2   5   8  597.54   37.00
  -2   5   8  583.34   41.70
   1  -5  -8  111.89   12.60
   1  -5  -8   94.99   15.80
   1  -5  -8  110.59   17.00
   1  -5  -8   83.59   13.40
  -1   5   8  129.89   15.80
  -1   5   8  119.89   12.10
  -1   5   8   89.69   12.60
  -1   5   8   88.19   15.50
   0  -5  -8   40.70    5.50
   0  -5  -8   32.80    7.90
   0  -5  -8   36.30    9.40
   0  -5  -8   38.10    9.60
   0   5   8   49.70    8.90
   0   5   8   50.29   12.00
   0   5   8   60.79   10.30
   0   5   8   47.00   10.00
  -1  -5  -8  356.36   25.20
  -1  -5  -8  350.36   22.70
  -1  -5  -8  317.57   22.90
  -1  -5  -8  340.57   20.90
   1   5   8  322.47   22.70
   1   5   8  321.47   23.80
   1   5   8  327.57   27.90
   1   5   8  341.87   23.30
   1   5   8  309.77   22.80
  -2  -5  -8  146.69   16.80
  -2  -5  -8  134.09   14.40
  -2  -5  -8  133.39   15.00
   2   5   8  163.08   17.30
   2   5   8  153.68   20.10
   2   5   8  127.89   15.60
   2   5   8  165.68   13.70
  -3  -5  -8   50.49   11.40
  -3  -5  -8   40.10   10.30
  -3  -5  -8   40.90    9.80
   3   5   8   34.40   10.00
   3   5   8   48.30    7.60
   3   5   8   40.10    9.60
   3   5   8   47.10   12.80
  -4  -5  -8   42.60   11.80
  -4  -5  -8   39.10   10.70
  -4  -5  -8   23.70    9.20
   4   5   8   55.09   13.30
   4   5   8   51.89   12.10
   4   5   8   32.10   10.20
  -5  -5  -8  224.48   22.90
  -5  -5  -8  248.58   23.50
  -5  -5  -8  239.58   23.10
   5   5   8  247.88   21.80
   5   5   8  249.58   23.80
   5   5   8  278.87   24.10
  -6  -5  -8  476.35   35.20
  -6  -5  -8  412.96   32.50
  -6  -5  -8  504.15   35.50
   6   5   8  413.46   33.20
   6   5   8  395.56   33.10
  -7  -5  -8   20.70   11.80
  -7  -5  -8   23.30   10.90
  -7  -5  -8    5.90   10.10
   7   5   8   24.10   12.30
  -8  -5  -8   92.39   19.10
  -8  -5  -8   96.29   17.40
  -8  -5  -8   63.49   16.00
   8   5   8   64.59   16.80
  -9  -5  -8  -11.30   11.00
  -9  -5  -8   10.20   10.70
  -9  -5  -8    8.20   11.40
   9   5   8    7.90   12.90
   7  -6  -8   28.30   17.80
  -7   6   8   36.50   16.90
  -7   6   8   50.39   17.20
   6  -6  -8  207.18   30.50
  -6   6   8  204.78   21.80
  -6   6   8  226.88   28.80
  -6   6   8  190.48   27.10
   5  -6  -8   41.10   16.00
  -5   6   8   45.50   15.80
  -5   6   8   36.90   11.10
  -5   6   8   33.80   12.90
   4  -6  -8   18.30   12.00
  -4   6   8   12.20   11.40
  -4   6   8   10.20   10.80
  -4   6   8    7.00    8.40
  -4   6   8    2.10    9.30
   3  -6  -8   71.09   16.40
  -3   6   8   35.60   12.40
  -3   6   8   48.00   13.40
  -3   6   8   42.00   10.70
   2  -6  -8  154.78   16.50
   2  -6  -8  144.89   20.70
  -2   6   8  175.78   18.00
  -2   6   8  130.09   20.20
  -2   6   8  154.88   18.80
   1  -6  -8  551.64   38.40
   1  -6  -8  495.75   32.70
  -1   6   8  523.85   34.60
  -1   6   8  575.94   39.90
  -1   6   8  524.35   34.00
   0  -6  -8   78.89   11.70
   0  -6  -8   73.89   13.10
   0  -6  -8   85.49    8.10
   0  -6  -8  100.39   16.60
   0   6   8   60.49   14.50
   0   6   8   63.59   11.40
   0   6   8   78.49   12.10
  -1  -6  -8  651.73   40.10
  -1  -6  -8  706.83   42.00
  -1  -6  -8  652.83   37.10
   1   6   8  707.13   40.20
   1   6   8  665.13   45.50
   1   6   8  677.03   40.70
  -2  -6  -8    1.50    7.30
  -2  -6  -8   17.20    6.70
  -2  -6  -8   12.80    7.70
   2   6   8   13.60    9.40
   2   6   8   19.00    7.60
   2   6   8   15.80    8.40
  -3  -6  -8   10.90    7.70
  -3  -6  -8   -1.80    7.00
  -3  -6  -8   -3.50    5.50
   3   6   8    0.30    5.60
   3   6   8   -4.80    6.50
   3   6   8    0.70    7.60
   3   6   8   -2.70    7.70
  -4  -6  -8  120.69   16.70
  -4  -6  -8  126.69   17.00
  -4  -6  -8  138.39   17.80
   4   6   8  108.49   16.20
   4   6   8  140.99   17.90
   4   6   8  134.59   12.40
   4   6   8  122.29   19.80
  -5  -6  -8   10.10    8.10
  -5  -6  -8   21.40   10.40
  -5  -6  -8    9.50    8.90
   5   6   8   25.00   12.00
   5   6   8    9.60    9.60
   5   6   8   12.90   10.90
  -6  -6  -8  104.09   18.20
  -6  -6  -8   88.79   16.50
  -6  -6  -8   80.19   15.40
   6   6   8  146.19   21.10
   6   6   8  142.39   21.10
  -7  -6  -8   22.20   11.10
  -7  -6  -8   31.20   12.70
  -7  -6  -8   25.50   11.40
   7   6   8   47.80   15.70
   7   6   8   54.49   15.50
  -8  -6  -8   -1.50    9.40
  -8  -6  -8   -4.80   10.60
  -8  -6  -8   -8.60   11.20
   8   6   8    3.60   13.50
  -9  -6  -8    0.10   11.00
  -9  -6  -8   -6.40   12.50
  -9  -6  -8   19.50   11.80
   9   6   8    5.00   13.40
   6  -7  -8   66.79   21.30
  -6   7   8   90.19   20.10
  -6   7   8   92.69   21.30
   5  -7  -8   50.99   18.30
  -5   7   8   60.99   15.70
  -5   7   8   38.60   14.30
  -5   7   8   60.79   13.20
   4  -7  -8   16.90   12.40
  -4   7   8   10.00   10.80
  -4   7   8    7.80   11.60
  -4   7   8   18.30   11.10
  -4   7   8   21.20    9.50
   3  -7  -8   17.90   12.10
  -3   7   8   13.50   11.20
  -3   7   8    2.50    7.50
  -3   7   8    4.40   10.20
  -3   7   8    2.20    9.50
   2  -7  -8   83.79   13.70
   2  -7  -8   89.79   17.10
  -2   7   8  113.09   17.50
  -2   7   8  122.99   18.00
  -2   7   8  125.09   15.80
  -2   7   8  117.89   19.50
   1  -7  -8  443.56   30.30
   1  -7  -8  434.06   34.60
  -1   7   8  469.15   31.70
  -1   7   8  466.75   36.00
  -1   7   8  453.05   32.70
  -1   7   8  479.05   32.60
   0  -7  -8  399.26   30.40
   0  -7  -8  359.06   25.70
   0   7   8  291.47   24.80
   0   7   8  323.17   24.80
   0   7   8  355.26   25.50
   0   7   8  348.97   29.90
  -1  -7  -8  327.37   25.40
  -1  -7  -8  290.97   23.40
  -1  -7  -8  306.57   21.00
   1   7   8  344.17   25.00
   1   7   8  334.07   25.00
   1   7   8  332.37   29.10
   1   7   8  332.77   22.90
  -2  -7  -8  121.39   16.50
  -2  -7  -8  127.19   14.10
  -2  -7  -8  118.29   15.80
   2   7   8  187.18   16.80
   2   7   8  143.99   17.00
   2   7   8  170.58   22.20
   2   7   8  162.78   13.50
  -3  -7  -8    2.80    8.10
  -3  -7  -8    4.60    6.70
  -3  -7  -8    8.30    7.70
   3   7   8    3.70    7.40
   3   7   8    9.50    9.70
   3   7   8    1.10    6.20
  -4  -7  -8   68.99   12.70
  -4  -7  -8   58.79   12.40
  -4  -7  -8   58.79   12.10
   4   7   8   49.20   14.30
   4   7   8   55.69   13.10
   4   7   8   58.09   10.00
  -5  -7  -8   67.59   13.40
  -5  -7  -8   64.99   13.60
  -5  -7  -8   56.59   12.70
   5   7   8   62.69   13.90
   5   7   8   79.09   17.10
  -6  -7  -8   23.90   10.60
  -6  -7  -8   15.70   11.80
  -6  -7  -8    7.30    9.90
   6   7   8   14.70   12.70
  -7  -7  -8  107.99   17.60
  -7  -7  -8   99.29   19.10
  -7  -7  -8  110.19   20.20
   7   7   8  110.99   19.60
   7   7   8  109.19   21.00
  -8  -7  -8    0.80    9.40
  -8  -7  -8    9.90   11.60
  -8  -7  -8    1.00   11.50
   8   7   8    8.50   13.30
   8   7   8   14.30   12.70
  -9  -7  -8   -0.20   11.30
  -9  -7  -8    7.30   12.90
   9   7   8   -4.40   13.90
   6  -8  -8   14.50   16.30
  -6   8   8    1.40   14.10
  -6   8   8   -3.40   13.20
   5  -8  -8  340.07   36.80
  -5   8   8  282.77   32.60
  -5   8   8  306.17   34.50
   4  -8  -8   51.29   18.20
  -4   8   8   33.00   10.90
  -4   8   8   49.90   16.10
  -4   8   8   40.50   13.90
   3  -8  -8   78.29   18.30
  -3   8   8  129.29   20.70
  -3   8   8   97.49   19.40
  -3   8   8  122.59   16.90
  -3   8   8  124.19   20.00
   2  -8  -8   65.09   15.30
   2  -8  -8   52.49   11.90
  -2   8   8   75.69   16.10
  -2   8   8   73.79   15.00
  -2   8   8   86.19   14.60
  -2   8   8   82.19   17.90
   1  -8  -8   25.50    9.30
   1  -8  -8   18.80   11.80
  -1   8   8   41.90   10.90
  -1   8   8   25.50   12.20
  -1   8   8   24.90   10.30
  -1   8   8   36.90   12.20
   0  -8  -8  463.25   36.60
   0  -8  -8  465.35   32.60
   0   8   8  469.15   32.00
   0   8   8  443.46   37.60
   0   8   8  477.35   32.20
   0   8   8  497.85   34.30
  -1  -8  -8   67.59   10.20
  -1  -8  -8   66.69   15.50
  -1  -8  -8   86.89   13.30
   1   8   8   75.89   11.30
   1   8   8   65.49   15.20
   1   8   8   72.99   13.40
   1   8   8   67.29   13.50
  -2  -8  -8  609.84   41.40
  -2  -8  -8  616.54   41.30
  -2  -8  -8  619.64   39.20
   2   8   8  736.13   48.60
   2   8   8  782.02   43.70
   2   8   8  700.03   41.80
  -3  -8  -8  319.17   23.80
  -3  -8  -8  307.37   24.30
  -3  -8  -8  318.87   25.50
   3   8   8  317.57   23.90
   3   8   8  237.78   24.40
   3   8   8  327.77   31.20
  -4  -8  -8   56.39   12.10
  -4  -8  -8   32.30   11.40
  -4  -8  -8   59.59   12.80
   4   8   8   52.89   10.90
   4   8   8   45.60   12.50
  -5  -8  -8    2.50    9.50
  -5  -8  -8   12.10    9.70
  -5  -8  -8   22.50    9.30
   5   8   8   28.20    9.30
   5   8   8   15.20   12.40
   5   8   8   13.80    9.70
  -6  -8  -8   60.19   14.50
  -6  -8  -8   61.79   13.20
  -6  -8  -8   68.69   14.60
   6   8   8   47.70   16.50
  -7  -8  -8  146.09   22.10
  -7  -8  -8  172.48   23.20
   7   8   8  200.28   28.50
  -8  -8  -8   57.19   16.50
  -8  -8  -8  106.69   19.90
   8   8   8   51.09   18.20
  -9  -8  -8  -13.40   12.20
  -9  -8  -8    1.70   11.60
   9   8   8    6.90   14.60
   5  -9  -8   55.19   19.40
  -5   9   8   30.60   14.80
  -5   9   8   61.99   19.40
   4  -9  -8  117.89   24.50
  -4   9   8  122.89   20.90
  -4   9   8  117.39   22.70
   3  -9  -8    3.30   11.70
  -3   9   8   28.70   10.50
  -3   9   8   28.30   13.10
  -3   9   8   25.20   12.90
   2  -9  -8   25.90   14.30
   2  -9  -8   32.40   11.30
  -2   9   8   40.00   14.50
  -2   9   8   41.60   11.30
  -2   9   8   47.40   14.50
   1  -9  -8   24.80   13.60
   1  -9  -8   17.90   10.60
  -1   9   8   36.20   12.40
  -1   9   8   30.20   10.10
  -1   9   8   19.90   11.40
  -1   9   8   38.90   15.00
   0  -9  -8    9.70    9.40
   0  -9  -8    7.70    9.40
   0   9   8    7.00    8.90
   0   9   8    1.70   10.60
   0   9   8    8.90   10.30
   0   9   8    4.80    8.40
  -1  -9  -8  255.77   23.30
  -1  -9  -8  274.27   21.00
  -1  -9  -8  258.47   27.40
   1   9   8  291.37   24.70
   1   9   8  299.87   22.70
   1   9   8  270.37   28.20
   1   9   8  265.57   24.10
  -2  -9  -8   97.49   17.50
  -2  -9  -8   98.89   15.30
  -2  -9  -8  104.39   13.80
   2   9   8   96.39   19.90
   2   9   8   92.39   16.00
   2   9   8   77.09   15.10
  -3  -9  -8   10.30    9.60
  -3  -9  -8    7.90    7.60
  -3  -9  -8    3.60    7.30
   3   9   8   24.00   10.10
   3   9   8   20.70   10.10
   3   9   8   16.60   11.50
  -4  -9  -8   13.30    8.30
  -4  -9  -8    7.50    9.10
  -4  -9  -8   15.00    9.10
   4   9   8   14.90   10.70
   4   9   8   15.80    9.90
   4   9   8   11.90   13.10
  -5  -9  -8   39.20   10.30
  -5  -9  -8   28.00   11.30
  -5  -9  -8   48.40   13.50
   5   9   8   20.50   10.20
   5   9   8   45.40   16.90
  -6  -9  -8  127.39   20.00
  -6  -9  -8  143.99   21.30
   6   9   8  129.49   24.60
  -7  -9  -8   -7.40   10.00
  -7  -9  -8   12.80   11.80
   7   9   8   -5.10   11.40
  -8  -9  -8  113.39   20.80
  -8  -9  -8   70.49   17.20
   8   9   8   80.79   21.30
  -9  -9  -8   21.30   13.10
  -9  -9  -8   10.80   12.80
   9   9   8   24.10   18.00
   4 -10  -8  131.39   25.40
  -4  10   8  123.69   22.40
  -4  10   8  154.58   26.40
   3 -10  -8   -0.10   11.80
  -3  10   8   -5.70   12.20
  -3  10   8    5.30   12.60
   2 -10  -8    8.50   13.20
  -2  10   8   31.00   13.90
  -2  10   8   16.30   12.50
  -2  10   8   32.80   11.50
   1 -10  -8   34.10   11.90
   1 -10  -8   29.00   14.10
  -1  10   8   31.50   11.60
  -1  10   8   35.20   13.60
  -1  10   8   36.70   12.70
   0 -10  -8   20.60   10.30
   0 -10  -8   20.70   11.50
   0  10   8   13.00   10.00
   0  10   8   12.10   10.20
   0  10   8   35.80   12.60
  -1 -10  -8  358.56   29.10
  -1 -10  -8  377.66   32.60
   1  10   8  349.17   30.70
   1  10   8  336.57   28.20
  -2 -10  -8   66.49   12.50
  -2 -10  -8   80.29   15.00
  -2 -10  -8   81.99   17.30
   2  10   8   66.19   15.20
   2  10   8   87.69   16.00
  -3 -10  -8   22.80   11.80
  -3 -10  -8   28.20   12.40
  -3 -10  -8    6.90    8.10
   3  10   8   19.20   11.40
   3  10   8   30.40   12.00
  -4 -10  -8   95.49   17.10
  -4 -10  -8   77.59   14.40
   4  10   8  105.59   16.70
   4  10   8   81.79   16.70
   4  10   8   80.89   20.80
  -5 -10  -8   -4.00    9.70
  -5 -10  -8   -1.70    9.30
   5  10   8   -4.00    8.80
   5  10   8    0.70   13.50
  -6 -10  -8   71.49   17.20
  -6 -10  -8   83.39   17.90
   6  10   8   83.59   22.10
  -7 -10  -8   18.60   13.90
  -7 -10  -8   17.80   14.20
   7  10   8   58.59   19.40
  -8 -10  -8   36.00   15.90
  -8 -10  -8   64.59   18.60
   8  10   8   85.29   22.70
   3 -11  -8  128.79   26.00
  -3  11   8  138.99   24.40
  -3  11   8  132.89   24.30
   2 -11  -8   30.40   15.70
  -2  11   8   32.90   15.00
  -2  11   8   30.50   14.90
   1 -11  -8    6.50   10.40
   1 -11  -8    6.90   11.70
  -1  11   8   18.30   10.80
  -1  11   8   -2.40   12.10
  -1  11   8   -3.70   10.50
   0 -11  -8   52.49   16.10
   0 -11  -8   54.09   15.10
   0  11   8   78.59   15.20
   0  11   8   56.19   16.80
  -1 -11  -8   45.10   13.60
  -1 -11  -8   34.10   13.80
   1  11   8   36.90   12.80
   1  11   8   34.30   12.60
  -2 -11  -8  287.27   27.20
  -2 -11  -8  271.27   24.60
  -2 -11  -8  261.17   28.40
   2  11   8  281.67   30.10
   2  11   8  288.27   27.10
  -3 -11  -8    2.60    8.80
  -3 -11  -8    3.90   10.10
  -3 -11  -8    4.40    8.70
   3  11   8   17.30   11.00
   3  11   8   10.90   10.40
  -4 -11  -8  287.47   25.80
  -4 -11  -8  247.78   27.10
  -4 -11  -8  204.68   25.40
   4  11   8  279.87   26.90
   4  11   8  211.18   32.00
  -5 -11  -8   -3.30   10.60
  -5 -11  -8    5.40   10.10
   5  11   8   10.70   16.80
   5  11   8   15.40   11.80
  -6 -11  -8    4.60   10.60
  -6 -11  -8   -9.50   10.10
   6  11   8   15.90   11.80
   6  11   8   16.90   17.30
  -7 -11  -8   81.29   19.50
  -7 -11  -8   92.89   19.80
   7  11   8  113.59   26.90
  -8 -11  -8   24.30   14.80
  -8 -11  -8   33.70   16.00
   8  11   8    8.80   16.20
   1 -12  -8    9.50   14.10
   1 -12  -8   11.70   13.00
  -1  12   8   10.40   19.00
  -1  12   8    1.20   13.00
   0 -12  -8   28.00   15.10
   0 -12  -8   44.00   13.60
   0  12   8   13.10   11.60
   0  12   8   27.20   13.80
  -1 -12  -8   94.59   17.60
  -1 -12  -8   69.59   17.80
   1  12   8   66.59   18.40
   1  12   8   75.59   15.80
  -2 -12  -8  137.19   20.90
  -2 -12  -8  135.09   22.50
   2  12   8  101.79   20.20
  -3 -12  -8  120.99   20.30
  -3 -12  -8  125.99   19.10
  -3 -12  -8  106.79   20.80
   3  12   8  109.89   26.50
   3  12   8  108.39   21.20
  -4 -12  -8   92.89   18.50
  -4 -12  -8   52.19   15.10
   4  12   8   67.69   17.10
   4  12   8   71.89   22.80
  -5 -12  -8   31.20   13.60
  -5 -12  -8   47.10   15.50
   5  12   8   60.19   16.40
   5  12   8   52.19   19.70
  -6 -12  -8   52.79   15.60
  -6 -12  -8   31.80   15.80
  -6 -12  -8   30.10   14.00
   6  12   8   43.90   19.90
   6  12   8   59.79   16.00
  -7 -12  -8    1.30   12.10
  -7 -12  -8   -1.90   12.20
   7  12   8    2.80   14.90
  -1 -13  -8   62.39   17.20
   1  13   8   70.49   18.80
  -2 -13  -8    8.60   11.80
   2  13   8   14.10   18.90
   2  13   8  -14.30   11.50
  -3 -13  -8   80.19   18.00
  -3 -13  -8   96.99   19.40
   3  13   8   91.99   26.10
   3  13   8   66.59   19.10
  -4 -13  -8  128.29   22.40
  -4 -13  -8  103.69   19.50
   4  13   8  138.79   30.30
   4  13   8   94.09   21.00
  -5 -13  -8   24.50   13.20
  -5 -13  -8   13.50   12.80
   5  13   8   -4.10   12.30
   5   5  -9   26.80   18.00
   5   5  -9   38.70   16.60
  -5  -5   9   53.59   16.40
  -5  -5   9   63.79   15.50
   4   5  -9   44.60   18.60
  -4  -5   9   58.59   17.30
  -4  -5   9   59.49   15.30
   3   5  -9   41.10   19.10
   3   5  -9   20.40   13.20
  -3  -5   9   34.30   13.30
  -3  -5   9   38.50   12.50
  -3  -5   9   23.10   14.50
   2   5  -9   19.40   12.70
   2   5  -9   18.10   16.40
  -2  -5   9   -5.60   11.60
  -2  -5   9    8.60    9.90
  -2  -5   9   27.00   11.70
   1   5  -9  123.59   25.90
   1   5  -9  136.89   23.00
  -1  -5   9  128.69   19.60
  -1  -5   9  144.09   20.60
  -1  -5   9  112.29   20.10
   0   5  -9   79.99   22.30
   0   5  -9   91.09   21.30
   0  -5   9  108.79   18.70
   0  -5   9   81.79   16.50
   0  -5   9   84.39   18.00
  -1   5  -9   19.20   13.40
  -1   5  -9   31.40   18.00
   1  -5   9   14.80   14.00
   1  -5   9   39.70   15.20
  -2   5  -9   80.59   18.90
  -2   5  -9  101.39   23.20
  -2   5  -9   77.29   21.70
   2  -5   9   81.99   18.90
   2  -5   9   74.59   19.30
   6   4  -9    1.50   14.40
   6   4  -9   21.10   15.20
  -6  -4   9   -2.50   11.20
  -6  -4   9   14.60   12.80
   5   4  -9    3.60   13.20
   5   4  -9    1.80   11.50
  -5  -4   9   -3.90   10.00
  -5  -4   9   14.40   12.70
   4   4  -9  124.99   25.70
  -4  -4   9  151.38   20.20
  -4  -4   9  212.58   26.90
   3   4  -9   33.70   15.60
  -3  -4   9   40.40   11.80
  -3  -4   9   61.69   15.60
   2   4  -9  101.09   22.50
   2   4  -9  116.79   21.40
  -2  -4   9  118.49   17.50
  -2  -4   9  118.89   16.70
  -2  -4   9  127.29   20.80
  -2  -4   9  108.89   16.30
   1   4  -9  160.28   24.80
   1   4  -9  172.08   28.20
  -1  -4   9  202.58   22.60
  -1  -4   9  195.88   22.70
  -1  -4   9  195.08   25.30
   0   4  -9   13.20   10.60
   0   4  -9   15.00   14.20
   0   4  -9    6.90   13.10
   0  -4   9   11.60   11.50
   0  -4   9    1.90   10.70
  -1   4  -9   55.89   15.70
  -1   4  -9   73.69   19.40
  -1   4  -9   45.60   16.00
   1  -4   9   53.49   15.50
   1  -4   9   72.09   17.20
  -2   4  -9   23.20   13.90
  -2   4  -9   41.70   17.20
  -2   4  -9   40.40   14.60
   2  -4   9   20.10   13.00
   2  -4   9   24.00   12.60
  -3   4  -9   32.70   14.60
  -3   4  -9   58.99   17.30
   3  -4   9   40.80   14.80
   3  -4   9   37.00   17.00
   7   3  -9   67.49   23.60
  -7  -3   9   84.49   17.30
  -7  -3   9   74.99   18.00
   6   3  -9  170.58   31.20
  -6  -3   9  159.88   21.70
  -6  -3   9  179.68   24.70
   5   3  -9  182.18   31.20
  -5  -3   9  150.28   21.80
  -5  -3   9  191.58   23.40
   4   3  -9   80.79   21.70
  -4  -3   9   53.09   14.60
  -4  -3   9   48.20   13.90
   3   3  -9    2.90   11.90
  -3  -3   9   -7.10    8.10
  -3  -3   9   -4.80    8.00
  -3  -3   9    3.60   11.40
   2   3  -9  139.09   21.40
   2   3  -9  128.09   23.30
   2   3  -9  131.59   17.00
  -2  -3   9  141.39   16.90
  -2  -3   9  112.69   16.40
  -2  -3   9  141.89   20.70
  -2  -3   9  138.99   16.90
  -2  -3   9   88.49   16.80
   1   3  -9   38.10   11.70
   1   3  -9   34.60   15.60
   1   3  -9   56.69   15.40
  -1  -3   9   42.40   11.30
  -1  -3   9   28.20   10.70
  -1  -3   9   32.70   10.00
  -1  -3   9   23.50   11.90
   0   3  -9  183.38   26.80
   0   3  -9  182.28   22.40
   0   3  -9  161.08   24.10
   0  -3   9  184.78   21.80
   0  -3   9  180.98   23.70
  -1   3  -9  160.68   24.90
  -1   3  -9  143.79   22.70
  -1   3  -9  114.29   19.40
   1  -3   9  126.09   20.30
   1  -3   9  161.38   21.40
  -2   3  -9  266.47   30.10
  -2   3  -9  212.08   26.20
  -2   3  -9  257.27   31.30
   2  -3   9  198.68   25.40
   2  -3   9  203.78   26.30
  -3   3  -9   53.19   16.60
  -3   3  -9   48.10   15.30
   3  -3   9   81.59   17.40
   3  -3   9   60.49   16.00
  -4   3  -9   -4.90   11.20
  -4   3  -9   -5.70   12.10
   4  -3   9   -2.70   13.20
   4  -3   9    5.00   13.20
   7   2  -9  235.58   37.00
  -7  -2   9  264.17   28.80
  -7  -2   9  206.18   25.40
   6   2  -9   52.69   20.00
  -6  -2   9   71.49   15.60
  -6  -2   9   74.89   16.30
   5   2  -9  142.69   27.30
  -5  -2   9  100.09   17.80
  -5  -2   9  108.49   17.40
   4   2  -9   37.90   17.10
  -4  -2   9   41.90   12.80
  -4  -2   9   50.69   12.10
   3   2  -9  157.38   18.40
   3   2  -9  160.58   26.20
  -3  -2   9  165.88   22.90
  -3  -2   9  185.58   20.80
  -3  -2   9  198.88   23.20
   2   2  -9   34.50   10.10
   2   2  -9   32.90   13.80
  -2  -2   9   26.00   10.50
  -2  -2   9   12.40    7.10
  -2  -2   9   33.40   10.60
  -2  -2   9   21.00    8.50
  -2  -2   9   27.20   12.00
   1   2  -9  170.58   25.40
   1   2  -9  146.29   19.10
   1   2  -9  162.38   21.90
  -1  -2   9  192.28   17.80
  -1  -2   9  167.58   21.30
  -1  -2   9  190.68   19.30
  -1  -2   9  198.28   19.20
  -1  -2   9  179.88   21.80
   0   2  -9  137.99   20.70
   0   2  -9  155.88   20.00
   0   2  -9  206.88   27.00
   0  -2   9  156.88   21.10
   0  -2   9  157.28   18.80
   0  -2   9  149.99   17.00
  -1   2  -9  136.49   20.50
  -1   2  -9   79.49   15.70
  -1   2  -9   84.79   18.30
   1  -2   9  105.19   17.10
   1  -2   9  107.89   17.50
  -2   2  -9  152.98   21.70
  -2   2  -9  114.19   20.70
  -2   2  -9  114.59   19.70
   2  -2   9  126.59   19.30
   2  -2   9  115.69   19.00
  -3   2  -9   43.40   14.70
  -3   2  -9   68.09   16.90
  -3   2  -9   70.99   14.00
  -3   2  -9   58.29   15.10
   3  -2   9   40.30   13.60
   3  -2   9   49.50   14.70
  -4   2  -9    5.40   10.30
  -4   2  -9    3.90   10.70
  -4   2  -9   11.50   13.80
   4  -2   9    0.00   12.00
   4  -2   9   12.50   11.90
  -5   2  -9    1.10   12.60
  -5   2  -9   -3.40   10.90
  -5   2  -9   -0.50   10.30
   5  -2   9    4.80   12.40
   5  -2   9    2.00   10.90
   8   1  -9   85.69   25.70
  -8  -1   9   71.09   19.90
  -8  -1   9   64.99   16.10
  -8  -1   9   61.69   16.00
   7   1  -9   31.90   18.70
  -7  -1   9   39.80   13.00
  -7  -1   9   27.60   12.90
   6   1  -9   44.10   19.20
  -6  -1   9   28.90   11.40
  -6  -1   9   31.00   13.00
   5   1  -9   33.20   16.00
  -5  -1   9   52.79   13.80
  -5  -1   9   40.10   11.90
   4   1  -9  401.26   29.10
   4   1  -9  409.56   39.30
  -4  -1   9  416.06   31.70
  -4  -1   9  399.76   30.60
   3   1  -9  172.28   19.00
   3   1  -9  130.89   22.70
  -3  -1   9  142.29   17.60
  -3  -1   9  142.09   18.20
  -3  -1   9  150.28   21.30
   2   1  -9   -6.60    7.20
   2   1  -9    9.50   11.50
  -2  -1   9   -3.80    5.60
  -2  -1   9   -2.10    6.70
  -2  -1   9   -3.10    8.10
  -2  -1   9   -1.80    5.40
  -2  -1   9    8.60    9.90
   1   1  -9  339.07   29.70
   1   1  -9  332.77   31.60
   1   1  -9  363.56   28.30
  -1  -1   9  345.27   28.60
  -1  -1   9  394.56   26.50
  -1  -1   9  381.76   26.80
  -1  -1   9  399.46   30.60
   0   1  -9   10.50   10.40
   0   1  -9    8.00    9.50
   0   1  -9   11.40    8.20
   0  -1   9    6.70    7.60
   0  -1   9   12.20    8.90
   0  -1   9   19.00    8.50
   0  -1   9   18.50    9.40
  -1   1  -9  122.89   18.30
  -1   1  -9  158.08   22.60
  -1   1  -9  140.49   19.30
   1  -1   9  153.08   19.60
   1  -1   9  156.18   16.40
   1  -1   9  139.39   18.20
  -2   1  -9   52.49   14.50
  -2   1  -9   61.19   14.90
  -2   1  -9   64.19   14.30
  -2   1  -9   48.50   10.70
   2  -1   9   48.70   13.20
   2  -1   9   40.80   12.00
  -3   1  -9   73.49   15.60
  -3   1  -9   85.99   18.10
  -3   1  -9   61.69   13.00
  -3   1  -9  100.19   17.40
   3  -1   9   32.60   12.00
   3  -1   9   61.59   14.30
  -4   1  -9  -12.40    9.80
  -4   1  -9    9.70   10.00
  -4   1  -9   16.10   11.10
   4  -1   9   12.20   11.10
   4  -1   9   -3.70    9.60
  -5   1  -9   79.19   17.00
  -5   1  -9   91.19   17.70
  -5   1  -9   96.89   21.00
   5  -1   9   78.39   19.40
   5  -1   9   57.49   16.80
  -6   1  -9   62.49   17.70
  -6   1  -9   40.90   14.20
  -6   1  -9   33.90   16.90
   6  -1   9   55.49   18.50
   8   0  -9   14.70   18.60
  -8   0   9   17.00   12.60
  -8   0   9   25.70   14.80
   7   0  -9   54.79   20.10
  -7   0   9   75.19   15.10
  -7   0   9   95.69   20.30
  -7   0   9  113.29   18.50
   6   0  -9   78.19   22.40
  -6   0   9  116.29   18.10
  -6   0   9  128.09   18.00
  -6   0   9   86.09   19.00
   5   0  -9  216.08   31.90
  -5   0   9  195.68   21.70
  -5   0   9  199.38   22.50
   4   0  -9  221.88   30.10
   4   0  -9  253.87   21.70
  -4   0   9  178.88   21.60
  -4   0   9  189.38   22.00
  -4   0   9  186.58   25.20
   3   0  -9   44.30   10.60
   3   0  -9   36.30   11.10
   3   0  -9   52.09   17.00
  -3   0   9   25.40   12.10
  -3   0   9   13.50    8.30
  -3   0   9   18.40    8.80
   2   0  -9   22.30    9.30
   2   0  -9   21.80    9.50
   2   0  -9   19.80   11.80
  -2   0   9   22.90    9.20
  -2   0   9   20.00    6.90
  -2   0   9   16.60   10.00
  -2   0   9   12.60    8.80
   1   0  -9  238.28   22.00
   1   0  -9  235.08   25.10
  -1   0   9  287.97   21.70
  -1   0   9  254.27   19.70
  -1   0   9  254.67   24.00
  -1   0   9  268.47   22.50
   0   0  -9  143.69   19.60
   0   0  -9  119.19   16.60
   0   0  -9  157.18   20.90
   0   0   9   98.59   13.90
   0   0   9  120.19   14.90
   0   0   9  119.79   16.20
   0   0   9  128.19   17.40
  -1   0  -9  253.57   23.00
  -1   0  -9  223.78   22.40
  -1   0  -9  228.58   18.10
  -1   0  -9  222.48   22.80
   1   0   9  209.08   19.10
   1   0   9  205.18   23.00
   1   0   9  229.88   20.60
   1   0   9  213.78   21.00
  -2   0  -9  193.88   18.20
  -2   0  -9  182.58   21.80
  -2   0  -9  129.89   18.90
  -2   0  -9  205.18   24.00
   2   0   9  148.09   19.40
   2   0   9  186.48   16.30
   2   0   9  200.88   21.40
  -3   0  -9   60.79   12.50
  -3   0  -9   81.79   16.80
  -3   0  -9   76.29   14.80
  -3   0  -9  102.39   15.60
   3   0   9   72.99   14.40
   3   0   9   84.29   16.40
  -4   0  -9   54.69   13.50
  -4   0  -9   31.70   11.30
  -4   0  -9   49.60   14.60
   4   0   9   41.60   14.00
   4   0   9   40.60   13.30
  -5   0  -9   14.80   11.30
  -5   0  -9   19.20   10.90
  -5   0  -9   25.10   12.40
   5   0   9   30.80   13.20
  -6   0  -9   15.00   12.60
  -6   0  -9   18.20   13.50
   6   0   9    3.40   12.30
  -7   0  -9   -5.50   11.10
  -7   0  -9   -0.10   11.90
   7   0   9   20.20   14.80
   8  -1  -9   18.40   19.10
  -8   1   9   44.40   18.00
  -8   1   9   28.10   13.70
   7  -1  -9  165.18   31.00
  -7   1   9  217.28   25.20
  -7   1   9  207.58   23.70
  -7   1   9  194.78   28.00
   6  -1  -9  143.19   21.40
   6  -1  -9  129.99   25.60
  -6   1   9  150.18   18.70
  -6   1   9  145.39   20.10
  -6   1   9  159.98   23.50
   5  -1  -9  132.59   25.40
   5  -1  -9  137.29   19.90
  -5   1   9  178.68   23.20
  -5   1   9  136.49   17.20
  -5   1   9  158.58   19.90
   4  -1  -9    3.00   12.30
   4  -1  -9    3.20    8.80
  -4   1   9   -1.10    8.10
  -4   1   9    4.20    7.70
  -4   1   9   25.80   11.30
  -4   1   9    9.40    8.20
   3  -1  -9  481.25   40.00
   3  -1  -9  504.75   35.40
   3  -1  -9  450.35   33.90
  -3   1   9  550.14   34.60
  -3   1   9  526.05   33.90
  -3   1   9  514.35   35.40
  -3   1   9  509.05   38.80
   2  -1  -9   25.20    9.50
   2  -1  -9   28.90   12.40
   2  -1  -9   30.80   10.10
  -2   1   9   22.70    9.30
  -2   1   9   21.70   10.00
  -2   1   9   17.40    8.90
  -2   1   9   31.90    9.60
   1  -1  -9  128.09   19.80
   1  -1  -9  109.69   16.00
  -1   1   9   83.69   12.90
  -1   1   9   74.59   13.20
  -1   1   9   86.29   15.90
  -1   1   9  110.99   13.20
  -1   1   9  108.99   14.40
   0  -1  -9  434.16   27.90
   0  -1  -9  417.86   33.20
   0  -1  -9  456.45   34.80
   0   1   9  515.25   31.70
   0   1   9  545.75   31.00
   0   1   9  512.25   35.30
   0   1   9  504.95   33.60
   0   1   9  526.45   31.70
  -1  -1  -9  233.58   22.10
  -1  -1  -9  227.28   18.20
  -1  -1  -9  222.28   22.60
  -1  -1  -9  226.38   21.80
   1   1   9  247.58   19.90
   1   1   9  263.07   23.10
   1   1   9  249.97   17.60
   1   1   9  225.28   20.70
   1   1   9  215.18   20.10
  -2  -1  -9  217.38   21.30
  -2  -1  -9  215.98   24.90
  -2  -1  -9  200.98   19.20
  -2  -1  -9  226.28   21.00
   2   1   9  268.87   22.20
   2   1   9  215.08   21.70
   2   1   9  259.87   22.30
   2   1   9  280.17   19.80
  -3  -1  -9   12.00    8.50
  -3  -1  -9    5.30    8.00
  -3  -1  -9   19.10   10.50
   3   1   9   12.80   10.00
   3   1   9    8.20    7.10
   3   1   9    9.80   10.10
  -4  -1  -9  282.97   28.70
  -4  -1  -9  314.97   25.80
  -4  -1  -9  287.97   25.10
   4   1   9  326.57   28.80
   4   1   9  325.87   27.30
  -5  -1  -9   14.80   10.60
  -5  -1  -9   15.40    9.50
  -5  -1  -9   13.40   11.20
   5   1   9   20.40   13.30
  -6  -1  -9   80.29   16.30
  -6  -1  -9   72.59   17.00
   6   1   9   70.89   19.10
  -7  -1  -9   67.59   16.90
  -7  -1  -9   50.89   15.70
   7   1   9   77.29   19.30
   8  -2  -9   30.40   16.30
   8  -2  -9   43.80   21.40
  -8   2   9    0.10   14.80
  -8   2   9   19.60   11.70
   7  -2  -9  200.08   33.20
   7  -2  -9  173.58   25.50
  -7   2   9  230.58   25.20
  -7   2   9  183.38   26.40
   6  -2  -9   12.30   15.70
   6  -2  -9    3.00   10.80
  -6   2   9   11.50   10.70
  -6   2   9   10.10    7.80
  -6   2   9    4.50   10.50
   5  -2  -9   17.60   14.50
   5  -2  -9   51.79   14.20
  -5   2   9   30.00    9.30
  -5   2   9   18.30   10.60
  -5   2   9   25.30   12.20
   4  -2  -9  479.85   36.30
   4  -2  -9  436.66   39.30
  -4   2   9  514.05   36.00
  -4   2   9  506.55   32.60
  -4   2   9  526.15   34.80
  -4   2   9  485.85   39.30
   3  -2  -9  323.97   26.10
   3  -2  -9  370.86   33.10
   3  -2  -9  354.16   28.80
  -3   2   9  349.47   26.10
  -3   2   9  364.86   30.30
  -3   2   9  328.67   27.30
  -3   2   9  333.57   24.90
   2  -2  -9    6.70    9.60
   2  -2  -9    4.80    8.10
   2  -2  -9    7.00    8.40
  -2   2   9    8.20    7.90
  -2   2   9    6.30    6.90
  -2   2   9   10.60    9.40
  -2   2   9    8.70    7.70
   1  -2  -9  100.29    9.70
   1  -2  -9   86.09   15.70
   1  -2  -9   96.89   15.50
  -1   2   9   78.29   12.60
  -1   2   9  123.09   13.30
  -1   2   9   93.09   16.60
  -1   2   9   94.59   14.10
  -1   2   9   92.99   13.00
   0  -2  -9  173.18   15.70
   0  -2  -9  206.68   21.70
   0  -2  -9  206.58   21.10
   0   2   9  224.28   18.70
   0   2   9  250.77   18.80
   0   2   9  216.98   22.20
   0   2   9  265.07   18.70
   0   2   9  251.87   20.50
  -1  -2  -9  797.52   45.70
  -1  -2  -9  736.23   42.20
  -1  -2  -9  738.43   46.30
   1   2   9  711.83   43.90
   1   2   9  737.93   43.60
   1   2   9  748.93   45.00
   1   2   9  759.32   46.90
   1   2   9  694.23   40.80
  -2  -2  -9  118.09   14.00
  -2  -2  -9  123.69   15.60
  -2  -2  -9  121.99   14.80
  -2  -2  -9   99.19   15.60
   2   2   9   81.39   14.10
   2   2   9   81.69   14.20
   2   2   9   74.59   12.10
   2   2   9   57.19   12.20
  -3  -2  -9  124.09   17.10
  -3  -2  -9  140.59   16.90
  -3  -2  -9  136.99   20.00
   3   2   9  155.68   16.20
   3   2   9  151.78   19.20
   3   2   9  143.59   17.60
   3   2   9  141.69   18.20
  -4  -2  -9   79.39   13.00
  -4  -2  -9   57.39   13.50
  -4  -2  -9   47.40   13.50
   4   2   9   23.70   12.40
   4   2   9   62.39   14.10
   4   2   9   50.89   10.30
  -5  -2  -9   -2.90    8.60
  -5  -2  -9   -1.20    8.10
  -5  -2  -9    6.00    8.00
   5   2   9   -2.30    9.30
  -6  -2  -9   96.09   18.40
  -6  -2  -9  110.49   19.90
   6   2   9  134.89   22.60
  -7  -2  -9   13.70   12.20
  -7  -2  -9    0.20   11.10
   7   2   9    8.00   12.50
  -8  -2  -9   41.90   15.20
  -8  -2  -9   57.19   18.60
   8   2   9   53.99   17.90
   8  -3  -9   -2.70   13.60
   8  -3  -9    2.70   17.60
  -8   3   9   14.40   16.00
  -8   3   9   -2.00    9.50
   7  -3  -9   65.09   22.70
   7  -3  -9   71.69   19.40
  -7   3   9   76.69   16.20
  -7   3   9   38.60   15.80
   6  -3  -9  154.68   24.70
   6  -3  -9  159.18   28.00
  -6   3   9  199.68   26.40
  -6   3   9  194.08   22.50
   5  -3  -9   67.69   16.50
   5  -3  -9   62.49   20.00
  -5   3   9   56.29   12.70
  -5   3   9   42.50   10.70
  -5   3   9   56.49   14.30
   4  -3  -9  393.76   36.60
   4  -3  -9  342.27   31.40
  -4   3   9  397.26   26.30
  -4   3   9  399.66   31.50
  -4   3   9  370.16   28.70
  -4   3   9  371.66   33.30
   3  -3  -9    1.10    9.10
   3  -3  -9    5.40   10.80
  -3   3   9   -0.30    6.50
  -3   3   9   -3.70    7.80
  -3   3   9    0.50    6.30
  -3   3   9    3.10    8.90
   2  -3  -9  126.79   19.30
   2  -3  -9  114.39   16.50
   2  -3  -9  134.59   18.60
   2  -3  -9   99.59   10.60
  -2   3   9   87.79   14.10
  -2   3   9  109.19   19.00
  -2   3   9   93.19   14.80
  -2   3   9   92.29   12.90
   1  -3  -9  164.98   18.60
   1  -3  -9  168.28   13.30
   1  -3  -9  151.48   20.60
  -1   3   9  130.49   16.20
  -1   3   9  158.98   13.60
  -1   3   9  170.78   22.20
  -1   3   9  143.59   16.60
  -1   3   9  152.98   16.60
   0  -3  -9  212.78   20.30
   0  -3  -9  227.28   16.80
   0  -3  -9  221.28   20.60
   0   3   9  227.78   18.60
   0   3   9  203.48   19.30
   0   3   9  200.98   18.70
   0   3   9  245.88   18.70
   0   3   9  197.08   21.30
  -1  -3  -9  252.97   18.80
  -1  -3  -9  237.18   22.60
  -1  -3  -9  235.48   20.30
   1   3   9  250.97   23.50
   1   3   9  264.47   20.70
   1   3   9  244.28   17.80
   1   3   9  219.38   19.30
   1   3   9  242.58   20.70
  -2  -3  -9  312.37   24.50
  -2  -3  -9  327.67   23.40
  -2  -3  -9  325.67   27.00
   2   3   9  358.56   26.50
   2   3   9  362.46   21.70
   2   3   9  374.86   27.10
   2   3   9  355.46   25.00
   2   3   9  390.46   28.80
  -3  -3  -9   33.10   10.50
  -3  -3  -9   36.70   11.30
  -3  -3  -9   40.10    9.40
   3   3   9   51.49   12.30
   3   3   9   56.69   11.00
   3   3   9   68.09   13.90
   3   3   9   69.09   13.30
  -4  -3  -9  161.88   20.30
  -4  -3  -9  160.28   21.40
  -4  -3  -9  176.28   16.60
   4   3   9  170.08   18.30
   4   3   9  187.58   19.80
   4   3   9  181.98   22.50
  -5  -3  -9    6.20    9.20
  -5  -3  -9    6.70   10.70
   5   3   9    9.20    7.90
   5   3   9    7.00   10.80
  -6  -3  -9   24.00   12.50
  -6  -3  -9   21.20   12.40
   6   3   9   38.30   14.90
   6   3   9   11.20   13.00
  -7  -3  -9    8.80   11.20
  -7  -3  -9   12.90   11.50
   7   3   9   13.70   13.10
  -8  -3  -9   -5.50   10.10
  -8  -3  -9   -1.80   10.30
   8   3   9    1.30   13.90
   7  -4  -9  121.59   23.60
   7  -4  -9  127.09   27.30
  -7   4   9  172.28   20.70
  -7   4   9  136.99   23.60
   6  -4  -9   56.49   16.80
   6  -4  -9   83.09   23.00
  -6   4   9   57.59   15.70
  -6   4   9   65.69   14.10
   5  -4  -9  102.69   19.70
   5  -4  -9   97.59   21.90
  -5   4   9   90.59   18.50
  -5   4   9   90.39   14.70
   4  -4  -9   31.80   13.80
   4  -4  -9   20.70   14.40
  -4   4   9   18.20   11.60
  -4   4   9   20.60    9.10
  -4   4   9   20.10   12.50
   3  -4  -9  240.88   25.30
   3  -4  -9  242.88   19.30
   3  -4  -9  266.47   28.80
  -3   4   9  297.37   27.60
  -3   4   9  308.17   25.00
  -3   4   9  319.07   21.00
  -3   4   9  317.57   23.70
   2  -4  -9   76.99   16.00
   2  -4  -9   76.29   16.30
   2  -4  -9   53.09   12.30
   2  -4  -9   92.59   10.70
  -2   4   9   99.49   15.20
  -2   4   9   84.69   17.00
  -2   4   9   96.99   12.20
  -2   4   9   86.39   13.70
   1  -4  -9  120.59   17.90
   1  -4  -9  156.38   20.10
   1  -4  -9  121.29   12.50
   1  -4  -9  148.29   17.90
  -1   4   9  116.69   14.00
  -1   4   9   93.89   14.60
  -1   4   9   89.39   16.60
  -1   4   9  119.39   14.60
   0  -4  -9  296.57   23.50
   0  -4  -9  294.97   23.20
   0  -4  -9  293.07   19.90
   0   4   9  246.98   24.30
   0   4   9  251.27   20.20
   0   4   9  250.07   20.70
   0   4   9  274.97   22.30
   0   4   9  260.37   19.50
  -1  -4  -9   27.60    8.20
  -1  -4  -9   28.50    8.40
  -1  -4  -9   23.20    9.60
   1   4   9   31.10    9.50
   1   4   9   23.30    9.30
   1   4   9   37.90    9.40
   1   4   9   36.10    8.10
   1   4   9   32.10   10.80
  -2  -4  -9  414.76   29.90
  -2  -4  -9  385.06   26.40
  -2  -4  -9  382.86   25.20
   2   4   9  339.97   29.10
   2   4   9  378.46   27.60
   2   4   9  356.96   23.10
   2   4   9  334.97   26.30
   2   4   9  373.06   26.30
  -3  -4  -9   10.20    8.20
  -3  -4  -9    8.10    8.30
   3   4   9    9.90    7.10
   3   4   9    1.60    8.80
   3   4   9   10.40    9.30
  -4  -4  -9  366.96   29.90
  -4  -4  -9  359.86   28.50
   4   4   9  370.26   29.60
   4   4   9  337.97   26.50
   4   4   9  357.56   29.60
  -5  -4  -9   27.50   12.10
  -5  -4  -9   33.90   12.30
   5   4   9   41.60   10.80
   5   4   9   43.40   13.20
  -6  -4  -9   28.60   13.00
  -6  -4  -9    7.60   10.70
   6   4   9   16.50    9.30
   6   4   9   21.00   13.00
  -7  -4  -9   37.20   13.30
  -7  -4  -9   58.39   15.50
   7   4   9   19.20   13.30
  -8  -4  -9   -2.90   10.40
  -8  -4  -9    4.10   11.80
   8   4   9   11.40   14.50
  -9  -4  -9   57.79   17.90
  -9  -4  -9   81.79   19.50
   9   4   9   39.10   18.80
   7  -5  -9   19.20   16.10
   7  -5  -9   30.60   20.60
  -7   5   9   11.30   12.10
  -7   5   9    3.20   11.90
  -7   5   9   32.00   15.10
   6  -5  -9   73.79   19.70
   6  -5  -9   59.39   20.50
  -6   5   9   71.19   17.30
  -6   5   9   40.80   13.40
   5  -5  -9   47.40   16.20
   5  -5  -9   39.00   18.30
  -5   5   9   63.19   17.20
  -5   5   9   59.29   13.60
   4  -5  -9  330.47   33.60
   4  -5  -9  308.27   30.50
  -4   5   9  267.07   23.90
  -4   5   9  294.97   28.10
   3  -5  -9  269.87   27.50
   3  -5  -9  280.27   29.70
   3  -5  -9  280.37   22.00
  -3   5   9  327.37   30.30
  -3   5   9  321.57   26.40
  -3   5   9  356.96   25.70
   2  -5  -9  233.08   25.30
   2  -5  -9  258.57   19.60
   2  -5  -9  238.78   24.90
  -2   5   9  265.37   22.90
  -2   5   9  251.67   22.10
  -2   5   9  250.37   25.40
  -2   5   9  244.68   18.30
   1  -5  -9   96.69   14.70
   1  -5  -9   83.89   16.50
   1  -5  -9   85.19   15.10
   1  -5  -9   81.79   11.30
  -1   5   9   52.29   11.00
  -1   5   9   34.10   12.20
  -1   5   9   67.39   10.40
  -1   5   9   51.39   10.90
   0  -5  -9   76.59   13.90
   0  -5  -9   66.39   12.40
   0  -5  -9   71.89   11.00
   0   5   9   60.59   14.00
   0   5   9   81.09   11.70
   0   5   9   79.09   12.80
   0   5   9   79.69   12.60
  -1  -5  -9   20.40    8.80
  -1  -5  -9    9.80    6.60
  -1  -5  -9   23.40    7.80
  -1  -5  -9   10.10    5.20
   1   5   9   20.70   10.80
   1   5   9   17.30    8.90
   1   5   9   18.60    7.80
   1   5   9   16.80    7.10
   1   5   9   19.20    7.90
  -2  -5  -9  308.97   22.90
  -2  -5  -9  255.57   20.70
  -2  -5  -9  259.77   24.00
   2   5   9  269.77   19.80
   2   5   9  324.07   27.60
   2   5   9  302.67   23.30
   2   5   9  291.57   23.20
  -3  -5  -9  344.37   25.60
  -3  -5  -9  302.77   26.40
  -3  -5  -9  325.57   26.10
   3   5   9  340.37   29.10
   3   5   9  352.86   26.90
   3   5   9  328.27   24.80
   3   5   9  322.77   26.30
  -4  -5  -9   76.39   14.00
  -4  -5  -9   96.89   16.80
  -4  -5  -9   74.09   12.90
   4   5   9   51.49   13.40
   4   5   9   62.19   13.70
   4   5   9   66.69   12.80
  -5  -5  -9   41.80   12.70
  -5  -5  -9   76.19   16.10
   5   5   9   77.89   17.00
   5   5   9   77.29   13.10
   5   5   9   83.49   15.10
  -6  -5  -9   66.69   15.30
  -6  -5  -9   50.09   14.70
   6   5   9   81.49   14.40
   6   5   9   51.89   14.70
  -7  -5  -9   30.10   13.10
  -7  -5  -9   35.50   14.60
   7   5   9   28.00   13.40
  -8  -5  -9   38.90   14.40
  -8  -5  -9   68.19   17.90
  -8  -5  -9   47.40   16.50
   8   5   9   34.90   17.00
  -9  -5  -9   -8.40   12.50
  -9  -5  -9   -3.00   11.40
  -9  -5  -9   14.00   12.60
   9   5   9    5.10   15.50
   7  -6  -9   26.40   17.20
  -7   6   9   -8.10   13.20
  -7   6   9   14.40   15.00
   6  -6  -9    4.80   13.40
  -6   6   9    5.60    9.70
  -6   6   9   -7.80   11.40
  -6   6   9   28.40   15.10
   5  -6  -9    7.00   13.80
  -5   6   9   15.30   11.90
  -5   6   9    4.30   11.60
  -5   6   9    3.20    9.20
   4  -6  -9  321.97   32.40
  -4   6   9  359.96   30.40
  -4   6   9  348.67   27.90
   3  -6  -9   20.80    8.50
   3  -6  -9   13.00   12.70
   3  -6  -9   24.80   13.30
  -3   6   9   33.00   11.90
  -3   6   9   36.20   13.90
  -3   6   9   28.60   10.60
   2  -6  -9  179.28   23.30
   2  -6  -9  138.89   15.90
   2  -6  -9  169.68   23.90
  -2   6   9  141.59   17.30
  -2   6   9  165.18   23.20
  -2   6   9  149.69   19.80
   1  -6  -9   48.10   10.10
   1  -6  -9   46.10   14.00
  -1   6   9   51.49    9.00
  -1   6   9   60.09   14.20
  -1   6   9   50.89   11.50
  -1   6   9   49.50   10.80
   0  -6  -9  160.68   21.70
   0  -6  -9  196.18   21.80
   0  -6  -9  185.18   17.20
   0   6   9  200.08   25.70
   0   6   9  184.58   18.40
   0   6   9  192.78   18.20
  -1  -6  -9  173.98   16.00
  -1  -6  -9  188.48   20.30
  -1  -6  -9  150.38   12.80
   1   6   9  157.38   16.70
   1   6   9  124.49   19.80
   1   6   9  130.19   16.90
  -2  -6  -9    1.60    7.30
  -2  -6  -9    3.50    5.30
  -2  -6  -9   -3.80    7.70
   2   6   9    1.40    7.10
   2   6   9    6.80    6.60
   2   6   9   13.20   10.50
  -3  -6  -9  631.14   41.00
  -3  -6  -9  675.33   42.70
  -3  -6  -9  655.63   40.20
   3   6   9  633.44   37.30
   3   6   9  658.13   41.10
   3   6   9  657.83   45.50
   3   6   9  652.33   41.90
  -4  -6  -9  284.27   25.80
  -4  -6  -9  312.17   24.90
  -4  -6  -9  305.77   25.10
   4   6   9  263.17   27.50
   4   6   9  261.67   24.50
   4   6   9  267.47   24.20
  -5  -6  -9  220.28   24.90
  -5  -6  -9  231.28   23.20
  -5  -6  -9  244.38   24.20
   5   6   9  256.07   24.70
   5   6   9  245.98   23.30
   5   6   9  269.47   26.20
  -6  -6  -9   96.79   17.40
  -6  -6  -9   57.89   14.90
  -6  -6  -9   85.09   16.70
   6   6   9   81.79   18.10
   6   6   9   96.19   15.70
   6   6   9   91.89   18.00
  -7  -6  -9   30.20   12.40
  -7  -6  -9   22.90   13.80
  -7  -6  -9   14.60   10.70
   7   6   9   22.60   13.50
  -8  -6  -9   20.70   12.30
  -8  -6  -9   25.10   12.70
  -8  -6  -9   39.50   15.80
   8   6   9   23.50   14.20
  -9  -6  -9   23.90   13.50
  -9  -6  -9   46.60   15.90
  -9  -6  -9   27.20   13.60
   9   6   9   46.60   18.20
   6  -7  -9   23.70   18.00
  -6   7   9   12.20   13.00
  -6   7   9    8.10   15.00
   5  -7  -9    8.80   15.50
  -5   7   9   20.60   13.70
  -5   7   9    7.70   12.10
  -5   7   9    9.70   10.40
   4  -7  -9  107.89   21.30
  -4   7   9  109.09   16.70
  -4   7   9   89.79   18.10
  -4   7   9  131.99   21.20
   3  -7  -9   96.59   19.60
  -3   7   9   95.29   18.10
  -3   7   9   90.59   14.30
  -3   7   9   97.09   17.90
   2  -7  -9  107.79   15.00
   2  -7  -9  109.39   19.70
  -2   7   9   77.59   17.30
  -2   7   9   93.29   16.80
  -2   7   9   78.69   15.00
  -2   7   9   86.29   14.30
   1  -7  -9  245.58   26.30
   1  -7  -9  252.27   21.50
  -1   7   9  235.38   23.30
  -1   7   9  237.58   26.60
  -1   7   9  227.68   23.10
   0  -7  -9   65.89   11.50
   0  -7  -9   76.29   15.60
   0   7   9   49.80   13.90
   0   7   9   64.49   13.10
   0   7   9   62.59   13.10
  -1  -7  -9   60.99   12.30
  -1  -7  -9   68.89   12.60
   1   7   9   51.29   12.20
   1   7   9   50.49   14.60
   1   7   9   45.10   10.90
  -2  -7  -9  181.78   19.70
  -2  -7  -9  163.88   19.20
  -2  -7  -9  182.98   16.00
   2   7   9  139.99   21.30
   2   7   9  145.59   18.80
   2   7   9  172.18   18.10
  -3  -7  -9   63.89   11.90
  -3  -7  -9   47.50   13.00
  -3  -7  -9   90.29   15.70
   3   7   9   93.89   15.30
   3   7   9  113.19   19.20
   3   7   9  100.09   12.80
  -4  -7  -9  476.05   35.20
  -4  -7  -9  510.05   35.00
  -4  -7  -9  469.45   33.70
   4   7   9  458.85   34.80
   4   7   9  534.75   40.60
  -5  -7  -9   11.10    9.20
  -5  -7  -9   20.80   11.20
  -5  -7  -9   30.40   13.00
   5   7   9   28.00   13.60
   5   7   9   37.20   12.40
   5   7   9   30.90   13.20
  -6  -7  -9  129.89   19.60
  -6  -7  -9  128.59   19.50
  -6  -7  -9  168.68   22.10
   6   7   9  157.28   22.70
   6   7   9  119.09   21.20
  -7  -7  -9    9.80   11.10
  -7  -7  -9   21.90   11.30
  -7  -7  -9    0.30    9.60
   7   7   9    2.20   11.80
   7   7   9   26.10   14.50
  -8  -7  -9    4.70   10.60
  -8  -7  -9   19.30   11.70
  -8  -7  -9   -2.70   10.40
   8   7   9   -4.00   11.50
  -9  -7  -9   29.30   15.00
  -9  -7  -9   23.20   14.60
   9   7   9   46.00   16.90
   5  -8  -9   44.30   19.90
  -5   8   9   41.70   16.40
  -5   8   9   49.99   16.90
   4  -8  -9    5.30   13.90
  -4   8   9   17.80   12.60
  -4   8   9    0.20    8.60
  -4   8   9   -5.80   11.30
   3  -8  -9  391.26   34.60
  -3   8   9  369.66   28.70
  -3   8   9  321.77   30.60
  -3   8   9  334.77   32.00
   2  -8  -9   54.49   16.80
   2  -8  -9   83.19   14.20
  -2   8   9   39.00   13.50
  -2   8   9   42.10   12.90
  -2   8   9   40.40   11.10
   1  -8  -9  270.57   27.70
   1  -8  -9  249.48   21.80
  -1   8   9  233.68   26.80
  -1   8   9  243.68   23.20
  -1   8   9  247.88   23.70
  -1   8   9  275.27   27.70
   0  -8  -9   13.60   12.00
   0  -8  -9   32.50   10.50
   0   8   9   38.70   11.10
   0   8   9   26.60   10.30
   0   8   9   36.50   13.40
   0   8   9   32.10   10.10
  -1  -8  -9   21.50   10.20
  -1  -8  -9   24.00   12.90
   1   8   9   25.10    9.80
   1   8   9   22.50   10.00
   1   8   9   20.20   11.60
   1   8   9   28.90    8.40
  -2  -8  -9  150.08   18.60
  -2  -8  -9  129.69   14.00
  -2  -8  -9  109.29   16.60
   2   8   9  100.49   15.30
   2   8   9  132.89   17.80
   2   8   9  115.79   21.40
  -3  -8  -9   69.29   12.30
  -3  -8  -9   71.59   13.90
  -3  -8  -9   78.09   14.10
   3   8   9   81.69   14.40
   3   8   9   88.09   18.40
   3   8   9   85.59   13.40
  -4  -8  -9  279.47   26.40
  -4  -8  -9  275.37   24.60
  -4  -8  -9  295.67   25.10
   4   8   9  284.57   25.90
   4   8   9  279.17   28.80
   4   8   9  265.27   22.10
  -5  -8  -9  147.39   20.10
  -5  -8  -9  128.49   18.60
  -5  -8  -9  159.18   21.60
   5   8   9  148.99   20.40
   5   8   9  163.78   24.60
  -6  -8  -9   62.89   14.50
  -6  -8  -9   59.39   15.70
  -6  -8  -9   56.69   15.40
   6   8   9   73.29   18.40
  -7  -8  -9   24.70   12.50
  -7  -8  -9    0.00   11.00
  -7  -8  -9    9.60   10.60
   7   8   9   22.70   14.80
  -8  -8  -9   29.80   14.60
  -8  -8  -9   25.90   13.30
   8   8   9   33.40   16.40
  -9  -8  -9   19.40   15.30
  -9  -8  -9    8.10   14.10
   5  -9  -9   10.60   16.40
  -5   9   9    9.60   14.60
  -5   9   9   -7.00   12.00
   4  -9  -9   20.70   14.90
  -4   9   9   -0.90   12.50
  -4   9   9   11.60   13.10
   3  -9  -9  173.08   27.80
  -3   9   9  176.08   20.80
  -3   9   9  167.38   24.80
  -3   9   9  145.29   22.30
   2  -9  -9  350.16   31.90
   2  -9  -9  289.07   26.40
  -2   9   9  298.67   25.50
  -2   9   9  271.47   27.60
  -2   9   9  245.38   28.00
   1  -9  -9   50.19   12.60
   1  -9  -9   33.40   13.70
  -1   9   9   36.60   11.60
  -1   9   9   41.50   12.80
  -1   9   9   60.79   14.50
   0  -9  -9  600.54   42.20
   0  -9  -9  594.54   46.50
   0   9   9  648.04   44.00
   0   9   9  675.13   41.90
   0   9   9  697.33   42.90
  -1  -9  -9   39.40   11.50
  -1  -9  -9   23.80   11.90
   1   9   9   29.70   11.70
   1   9   9   40.20   12.60
  -2  -9  -9  157.78   17.90
  -2  -9  -9  161.48   24.20
  -2  -9  -9  158.78   19.70
   2   9   9  160.18   19.60
   2   9   9  150.78   19.10
  -3  -9  -9   19.70   10.20
  -3  -9  -9   25.20   10.50
  -3  -9  -9   21.30    9.10
   3   9   9    2.00    8.30
   3   9   9   17.80   11.00
  -4  -9  -9   17.20   10.30
  -4  -9  -9    7.30    9.10
  -4  -9  -9    6.20    8.10
   4   9   9   37.10   11.10
   4   9   9   46.90   13.60
  -5  -9  -9  376.46   28.80
  -5  -9  -9  352.16   30.90
  -5  -9  -9  359.26   30.50
   5   9   9  348.47   30.90
   5   9   9  324.57   34.00
  -6  -9  -9   16.30   10.80
  -6  -9  -9   20.60   13.10
  -6  -9  -9   12.80    9.80
   6   9   9   10.20   13.70
  -7  -9  -9   14.20   12.10
  -7  -9  -9   17.80   12.80
   7   9   9   43.10   18.00
  -8  -9  -9    8.40   14.10
  -8  -9  -9   -2.30   10.60
   8   9   9   -3.60   13.80
   4 -10  -9   12.40   16.70
  -4  10   9    4.20   13.30
  -4  10   9   17.50   16.10
   3 -10  -9   -8.10   13.20
  -3  10   9  -10.10   11.70
  -3  10   9    0.10   11.80
   2 -10  -9  121.49   23.40
   2 -10  -9  123.79   19.00
  -2  10   9  125.19   17.90
  -2  10   9  103.09   20.10
  -2  10   9   96.89   19.40
   1 -10  -9  106.69   21.60
   1 -10  -9   87.49   16.70
  -1  10   9   84.99   17.80
  -1  10   9   79.19   16.80
  -1  10   9  116.19   17.50
   0 -10  -9  133.79   22.40
   0 -10  -9  130.59   18.60
   0  10   9  132.19   18.40
   0  10   9  126.79   18.60
   0  10   9  124.99   20.30
  -1 -10  -9   33.50   14.80
  -1 -10  -9   14.90   11.00
   1  10   9   10.00    9.80
   1  10   9   -0.60    8.50
  -2 -10  -9   -1.00   11.20
  -2 -10  -9   25.20   11.70
   2  10   9   38.70   12.70
   2  10   9    4.10   10.70
  -3 -10  -9   85.79   16.80
  -3 -10  -9   81.79   13.60
   3  10   9   68.29   15.30
   3  10   9   94.59   16.40
  -4 -10  -9   49.60   12.90
  -4 -10  -9   50.79   13.80
  -4 -10  -9   70.69   13.90
   4  10   9   61.49   13.60
   4  10   9   79.59   16.20
   4  10   9   48.80   19.10
  -5 -10  -9   96.19   17.20
  -5 -10  -9   98.19   18.20
   5  10   9  124.59   17.60
   5  10   9  130.59   25.00
  -6 -10  -9   62.29   16.50
  -6 -10  -9   56.29   15.10
   6  10   9   50.79   19.70
  -7 -10  -9   14.70   12.80
  -7 -10  -9    4.30   12.90
   7  10   9    8.90   13.90
  -8 -10  -9    9.10   12.90
  -8 -10  -9    0.70   11.10
   8  10   9   -8.70   14.90
   3 -11  -9   -2.60   15.30
  -3  11   9   -3.30   14.10
  -3  11   9    7.50   13.70
   2 -11  -9   12.10   14.40
  -2  11   9    6.70   11.40
  -2  11   9   20.30   14.00
   1 -11  -9  171.88   23.50
   1 -11  -9  188.78   28.40
  -1  11   9  187.68   24.60
  -1  11   9  188.98   22.70
  -1  11   9  212.08   27.70
   0 -11  -9   27.30   11.80
   0 -11  -9   21.40   12.70
   0  11   9   19.50   13.40
   0  11   9   20.70   12.10
  -1 -11  -9   61.19   15.90
  -1 -11  -9   47.30   14.20
   1  11   9   65.09   15.90
   1  11   9   80.39   16.00
  -2 -11  -9   23.00   11.20
  -2 -11  -9    1.40   11.10
   2  11   9   21.20   12.90
   2  11   9   35.30   13.30
  -3 -11  -9   15.60   10.40
  -3 -11  -9   18.90   12.40
  -3 -11  -9    7.60   11.20
   3  11   9   -2.70   10.80
   3  11   9   16.10   11.90
  -4 -11  -9  143.29   21.30
  -4 -11  -9  134.69   19.20
   4  11   9  128.29   21.00
   4  11   9  159.08   29.20
   4  11   9  150.48   21.40
  -5 -11  -9   12.40   11.90
  -5 -11  -9    1.10   10.10
   5  11   9   -3.70   13.70
   5  11   9   22.60   11.50
  -6 -11  -9   65.09   16.30
  -6 -11  -9   88.39   19.50
   6  11   9   69.39   22.00
  -7 -11  -9    3.10   13.10
  -7 -11  -9    1.00   12.90
   7  11   9   10.10   17.70
   1 -12  -9   76.39   21.40
   1 -12  -9   36.80   14.20
  -1  12   9   58.69   18.60
   0 -12  -9   44.90   15.30
   0 -12  -9   56.99   19.30
   0  12   9   48.80   15.70
   0  12   9   64.89   15.10
  -1 -12  -9   28.20   13.00
  -1 -12  -9   35.60   15.40
   1  12   9   36.90   15.10
   1  12   9   24.50   12.00
  -2 -12  -9   74.59   17.30
  -2 -12  -9   93.29   20.50
   2  12   9   81.59   18.00
   2  12   9  146.09   21.40
  -3 -12  -9    5.10   10.40
  -3 -12  -9   -2.50   11.20
   3  12   9   25.10   13.70
   3  12   9   14.70   12.00
  -4 -12  -9   25.80   14.20
  -4 -12  -9   50.59   16.20
  -4 -12  -9   30.60   13.20
   4  12   9   52.99   20.80
   4  12   9   49.60   15.20
  -5 -12  -9  110.29   19.40
  -5 -12  -9  123.49   32.30
  -5 -12  -9   98.89   20.50
   5  12   9  123.69   28.60
   5  12   9  119.59   20.90
  -6 -12  -9   20.30   14.30
  -6 -12  -9   15.40   13.40
   6  12   9   27.80   19.10
  -2 -13  -9   86.39   18.60
  -2 -13  -9   66.39   19.50
   2  13   9  105.59   22.00
  -3 -13  -9    0.90   12.90
   3  13   9    9.00   13.50
   3  13   9   -4.40   16.20
  -4 -13  -9   35.70   14.90
   4  13   9   31.90   15.40
   4  13   9   24.90   20.30
  -5  -4  10   30.40   14.00
   4   4 -10   15.40   16.00
  -4  -4  10   29.60   15.00
  -4  -4  10   41.20   13.20
   3   4 -10   36.80   18.20
  -3  -4  10   47.50   13.80
  -3  -4  10   58.09   16.50
   2   4 -10  129.29   23.80
   2   4 -10  109.09   23.70
  -2  -4  10  116.09   20.40
   1   4 -10    5.50   13.00
   1   4 -10   10.60   15.70
  -1  -4  10    0.70    9.80
  -1  -4  10    3.10   11.80
   0   4 -10   55.49   19.30
   0   4 -10   61.59   17.30
   0  -4  10   41.90   13.60
   0  -4  10   41.50   16.00
  -1   4 -10    9.10   14.20
  -1   4 -10   53.19   18.70
  -1   4 -10   30.90   13.90
   1  -4  10   33.70   14.20
   1  -4  10   25.50   14.70
   6   3 -10   59.39   22.80
  -6  -3  10   38.30   16.00
  -6  -3  10   42.70   14.00
   5   3 -10   48.30   22.60
  -5  -3  10   83.19   17.40
  -5  -3  10   86.99   20.00
   4   3 -10   18.70   15.60
  -4  -3  10   35.60   13.40
  -4  -3  10   38.50   13.10
   3   3 -10   78.69   22.30
  -3  -3  10   80.89   18.10
  -3  -3  10   88.39   16.00
   2   3 -10   68.59   19.00
   2   3 -10   60.79   18.40
  -2  -3  10   83.69   17.20
  -2  -3  10   67.09   14.00
   1   3 -10   96.29   19.90
   1   3 -10   78.09   16.50
   1   3 -10  100.59   21.70
  -1  -3  10   95.89   19.10
  -1  -3  10   84.69   15.40
   0   3 -10   10.00   12.10
   0   3 -10    9.90   12.80
   0   3 -10    3.60   10.50
   0  -3  10    2.10    9.60
   0  -3  10    8.30   11.90
  -1   3 -10   22.30   13.90
  -1   3 -10   16.80   14.30
  -1   3 -10   26.00   13.50
   1  -3  10   22.80   14.20
   1  -3  10   38.60   13.50
  -2   3 -10   42.50   16.50
  -2   3 -10   30.60   15.80
  -2   3 -10   56.59   17.50
   2  -3  10   51.59   16.40
   2  -3  10   50.49   15.10
  -3   3 -10   36.00   14.60
  -3   3 -10   41.90   15.80
   3  -3  10   21.70   14.60
   3  -3  10   30.40   14.40
   6   2 -10   52.79   19.80
  -6  -2  10   39.70   14.10
  -6  -2  10   38.40   12.90
   5   2 -10   96.99   25.80
  -5  -2  10   61.49   15.00
  -5  -2  10   81.59   17.10
   4   2 -10   11.10   13.90
  -4  -2  10   24.70   13.60
  -4  -2  10    6.30    9.70
   3   2 -10   70.99   20.50
  -3  -2  10   92.79   16.30
  -3  -2  10   78.19   16.20
   2   2 -10  155.98   26.40
   2   2 -10  150.08   19.40
  -2  -2  10  124.39   20.50
  -2  -2  10   95.69   18.50
  -2  -2  10  154.28   19.30
   1   2 -10  369.86   30.50
   1   2 -10  347.27   32.10
   1   2 -10  347.07   34.20
  -1  -2  10  357.36   31.00
  -1  -2  10  341.57   27.50
  -1  -2  10  339.67   26.80
   0   2 -10  106.19   21.80
   0   2 -10  100.59   18.10
   0   2 -10  118.39   20.30
   0  -2  10   96.99   16.40
   0  -2  10  112.09   22.80
   0  -2  10  134.99   20.40
  -1   2 -10   51.39   16.00
  -1   2 -10   58.09   17.30
  -1   2 -10   60.29   15.70
   1  -2  10   61.49   15.80
   1  -2  10   45.10   12.30
  -2   2 -10   36.50   14.50
  -2   2 -10   27.80   14.30
  -2   2 -10   42.90   15.70
   2  -2  10   48.70   13.90
   2  -2  10   40.70   13.30
  -3   2 -10    2.50   11.30
  -3   2 -10    5.80   12.40
   3  -2  10    3.80   11.40
   3  -2  10   22.90   12.40
  -4   2 -10   10.70   12.60
  -4   2 -10    6.40   12.50
   4  -2  10   -0.90   13.40
   4  -2  10   17.40   12.80
   7   1 -10   13.60   18.20
  -7  -1  10   -4.40   10.10
  -7  -1  10    9.20   14.80
  -7  -1  10   -5.30   11.10
   6   1 -10   11.00   15.90
  -6  -1  10   -0.40   10.40
  -6  -1  10    7.60   11.70
   5   1 -10  175.08   29.10
  -5  -1  10  171.18   21.90
  -5  -1  10  193.58   24.10
   4   1 -10   73.29   22.00
   4   1 -10   78.89   14.90
  -4  -1  10   56.39   13.60
  -4  -1  10   56.69   13.70
   3   1 -10   56.69   18.20
   3   1 -10   55.89   12.90
  -3  -1  10   41.30   13.50
  -3  -1  10   20.00   11.20
   2   1 -10  183.38   26.60
   2   1 -10  192.18   21.70
  -2  -1  10  228.88   24.70
  -2  -1  10  189.18   21.30
  -2  -1  10  172.58   23.30
   1   1 -10   83.79   15.60
   1   1 -10   61.99   17.00
  -1  -1  10   84.89   16.30
  -1  -1  10   61.49   12.10
  -1  -1  10   86.79   14.00
  -1  -1  10   68.09   14.30
   0   1 -10   86.29   16.30
   0   1 -10  103.89   18.00
   0   1 -10   94.89   19.10
   0  -1  10   87.39   13.60
   0  -1  10   83.09   16.20
   0  -1  10   80.79   14.00
  -1   1 -10   36.10   13.30
  -1   1 -10   43.00   13.40
  -1   1 -10   44.70   15.10
   1  -1  10   39.60   12.60
   1  -1  10   30.90    9.80
   1  -1  10   24.60   10.20
  -2   1 -10   46.70   14.20
  -2   1 -10   31.30   13.30
  -2   1 -10   25.80   13.00
   2  -1  10   37.70   14.00
   2  -1  10   41.40   12.80
  -3   1 -10   24.70   14.80
  -3   1 -10   25.80   12.20
   3  -1  10   19.60   12.00
   3  -1  10   37.70   14.00
  -4   1 -10   53.89   16.00
  -4   1 -10   54.59   14.40
  -4   1 -10   53.89   17.20
   4  -1  10   57.09   16.80
   4  -1  10   59.79   17.70
  -5   1 -10  275.17   29.30
  -5   1 -10  249.38   32.10
  -5   1 -10  212.18   26.80
   5  -1  10  259.67   33.00
   5  -1  10  207.48   27.90
   7   0 -10   71.59   22.70
  -7   0  10   66.29   16.80
  -7   0  10   91.59   17.80
  -7   0  10   49.90   16.40
   6   0 -10   82.09   24.10
  -6   0  10   95.29   17.90
  -6   0  10   89.99   17.00
  -6   0  10  113.99   21.90
   5   0 -10  137.59   27.50
  -5   0  10  162.98   24.20
  -5   0  10  151.88   19.90
  -5   0  10  125.79   19.10
   4   0 -10   45.00   17.90
  -4   0  10   65.19   14.40
  -4   0  10   57.79   12.90
   3   0 -10  110.39   25.30
   3   0 -10  102.59   16.30
   3   0 -10  122.19   23.50
  -3   0  10  123.19   18.10
  -3   0  10  182.58   38.10
  -3   0  10  137.49   19.40
   2   0 -10   75.29   15.00
   2   0 -10   50.49   12.90
   2   0 -10   51.59   16.90
  -2   0  10   66.39   15.60
  -2   0  10   73.89   14.90
  -2   0  10   72.99   12.90
   1   0 -10  138.09   22.70
   1   0 -10  112.19   17.00
  -1   0  10   97.59   17.50
  -1   0  10   95.09   15.30
  -1   0  10  128.69   18.20
  -1   0  10  140.49   16.10
   0   0 -10  221.88   27.10
   0   0 -10  191.08   22.90
   0   0 -10  146.79   20.40
   0   0  10  126.29   18.60
   0   0  10  172.78   18.90
   0   0  10  170.68   19.00
   0   0  10  161.58   21.30
  -1   0 -10   50.09   13.60
  -1   0 -10   61.29   15.20
  -1   0 -10   50.29   13.80
   1   0  10   26.90   11.50
   1   0  10   35.50   10.20
   1   0  10   40.50   11.30
  -2   0 -10   55.59   14.00
  -2   0 -10   59.99   14.70
  -2   0 -10   44.40   14.70
   2   0  10   67.69   11.70
   2   0  10   68.49   14.80
   2   0  10   79.19   15.20
  -3   0 -10   -8.40    7.40
  -3   0 -10   -7.20    9.40
  -3   0 -10    0.10    9.00
   3   0  10   18.00   11.40
   3   0  10    7.80   10.20
  -4   0 -10  198.78   22.90
  -4   0 -10  222.88   28.40
  -4   0 -10  177.58   21.90
   4   0  10  178.88   25.40
   4   0  10  164.88   23.90
  -5   0 -10   19.20   13.60
  -5   0 -10   44.20   13.50
  -5   0 -10   25.40   13.20
   5   0  10   29.30   14.50
   5   0  10   22.70   16.00
  -6   0 -10   57.19   18.00
  -6   0 -10   39.30   14.70
   6   0  10   28.40   15.40
   7  -1 -10   91.89   25.20
  -7   1  10   60.19   15.20
  -7   1  10   45.50   16.50
   6  -1 -10   53.69   21.00
  -6   1  10   21.50   13.30
  -6   1  10   35.90   12.30
  -6   1  10   34.90   12.40
   5  -1 -10   40.20   19.40
   5  -1 -10   35.10   13.50
  -5   1  10   22.10   10.30
  -5   1  10   27.60   12.00
  -5   1  10   17.80   12.90
   4  -1 -10   45.40   13.20
   4  -1 -10   66.39   18.50
  -4   1  10   36.40   12.40
  -4   1  10   51.99   12.90
  -4   1  10   54.09   12.70
   3  -1 -10   64.29   13.60
   3  -1 -10   74.39   15.40
   3  -1 -10   71.89   19.00
  -3   1  10   73.69   14.10
  -3   1  10   65.89   15.80
  -3   1  10   92.49   15.60
  -3   1  10   75.89   14.70
   2  -1 -10  115.09   16.80
   2  -1 -10  126.49   18.70
   2  -1 -10  114.59   20.70
  -2   1  10  104.89   16.40
  -2   1  10  114.49   15.70
  -2   1  10  109.29   15.70
  -2   1  10  101.59   18.70
   1  -1 -10  411.56   29.50
   1  -1 -10  342.47   31.00
  -1   1  10  308.27   29.30
  -1   1  10  314.77   24.10
  -1   1  10  325.67   26.30
  -1   1  10  323.87   25.30
  -1   1  10  339.17   25.60
   0  -1 -10  284.07   26.60
   0  -1 -10  255.17   24.50
   0   1  10  259.67   25.60
   0   1  10  274.37   22.60
   0   1  10  284.27   23.90
   0   1  10  257.67   21.80
   0   1  10  264.87   20.60
  -1  -1 -10   62.89   15.00
  -1  -1 -10   50.89   12.60
  -1  -1 -10   83.99   15.60
   1   1  10   37.10   10.90
   1   1  10   38.50   11.80
   1   1  10   43.50   10.70
   1   1  10   53.09   12.90
  -2  -1 -10   86.59   15.70
  -2  -1 -10   92.09   14.20
  -2  -1 -10  116.49   16.80
  -2  -1 -10  102.99   18.40
   2   1  10   80.59   14.90
   2   1  10   79.19   13.10
   2   1  10   72.39   15.00
  -3  -1 -10   -0.90    7.20
  -3  -1 -10   -5.00   10.30
  -3  -1 -10    1.60    8.10
   3   1  10   -1.00    7.60
   3   1  10    2.40   10.30
   3   1  10    5.80    7.60
  -4  -1 -10  116.39   17.40
  -4  -1 -10  122.99   18.00
  -4  -1 -10  112.19   20.80
   4   1  10   95.79   18.00
   4   1  10  121.69   20.50
  -5  -1 -10   33.10   13.20
  -5  -1 -10   30.20   17.20
  -5  -1 -10   39.70   14.90
   5   1  10   37.40   14.40
  -6  -1 -10   14.00   11.50
  -6  -1 -10    5.10   11.80
   6   1  10   12.60   14.40
  -7  -1 -10   -8.40   10.20
  -7  -1 -10  -13.10   11.90
   7   1  10  -14.00   11.80
   7  -2 -10    6.80   16.10
   7  -2 -10    7.00   12.90
  -7   2  10   12.50   11.50
  -7   2  10    7.20   14.10
   6  -2 -10   35.40   19.70
   6  -2 -10   41.90   15.00
  -6   2  10   35.10   12.40
  -6   2  10   28.60   14.20
   5  -2 -10  157.08   22.90
   5  -2 -10  166.58   29.40
  -5   2  10  178.88   22.10
  -5   2  10  133.09   18.00
  -5   2  10  169.48   23.20
   4  -2 -10  150.58   27.00
   4  -2 -10  127.59   20.20
  -4   2  10  166.98   19.00
  -4   2  10  142.29   20.50
  -4   2  10  128.09   17.60
   3  -2 -10   33.00   12.40
   3  -2 -10   62.59   14.00
   3  -2 -10   56.19   18.00
  -3   2  10   59.39   14.90
  -3   2  10   73.29   14.30
  -3   2  10   56.89   13.40
  -3   2  10   54.39   11.80
   2  -2 -10  226.78   21.30
   2  -2 -10  262.97   26.80
   2  -2 -10  223.88   23.90
  -2   2  10  194.98   19.90
  -2   2  10  165.98   20.60
  -2   2  10  205.98   21.80
  -2   2  10  215.08   26.80
   1  -2 -10  562.14   37.70
   1  -2 -10  610.54   40.90
  -1   2  10  542.55   36.10
  -1   2  10  544.85   33.90
  -1   2  10  485.65   34.70
  -1   2  10  538.05   39.40
  -1   2  10  521.35   35.20
   0  -2 -10  193.08   22.00
   0  -2 -10  197.88   21.20
   0   2  10  174.68   17.00
   0   2  10  190.48   21.90
   0   2  10  155.28   18.20
   0   2  10  164.48   18.00
   0   2  10  207.38   21.90
  -1  -2 -10  177.78   22.60
  -1  -2 -10  148.39   16.40
  -1  -2 -10  178.18   21.40
   1   2  10  191.48   18.50
   1   2  10  179.58   22.20
   1   2  10  181.38   20.90
   1   2  10  185.88   19.50
  -2  -2 -10  520.25   39.40
  -2  -2 -10  538.45   35.90
  -2  -2 -10  574.74   38.60
   2   2  10  563.74   38.40
   2   2  10  598.54   40.20
   2   2  10  577.24   36.30
   2   2  10  603.84   38.80
  -3  -2 -10   19.60   10.00
  -3  -2 -10   20.20   11.80
  -3  -2 -10   22.90    9.30
   3   2  10   20.70    8.80
   3   2  10    5.10   10.70
   3   2  10    7.70   10.20
  -4  -2 -10   61.29   13.30
  -4  -2 -10   48.50   14.80
  -4  -2 -10   70.09   12.90
   4   2  10   51.49   11.50
   4   2  10   56.09   15.50
   4   2  10   61.59   14.70
  -5  -2 -10  221.88   25.20
  -5  -2 -10  174.68   24.40
   5   2  10  183.18   25.10
  -6  -2 -10   49.30   16.40
  -6  -2 -10   64.19   15.60
   6   2  10   24.80   14.90
  -7  -2 -10   48.80   15.90
  -7  -2 -10   40.70   14.60
   7   2  10   20.90   16.20
   7  -3 -10   56.59   21.00
   7  -3 -10   78.69   20.10
  -7   3  10   50.49   15.80
  -7   3  10   42.80   17.60
   6  -3 -10  160.48   29.90
   6  -3 -10  178.08   26.40
  -6   3  10  157.28   21.90
  -6   3  10  140.29   24.40
   5  -3 -10  254.57   30.30
   5  -3 -10  264.97   35.90
  -5   3  10  234.38   28.30
  -5   3  10  256.37   26.30
   4  -3 -10   28.80   14.80
   4  -3 -10   36.40   13.80
  -4   3  10   16.60   10.30
  -4   3  10   31.80    9.70
  -4   3  10   17.50   10.50
   3  -3 -10   18.10   14.10
   3  -3 -10   16.00   12.30
  -3   3  10   18.30    8.50
  -3   3  10   11.40   10.70
  -3   3  10   15.30    9.50
  -3   3  10    9.40   10.30
   2  -3 -10  206.68   24.90
   2  -3 -10  180.08   21.80
   2  -3 -10  224.78   27.80
  -2   3  10  258.77   22.20
  -2   3  10  212.18   21.00
  -2   3  10  234.98   20.00
  -2   3  10  215.48   25.00
   1  -3 -10  235.08   22.90
   1  -3 -10  235.48   24.80
  -1   3  10  238.98   20.60
  -1   3  10  221.78   25.20
  -1   3  10  202.18   21.60
  -1   3  10  226.58   20.20
   0  -3 -10  173.18   21.40
   0  -3 -10  181.48   15.30
   0  -3 -10  176.98   20.70
   0   3  10  183.48   17.60
   0   3  10  160.58   22.70
   0   3  10  165.78   19.00
   0   3  10  176.08   17.30
   0   3  10  155.48   18.10
  -1  -3 -10  163.48   18.10
  -1  -3 -10  180.18   21.80
  -1  -3 -10  176.98   16.70
   1   3  10  192.48   20.30
   1   3  10  177.68   22.30
   1   3  10  163.88   19.30
   1   3  10  177.98   15.30
   1   3  10  146.49   17.90
  -2  -3 -10  225.68   19.20
  -2  -3 -10  231.28   22.30
   2   3  10  178.88   21.10
   2   3  10  170.38   22.00
   2   3  10  194.68   21.60
   2   3  10  176.08   19.70
  -3  -3 -10   45.40   11.40
  -3  -3 -10   57.59   14.70
   3   3  10   58.49   12.50
   3   3  10   60.99   14.00
   3   3  10   60.79   13.30
   3   3  10   41.00   12.20
  -4  -3 -10  125.39   18.10
  -4  -3 -10  109.89   18.90
  -4  -3 -10  116.59   16.90
   4   3  10   80.19   13.70
   4   3  10  100.59   17.90
  -5  -3 -10   64.19   15.70
  -5  -3 -10   69.89   16.30
   5   3  10   50.69   15.60
   5   3  10   90.29   14.00
  -6  -3 -10   28.80   12.90
  -6  -3 -10   36.40   14.50
   6   3  10   23.20   13.90
  -7  -3 -10   43.40   16.30
  -7  -3 -10   22.00   14.00
   7   3  10   28.10   16.60
  -8  -3 -10    5.70   14.40
  -8  -3 -10   11.40   14.10
   8   3  10    4.00   14.00
   7  -4 -10   32.00   17.30
   7  -4 -10   55.69   22.40
  -7   4  10   45.90   16.80
  -7   4  10   61.49   15.50
   6  -4 -10  146.59   26.00
   6  -4 -10  116.19   26.40
  -6   4  10  153.88   24.40
  -6   4  10  158.58   21.40
   5  -4 -10   25.60   17.50
   5  -4 -10   49.00   16.40
  -5   4  10   17.60   13.90
  -5   4  10   23.90   10.80
   4  -4 -10  161.48   23.80
   4  -4 -10  174.08   27.10
  -4   4  10  184.68   21.50
  -4   4  10  104.49   18.80
   3  -4 -10   27.90   12.50
   3  -4 -10    6.10   11.20
  -3   4  10   12.90   10.50
  -3   4  10    6.70    8.70
  -3   4  10    5.10    6.80
  -3   4  10    9.60   16.30
   2  -4 -10   72.59   15.40
   2  -4 -10   70.89   17.00
   2  -4 -10   82.99   17.50
   2  -4 -10   86.89   15.20
  -2   4  10   58.09   15.00
  -2   4  10  100.49   15.00
  -2   4  10   99.89   16.00
  -2   4  10   84.99   12.50
   1  -4 -10  487.85   36.50
   1  -4 -10  524.75   36.40
   1  -4 -10  522.85   30.50
   1  -4 -10  527.25   38.80
  -1   4  10  469.15   37.70
  -1   4  10  473.95   33.40
  -1   4  10  504.15   33.50
  -1   4  10  477.05   32.60
   0  -4 -10  162.78   20.40
   0  -4 -10  193.48   21.60
   0  -4 -10  170.68   15.50
   0   4  10  163.48   16.10
   0   4  10  135.89   17.20
   0   4  10  151.98   15.30
   0   4  10  159.58   18.00
   0   4  10  135.19   20.20
  -1  -4 -10  159.18   20.80
  -1  -4 -10  192.58   18.00
  -1  -4 -10  192.78   18.80
   1   4  10  220.68   17.80
   1   4  10  237.18   19.80
   1   4  10  215.28   19.40
   1   4  10  201.78   23.30
   1   4  10  231.28   19.80
  -2  -4 -10    0.90    8.00
  -2  -4 -10    5.00    7.40
   2   4  10   10.30    8.70
   2   4  10   13.00    9.00
   2   4  10    9.40    9.10
   2   4  10   -5.60    8.20
  -3  -4 -10   64.09   14.30
  -3  -4 -10   61.19   13.30
   3   4  10   70.89   14.80
   3   4  10   75.69   13.40
   3   4  10   61.09   13.40
   3   4  10   76.89   14.70
  -4  -4 -10  190.58   22.90
  -4  -4 -10  154.78   19.50
   4   4  10  120.99   17.30
   4   4  10  128.19   19.90
   4   4  10  155.78   20.60
  -5  -4 -10  -11.80    9.20
  -5  -4 -10    2.30    9.70
   5   4  10    5.60    8.80
   5   4  10   -9.00   10.00
  -6  -4 -10   80.69   16.70
  -6  -4 -10   53.89   16.60
   6   4  10   96.69   15.40
   6   4  10   94.99   19.80
  -7  -4 -10   31.70   15.00
  -7  -4 -10   57.19   16.70
   7   4  10   23.80   13.90
  -8  -4 -10   15.40   13.20
  -8  -4 -10   44.70   16.40
   8   4  10   32.00   18.00
   7  -5 -10    0.60   15.40
   7  -5 -10   19.50   15.00
  -7   5  10   -1.60   14.40
  -7   5  10   -4.90   10.70
   6  -5 -10   23.50   18.70
   6  -5 -10   30.90   16.60
  -6   5  10   37.80   12.10
  -6   5  10   21.00   14.50
   5  -5 -10  100.29   25.20
   5  -5 -10   39.50   16.60
  -5   5  10   98.39   15.90
  -5   5  10   78.49   17.70
   4  -5 -10  198.48   26.20
   4  -5 -10  259.77   33.20
  -4   5  10  181.08   23.90
  -4   5  10  211.68   23.70
   3  -5 -10   19.60    8.30
   3  -5 -10   20.50   12.40
   3  -5 -10   19.80   13.50
  -3   5  10   10.00    9.50
  -3   5  10    8.40    9.50
   2  -5 -10  113.99   19.30
   2  -5 -10  105.39   13.00
   2  -5 -10  156.38   22.80
  -2   5  10   85.79   14.60
  -2   5  10   95.89   15.90
  -2   5  10  114.79   19.20
  -2   5  10   90.09   12.50
   1  -5 -10  160.08   22.10
   1  -5 -10  163.68   15.40
   1  -5 -10  144.29   20.90
   1  -5 -10  141.39   19.30
  -1   5  10  175.18   16.50
  -1   5  10  160.68   18.50
  -1   5  10  171.38   19.30
  -1   5  10  157.18   23.20
   0  -5 -10  165.28   18.70
   0  -5 -10  163.98   21.10
   0  -5 -10  185.68   17.30
   0   5  10  185.78   15.90
   0   5  10  190.38   17.70
   0   5  10  179.88   17.80
   0   5  10  169.28   19.70
   0   5  10  186.98   24.60
  -1  -5 -10   29.40    8.90
  -1  -5 -10   39.50   10.40
  -1  -5 -10   46.50   13.00
   1   5  10   37.50    9.00
   1   5  10   55.89   14.60
   1   5  10   41.00    9.90
   1   5  10   32.70   10.40
   1   5  10   27.10    9.80
  -2  -5 -10  248.88   21.40
  -2  -5 -10  231.08   19.70
  -2  -5 -10  237.88   22.60
   2   5  10  270.97   22.90
   2   5  10  236.88   21.60
   2   5  10  250.17   25.70
   2   5  10  202.88   17.60
   2   5  10  256.67   22.10
  -3  -5 -10  122.59   16.70
  -3  -5 -10  121.89   15.70
  -3  -5 -10  115.29   17.90
   3   5  10  101.79   16.50
   3   5  10  127.39   20.30
   3   5  10  133.79   17.10
  -4  -5 -10   19.30   11.10
  -4  -5 -10   23.20   12.00
   4   5  10    7.20    9.50
   4   5  10   12.80   10.60
   4   5  10    7.00   10.30
  -5  -5 -10   60.29   15.90
  -5  -5 -10   64.09   14.70
   5   5  10   59.69   15.00
   5   5  10   70.79   14.40
   5   5  10   66.39   16.50
  -6  -5 -10   58.59   16.50
  -6  -5 -10   88.49   18.00
   6   5  10   71.89   17.80
   6   5  10   64.69   13.90
  -7  -5 -10  115.29   21.10
  -7  -5 -10  140.59   22.30
   7   5  10  102.69   21.20
  -8  -5 -10    7.30   13.30
  -8  -5 -10    4.20   13.60
   8   5  10   22.00   15.70
   6  -6 -10   41.10   18.00
  -6   6  10   24.80   15.40
  -6   6  10   22.70   12.30
  -6   6  10   32.00   15.50
   5  -6 -10  211.88   34.70
   5  -6 -10  237.68   32.60
  -5   6  10  232.08   29.70
  -5   6  10  246.58   25.40
   4  -6 -10   29.20   16.10
   4  -6 -10   15.20   12.90
  -4   6  10   12.80   10.80
  -4   6  10   11.40   11.30
   3  -6 -10   43.60   16.30
   3  -6 -10   43.90   10.30
   3  -6 -10   48.10   15.10
  -3   6  10   44.20   14.10
  -3   6  10   19.20   10.10
   2  -6 -10    6.70   10.00
   2  -6 -10    3.10    6.80
   2  -6 -10   17.30   12.00
  -2   6  10    0.30    9.50
  -2   6  10   12.60   10.00
  -2   6  10   11.50   13.10
   1  -6 -10   16.30   10.80
   1  -6 -10    1.50    6.60
   1  -6 -10   11.90    9.90
  -1   6  10    5.30    8.80
  -1   6  10   16.70    9.30
  -1   6  10    7.00    6.60
  -1   6  10   10.70    8.60
   0  -6 -10  337.77   26.40
   0  -6 -10  378.16   28.80
   0  -6 -10  376.36   29.70
   0   6  10  398.06   26.80
   0   6  10  367.96   27.70
   0   6  10  389.76   33.20
   0   6  10  392.46   28.40
  -1  -6 -10  100.49   14.50
  -1  -6 -10   97.19   16.50
   1   6  10  104.49   13.80
   1   6  10  105.99   19.20
   1   6  10   91.29   14.60
  -2  -6 -10  155.68   22.00
  -2  -6 -10  124.69   16.40
  -2  -6 -10  164.88   21.20
   2   6  10  166.48   15.80
   2   6  10  152.78   18.70
   2   6  10  125.79   17.10
   2   6  10  182.88   24.10
  -3  -6 -10    8.90    9.30
  -3  -6 -10   15.70    8.90
  -3  -6 -10   11.40    8.00
   3   6  10   27.60   11.50
   3   6  10   13.60   11.20
   3   6  10   28.80   10.10
  -4  -6 -10   17.90   10.60
  -4  -6 -10   50.39   13.30
  -4  -6 -10   34.50   11.40
   4   6  10   39.20   12.40
   4   6  10   49.60   14.70
   4   6  10   15.40   11.30
  -5  -6 -10   95.99   17.90
  -5  -6 -10  102.19   18.50
  -5  -6 -10  107.49   17.10
   5   6  10   81.39   15.80
   5   6  10  124.99   20.10
   5   6  10   91.39   18.20
   5   6  10   92.89   18.20
  -6  -6 -10   28.10   13.90
  -6  -6 -10   37.40   14.00
  -6  -6 -10    9.30   11.00
   6   6  10   22.30   13.50
   6   6  10   13.30   10.90
  -7  -6 -10   37.10   13.90
  -7  -6 -10   42.40   15.00
  -7  -6 -10   23.20   13.70
   7   6  10   27.10   13.60
  -8  -6 -10   31.60   15.20
  -8  -6 -10   28.20   14.30
  -8  -6 -10   22.40   14.90
   8   6  10   36.70   17.30
   6  -7 -10   56.89   21.20
  -6   7  10   35.60   13.70
  -6   7  10   50.09   18.50
  -6   7  10   19.80   14.90
   5  -7 -10   48.50   19.50
  -5   7  10   60.59   14.60
  -5   7  10   64.79   18.70
  -5   7  10   46.80   17.30
   4  -7 -10   42.40   16.90
  -4   7  10   78.59   15.20
  -4   7  10   76.79   18.00
  -4   7  10   41.40   15.70
   3  -7 -10   34.30   10.30
   3  -7 -10   33.80   15.50
  -3   7  10   27.40   11.80
  -3   7  10   26.60   12.70
   2  -7 -10   16.10    8.80
   2  -7 -10   31.50   13.90
  -2   7  10   18.40   11.70
  -2   7  10   31.10   11.20
   1  -7 -10  143.09   16.90
   1  -7 -10  120.49   21.30
  -1   7  10  123.49   17.70
  -1   7  10  124.49   17.60
  -1   7  10  105.19   21.90
   0  -7 -10  178.38   19.70
   0  -7 -10  206.98   23.90
   0  -7 -10  191.28   25.70
   0   7  10  217.88   27.60
   0   7  10  187.98   21.40
   0   7  10  197.38   21.40
  -1  -7 -10  333.07   26.50
  -1  -7 -10  364.66   28.40
   1   7  10  356.56   26.20
   1   7  10  330.67   26.50
   1   7  10  302.47   30.60
  -2  -7 -10   46.20   13.00
  -2  -7 -10   30.10    9.80
   2   7  10   35.90   14.30
   2   7  10   21.50    9.50
   2   7  10   24.40   10.00
  -3  -7 -10  107.69   16.70
  -3  -7 -10   95.99   16.60
  -3  -7 -10   68.09   12.30
   3   7  10  113.49   16.90
   3   7  10  129.29   21.70
   3   7  10  117.19   14.10
  -4  -7 -10   19.10   10.20
  -4  -7 -10   21.50    9.70
  -4  -7 -10   14.40   10.00
   4   7  10    9.10    9.70
   4   7  10    1.50    9.70
   4   7  10    6.20   10.20
  -5  -7 -10   62.49   15.50
  -5  -7 -10   50.09   13.70
  -5  -7 -10   49.70   13.50
   5   7  10   53.29   14.20
   5   7  10   41.80   14.90
   5   7  10   45.40   15.00
  -6  -7 -10   77.69   16.70
  -6  -7 -10   52.59   14.60
  -6  -7 -10   74.79   16.70
   6   7  10   62.49   16.90
   6   7  10   59.69   15.00
   6   7  10   65.79   17.50
  -7  -7 -10   22.60   12.20
  -7  -7 -10    5.50   13.50
  -7  -7 -10   25.50   13.00
   7   7  10   -9.10   12.00
  -8  -7 -10  138.89   22.10
  -8  -7 -10  159.28   24.50
  -8  -7 -10  132.89   23.40
   8   7  10  140.29   24.20
   5  -8 -10    5.40   13.20
  -5   8  10    1.50    9.80
  -5   8  10   15.10   13.80
  -5   8  10  -13.20   11.40
   4  -8 -10  103.19   22.80
  -4   8  10  174.08   25.50
  -4   8  10  178.88   21.90
  -4   8  10  181.88   26.10
   3  -8 -10   45.90   17.60
  -3   8  10   52.99   16.10
  -3   8  10   46.30   15.90
  -3   8  10   54.39   13.60
   2  -8 -10   46.20   12.60
   2  -8 -10   22.00   14.20
  -2   8  10   16.00   11.60
  -2   8  10   32.60   13.60
  -2   8  10   52.19   12.60
   1  -8 -10  110.29   15.80
   1  -8 -10  111.69   20.00
  -1   8  10   96.69   16.60
  -1   8  10  101.59   18.10
  -1   8  10  107.59   17.20
   0  -8 -10   15.40    9.80
   0  -8 -10   30.20   12.80
   0   8  10   16.40    9.10
   0   8  10   24.40   10.10
   0   8  10    9.10    9.80
  -1  -8 -10  289.97   25.00
  -1  -8 -10  322.57   31.50
  -1  -8 -10  317.17   27.70
   1   8  10  309.47   26.40
   1   8  10  329.17   27.20
  -2  -8 -10  151.18   19.20
  -2  -8 -10  132.79   18.10
   2   8  10  126.79   18.10
   2   8  10  127.59   17.50
  -3  -8 -10  165.98   20.90
  -3  -8 -10  161.38   18.50
  -3  -8 -10  191.38   22.50
   3   8  10  202.48   23.00
   3   8  10  189.18   18.60
  -4  -8 -10   28.70   11.30
  -4  -8 -10   13.20    8.90
  -4  -8 -10   12.70   10.40
   4   8  10   27.40   12.50
  -5  -8 -10   28.70   11.60
  -5  -8 -10   44.00   13.40
  -5  -8 -10    9.80   11.80
   5   8  10   44.90   16.40
   5   8  10   26.60   13.10
  -6  -8 -10  113.49   20.90
  -6  -8 -10  107.69   18.50
  -6  -8 -10  127.89   20.30
   6   8  10  108.99   21.60
   6   8  10  115.99   19.30
  -7  -8 -10   53.29   16.60
  -7  -8 -10   25.30   13.30
  -7  -8 -10   25.80   14.00
   7   8  10   52.69   17.50
  -8  -8 -10   99.39   20.00
  -8  -8 -10   99.29   20.60
   4  -9 -10   23.60   18.20
  -4   9  10    5.20   11.70
  -4   9  10   -4.90   10.00
  -4   9  10    4.40   11.70
   3  -9 -10   68.89   20.40
  -3   9  10   57.69   16.80
  -3   9  10   47.30   16.00
  -3   9  10   67.39   15.20
   2  -9 -10   20.40   14.20
   2  -9 -10   14.20    9.90
  -2   9  10   13.20   11.20
  -2   9  10    3.90   10.40
  -2   9  10    0.20    8.50
   1  -9 -10   12.30   11.70
   1  -9 -10    8.60    8.80
  -1   9  10   15.50   11.10
  -1   9  10   27.90   11.10
  -1   9  10   11.60   10.30
   0  -9 -10  180.78   21.80
   0  -9 -10  251.37   27.30
   0   9  10  176.88   22.80
   0   9  10  196.38   22.10
   0   9  10  240.98   25.10
  -1  -9 -10   22.60   10.70
  -1  -9 -10   35.10   14.50
   1   9  10   27.60   11.70
   1   9  10   15.40   10.70
  -2  -9 -10  369.36   29.60
  -2  -9 -10  357.26   30.30
   2   9  10  394.66   30.50
   2   9  10  359.36   29.00
  -3  -9 -10   90.19   15.60
  -3  -9 -10   91.19   17.00
   3   9  10   80.59   15.80
   3   9  10   71.49   13.60
  -4  -9 -10   25.90   13.60
  -4  -9 -10   54.99   12.90
  -4  -9 -10   35.80   11.70
   4   9  10   72.59   15.10
  -5  -9 -10   15.10   10.60
  -5  -9 -10   14.40   11.70
  -5  -9 -10   29.30   11.90
   5   9  10   33.30   14.20
   5   9  10   27.20   16.10
  -6  -9 -10   -6.90    8.90
  -6  -9 -10   -8.20    9.30
  -6  -9 -10    5.10   10.90
   6   9  10    3.10   13.80
  -7  -9 -10   31.30   16.00
  -7  -9 -10   11.80   13.30
   7   9  10   52.19   18.70
  -8  -9 -10   11.60   14.40
  -8  -9 -10    8.10   12.30
   8   9  10   36.10   17.30
   3 -10 -10    8.80   16.00
  -3  10  10   33.90   16.10
  -3  10  10   57.29   14.70
  -3  10  10   -0.80   11.80
   2 -10 -10  114.89   18.20
   2 -10 -10  101.69   22.20
  -2  10  10   96.99   20.20
  -2  10  10  150.68   20.20
  -2  10  10  126.69   21.40
   1 -10 -10    5.20   10.70
   1 -10 -10   26.60   11.40
  -1  10  10    2.00   11.40
  -1  10  10    9.20   11.10
  -1  10  10   15.60   11.30
   0 -10 -10   19.60   11.90
   0 -10 -10    1.90   11.60
   0  10  10   -2.20   10.00
   0  10  10    3.20   11.30
  -1 -10 -10    0.40    8.80
  -1 -10 -10    7.60   12.20
   1  10  10   13.50   10.50
   1  10  10    8.90   11.30
  -2 -10 -10  256.67   27.50
  -2 -10 -10  204.48   27.80
   2  10  10  236.28   25.90
   2  10  10  263.27   25.20
  -3 -10 -10  155.68   22.30
   3  10  10  155.68   20.70
   3  10  10  170.78   22.80
  -4 -10 -10   39.80   13.40
  -4 -10 -10   41.40   12.10
  -4 -10 -10   51.29   13.80
   4  10  10   42.20   12.20
   4  10  10   23.60   11.80
  -5 -10 -10   59.49   14.50
  -5 -10 -10   84.69   18.30
  -5 -10 -10   89.79   17.00
   5  10  10   88.29   18.30
   5  10  10   71.99   21.30
  -6 -10 -10    6.80   11.50
  -6 -10 -10    1.60   12.20
   6  10  10    2.10   14.50
  -7 -10 -10    3.90   12.10
  -7 -10 -10   -5.20   11.90
   7  10  10    6.50   14.70
   2 -11 -10  133.99   20.70
   2 -11 -10  149.99   27.70
  -2  11  10  121.49   20.30
  -2  11  10  127.89   23.30
  -2  11  10  142.59   23.60
   1 -11 -10   13.80   14.50
   1 -11 -10    0.30   10.30
  -1  11  10   18.10   12.00
  -1  11  10    4.20   12.80
   0 -11 -10   10.10   12.30
   0 -11 -10   10.10   13.20
   0  11  10    0.60   10.80
   0  11  10   12.10   13.10
  -1 -11 -10   64.29   16.30
  -1 -11 -10   27.10   14.60
   1  11  10   35.00   13.60
   1  11  10   46.90   14.60
  -2 -11 -10   12.40   12.40
  -2 -11 -10    9.10   13.60
   2  11  10    9.80   12.30
   2  11  10    0.70   10.70
  -3 -11 -10  210.48   25.90
  -3 -11 -10  188.88   27.50
   3  11  10  213.98   25.10
   3  11  10  201.08   24.40
  -4 -11 -10   16.30   11.40
   4  11  10   26.50   13.70
   4  11  10  -14.70   15.50
   4  11  10   11.70   11.20
  -5 -11 -10   38.50   13.90
  -5 -11 -10   35.30   13.20
   5  11  10   48.70   19.50
  -6 -11 -10    0.70   11.80
  -6 -11 -10    4.60   11.90
   6  11  10    8.40   14.90
  -7 -11 -10   -3.40   11.90
  -7 -11 -10   -7.30   10.50
   7  11  10    3.30   15.50
   0 -12 -10   -5.00   11.80
   0 -12 -10  -20.20    9.90
   0  12  10   10.00   14.00
   0  12  10   -4.50   10.50
  -1 -12 -10   10.50   11.10
  -1 -12 -10   12.20   14.00
   1  12  10   19.70   12.80
   1  12  10    5.10   13.10
  -2 -12 -10   91.59   19.00
  -2 -12 -10   88.39   20.30
   2  12  10   66.39   16.90
   2  12  10  107.29   19.40
  -3 -12 -10   48.70   18.20
  -3 -12 -10   28.10   14.30
   3  12  10   30.00   14.40
   3  12  10   33.90   15.20
  -4 -12 -10   79.59   17.70
  -4 -12 -10   82.59   20.50
   4  12  10   64.89   22.50
   4  12  10  101.19   19.90
  -5 -12 -10   10.10   12.10
  -5 -12 -10   -4.10   10.50
   5  12  10   -5.10   16.10
   4   3 -11  104.39   26.50
  -4  -3  11   67.39   16.60
  -4  -3  11   90.19   21.00
   3   3 -11   11.50   14.20
  -3  -3  11    6.80   13.00
  -3  -3  11    2.40   11.20
   2   3 -11    2.30   14.90
  -2  -3  11   32.70   13.50
  -2  -3  11   30.60   15.70
   1   3 -11   11.80   14.20
   1   3 -11   29.20   16.50
  -1  -3  11   11.30   11.70
   0   3 -11   -6.00   13.10
   0   3 -11   15.10   14.60
   0   3 -11    6.70   11.80
   0  -3  11   -2.10   10.30
   0  -3  11    3.00   12.90
  -1   3 -11   77.39   19.50
  -1   3 -11   64.79   19.50
  -1   3 -11   62.19   17.30
   1  -3  11   63.19   17.90
   1  -3  11   51.79   16.30
   5   2 -11   23.20   18.00
  -5  -2  11   57.79   16.70
  -5  -2  11   63.79   16.80
   4   2 -11   45.20   20.80
  -4  -2  11   39.10   15.10
  -4  -2  11   81.29   17.40
   3   2 -11   42.40   19.10
  -3  -2  11   49.60   14.90
  -3  -2  11   28.70   13.30
   2   2 -11   80.79   21.90
  -2  -2  11   83.89   17.60
  -2  -2  11   85.49   16.20
   1   2 -11    9.30   13.10
   1   2 -11   -7.50   11.40
   1   2 -11    7.80   10.90
  -1  -2  11    6.80    9.70
  -1  -2  11    9.70   10.90
   0   2 -11   96.89   22.20
   0   2 -11  103.09   20.30
   0   2 -11   89.79   17.90
   0  -2  11  126.39   19.20
   0  -2  11  119.19   21.60
  -1   2 -11   48.40   16.50
  -1   2 -11   66.19   19.10
  -1   2 -11   41.30   14.80
   1  -2  11   58.79   17.30
   1  -2  11   47.20   14.50
  -2   2 -11    2.40   11.10
  -2   2 -11   12.90   12.90
   2  -2  11   24.60   14.00
   2  -2  11   19.90   12.60
  -3   2 -11   62.89   18.00
  -3   2 -11   20.80   15.10
   3  -2  11   31.80   15.50
   3  -2  11   48.50   16.30
   6   1 -11    5.90   17.00
  -6  -1  11   12.50   14.50
  -6  -1  11   -8.30   10.70
  -6  -1  11   -7.10   11.10
   5   1 -11   70.99   22.90
  -5  -1  11   46.10   14.10
  -5  -1  11   57.19   16.00
   4   1 -11   12.30   15.10
  -4  -1  11    6.70   10.50
  -4  -1  11    3.00   11.00
   3   1 -11  274.67   35.70
   3   1 -11  263.27   24.90
  -3  -1  11  215.68   26.50
  -3  -1  11  239.48   26.40
   2   1 -11   24.40   11.40
   2   1 -11   17.10   14.30
  -2  -1  11    9.70   11.10
  -2  -1  11   15.20   10.70
   1   1 -11    9.30   10.70
   1   1 -11   36.70   16.00
  -1  -1  11   15.70   11.20
  -1  -1  11   23.50   10.80
   0   1 -11  141.79   24.60
   0   1 -11  114.59   21.90
   0   1 -11  131.29   20.70
   0  -1  11  154.68   22.60
   0  -1  11  170.18   19.10
   0  -1  11  163.48   20.60
  -1   1 -11    8.20   12.40
  -1   1 -11   16.20   12.80
  -1   1 -11   13.30   12.10
   1  -1  11   18.10   11.10
   1  -1  11    6.30   11.50
  -2   1 -11   17.60   11.40
  -2   1 -11   17.40   13.50
   2  -1  11   11.30   11.20
   2  -1  11    9.70   12.30
  -3   1 -11   -2.00   10.80
  -3   1 -11    1.10   10.70
   3  -1  11   11.60   13.00
   3  -1  11   14.00   12.70
  -4   1 -11   20.80   13.20
  -4   1 -11   27.60   16.70
   4  -1  11   29.50   16.00
   4  -1  11   51.49   18.20
   6   0 -11   65.09   23.10
  -6   0  11   65.59   15.70
  -6   0  11   67.39   15.50
  -6   0  11   60.49   19.20
   5   0 -11  119.49   28.10
  -5   0  11  130.49   21.50
  -5   0  11  169.38   21.90
  -5   0  11  156.38   24.20
   4   0 -11   92.49   22.30
  -4   0  11  137.69   21.80
  -4   0  11   87.49   17.80
  -4   0  11   89.59   16.70
   3   0 -11  123.79   25.60
   3   0 -11  125.59   19.00
  -3   0  11  129.39   20.10
  -3   0  11  124.89   19.50
  -3   0  11   93.59   16.50
   2   0 -11   46.60   17.70
   2   0 -11   66.09   14.70
  -2   0  11   61.49   15.50
  -2   0  11   74.19   14.10
   1   0 -11   21.20   13.40
   1   0 -11   15.70   11.50
  -1   0  11   26.30   11.30
  -1   0  11   26.60   13.00
  -1   0  11   20.90   10.40
  -1   0  11   39.60   13.30
   0   0 -11   60.69   16.30
   0   0 -11   50.89   15.00
   0   0  11   71.29   13.20
   0   0  11   55.59   14.90
   0   0  11   69.89   13.50
  -1   0 -11   48.50   15.00
  -1   0 -11   78.99   17.30
  -1   0 -11   45.50   14.50
   1   0  11   62.79   15.60
   1   0  11   63.09   13.90
   1   0  11   60.69   12.70
  -2   0 -11  122.59   21.30
  -2   0 -11  101.29   18.30
   2   0  11   85.49   17.70
   2   0  11   54.29   13.90
  -3   0 -11  135.89   20.40
  -3   0 -11  125.79   22.10
   3   0  11  134.39   22.40
   3   0  11  129.29   20.80
  -4   0 -11    3.50   11.30
  -4   0 -11   -5.30   11.00
   4   0  11    9.10   12.80
   4   0  11    5.60   12.60
  -5   0 -11  -13.00    9.90
  -5   0 -11   16.90   14.90
   5   0  11    0.30   12.70
   5   0  11  -13.00   13.30
   6  -1 -11   99.69   26.70
  -6   1  11  112.69   22.00
  -6   1  11  117.09   20.30
  -6   1  11  104.99   17.80
   5  -1 -11   74.89   24.30
  -5   1  11   42.30   16.30
  -5   1  11   68.89   14.80
  -5   1  11   49.10   13.60
   4  -1 -11   61.39   20.50
  -4   1  11   45.80   13.80
  -4   1  11   55.29   14.00
  -4   1  11   69.39   15.90
   3  -1 -11    6.60   10.60
   3  -1 -11   25.10   12.10
   3  -1 -11   10.40   13.90
  -3   1  11   21.30   12.10
  -3   1  11   18.30   10.50
  -3   1  11   20.40   10.90
   2  -1 -11  289.67   31.80
   2  -1 -11  243.58   25.10
   2  -1 -11  266.57   26.70
  -2   1  11  264.07   24.70
  -2   1  11  294.07   24.70
  -2   1  11  266.97   25.50
   1  -1 -11    4.20   10.20
   1  -1 -11    9.70   12.50
  -1   1  11    8.80    8.50
  -1   1  11   18.60   10.40
  -1   1  11    4.70    8.10
  -1   1  11   10.30   10.90
   0  -1 -11   20.90   12.20
   0  -1 -11   21.50   11.80
   0   1  11   14.10    9.70
   0   1  11   19.00   10.90
   0   1  11   35.60   10.40
   0   1  11   20.70   11.90
  -1  -1 -11   88.59   17.40
  -1  -1 -11  104.19   18.20
   1   1  11  120.09   16.40
   1   1  11  103.19   16.80
   1   1  11   91.69   15.50
  -2  -1 -11   40.40   13.30
  -2  -1 -11   44.40   14.90
   2   1  11   28.20   10.00
   2   1  11   26.30   12.50
   2   1  11   64.99   15.50
  -3  -1 -11   23.10   11.10
  -3  -1 -11   37.00   13.60
   3   1  11   12.10   12.10
   3   1  11   34.30   12.40
  -4  -1 -11   14.60   14.20
  -4  -1 -11    6.80   10.70
  -4  -1 -11   11.20   10.40
   4   1  11    7.50   12.50
   4   1  11   15.50   11.90
  -5  -1 -11   16.30   12.90
  -5  -1 -11    9.70   14.30
   5   1  11   29.60   15.70
  -6  -1 -11   10.40   12.70
  -6  -1 -11    0.30   12.00
   6   1  11  -16.00   13.70
   6  -2 -11   57.19   23.60
  -6   2  11   92.39   21.30
  -6   2  11   44.60   14.10
   5  -2 -11   62.39   22.70
   5  -2 -11   65.29   17.00
  -5   2  11   84.39   17.00
  -5   2  11   88.89   15.80
  -5   2  11   62.79   16.70
   4  -2 -11   24.90   12.90
   4  -2 -11   19.50   15.30
  -4   2  11   12.20   12.00
  -4   2  11    9.70   10.20
  -4   2  11   -2.70    8.30
   3  -2 -11  225.08   25.80
   3  -2 -11  231.58   26.30
   3  -2 -11  218.08   31.30
  -3   2  11  239.48   23.00
  -3   2  11  272.97   26.90
  -3   2  11  277.47   26.00
   2  -2 -11   84.69   15.60
   2  -2 -11   74.69   16.30
   2  -2 -11   86.79   19.60
  -2   2  11   94.29   15.30
  -2   2  11   91.99   15.80
  -2   2  11   97.09   16.00
   1  -2 -11    2.60   11.10
   1  -2 -11    5.10    9.50
  -1   2  11    2.40    7.90
  -1   2  11    2.20    9.40
  -1   2  11   21.60   10.60
  -1   2  11   -0.50    9.30
   0  -2 -11  315.77   28.20
   0  -2 -11  315.67   26.30
   0   2  11  251.67   22.40
   0   2  11  242.18   26.70
   0   2  11  255.67   21.90
   0   2  11  236.98   24.00
   0   2  11  257.57   23.80
  -1  -2 -11   59.59   16.00
   1   2  11   67.69   15.60
   1   2  11   78.69   14.00
   1   2  11   62.09   14.70
   1   2  11   50.29   12.60
  -2  -2 -11  409.06   29.40
  -2  -2 -11  449.95   35.10
   2   2  11  413.76   30.40
   2   2  11  431.36   33.40
   2   2  11  406.06   32.40
  -3  -2 -11   89.89   18.10
  -3  -2 -11   75.49   15.30
  -3  -2 -11   87.19   15.10
   3   2  11  102.69   18.70
   3   2  11  105.79   15.50
   3   2  11   75.69   16.10
  -4  -2 -11   53.59   20.30
  -4  -2 -11   42.50   14.90
  -4  -2 -11   44.40   13.90
   4   2  11   39.60   13.40
   4   2  11   52.29   16.20
  -5  -2 -11   -3.40   10.40
  -5  -2 -11   -0.60   12.60
   5   2  11   -2.80   13.60
  -6  -2 -11   -9.60   12.20
  -6  -2 -11   26.50   13.50
   6   2  11   12.50   13.70
   6  -3 -11  118.79   28.90
   6  -3 -11   95.09   21.10
  -6   3  11  100.09   19.00
  -6   3  11   82.99   19.60
   5  -3 -11  143.69   23.20
   5  -3 -11  100.79   25.30
  -5   3  11  110.59   20.60
  -5   3  11  121.49   18.20
   4  -3 -11  107.79   24.70
   4  -3 -11   93.39   19.20
  -4   3  11   76.09   14.10
  -4   3  11   55.99   15.00
  -4   3  11   66.29   15.20
   3  -3 -11  142.29   25.10
   3  -3 -11  140.99   22.10
  -3   3  11  138.89   19.80
  -3   3  11  166.18   19.40
  -3   3  11  155.08   20.70
   2  -3 -11   67.59   17.30
   2  -3 -11   71.99   15.00
   2  -3 -11   69.69   17.00
  -2   3  11   90.49   15.60
  -2   3  11   70.59   13.30
  -2   3  11   51.79   12.70
   1  -3 -11  138.49   22.50
   1  -3 -11  133.69   19.80
  -1   3  11  135.49   22.40
  -1   3  11  157.48   18.80
  -1   3  11  118.99   16.40
  -1   3  11  123.59   16.90
   0  -3 -11  130.39   19.70
   0  -3 -11  148.89   21.00
   0   3  11  116.29   20.20
   0   3  11  132.29   17.00
   0   3  11  148.39   18.70
   0   3  11  141.79   18.60
   0   3  11  116.59   15.30
  -1  -3 -11    6.30    6.70
  -1  -3 -11    3.20   10.70
   1   3  11    6.20    9.50
   1   3  11    7.40    8.30
   1   3  11   16.50    9.30
   1   3  11   -8.80    9.30
  -2  -3 -11   24.70   13.00
  -2  -3 -11   20.50    9.10
   2   3  11   17.10   10.50
   2   3  11   13.80   10.70
   2   3  11   11.20   10.10
   2   3  11   18.90   11.40
  -3  -3 -11  184.68   26.00
  -3  -3 -11  200.98   21.70
   3   3  11  215.08   24.40
   3   3  11  209.28   24.10
   3   3  11  241.98   21.40
  -4  -3 -11   77.49   17.80
  -4  -3 -11   85.69   16.40
   4   3  11   92.69   17.30
   4   3  11   61.89   15.20
   4   3  11   95.89   15.20
  -5  -3 -11   91.99   17.90
  -5  -3 -11   68.09   18.10
   5   3  11   58.29   16.00
  -6  -3 -11   24.30   13.60
  -6  -3 -11   22.50   13.60
   6   3  11   29.00   16.60
  -7  -3 -11    9.10   13.60
  -7  -3 -11  -11.20   12.10
   7   3  11   11.80   14.00
   6  -4 -11   84.79   26.30
   6  -4 -11  102.39   22.00
  -6   4  11   97.29   18.20
  -6   4  11   96.89   21.70
   5  -4 -11   70.19   17.70
   5  -4 -11   31.80   19.20
  -5   4  11   61.79   15.00
  -5   4  11   54.79   18.00
   4  -4 -11   76.39   21.70
   4  -4 -11   89.09   19.80
  -4   4  11   84.59   16.30
  -4   4  11   78.59   16.70
   3  -4 -11   32.00   17.00
   3  -4 -11   22.80   13.10
  -3   4  11   20.10   11.00
  -3   4  11   17.80    9.20
  -3   4  11   16.90   11.80
   2  -4 -11  244.18   29.40
   2  -4 -11  255.07   28.20
   2  -4 -11  254.47   26.40
  -2   4  11  232.78   22.90
  -2   4  11  301.37   23.30
  -2   4  11  286.37   25.10
   1  -4 -11   38.90   13.60
   1  -4 -11   45.10   15.20
   1  -4 -11   20.70   12.60
  -1   4  11   26.80   10.20
  -1   4  11   45.30   12.50
  -1   4  11   25.40   10.50
  -1   4  11   32.40   13.90
   0  -4 -11   84.39   11.50
   0  -4 -11   75.49   16.20
   0  -4 -11  113.09   17.20
   0   4  11   49.80   11.90
   0   4  11   62.59   12.10
   0   4  11   66.89   13.50
   0   4  11   66.29   16.80
  -1  -4 -11   31.50   12.90
  -1  -4 -11   42.70   10.00
   1   4  11   49.50   12.30
   1   4  11   34.20   11.60
   1   4  11   51.79   14.30
   1   4  11   61.99   12.70
  -2  -4 -11   -3.00    7.40
  -2  -4 -11   14.00   11.30
   2   4  11    3.00    9.40
   2   4  11    8.10    8.60
   2   4  11    1.70    9.20
   2   4  11    0.80    9.70
  -3  -4 -11  103.89   16.30
  -3  -4 -11  103.29   17.90
   3   4  11   80.39   14.20
   3   4  11   95.19   16.60
   3   4  11   88.39   17.30
   3   4  11  106.59   18.20
  -4  -4 -11   79.29   15.70
  -4  -4 -11   68.59   16.60
   4   4  11   83.79   15.20
   4   4  11   78.49   17.10
  -5  -4 -11   33.40   14.00
  -5  -4 -11   32.30   13.60
   5   4  11    1.50   13.00
   5   4  11   38.80   12.20
  -6  -4 -11   27.20   13.50
  -6  -4 -11   11.20   13.00
   6   4  11   19.90   13.80
  -7  -4 -11    1.20   10.90
  -7  -4 -11   27.50   15.30
   7   4  11  -12.60   13.20
   6  -5 -11   40.00   21.00
   6  -5 -11   30.50   17.30
  -6   5  11    2.50   10.50
  -6   5  11   22.00   15.00
   5  -5 -11    4.20   14.80
   5  -5 -11   24.30   18.80
  -5   5  11    5.80   13.60
  -5   5  11   -0.40    9.20
   4  -5 -11   54.39   17.80
   4  -5 -11   58.19   18.90
  -4   5  11   40.00   13.80
  -4   5  11   35.50   14.20
   3  -5 -11  336.47   34.60
   3  -5 -11  365.06   34.30
  -3   5  11  359.66   28.60
  -3   5  11  326.27   30.20
   2  -5 -11  266.17   30.90
   2  -5 -11  224.58   27.90
  -2   5  11  199.18   22.90
  -2   5  11  210.48   19.70
  -2   5  11  227.48   24.10
   1  -5 -11  150.28   20.50
   1  -5 -11  120.79   20.00
   1  -5 -11  114.59   14.30
   1  -5 -11  168.18   23.80
  -1   5  11  142.79   18.60
  -1   5  11  145.99   18.60
  -1   5  11  151.28   17.20
   0  -5 -11   57.39   13.90
   0  -5 -11   63.89   14.90
   0  -5 -11   47.90   10.30
   0   5  11   64.79   12.40
   0   5  11   33.10   11.10
   0   5  11   52.39   15.80
   0   5  11   54.89   12.30
  -1  -5 -11  124.09   15.80
  -1  -5 -11  120.19   19.10
   1   5  11  138.39   16.90
   1   5  11  118.99   17.10
   1   5  11  110.89   20.70
   1   5  11  127.29   15.30
   1   5  11  102.79   16.70
  -2  -5 -11  100.39   17.40
  -2  -5 -11   68.29   13.30
   2   5  11   97.49   15.50
   2   5  11   73.69   14.30
   2   5  11   71.59   14.00
   2   5  11   78.19   16.40
  -3  -5 -11   30.20   13.70
  -3  -5 -11   21.80    9.90
   3   5  11   42.20   12.70
   3   5  11   29.20   13.40
   3   5  11   31.10   10.80
  -4  -5 -11  154.28   20.70
  -4  -5 -11  159.38   22.60
   4   5  11  152.38   22.10
   4   5  11  145.09   22.40
   4   5  11  131.29   18.10
  -5  -5 -11   14.10   13.10
  -5  -5 -11   28.60   12.20
   5   5  11   19.60   11.20
   5   5  11   -5.70    9.50
  -6  -5 -11   54.99   16.30
  -6  -5 -11   30.90   13.20
   6   5  11   45.00   16.90
   6   5  11   40.60   13.00
  -7  -5 -11   25.80   14.30
  -7  -5 -11   12.10   13.30
   7   5  11   10.20   12.80
   6  -6 -11   43.90   18.50
   6  -6 -11   75.59   25.20
  -6   6  11   43.50   15.00
  -6   6  11   50.89   17.70
   5  -6 -11    6.90   15.40
   5  -6 -11    7.20   15.30
  -5   6  11   -1.30   11.60
  -5   6  11   12.90   11.50
   4  -6 -11    1.70   13.20
   4  -6 -11   12.50   15.40
  -4   6  11    2.60   10.70
  -4   6  11    4.80   12.50
   3  -6 -11  123.89   24.30
   3  -6 -11  179.28   27.20
  -3   6  11  115.99   17.60
  -3   6  11  130.99   20.70
   2  -6 -11    6.00   11.30
   2  -6 -11    6.80    7.00
   2  -6 -11    8.60   11.20
  -2   6  11   11.90    9.90
  -2   6  11   -2.00    9.50
   1  -6 -11  102.99   20.50
   1  -6 -11   93.59   13.20
   1  -6 -11  124.19   19.70
   1  -6 -11   83.39   16.30
  -1   6  11   87.09   15.20
  -1   6  11   91.69   16.00
  -1   6  11   97.19   14.00
   0  -6 -11   16.70    8.70
   0  -6 -11   38.90   11.50
   0   6  11   20.90   10.00
   0   6  11   32.60    9.70
   0   6  11   21.00   10.00
  -1  -6 -11  140.49   20.30
  -1  -6 -11  122.29   15.70
   1   6  11  130.69   17.20
   1   6  11  113.89   15.60
   1   6  11  111.79   16.90
   1   6  11   92.49   18.60
  -2  -6 -11   67.09   13.10
  -2  -6 -11  104.99   18.40
   2   6  11   64.09   13.80
   2   6  11   68.79   13.70
   2   6  11   55.19   15.80
  -3  -6 -11   19.90   10.50
  -3  -6 -11   12.60   10.10
   3   6  11    3.80    9.60
   3   6  11   10.40   10.30
   3   6  11   24.60   11.30
  -4  -6 -11  280.37   26.90
  -4  -6 -11  286.87   28.30
  -4  -6 -11  280.77   25.70
   4   6  11  314.57   28.20
   4   6  11  320.37   30.80
   4   6  11  296.07   27.00
  -5  -6 -11  102.29   18.00
  -5  -6 -11  115.59   21.20
  -5  -6 -11   89.29   17.40
   5   6  11  102.89   17.10
   5   6  11  116.89   20.30
   5   6  11  115.89   20.10
   5   6  11  111.29   30.70
  -6  -6 -11   56.49   15.80
  -6  -6 -11   76.59   16.40
  -6  -6 -11   74.49   17.70
   6   6  11   54.09   16.50
   6   6  11   95.79   17.10
  -7  -6 -11  -16.20   11.00
  -7  -6 -11    4.30   11.20
  -7  -6 -11  -10.70   10.10
   7   6  11   -3.90   13.50
   5  -7 -11   43.80   19.70
  -5   7  11   17.00   15.20
  -5   7  11    8.60   10.40
  -5   7  11   35.70   15.10
   4  -7 -11   11.90   14.60
  -4   7  11   -2.10   12.50
  -4   7  11    1.10    9.60
   3  -7 -11   59.49   12.60
   3  -7 -11   62.49   19.70
  -3   7  11   42.40   14.30
  -3   7  11   45.30   13.10
   2  -7 -11  201.78   21.30
   2  -7 -11  179.88   26.70
  -2   7  11  255.07   26.30
  -2   7  11  289.67   28.80
   1  -7 -11   42.40   11.00
   1  -7 -11   44.60   16.20
  -1   7  11   44.40   12.30
  -1   7  11   49.80   13.80
   0  -7 -11  217.98   20.00
   0  -7 -11  179.28   26.30
   0  -7 -11  196.28   23.90
   0   7  11  172.58   20.90
   0   7  11  162.58   20.30
  -1  -7 -11   10.80   10.10
  -1  -7 -11   18.20   10.00
   1   7  11   33.20   10.60
   1   7  11   15.60    9.90
  -2  -7 -11   25.40   11.00
  -2  -7 -11   25.30   11.20
   2   7  11   42.10   12.20
   2   7  11   42.50   10.50
  -3  -7 -11  145.49   21.30
  -3  -7 -11  128.09   18.00
   3   7  11  119.29   18.10
  -4  -7 -11   -2.10    8.50
  -4  -7 -11   22.40   12.10
  -4  -7 -11    4.90    9.00
   4   7  11   18.50   11.30
   4   7  11   -3.30    9.80
  -5  -7 -11   88.69   18.20
  -5  -7 -11   63.49   15.30
  -5  -7 -11   64.89   15.20
   5   7  11   73.29   18.70
   5   7  11   59.29   14.50
   5   7  11   62.39   17.20
  -6  -7 -11   22.00   12.80
  -6  -7 -11    1.00   11.50
  -6  -7 -11   -9.10   10.70
   6   7  11   22.90   13.10
   6   7  11   12.40   14.70
  -7  -7 -11   14.00   11.90
  -7  -7 -11   16.80   13.70
  -7  -7 -11   18.40   14.40
   7   7  11    7.30   13.10
   4  -8 -11  -19.00   13.70
  -4   8  11   12.30   11.90
  -4   8  11   -2.20   11.40
  -4   8  11   -2.10   12.90
   3  -8 -11    4.20   12.40
  -3   8  11   13.10   11.90
  -3   8  11   -1.80    8.50
  -3   8  11    7.90   13.20
   2  -8 -11  314.57   26.50
   2  -8 -11  335.27   34.90
  -2   8  11  295.07   29.90
  -2   8  11  302.27   30.10
  -2   8  11  288.97   26.80
   1  -8 -11   46.40   16.60
   1  -8 -11   21.30   10.10
  -1   8  11   27.80   11.50
  -1   8  11   20.80   12.80
   0  -8 -11  102.79   19.90
   0  -8 -11  121.39   17.60
   0   8  11   98.09   17.50
   0   8  11  103.89   17.40
  -1  -8 -11   39.80   15.50
  -1  -8 -11   48.70   12.50
  -1  -8 -11   28.20   12.20
   1   8  11   56.79   14.30
   1   8  11   57.19   13.00
  -2  -8 -11   20.00   11.80
  -2  -8 -11    8.10    9.10
   2   8  11   12.50    9.40
   2   8  11    6.50    9.70
  -3  -8 -11   62.19   15.70
  -3  -8 -11   78.29   16.10
   3   8  11   71.89   15.30
  -4  -8 -11   90.19   17.80
  -4  -8 -11   89.79   16.90
   4   8  11   74.19   16.70
  -5  -8 -11   27.70   12.50
  -5  -8 -11   31.00   12.70
  -5  -8 -11   12.60   10.70
   5   8  11   31.90   15.90
   5   8  11   72.19   15.80
  -6  -8 -11  106.19   21.10
  -6  -8 -11  124.69   20.90
  -6  -8 -11   97.79   19.80
   6   8  11  145.39   21.80
   6   8  11  117.39   23.00
  -7  -8 -11   -6.10   11.30
  -7  -8 -11  -12.60   11.60
  -7  -8 -11    2.70   11.90
   4  -9 -11   40.90   19.60
  -4   9  11   14.40   14.40
  -4   9  11   -0.30   11.40
  -4   9  11    7.60   13.80
   3  -9 -11   53.19   17.90
  -3   9  11   59.29   15.90
  -3   9  11   60.79   18.20
  -3   9  11   26.80   15.10
   2  -9 -11   83.49   19.60
   2  -9 -11  109.49   17.90
  -2   9  11   95.59   17.00
  -2   9  11   95.69   19.50
  -2   9  11  113.19   19.90
   1  -9 -11  182.98   22.30
   1  -9 -11  200.68   29.30
  -1   9  11  197.98   24.70
  -1   9  11  194.08   23.40
  -1   9  11  203.08   24.20
   0  -9 -11    4.40   11.40
   0  -9 -11   -6.40    9.10
   0   9  11    7.10   11.30
   0   9  11   14.60   10.20
  -1  -9 -11  190.58   28.10
  -1  -9 -11  154.08   21.20
   1   9  11  236.68   25.30
   1   9  11  218.28   24.50
  -2  -9 -11   -1.10    9.50
  -2  -9 -11   12.40   11.30
   2   9  11   24.70   10.90
   2   9  11   14.90   10.40
  -3  -9 -11   30.90   12.10
  -3  -9 -11   23.20   12.00
   3   9  11   19.50   11.20
   3   9  11   36.40   16.90
  -4  -9 -11  204.28   25.20
  -4  -9 -11  186.08   24.30
   4   9  11  132.29   21.10
  -5  -9 -11    2.80   10.50
  -5  -9 -11   14.00   10.70
  -5  -9 -11   12.30   11.40
   5   9  11   -2.40   10.20
   5   9  11    8.20   14.50
  -6  -9 -11  200.28   25.60
  -6  -9 -11  198.88   27.40
  -6  -9 -11  177.98   24.60
   6   9  11  216.58   26.30
   6   9  11  164.48   27.60
  -7  -9 -11   20.80   14.00
  -7  -9 -11   30.80   14.80
  -7  -9 -11   17.80   19.80
   7   9  11   10.00   15.60
   3 -10 -11   34.60   19.50
  -3  10  11   22.60   13.30
  -3  10  11   21.40   16.10
  -3  10  11   12.50   15.50
   2 -10 -11   82.79   20.60
   2 -10 -11   65.99   16.40
  -2  10  11   68.29   17.40
  -2  10  11   74.19   18.70
  -2  10  11   74.89   17.00
   1 -10 -11   12.90   14.40
   1 -10 -11   20.80   12.30
  -1  10  11   13.60   11.80
  -1  10  11    9.60   12.40
  -1  10  11   24.60   18.70
   0 -10 -11  211.68   29.50
   0 -10 -11  229.08   25.10
   0  10  11  160.58   22.90
   0  10  11  139.89   22.30
  -1 -10 -11   12.50   14.30
  -1 -10 -11   23.90   12.50
   1  10  11   -0.10    9.70
   1  10  11    8.60   11.40
  -2 -10 -11    1.10   11.60
  -2 -10 -11   10.60   10.40
   2  10  11   -5.10    9.70
   2  10  11    2.80   10.70
  -3 -10 -11   36.90   14.60
  -3 -10 -11   39.30   14.10
   3  10  11   46.40   14.20
   3  10  11   33.00   11.80
  -4 -10 -11   55.79   15.00
  -4 -10 -11   43.70   14.00
   4  10  11   33.60   14.40
  -5 -10 -11   36.60   13.60
  -5 -10 -11   41.00   15.30
   5  10  11   58.39   19.60
   5  10  11   45.90   14.70
  -6 -10 -11    1.00   12.10
  -6 -10 -11   -6.50   12.30
   6  10  11   13.10   16.70
  -7 -10 -11   37.50   16.40
  -7 -10 -11   70.69   18.80
   7  10  11   60.09   21.60
   1 -11 -11    7.90   13.90
   1 -11 -11   -1.00   11.20
  -1  11  11    8.60   11.90
  -1  11  11   33.90   15.60
   0 -11 -11  121.39   21.10
   0 -11 -11  149.49   26.20
   0  11  11  173.88   24.90
   0  11  11  149.88   21.80
  -1 -11 -11   32.00   16.70
  -1 -11 -11   11.00   12.60
   1  11  11    6.70   10.30
   1  11  11   17.00   12.80
  -2 -11 -11   33.90   17.00
  -2 -11 -11   49.90   16.10
   2  11  11   44.00   15.80
   2  11  11   31.30   14.20
  -3 -11 -11   50.09   16.10
  -3 -11 -11   22.50   15.80
   3  11  11   13.60   11.90
   3  11  11   36.70   13.50
  -4 -11 -11    0.60   12.60
   4  11  11    2.30   11.10
  -5 -11 -11   89.89   19.10
   5  11  11   65.09   22.10
   5  11  11   65.19   16.30
  -6 -11 -11    5.20   12.10
  -6 -11 -11   18.50   13.00
   6  11  11   14.50   17.20
  -1 -12 -11  166.08   23.80
  -1 -12 -11  150.78   26.50
   1  12  11  117.99   20.70
   1  12  11  160.88   24.50
  -2 -12 -11   18.40   16.50
  -2 -12 -11   -4.90   10.40
   2  12  11   17.60   12.90
   2  12  11    4.70   12.90
  -3 -12 -11   50.29   17.00
  -3 -12 -11   46.80   18.80
   3  12  11   53.29   17.00
   3  12  11   62.39   17.50
  -4 -12 -11   15.30   16.00
  -4 -12 -11   -9.40   10.60
   4  12  11    6.10   17.70
   4  12  11  -18.60   12.10
   2   2 -12   68.69   22.30
  -2  -2  12   93.89   20.00
  -2  -2  12   37.80   14.20
   1   2 -12   51.19   19.10
  -1  -2  12   43.30   16.20
   0   2 -12  113.69   25.00
   0   2 -12   88.09   19.40
   0   2 -12   88.99   20.80
   0  -2  12  117.69   21.70
   4   1 -12  103.49   25.90
  -4  -1  12   98.69   19.20
  -4  -1  12  129.49   20.20
   3   1 -12   22.00   17.60
  -3  -1  12   59.49   17.60
  -3  -1  12   18.70   13.60
   2   1 -12   88.99   23.30
   2   1 -12   84.79   17.30
  -2  -1  12   45.70   14.90
  -2  -1  12   56.99   14.60
   1   1 -12   60.99   16.50
   1   1 -12   61.29   20.60
  -1  -1  12   85.09   16.50
  -1  -1  12   93.79   18.10
   0   1 -12    0.70   12.40
   0   1 -12   -3.10   12.10
   0  -1  12    7.30   10.70
  -1   1 -12   30.10   15.10
  -1   1 -12   47.30   17.10
   1  -1  12   46.90   16.30
   1  -1  12   36.60   13.90
  -2   1 -12   11.70   13.40
  -2   1 -12   14.40   14.40
   2  -1  12   19.50   13.40
   2  -1  12   32.10   14.30
   5   0 -12   30.60   18.70
  -5   0  12   49.90   15.00
  -5   0  12   59.49   15.80
  -5   0  12   36.20   15.90
   4   0 -12   25.30   19.10
  -4   0  12   22.10   13.30
  -4   0  12   38.90   14.20
  -4   0  12   45.00   15.70
   3   0 -12   20.30   16.20
   3   0 -12    9.60   11.40
  -3   0  12   17.20   12.60
  -3   0  12   39.00   14.20
  -3   0  12   12.40   10.40
   2   0 -12   68.29   21.40
   2   0 -12   61.69   15.70
  -2   0  12   69.99   15.40
  -2   0  12   82.69   18.00
  -2   0  12   67.29   15.90
   1   0 -12   26.30   13.30
   1   0 -12   29.40   16.20
  -1   0  12   15.10   11.40
  -1   0  12   31.60   13.80
   0   0 -12   67.49   18.90
   0   0 -12   45.30   15.60
   0   0  12   57.89   14.30
   0   0  12   84.09   17.80
  -1   0 -12   76.19   18.20
  -1   0 -12   76.69   18.10
   1   0  12  108.19   18.80
   1   0  12   80.19   17.60
  -2   0 -12   50.29   16.20
  -2   0 -12   58.79   16.10
   2   0  12   45.30   14.50
   2   0  12   45.20   15.30
  -3   0 -12   60.59   18.60
  -3   0 -12   80.19   17.70
   3   0  12   74.99   18.40
   3   0  12   76.39   18.40
  -4   0 -12   11.70   13.10
  -4   0 -12    8.00   12.70
   4   0  12   -4.50   13.20
   4   0  12   17.50   15.40
   5  -1 -12   46.20   21.90
  -5   1  12    3.40   13.30
  -5   1  12   18.10   12.90
  -5   1  12   -0.50   10.50
   4  -1 -12   43.70   20.40
  -4   1  12   41.30   14.60
  -4   1  12   14.70   11.20
  -4   1  12   54.59   16.60
   3  -1 -12   17.00   11.70
   3  -1 -12   23.20   16.00
  -3   1  12   38.40   14.00
  -3   1  12   16.90   11.50
  -3   1  12   10.20   11.40
   2  -1 -12   28.20   16.20
   2  -1 -12   16.80   12.50
  -2   1  12   22.40   12.30
  -2   1  12   40.50   12.80
  -2   1  12   29.20   13.40
   1  -1 -12   29.60   14.10
   1  -1 -12   26.10   15.00
  -1   1  12   29.80   12.60
  -1   1  12    4.20   11.30
   0  -1 -12  189.08   27.10
   0  -1 -12  189.18   24.90
   0   1  12  177.78   22.10
   0   1  12  176.88   24.10
  -1  -1 -12   58.19   16.10
   1   1  12   57.59   14.00
   1   1  12   50.29   14.70
   1   1  12   36.60   12.70
  -2  -1 -12   92.29   19.00
  -2  -1 -12  111.29   19.40
   2   1  12  107.09   18.90
   2   1  12   80.09   18.10
  -3  -1 -12   79.29   19.80
  -3  -1 -12   40.30   14.90
   3   1  12   48.60   15.50
   3   1  12   58.89   17.70
  -4  -1 -12    5.80   11.50
   4   1  12   19.30   13.70
   4   1  12   22.10   14.30
   5  -2 -12   46.40   21.60
  -5   2  12    5.50   11.70
  -5   2  12   29.10   12.20
  -5   2  12   12.80   14.70
   4  -2 -12  264.47   36.60
   4  -2 -12  225.08   33.50
  -4   2  12  232.78   28.60
  -4   2  12  247.48   26.50
  -4   2  12  201.78   24.80
   3  -2 -12   32.80   17.70
   3  -2 -12   32.50   14.30
   3  -2 -12   43.70   14.50
  -3   2  12   36.30   13.70
  -3   2  12   37.70   12.60
  -3   2  12   16.10   11.00
   2  -2 -12   21.50   14.70
   2  -2 -12   -4.60    9.60
   2  -2 -12   12.80   11.70
  -2   2  12   17.50   11.60
  -2   2  12   28.90   12.30
  -2   2  12   20.00   11.60
   1  -2 -12   48.40   14.40
   1  -2 -12   45.70   16.30
  -1   2  12   82.59   14.90
  -1   2  12   96.39   17.10
  -1   2  12   97.99   15.70
   0  -2 -12  108.89   18.80
   0   2  12   98.49   16.80
   0   2  12   92.59   19.80
   0   2  12   88.29   17.30
  -1  -2 -12    9.30   12.40
   1   2  12    4.40   10.30
   1   2  12   13.60   10.50
   1   2  12   24.10   11.30
  -2  -2 -12    6.90   12.20
   2   2  12   17.70   12.80
   2   2  12    6.50   11.10
   2   2  12   33.40   12.10
  -3  -2 -12   65.09   18.50
   3   2  12   68.49   17.20
   3   2  12   52.49   19.40
   3   2  12   60.29   16.60
  -4  -2 -12    8.60   12.50
  -4  -2 -12    3.80   11.30
   4   2  12   33.70   13.20
   4   2  12    6.40   13.50
  -5  -2 -12   14.20   13.00
  -5  -2 -12   16.30   12.80
   5   2  12   -4.80   13.30
   5  -3 -12   37.10   15.60
   5  -3 -12   26.70   18.90
  -5   3  12   47.00   14.30
  -5   3  12   58.79   18.60
   4  -3 -12  173.48   29.90
   4  -3 -12  181.28   26.00
  -4   3  12  158.08   22.50
  -4   3  12  158.08   20.60
  -4   3  12  151.58   23.90
   3  -3 -12  114.29   24.50
   3  -3 -12  104.79   20.10
  -3   3  12   92.99   17.30
  -3   3  12   97.99   15.90
  -3   3  12   96.09   18.00
   2  -3 -12   54.99   15.80
   2  -3 -12   35.60   13.30
   2  -3 -12   57.69   17.50
  -2   3  12   21.70   11.90
  -2   3  12   23.30   10.80
  -2   3  12   47.40   13.70
   1  -3 -12  239.88   29.90
   1  -3 -12  268.57   29.10
  -1   3  12  275.97   26.10
  -1   3  12  282.97   25.10
  -1   3  12  248.68   23.70
   0  -3 -12  335.27   31.20
   0   3  12  316.67   27.00
   0   3  12  307.67   26.90
  -1  -3 -12   72.19   18.10
   1   3  12   63.79   16.80
   1   3  12   57.19   13.70
   1   3  12   32.90   12.00
   1   3  12   46.40   12.70
  -2  -3 -12   74.49   18.80
   2   3  12   42.40   13.10
   2   3  12   87.29   18.00
   2   3  12   73.39   15.00
  -3  -3 -12   24.70   11.60
  -3  -3 -12   29.00   13.60
   3   3  12   26.80   11.20
   3   3  12   34.70   14.20
   3   3  12   15.90   11.60
  -4  -3 -12   38.20   12.70
  -4  -3 -12   60.99   16.90
   4   3  12   47.80   16.00
   4   3  12   42.20   14.20
   4   3  12   45.50   15.70
  -5  -3 -12   50.99   18.10
  -5  -3 -12   60.69   16.40
   5   3  12   46.30   16.50
  -6  -3 -12    8.50   12.40
  -6  -3 -12   -6.30   12.00
   6   3  12    3.00   14.40
   5  -4 -12   35.10   19.90
   5  -4 -12   21.00   15.20
  -5   4  12   29.60   16.00
  -5   4  12   31.60   14.30
   4  -4 -12    9.50   15.80
   4  -4 -12   -2.50   12.40
  -4   4  12    3.60   10.90
  -4   4  12   10.60   10.30
   3  -4 -12  104.29   23.50
   3  -4 -12   95.19   20.40
  -3   4  12  128.69   19.60
  -3   4  12  125.79   21.10
  -3   4  12  121.59   17.00
   2  -4 -12  -13.40   10.40
   2  -4 -12   11.80   12.20
   2  -4 -12   14.00   12.20
  -2   4  12   -0.60   10.80
  -2   4  12    4.60    8.90
  -2   4  12   -4.00    9.50
   1  -4 -12   12.30   12.90
   1  -4 -12   34.70   14.30
   1  -4 -12    9.40   11.70
  -1   4  12   23.70   10.90
  -1   4  12   11.50   10.10
  -1   4  12    8.70    8.80
   0  -4 -12  174.88   24.00
   0   4  12  144.99   18.10
   0   4  12  121.59   17.70
   0   4  12  127.09   18.30
  -1  -4 -12   89.39   18.80
   1   4  12  121.19   18.10
   1   4  12   91.49   18.60
   1   4  12   79.09   15.00
   1   4  12   97.39   16.30
  -2  -4 -12   72.99   18.20
  -2  -4 -12   63.39   13.10
   2   4  12  134.09   19.20
   2   4  12  113.29   20.30
   2   4  12  105.49   17.60
   2   4  12  116.99   18.10
  -3  -4 -12   21.80   13.60
  -3  -4 -12   32.70   11.70
   3   4  12   37.40   13.30
   3   4  12   28.30   11.70
   3   4  12   22.40   11.80
  -4  -4 -12   39.20   13.20
  -4  -4 -12   26.50   13.70
   4   4  12   58.79   16.40
   4   4  12   52.59   13.60
  -5  -4 -12    9.60   12.30
  -5  -4 -12   25.00   14.40
   5   4  12   21.60   14.30
   5   4  12   39.80   13.30
  -6  -4 -12   11.10   12.00
  -6  -4 -12   17.60   14.70
   6   4  12    6.10   15.20
   5  -5 -12   42.10   21.70
   5  -5 -12   44.60   19.40
  -5   5  12   13.00   15.00
  -5   5  12   45.00   14.90
   4  -5 -12   32.10   19.20
   4  -5 -12   53.09   18.50
  -4   5  12   46.10   15.90
  -4   5  12   59.59   14.40
   3  -5 -12  104.49   22.60
   3  -5 -12   97.19   21.10
  -3   5  12   80.29   18.20
  -3   5  12   98.39   18.30
   2  -5 -12   36.70   16.00
   2  -5 -12   47.40   16.70
  -2   5  12   33.50   12.70
  -2   5  12   35.40   12.00
  -2   5  12   31.30   10.60
   1  -5 -12   25.40   13.00
   1  -5 -12   11.30   12.10
   1  -5 -12   28.70   15.20
  -1   5  12   32.40   11.40
  -1   5  12   40.10   13.40
  -1   5  12   28.40   10.30
   0  -5 -12   53.29   15.50
   0   5  12   55.19   13.30
   0   5  12   47.50   12.30
   0   5  12   64.39   13.70
  -1  -5 -12   95.39   14.80
  -1  -5 -12  128.29   21.30
   1   5  12  130.49   19.10
   1   5  12  138.49   19.70
  -2  -5 -12   66.99   16.70
  -2  -5 -12   61.89   13.30
   2   5  12   51.49   14.10
   2   5  12   73.39   15.10
   2   5  12   85.69   16.20
   2   5  12   48.50   17.30
  -3  -5 -12   77.29   14.90
  -3  -5 -12   77.49   18.20
   3   5  12   63.49   16.60
   3   5  12   77.19   16.60
   3   5  12   91.99   15.60
  -4  -5 -12   25.70   12.10
  -4  -5 -12    6.50   13.30
   4   5  12    5.60   11.30
   4   5  12    9.80   12.10
  -5  -5 -12    0.60   12.30
  -5  -5 -12    5.40   10.50
   5   5  12   -9.70    9.60
   5   5  12   -3.00   12.20
  -6  -5 -12   68.79   19.10
  -6  -5 -12   33.60   14.20
   6   5  12   51.79   16.00
   6   5  12   71.09   19.00
   5  -6 -12   37.30   18.80
   5  -6 -12   41.60   22.00
  -5   6  12   27.90   14.30
  -5   6  12   24.30   15.90
   4  -6 -12  125.69   26.10
   4  -6 -12  123.29   25.00
  -4   6  12  163.48   22.00
  -4   6  12  124.79   22.50
   3  -6 -12   39.30   17.40
   3  -6 -12   22.60   15.70
  -3   6  12   20.50   13.40
  -3   6  12   35.20   12.50
   2  -6 -12   44.30   16.60
   2  -6 -12   52.89   17.40
  -2   6  12   33.60   13.20
  -2   6  12   40.00   13.50
   1  -6 -12   74.39   17.40
   1  -6 -12   49.30   17.00
  -1   6  12   41.00   12.60
  -1   6  12   50.19   12.20
  -1   6  12   71.49   15.40
   0  -6 -12   25.80   11.70
   0  -6 -12   16.10    9.00
   0   6  12   29.00   11.60
   0   6  12   28.30   11.20
   0   6  12   19.60    9.70
  -1  -6 -12  131.39   17.20
  -1  -6 -12  163.48   22.80
   1   6  12  130.79   18.30
   1   6  12  147.39   20.80
  -2  -6 -12   68.19   14.00
  -2  -6 -12  100.99   18.60
   2   6  12   65.49   14.60
   2   6  12   77.19   15.10
  -3  -6 -12   30.00   12.20
  -3  -6 -12   57.99   14.50
   3   6  12   31.60   12.70
   3   6  12   17.90   11.70
  -4  -6 -12   15.30   11.40
  -4  -6 -12    3.00   11.80
   4   6  12   -6.50   10.00
   4   6  12   -4.80   10.20
  -5  -6 -12   10.50   10.90
  -5  -6 -12   12.80   11.20
  -5  -6 -12    9.80   12.90
   5   6  12   24.40   13.90
   5   6  12   12.70   12.20
  -6  -6 -12   41.60   15.10
  -6  -6 -12   22.50   13.30
  -6  -6 -12   65.49   18.10
   6   6  12   57.29   18.00
   6   6  12   24.10   13.40
  -7  -6 -12   10.70   13.40
  -7  -6 -12  -10.20   11.80
  -7  -6 -12    7.80   13.10
   7   6  12   13.20   15.40
   4  -7 -12   17.10   17.30
  -4   7  12    2.30   12.20
  -4   7  12    7.00   12.20
   3  -7 -12   14.80   16.30
  -3   7  12   28.70   13.10
  -3   7  12   33.50   14.00
   2  -7 -12   46.40   17.80
  -2   7  12   34.10   13.30
  -2   7  12   29.20   13.30
   1  -7 -12   30.00   16.80
   1  -7 -12   29.10   10.30
  -1   7  12   21.40   11.10
  -1   7  12    2.60   10.30
   0  -7 -12   92.09   14.70
   0  -7 -12   77.69   18.70
   0  -7 -12   78.09   16.50
   0   7  12   67.39   14.50
   0   7  12   42.80   13.20
  -1  -7 -12   66.89   13.80
  -1  -7 -12  113.19   19.70
   1   7  12  101.09   15.50
   1   7  12   82.69   15.70
  -2  -7 -12  307.37   30.90
  -2  -7 -12  338.07   28.50
   2   7  12  349.47   30.20
  -3  -7 -12   73.59   18.10
  -3  -7 -12   66.49   14.90
   3   7  12   65.59   15.50
   3   7  12   45.80   13.00
  -4  -7 -12   90.79   18.50
  -4  -7 -12   84.29   16.70
   4   7  12   82.39   17.00
   4   7  12  129.09   21.30
  -5  -7 -12    3.80   11.80
  -5  -7 -12    8.10   10.90
   5   7  12    3.20   11.50
   5   7  12    1.60   12.50
  -6  -7 -12   -5.10   12.10
  -6  -7 -12    8.80   11.20
  -6  -7 -12    7.40   11.60
   6   7  12   -5.30   11.40
   6   7  12    3.70   11.90
  -7  -7 -12   41.70   17.00
  -7  -7 -12   56.99   17.90
  -7  -7 -12   52.49   16.30
   7   7  12   32.30   17.70
   4  -8 -12   23.60   16.60
  -4   8  12   26.70   15.70
  -4   8  12   28.00   15.50
  -4   8  12   36.10   14.70
   3  -8 -12   49.60   20.00
  -3   8  12   50.99   15.50
  -3   8  12   39.60   16.10
  -3   8  12   61.49   18.70
   2  -8 -12   19.90   10.00
   2  -8 -12   30.80   17.30
  -2   8  12   15.90   13.00
  -2   8  12   30.30   12.10
   1  -8 -12   18.80   10.50
   1  -8 -12    8.60   14.50
  -1   8  12    6.30    9.90
  -1   8  12    5.40   12.20
   0  -8 -12   38.70   15.60
   0  -8 -12   52.49   12.80
   0   8  12   32.30   12.80
   0   8  12   14.50   11.10
  -1  -8 -12   11.00   10.60
  -1  -8 -12   24.40   14.00
   1   8  12   14.10   11.50
   1   8  12   25.10   11.40
  -2  -8 -12   72.89   16.80
  -2  -8 -12  100.19   17.10
   2   8  12   81.39   16.80
  -3  -8 -12   37.40   13.00
  -3  -8 -12   51.79   16.00
   3   8  12   39.90   14.50
  -4  -8 -12  146.49   22.20
  -4  -8 -12  114.39   20.70
   4   8  12   95.09   18.80
  -5  -8 -12   25.50   14.80
  -5  -8 -12   -1.70   11.60
   5   8  12   36.00   14.40
   5   8  12   23.80   15.70
  -6  -8 -12    6.70   12.80
  -6  -8 -12   32.40   13.80
  -6  -8 -12   31.90   14.50
   6   8  12    7.40   14.60
   6   8  12   19.40   13.50
   3  -9 -12   11.00   16.30
  -3   9  12    3.50   13.10
  -3   9  12   16.60   12.10
  -3   9  12   -5.10   12.80
   2  -9 -12   44.80   13.70
   2  -9 -12   77.19   22.40
  -2   9  12   40.70   15.70
  -2   9  12   68.79   18.60
  -2   9  12   37.10   14.50
   1  -9 -12    8.70   10.30
   1  -9 -12    3.10   13.40
  -1   9  12   12.20   12.00
  -1   9  12   10.50   12.50
  -1   9  12    0.90   11.10
   0  -9 -12   36.30   17.70
   0  -9 -12   35.50   12.80
   0   9  12   29.90   13.00
   0   9  12   12.50   10.70
  -1  -9 -12   71.19   15.30
  -1  -9 -12   55.69   18.40
   1   9  12   61.49   15.20
   1   9  12   67.29   15.70
  -2  -9 -12   -4.40   10.70
  -2  -9 -12   14.10   10.70
   2   9  12   10.10   10.10
   2   9  12   -6.20    9.00
  -3  -9 -12   93.79   19.50
  -3  -9 -12   89.29   17.90
   3   9  12  111.79   19.00
  -4  -9 -12    4.30   12.30
  -4  -9 -12   17.90   12.80
   4   9  12   -2.70   12.10
  -5  -9 -12   29.10   15.00
  -5  -9 -12   25.60   13.50
   5   9  12   44.70   15.40
   5   9  12   32.60   18.30
  -6  -9 -12   10.80   14.20
  -6  -9 -12   10.90   13.30
   6   9  12    5.40   15.20
   6   9  12   13.70   13.40
   2 -10 -12   26.20   13.40
   2 -10 -12   34.50   17.20
  -2  10  12   31.00   13.70
  -2  10  12   26.70   15.10
  -2  10  12   21.30   15.00
   1 -10 -12  147.89   27.90
   1 -10 -12  160.48   22.80
  -1  10  12  170.88   23.90
  -1  10  12  180.08   24.90
   0 -10 -12   15.50   11.70
   0 -10 -12   10.40   13.70
   0  10  12   13.70   12.40
   0  10  12    4.20   13.10
  -1 -10 -12   18.90   12.40
  -1 -10 -12   18.30   16.00
   1  10  12   25.80   12.20
   1  10  12   15.40   13.00
  -2 -10 -12   43.10   18.30
  -2 -10 -12   25.40   13.50
   2  10  12   21.70   13.30
   2  10  12   15.00   11.30
  -3 -10 -12    5.90   11.20
  -3 -10 -12    7.10   12.00
   3  10  12   18.20   12.80
  -4 -10 -12  137.59   21.80
  -4 -10 -12  178.38   24.50
   4  10  12  140.29   22.30
  -5 -10 -12   23.50   13.60
  -5 -10 -12   21.30   13.40
   5  10  12   33.60   18.40
   5  10  12   19.10   13.30
  -6 -10 -12  -12.00   12.20
  -6 -10 -12  -13.10   12.60
   6  10  12   -9.20   14.50
   6  10  12    5.20   11.60
   0 -11 -12   -0.80   11.20
   0 -11 -12   14.30   13.90
   0  11  12   -8.00   11.60
   0  11  12   -3.30   11.50
  -1 -11 -12   15.40   14.60
  -1 -11 -12   12.10   13.20
   1  11  12    7.00   13.20
   1  11  12   16.40   12.30
  -2 -11 -12   32.70   17.30
  -2 -11 -12   17.80   13.80
   2  11  12   59.69   16.10
   2  11  12   43.60   14.90
  -3 -11 -12   13.30   14.60
  -3 -11 -12    0.70   10.80
   3  11  12   -3.30   10.40
  -4 -11 -12   25.40   13.70
  -4 -11 -12   24.70   13.00
   4  11  12   35.40   14.40
  -5 -11 -12   40.70   17.00
   5  11  12   44.70   16.40
   5  11  12   27.70   18.80
   2   0 -13    1.10   11.60
   2   0 -13    6.60   16.60
  -2   0  13   28.90   14.70
  -2   0  13   23.90   13.50
   1   0 -13   24.10   17.10
   1   0 -13   29.60   14.80
  -1   0  13   41.10   14.60
  -1   0  13   44.60   16.30
   0   0 -13   -2.50   11.20
   0   0  13   -6.20   10.90
   0   0  13   18.50   18.10
  -1   0 -13   16.90   14.70
   1   0  13   18.90   13.70
   3  -1 -13   30.70   19.00
   3  -1 -13   47.40   16.80
  -3   1  13   25.60   13.30
  -3   1  13   31.30   14.10
  -3   1  13   41.90   15.00
   2  -1 -13   13.90   15.50
   2  -1 -13   27.90   14.30
  -2   1  13   14.30   11.90
  -2   1  13   12.90   13.00
   1  -1 -13  109.69   21.10
   1  -1 -13  101.89   34.30
  -1   1  13   85.09   17.90
  -1   1  13   87.69   18.60
   0  -1 -13   -2.80   12.10
   0   1  13   -4.90   11.20
   0   1  13   10.90   11.90
  -1  -1 -13   52.79   16.40
   1   1  13   28.10   12.60
   1   1  13   43.10   14.90
  -2  -1 -13    4.50   13.80
   2   1  13    2.20   11.90
   2   1  13   -9.30   10.30
  -3  -1 -13   37.10   15.10
  -3  -1 -13   35.60   16.80
   3   1  13   -6.90   12.60
   3   1  13   24.20   15.70
   4  -2 -13   10.90   17.90
  -4   2  13   17.30   12.80
  -4   2  13    8.30   11.70
  -4   2  13   23.90   12.60
   3  -2 -13   73.99   18.40
   3  -2 -13   56.09   20.80
  -3   2  13   47.00   14.90
  -3   2  13   42.40   15.40
  -3   2  13   46.10   14.70
   2  -2 -13   91.59   19.90
   2  -2 -13   98.19   20.20
   2  -2 -13  104.49   24.10
  -2   2  13   76.59   17.00
  -2   2  13   77.89   17.60
  -2   2  13  108.19   19.10
   1  -2 -13   22.90   14.80
  -1   2  13   28.40   12.60
  -1   2  13   31.90   14.00
   0  -2 -13   57.69   17.40
   0   2  13   41.70   13.50
   0   2  13   53.19   14.60
  -1  -2 -13   65.79   18.70
   1   2  13   48.00   15.00
   1   2  13   42.10   13.90
  -2  -2 -13   18.60   15.20
   2   2  13   13.70   13.10
   2   2  13   25.20   12.70
   2   2  13   13.10   11.20
  -3  -2 -13   14.40   14.60
   3   2  13   -6.10   12.50
   3   2  13  -11.40   11.00
  -4  -2 -13   37.90   16.00
   4   2  13   58.39   18.20
   4   2  13   33.50   14.90
   4  -3 -13   35.30   20.70
   4  -3 -13   40.00   17.20
  -4   3  13   53.69   16.60
  -4   3  13   55.99   14.90
   3  -3 -13   60.49   19.20
   3  -3 -13   76.89   22.30
  -3   3  13   73.09   16.20
  -3   3  13   70.69   17.00
  -3   3  13   98.49   18.80
   2  -3 -13  126.89   23.20
   2  -3 -13  139.39   26.10
   2  -3 -13  133.59   22.90
  -2   3  13  147.39   21.20
  -2   3  13  122.69   19.80
  -2   3  13  133.89   20.50
   1  -3 -13   32.00   14.10
  -1   3  13   44.80   13.60
  -1   3  13   64.29   15.90
   0  -3 -13  144.49   23.00
   0   3  13  175.18   22.40
   0   3  13  138.89   21.40
  -1  -3 -13   67.59   17.70
   1   3  13   85.49   16.40
   1   3  13   75.49   16.10
  -2  -3 -13    5.70   12.60
   2   3  13  -12.80    9.50
   2   3  13   17.60   11.80
   2   3  13   13.70   12.50
  -3  -3 -13   -9.80   10.90
   3   3  13    6.20   12.60
   3   3  13   -0.70   10.00
   3   3  13   15.80   12.40
  -4  -3 -13   78.69   20.50
   4   3  13   69.99   19.40
   4   3  13   87.49   20.00
   4  -4 -13   17.10   18.30
   4  -4 -13   -6.80   13.70
  -4   4  13    0.70   11.80
  -4   4  13    2.50   13.70
   3  -4 -13   64.79   21.20
   3  -4 -13   64.69   19.10
  -3   4  13   90.69   17.00
  -3   4  13   77.69   18.10
   2  -4 -13   90.29   20.20
   2  -4 -13   90.59   20.70
   2  -4 -13  111.09   22.60
  -2   4  13   57.59   15.40
  -2   4  13   56.39   15.30
  -2   4  13   84.49   16.30
   1  -4 -13   76.59   17.50
   1  -4 -13   90.29   21.90
  -1   4  13   66.39   15.10
  -1   4  13   73.69   15.90
  -1   4  13   62.39   15.30
   0  -4 -13   58.59   16.70
   0   4  13   32.30   12.00
   0   4  13   31.80   14.00
  -1  -4 -13   56.89   16.50
   1   4  13   48.70   14.30
   1   4  13   33.00   13.40
  -2  -4 -13   26.00   14.00
   2   4  13   49.40   15.00
   2   4  13   26.50   12.90
   2   4  13    2.60   12.00
  -3  -4 -13   35.80   16.30
   3   4  13   39.60   13.70
   3   4  13   40.00   13.90
   3   4  13   29.30   13.30
  -4  -4 -13   54.59   16.50
  -4  -4 -13   36.10   13.30
   4   4  13   30.60   14.80
   4   4  13   30.50   12.70
  -5  -4 -13   50.39   17.00
  -5  -4 -13   65.99   17.30
   5   4  13   53.89   17.40
   4  -5 -13   19.20   15.60
   4  -5 -13   13.70   17.70
  -4   5  13    5.50   12.30
  -4   5  13   20.50   14.00
   3  -5 -13    7.40   14.40
   3  -5 -13   13.10   15.70
  -3   5  13   20.30   13.80
  -3   5  13   16.80   12.20
   2  -5 -13  144.29   25.60
   2  -5 -13  132.59   25.30
  -2   5  13   96.19   18.70
  -2   5  13   82.49   17.00
   1  -5 -13   89.69   19.10
   1  -5 -13   75.99   20.20
  -1   5  13   57.99   15.90
  -1   5  13   61.09   14.00
  -1   5  13   60.19   14.90
   0  -5 -13   15.70   14.10
   0   5  13   32.90   11.90
   0   5  13   48.00   14.50
  -1  -5 -13   10.30   12.10
   1   5  13    4.20   11.60
   1   5  13   10.50   11.50
  -2  -5 -13   69.89   18.00
   2   5  13   69.39   16.40
   2   5  13   61.69   15.80
   2   5  13   58.89   18.50
  -3  -5 -13   22.10   11.30
  -3  -5 -13    2.20   12.70
   3   5  13   13.30   11.80
   3   5  13   17.80   11.20
  -4  -5 -13    3.00   10.50
  -4  -5 -13   11.80   13.10
   4   5  13   18.40   13.50
   4   5  13   -2.50    9.90
  -5  -5 -13   13.40   13.60
  -5  -5 -13   40.80   15.70
   5   5  13   17.10   14.00
   5   5  13   37.30   13.50
   4  -6 -13   19.80   18.10
   4  -6 -13   43.40   18.30
  -4   6  13   10.50   13.10
  -4   6  13   23.10   13.60
   3  -6 -13    4.30   13.10
   3  -6 -13    6.10   14.50
  -3   6  13   -7.90   11.00
  -3   6  13    0.10   10.20
   2  -6 -13   29.90   17.00
  -2   6  13   55.59   14.50
  -2   6  13   33.20   14.60
   1  -6 -13   36.40   17.80
   1  -6 -13   43.50   16.20
  -1   6  13   21.70   12.20
  -1   6  13   16.30   12.50
   0  -6 -13   79.39   17.70
   0   6  13   57.59   14.90
   0   6  13   76.39   15.30
  -1  -6 -13   31.10   13.80
   1   6  13   22.30   12.10
   1   6  13   36.80   12.50
  -2  -6 -13   43.40   13.30
  -2  -6 -13   54.09   17.30
   2   6  13   49.70   15.00
  -3  -6 -13    0.20   11.60
  -3  -6 -13   34.40   12.80
   3   6  13   -3.20   10.80
   3   6  13   25.80   13.20
  -4  -6 -13   45.40   14.70
  -4  -6 -13   36.20   16.40
   4   6  13   26.20   14.10
   4   6  13   23.90   14.40
  -5  -6 -13   53.49   16.50
  -5  -6 -13   39.20   15.80
   5   6  13   41.60   14.60
   5   6  13   65.19   18.10
   3  -7 -13    7.40   16.40
   3  -7 -13   20.00   17.40
  -3   7  13    4.20   12.20
  -3   7  13   25.40   15.60
   2  -7 -13   17.50   16.20
  -2   7  13   11.30   12.80
  -2   7  13    4.20   10.70
   1  -7 -13  163.48   27.20
  -1   7  13  127.69   20.30
  -1   7  13  173.48   23.00
   0  -7 -13   29.60   14.00
   0  -7 -13   41.40   18.10
   0   7  13   45.70   15.40
   0   7  13   37.90   13.30
  -1  -7 -13   36.60   12.00
  -1  -7 -13   63.49   17.30
   1   7  13   53.99   15.90
  -2  -7 -13   21.00   11.60
  -2  -7 -13   26.40   13.90
   2   7  13   24.20   12.60
  -3  -7 -13   14.90   14.30
  -3  -7 -13   15.20   10.30
   3   7  13   28.70   12.90
   3   7  13   33.90   13.90
  -4  -7 -13   88.09   20.00
  -4  -7 -13  120.09   20.70
   4   7  13   68.19   16.60
   4   7  13   76.49   18.20
  -5  -7 -13   -8.00   10.40
  -5  -7 -13   -4.40   10.80
   5   7  13    0.40   12.40
   5   7  13   -7.50   11.80
   3  -8 -13   23.90   16.50
  -3   8  13    9.30   12.60
  -3   8  13    8.90   13.50
   2  -8 -13   71.59   20.20
  -2   8  13   45.10   16.40
  -2   8  13   21.50   12.10
   1  -8 -13  107.69   25.30
  -1   8  13  128.79   21.40
  -1   8  13  107.69   20.30
   0  -8 -13  174.18   29.70
   0  -8 -13  186.18   21.90
   0   8  13  185.68   23.60
   0   8  13  151.58   21.20
  -1  -8 -13   18.80   11.20
  -1  -8 -13   21.70   15.00
  -1  -8 -13   24.60   15.70
   1   8  13   11.50   11.70
  -2  -8 -13   37.60   13.40
  -2  -8 -13   63.49   17.70
   2   8  13   75.69   17.80
  -3  -8 -13   -4.00   11.30
  -3  -8 -13    4.90   12.00
   3   8  13  -10.30   10.70
  -4  -8 -13   34.00   14.80
  -4  -8 -13   47.80   15.50
   4   8  13   24.90   13.70
  -5  -8 -13   87.79   20.50
  -5  -8 -13   74.29   18.10
   5   8  13   91.49   19.80
   2  -9 -13   58.19   21.50
  -2   9  13   33.90   15.80
  -2   9  13   31.20   14.60
  -2   9  13   47.20   16.10
   1  -9 -13   10.10   11.40
   1  -9 -13   -0.10   12.60
  -1   9  13   11.30   12.90
  -1   9  13   -7.10   10.60
   0  -9 -13  130.29   26.90
   0  -9 -13  148.69   21.20
   0   9  13  151.78   22.40
   0   9  13  100.59   20.10
  -1  -9 -13   23.40   12.20
  -1  -9 -13    6.40   12.10
  -1  -9 -13   32.10   16.80
   1   9  13    8.40   11.30
   1   9  13    7.80   12.20
  -2  -9 -13   27.80   13.40
  -2  -9 -13   14.50   12.90
   2   9  13   17.50   13.30
  -3  -9 -13    6.60   13.30
  -3  -9 -13    1.70   11.50
   3   9  13   18.10   12.50
  -4  -9 -13   -6.00   10.80
  -4  -9 -13    0.90   11.60
   4   9  13    4.60   12.30
  -5  -9 -13   33.10   15.10
  -5  -9 -13   48.20   16.40
   5   9  13   34.40   14.00
   5   9  13   32.00   19.10
   0 -10 -13   68.89   22.10
   0 -10 -13   58.19   16.00
   0  10  13   44.10   15.80
   0  10  13   34.40   15.20
  -1 -10 -13  117.09   20.30
  -1 -10 -13  125.39   26.50
   1  10  13   92.49   19.60
   1  10  13  174.18   23.70
  -2 -10 -13   35.40   15.00
  -2 -10 -13   14.10   15.30
   2  10  13   17.90   12.90
  -3 -10 -13   10.20   12.50
  -3 -10 -13   16.80   15.10
   3  10  13   31.40   14.40
  -4 -10 -13   15.20   13.50
  -4 -10 -13    2.60   12.80
   4  10  13   -1.30   12.50
   1  -2 -14   10.60   14.00
  -1   2  14   21.00   12.20
  -1   2  14   11.00   12.70
   0  -2 -14   35.00   15.40
   0   2  14   51.59   14.60
   0   2  14   64.79   18.40
  -1  -2 -14    8.40   12.80
   1   2  14    3.40   11.90
   1   2  14    5.80   12.50
   2  -3 -14   57.69   18.80
   2  -3 -14   55.29   17.20
  -2   3  14   61.39   15.80
  -2   3  14   32.20   13.70
   1  -3 -14   17.00   15.10
   1  -3 -14   23.50   13.60
  -1   3  14   28.50   13.40
  -1   3  14   19.70   13.30
   0  -3 -14   49.10   17.00
   0   3  14   42.20   15.40
   0   3  14   63.29   16.30
  -1  -3 -14   13.60   14.70
   1   3  14   29.30   14.10
   1   3  14   38.50   15.50
  -2  -3 -14  107.19   21.90
   2   3  14   54.99   18.30
   2   3  14   83.59   18.80
   2  -4 -14  202.88   31.50
   2  -4 -14  192.98   27.70
  -2   4  14  177.08   25.00
  -2   4  14  206.68   35.60
  -2   4  14  199.98   24.00
   1  -4 -14    6.00   13.10
   1  -4 -14   -3.50   13.60
  -1   4  14   12.70   11.50
  -1   4  14   -2.70   10.90
   0  -4 -14   14.20   15.10
   0   4  14   24.70   12.50
   0   4  14   15.10   13.20
  -1  -4 -14   61.09   17.40
   1   4  14   71.99   17.10
   1   4  14   80.39   18.30
  -2  -4 -14   56.19   18.40
   2   4  14   73.29   18.10
   2   4  14   52.59   17.30
  -3  -4 -14   52.59   17.90
   3   4  14   99.29   20.50
   3   4  14   70.09   18.70
   3   4  14   84.29   17.50
   2  -5 -14   43.90   16.20
   2  -5 -14   12.30   16.50
  -2   5  14   32.30   14.80
  -2   5  14   54.09   15.30
   1  -5 -14   27.60   16.10
   1  -5 -14   44.20   19.00
  -1   5  14   23.20   12.80
  -1   5  14   40.20   13.20
   0  -5 -14   19.80   15.10
   0   5  14   52.19   15.80
   0   5  14   40.80   14.40
  -1  -5 -14  -13.30   10.40
   1   5  14   19.40   13.00
   1   5  14    4.20   12.40
  -2  -5 -14   68.19   19.30
   2   5  14   51.49   16.00
   2   5  14   62.59   15.90
  -3  -5 -14   47.70   16.70
   3   5  14   28.40   19.50
   3   5  14   27.50   13.50
  -4  -5 -14    5.50   13.80
   4   5  14    6.80   13.70
   4   5  14   22.70   13.40
   2  -6 -14    5.90   15.60
  -2   6  14   -2.20   12.40
  -2   6  14   17.10   12.20
   1  -6 -14   15.90   15.30
   1  -6 -14   41.70   19.20
  -1   6  14   19.20   13.60
   0  -6 -14   51.39   18.30
   0  -6 -14   87.99   23.40
   0   6  14   69.09   17.90
   0   6  14   62.09   15.90
  -1  -6 -14   20.40   14.00
   1   6  14   19.00   11.80
   1   6  14   12.30   12.10
  -2  -6 -14   11.70   15.50
   2   6  14    9.20   13.00
  -3  -6 -14   24.90   16.10
   3   6  14   43.50   15.10
  -4  -6 -14    9.20   12.60
  -4  -6 -14   57.59   18.60
   4   6  14   48.40   16.40
   4   6  14   44.40   16.00
   2  -7 -14   16.20   17.00
  -2   7  14   40.70   15.40
  -2   7  14   27.40   15.10
   1  -7 -14   21.50   18.60
  -1   7  14   -4.00   11.20
  -1   7  14   25.20   13.80
   0  -7 -14   33.90   15.70
   0  -7 -14   33.30   19.40
   0   7  14   29.70   13.50
  -1  -7 -14    0.60   13.00
   1   7  14   17.30   12.20
  -2  -7 -14    4.80   11.70
   2   7  14   11.70   12.50
  -3  -7 -14   97.99   17.90
  -3  -7 -14   78.79   19.80
   3   7  14  132.39   21.80
  -4  -7 -14   24.20   15.50
  -4  -7 -14   26.20   14.50
   4   7  14   27.90   14.70
   4   7  14   26.00   14.40
   1  -8 -14    2.60   16.90
  -1   8  14   11.30   11.70
  -1   8  14   16.10   12.70
   0  -8 -14   31.30   15.20
   0  -8 -14   36.00   17.00
   0   8  14   22.50   13.10
  -1  -8 -14   24.80   17.60
  -1  -8 -14   20.90   14.10
   1   8  14   27.80   13.90
  -2  -8 -14   24.50   16.00
  -2  -8 -14    4.50   11.40
   2   8  14   23.60   14.00
  -3  -8 -14   -5.20   10.30
  -3  -8 -14   27.50   16.70
   3   8  14   15.00   13.10
  -4  -8 -14   12.50   15.20
  -4  -8 -14   10.50   12.70
   4   8  14   14.10   13.60
   0  -9 -14   -2.50   15.30
   0   9  14   -2.50   10.50
   0   9  14    2.20   11.90
  -1  -9 -14   47.50   18.80
  -1  -9 -14   45.20   19.50
  -1  -9 -14   42.70   13.90
   1   9  14   53.89   16.50
  -2  -9 -14   87.89   17.80
  -2  -9 -14   39.40   18.60
   2   9  14   58.29   16.30
  -3  -9 -14   -7.10   10.60
  -3  -9 -14   10.10   15.00
   3   9  14  -19.30   10.80
;
_shelx_hkl_checksum              69084
loop_
_space_group_symop_operation_xyz
'x, y, z'
loop_
_atom_site_label
_atom_site_type_symbol
_atom_site_fract_x
_atom_site_fract_y
_atom_site_fract_z
_atom_site_U_iso_or_equiv
_atom_site_adp_type
_atom_site_occupancy
_atom_site_site_symmetry_order
_atom_site_calc_flag
_atom_site_refinement_flags_posn
_atom_site_refinement_flags_adp
Br1A Br -0.03861(13) 0.68233(13) 0.34056(10) 0.0757(4) Uani 1 1 d . .
Br2A Br 0.26353(8) -0.33903(7) 0.68899(7) 0.0343(2) Uani 1 1 d . .
Cl1A Cl 0.4092(2) 0.55535(19) 0.15872(17) 0.0283(4) Uani 1 1 d . .
O1A O 0.3437(6) 0.3625(5) 0.4397(4) 0.0248(11) Uani 1 1 d . .
O2A O 0.4664(7) 0.2800(6) 0.6348(5) 0.0322(13) Uani 1 1 d . .
C1A C 0.1231(8) 0.6064(8) 0.2447(7) 0.0310(17) Uani 1 1 d . .
H1AA H 0.1268 0.5017 0.2684 0.037 Uiso 1 1 calc R U
H1AB H 0.0930 0.6653 0.1508 0.037 Uiso 1 1 calc R U
C2A C 0.2868(8) 0.6141(8) 0.2723(7) 0.0244(15) Uani 1 1 d . .
C3A C 0.2967(10) 0.7689(8) 0.2431(7) 0.0280(17) Uani 1 1 d . .
H3AA H 0.4118 0.7673 0.2441 0.034 Uiso 1 1 calc R U
H3AB H 0.2475 0.7943 0.3132 0.034 Uiso 1 1 calc R U
C4A C 0.2142(10) 0.8909(7) 0.1139(7) 0.0324(18) Uani 1 1 d . .
H4AA H 0.2631 0.8663 0.0434 0.039 Uiso 1 1 calc R U
H4AB H 0.0988 0.8937 0.1126 0.039 Uiso 1 1 calc R U
C5A C 0.2271(9) 1.0437(7) 0.0881(6) 0.0254(16) Uani 1 1 d . .
C6A C 0.3168(9) 1.1151(8) -0.0096(8) 0.0338(18) Uani 1 1 d . .
H6AA H 0.3726 1.0666 -0.0596 0.041 Uiso 1 1 calc R U
C7A C 0.3280(10) 1.2546(9) -0.0368(9) 0.041(2) Uani 1 1 d . .
H7AA H 0.3890 1.3024 -0.1062 0.049 Uiso 1 1 calc R U
C8A C 0.2518(11) 1.3247(9) 0.0354(8) 0.039(2) Uani 1 1 d . .
H8AA H 0.2629 1.4198 0.0183 0.047 Uiso 1 1 calc R U
C9A C 0.1575(13) 1.2570(9) 0.1344(8) 0.047(3) Uani 1 1 d . .
H9AA H 0.1024 1.3063 0.1841 0.057 Uiso 1 1 calc R U
C10A C 0.1452(11) 1.1167(9) 0.1596(7) 0.038(2) Uani 1 1 d . .
H10A H 0.0801 1.0703 0.2262 0.045 Uiso 1 1 calc R U
C11A C 0.3569(10) 0.5087(7) 0.4087(6) 0.0279(17) Uani 1 1 d . .
H11A H 0.4716 0.5056 0.4158 0.033 Uiso 1 1 calc R U
H11B H 0.2980 0.5441 0.4706 0.033 Uiso 1 1 calc R U
C12A C 0.4016(9) 0.2565(7) 0.5604(7) 0.0206(15) Uani 1 1 d . .
C13A C 0.3720(8) 0.1137(7) 0.5869(6) 0.0175(14) Uani 1 1 d . .
C14A C 0.4349(9) -0.0098(8) 0.7019(7) 0.0265(17) Uani 1 1 d . .
H14A H 0.4997 -0.0013 0.7604 0.032 Uiso 1 1 calc R U
C15A C 0.4053(9) -0.1458(8) 0.7336(7) 0.0269(17) Uani 1 1 d . .
H15A H 0.4484 -0.2298 0.8131 0.032 Uiso 1 1 calc R U
C16A C 0.3133(9) -0.1566(8) 0.6482(7) 0.0264(17) Uani 1 1 d . .
C17A C 0.2502(9) -0.0360(8) 0.5295(7) 0.0272(17) Uani 1 1 d . .
H17A H 0.1883 -0.0461 0.4703 0.033 Uiso 1 1 calc R U
C18A C 0.2804(9) 0.0973(8) 0.5011(7) 0.0284(17) Uani 1 1 d . .
H18A H 0.2379 0.1807 0.4211 0.034 Uiso 1 1 calc R U
Br1B Br 0.66509(10) 0.39782(9) 0.95017(7) 0.0406(2) Uani 1 1 d . .
Br2B Br 0.82041(8) 1.33894(7) 0.36945(7) 0.0325(2) Uani 1 1 d . .
Cl1B Cl 1.0411(2) 0.3775(2) 0.67051(19) 0.0349(5) Uani 1 1 d . .
O1B O 0.7368(6) 0.6405(5) 0.6073(4) 0.0241(11) Uani 1 1 d . .
O2B O 0.5629(6) 0.7418(5) 0.4347(5) 0.0300(12) Uani 1 1 d . .
C1B C 0.8571(9) 0.4079(8) 0.8521(7) 0.0284(16) Uani 1 1 d . .
H1B1 H 0.8741 0.5079 0.8219 0.034 Uiso 1 1 calc R U
H1B2 H 0.9523 0.3335 0.9089 0.034 Uiso 1 1 calc R U
C2B C 0.8417(8) 0.3784(7) 0.7372(6) 0.0229(15) Uani 1 1 d . .
C3B C 0.8121(8) 0.2284(7) 0.7694(7) 0.0236(15) Uani 1 1 d . .
H3BA H 0.7014 0.2308 0.7986 0.028 Uiso 1 1 calc R U
H3BB H 0.8175 0.2150 0.6890 0.028 Uiso 1 1 calc R U
C4B C 0.9293(10) 0.0940(8) 0.8726(8) 0.038(2) Uani 1 1 d . .
H4BA H 1.0378 0.0817 0.8383 0.045 Uiso 1 1 calc R U
H4BB H 0.9361 0.1131 0.9489 0.045 Uiso 1 1 calc R U
C5B C 0.8821(9) -0.0482(7) 0.9151(7) 0.0252(16) Uani 1 1 d . .
C6B C 0.9657(10) -0.1577(9) 0.8809(7) 0.0353(19) Uani 1 1 d . .
H6BA H 1.0527 -0.1421 0.8262 0.042 Uiso 1 1 calc R U
C7B C 0.9253(11) -0.2893(9) 0.9247(8) 0.035(2) Uani 1 1 d . .
H7BA H 0.9862 -0.3642 0.9007 0.042 Uiso 1 1 calc R U
C8B C 0.7990(13) -0.3156(10) 1.0024(9) 0.047(3) Uani 1 1 d . .
H8BA H 0.7718 -0.4072 1.0325 0.056 Uiso 1 1 calc R U
C9B C 0.7135(11) -0.2056(11) 1.0350(9) 0.053(3) Uani 1 1 d . .
H9BA H 0.6243 -0.2203 1.0874 0.064 Uiso 1 1 calc R U
C10B C 0.7559(10) -0.0709(9) 0.9919(8) 0.0389(19) Uani 1 1 d . .
H10B H 0.6966 0.0040 1.0164 0.047 Uiso 1 1 calc R U
C11B C 0.7154(8) 0.4974(7) 0.6343(6) 0.0217(15) Uani 1 1 d . .
H11C H 0.7264 0.4824 0.5546 0.026 Uiso 1 1 calc R U
H11D H 0.6063 0.4923 0.6649 0.026 Uiso 1 1 calc R U
C12B C 0.6549(9) 0.7542(8) 0.5004(7) 0.0236(16) Uani 1 1 d . .
C13B C 0.6952(9) 0.8968(8) 0.4722(7) 0.0237(17) Uani 1 1 d . .
C14B C 0.7947(9) 0.9046(8) 0.5566(7) 0.0236(16) Uani 1 1 d . .
H14B H 0.8386 0.8192 0.6350 0.028 Uiso 1 1 calc R U
C15B C 0.8301(9) 1.0373(8) 0.5264(7) 0.0272(17) Uani 1 1 d . .
H15B H 0.8969 1.0446 0.5843 0.033 Uiso 1 1 calc R U
C16B C 0.7677(9) 1.1578(8) 0.4121(7) 0.0251(17) Uani 1 1 d . .
C17B C 0.6670(10) 1.1527(8) 0.3256(7) 0.0300(18) Uani 1 1 d . .
H17B H 0.6237 1.2383 0.2472 0.036 Uiso 1 1 calc R U
C18B C 0.6321(10) 1.0217(8) 0.3563(7) 0.0289(18) Uani 1 1 d . .
H18B H 0.5643 1.0152 0.2985 0.035 Uiso 1 1 calc R U
loop_
_atom_site_aniso_label
_atom_site_aniso_U_11
_atom_site_aniso_U_22
_atom_site_aniso_U_33
_atom_site_aniso_U_23
_atom_site_aniso_U_13
_atom_site_aniso_U_12
Br1A 0.0439(6) 0.0802(8) 0.0480(6) 0.0013(5) 0.0226(5) 0.0111(5)
Br2A 0.0381(5) 0.0204(4) 0.0430(4) -0.0128(3) 0.0100(4) -0.0097(3)
Cl1A 0.0303(10) 0.0245(9) 0.0319(10) -0.0164(8) 0.0033(8) -0.0036(8)
O1A 0.036(3) 0.014(2) 0.020(2) -0.003(2) -0.004(2) -0.006(2)
O2A 0.042(3) 0.024(3) 0.025(3) -0.004(2) -0.010(2) -0.008(3)
C1A 0.025(4) 0.025(4) 0.032(4) -0.003(3) -0.003(3) -0.006(3)
C2A 0.024(4) 0.022(4) 0.027(4) -0.011(3) -0.003(3) -0.005(3)
C3A 0.039(4) 0.023(4) 0.020(3) -0.006(3) -0.008(3) -0.007(3)
C4A 0.049(5) 0.016(3) 0.028(4) -0.005(3) -0.016(4) -0.007(3)
C5A 0.034(4) 0.017(3) 0.020(3) -0.005(3) -0.013(3) 0.000(3)
C6A 0.028(4) 0.029(4) 0.045(5) -0.022(4) -0.005(4) 0.003(3)
C7A 0.036(5) 0.033(4) 0.053(5) -0.013(4) -0.003(4) -0.016(4)
C8A 0.049(5) 0.024(4) 0.044(5) -0.008(4) -0.021(4) -0.017(4)
C9A 0.077(7) 0.026(4) 0.035(5) -0.023(4) -0.022(5) 0.016(5)
C10A 0.054(6) 0.026(4) 0.021(4) -0.002(3) -0.004(4) -0.007(4)
C11A 0.043(5) 0.017(4) 0.022(3) -0.008(3) -0.003(3) -0.007(3)
C12A 0.023(4) 0.016(3) 0.019(3) -0.004(3) 0.000(3) -0.005(3)
C13A 0.021(3) 0.011(3) 0.019(3) -0.006(3) 0.004(3) -0.003(3)
C14A 0.027(4) 0.026(4) 0.020(4) -0.008(3) -0.002(3) 0.000(3)
C15A 0.032(4) 0.015(4) 0.020(3) -0.002(3) -0.002(3) 0.006(3)
C16A 0.025(4) 0.015(4) 0.034(4) -0.008(3) 0.008(3) -0.003(3)
C17A 0.026(4) 0.026(4) 0.027(4) -0.010(3) -0.004(3) -0.003(3)
C18A 0.030(4) 0.024(4) 0.025(4) -0.005(3) -0.006(3) -0.005(3)
Br1B 0.0518(5) 0.0468(5) 0.0344(5) -0.0239(4) 0.0116(4) -0.0219(4)
Br2B 0.0344(5) 0.0224(4) 0.0377(4) -0.0093(3) 0.0064(4) -0.0107(3)
Cl1B 0.0243(9) 0.0312(10) 0.0389(11) -0.0063(9) 0.0071(8) -0.0085(8)
O1B 0.033(3) 0.016(2) 0.021(2) -0.007(2) -0.010(2) -0.002(2)
O2B 0.037(3) 0.020(3) 0.029(3) -0.006(2) -0.016(2) -0.004(2)
C1B 0.031(4) 0.022(4) 0.032(4) -0.008(3) -0.010(3) -0.012(3)
C2B 0.028(4) 0.012(3) 0.026(4) -0.004(3) -0.003(3) -0.007(3)
C3B 0.025(4) 0.015(3) 0.030(4) -0.011(3) -0.011(3) -0.001(3)
C4B 0.034(5) 0.025(4) 0.051(5) -0.011(4) -0.018(4) -0.006(4)
C5B 0.025(4) 0.014(3) 0.030(4) -0.002(3) -0.010(3) -0.006(3)
C6B 0.037(5) 0.039(5) 0.028(4) -0.010(4) -0.005(4) -0.012(4)
C7B 0.040(5) 0.026(4) 0.041(5) -0.014(4) -0.012(4) -0.009(4)
C8B 0.065(7) 0.028(5) 0.049(5) -0.010(4) -0.018(5) -0.022(5)
C9B 0.037(5) 0.064(6) 0.055(6) -0.012(5) 0.009(4) -0.035(5)
C10B 0.032(4) 0.035(4) 0.057(5) -0.029(4) 0.001(4) -0.003(4)
C11B 0.025(4) 0.012(3) 0.026(4) -0.010(3) -0.008(3) 0.003(3)
C12B 0.023(4) 0.018(4) 0.021(4) -0.007(3) 0.004(3) 0.003(3)
C13B 0.029(4) 0.014(3) 0.023(4) -0.005(3) 0.002(3) -0.001(3)
C14B 0.030(4) 0.018(4) 0.018(3) -0.005(3) -0.003(3) -0.003(3)
C15B 0.034(4) 0.025(4) 0.027(4) -0.014(3) -0.003(3) -0.008(3)
C16B 0.024(4) 0.022(4) 0.029(4) -0.012(3) 0.012(3) -0.007(3)
C17B 0.040(5) 0.023(4) 0.019(4) -0.003(3) -0.001(3) -0.007(4)
C18B 0.030(4) 0.026(4) 0.025(4) -0.009(3) -0.006(3) -0.001(3)
loop_
_atom_type_symbol
_atom_type_description
_atom_type_scat_dispersion_real
_atom_type_scat_dispersion_imag
_atom_type_scat_source
C C 0.0033 0.0016 'International Tables Vol C Tables 4.2.6.8 and 6.1.1.4'
H H 0.0000 0.0000 'International Tables Vol C Tables 4.2.6.8 and 6.1.1.4'
O O 0.0106 0.0060 'International Tables Vol C Tables 4.2.6.8 and 6.1.1.4'
Cl Cl 0.1484 0.1585 'International Tables Vol C Tables 4.2.6.8 and 6.1.1.4'
Br Br -0.2901 2.4595 'International Tables Vol C Tables 4.2.6.8 and 6.1.1.4'
loop_
_geom_angle_atom_site_label_1
_geom_angle_atom_site_label_2
_geom_angle_atom_site_label_3
_geom_angle
C12A O1A C11A 115.5(5)
C2A C1A Br1A 111.5(5)
C1A C2A C11A 113.9(6)
C1A C2A C3A 114.6(6)
C11A C2A C3A 108.6(6)
C1A C2A Cl1A 102.4(5)
C11A C2A Cl1A 108.9(5)
C3A C2A Cl1A 108.1(5)
C2A C3A C4A 114.7(6)
C5A C4A C3A 113.1(6)
C6A C5A C10A 118.4(7)
C6A C5A C4A 120.4(7)
C10A C5A C4A 121.2(7)
C5A C6A C7A 121.7(7)
C8A C7A C6A 120.2(8)
C7A C8A C9A 120.0(8)
C10A C9A C8A 119.2(8)
C5A C10A C9A 120.5(8)
O1A C11A C2A 109.4(6)
O2A C12A O1A 122.9(6)
O2A C12A C13A 125.4(6)
O1A C12A C13A 111.7(6)
C14A C13A C18A 118.2(6)
C14A C13A C12A 119.2(6)
C18A C13A C12A 122.6(6)
C13A C14A C15A 121.4(7)
C16A C15A C14A 118.6(6)
C15A C16A C17A 122.2(7)
C15A C16A Br2A 120.4(5)
C17A C16A Br2A 117.4(6)
C18A C17A C16A 118.0(7)
C17A C18A C13A 121.7(6)
C12B O1B C11B 115.0(5)
C2B C1B Br1B 111.1(5)
C1B C2B C11B 114.1(6)
C1B C2B C3B 115.1(5)
C11B C2B C3B 107.8(5)
C1B C2B Cl1B 102.7(5)
C11B C2B Cl1B 108.7(5)
C3B C2B Cl1B 107.9(5)
C4B C3B C2B 115.2(6)
C5B C4B C3B 113.4(6)
C10B C5B C6B 119.0(7)
C10B C5B C4B 119.5(7)
C6B C5B C4B 121.4(7)
C5B C6B C7B 120.8(8)
C6B C7B C8B 121.5(8)
C9B C8B C7B 117.9(8)
C8B C9B C10B 120.9(8)
C5B C10B C9B 119.9(7)
O1B C11B C2B 108.5(5)
O2B C12B O1B 123.4(7)
O2B C12B C13B 124.8(6)
O1B C12B C13B 111.8(6)
C14B C13B C18B 120.3(7)
C14B C13B C12B 121.4(6)
C18B C13B C12B 118.3(7)
C13B C14B C15B 119.6(6)
C16B C15B C14B 119.1(7)
C15B C16B C17B 122.3(7)
C15B C16B Br2B 118.9(6)
C17B C16B Br2B 118.8(5)
C18B C17B C16B 118.2(7)
C17B C18B C13B 120.5(7)
C2A C1A H1AA 109.3
Br1A C1A H1AA 109.3
C2A C1A H1AB 109.3
Br1A C1A H1AB 109.3
H1AA C1A H1AB 108.0
C2A C3A H3AA 108.6
C4A C3A H3AA 108.6
C2A C3A H3AB 108.6
C4A C3A H3AB 108.6
H3AA C3A H3AB 107.6
C5A C4A H4AA 109.0
C3A C4A H4AA 109.0
C5A C4A H4AB 109.0
C3A C4A H4AB 109.0
H4AA C4A H4AB 107.8
C5A C6A H6AA 119.2
C7A C6A H6AA 119.2
C8A C7A H7AA 119.9
C6A C7A H7AA 119.9
C7A C8A H8AA 120.0
C9A C8A H8AA 120.0
C10A C9A H9AA 120.4
C8A C9A H9AA 120.4
C5A C10A H10A 119.7
C9A C10A H10A 119.7
O1A C11A H11A 109.8
C2A C11A H11A 109.8
O1A C11A H11B 109.8
C2A C11A H11B 109.8
H11A C11A H11B 108.2
C13A C14A H14A 119.3
C15A C14A H14A 119.3
C16A C15A H15A 120.7
C14A C15A H15A 120.7
C18A C17A H17A 121.0
C16A C17A H17A 121.0
C17A C18A H18A 119.2
C13A C18A H18A 119.2
C2B C1B H1B1 109.4
Br1B C1B H1B1 109.4
C2B C1B H1B2 109.4
Br1B C1B H1B2 109.4
H1B1 C1B H1B2 108.0
C4B C3B H3BA 108.5
C2B C3B H3BA 108.5
C4B C3B H3BB 108.5
C2B C3B H3BB 108.5
H3BA C3B H3BB 107.5
C5B C4B H4BA 108.9
C3B C4B H4BA 108.9
C5B C4B H4BB 108.9
C3B C4B H4BB 108.9
H4BA C4B H4BB 107.7
C5B C6B H6BA 119.6
C7B C6B H6BA 119.6
C6B C7B H7BA 119.2
C8B C7B H7BA 119.2
C9B C8B H8BA 121.1
C7B C8B H8BA 121.1
C8B C9B H9BA 119.6
C10B C9B H9BA 119.6
C5B C10B H10B 120.1
C9B C10B H10B 120.1
O1B C11B H11C 110.0
C2B C11B H11C 110.0
O1B C11B H11D 110.0
C2B C11B H11D 110.0
H11C C11B H11D 108.4
C13B C14B H14B 120.2
C15B C14B H14B 120.2
C16B C15B H15B 120.4
C14B C15B H15B 120.5
C18B C17B H17B 120.9
C16B C17B H17B 120.9
C17B C18B H18B 119.8
C13B C18B H18B 119.8
loop_
_geom_bond_atom_site_label_1
_geom_bond_atom_site_label_2
_geom_bond_distance
Br1A C1A 1.935(7)
Br2A C16A 1.906(7)
Cl1A C2A 1.834(7)
O1A C12A 1.356(8)
O1A C11A 1.435(8)
O2A C12A 1.194(8)
C1A C2A 1.499(10)
C2A C11A 1.510(10)
C2A C3A 1.517(9)
C3A C4A 1.521(9)
C4A C5A 1.515(9)
C5A C6A 1.370(11)
C5A C10A 1.389(11)
C6A C7A 1.371(10)
C7A C8A 1.360(12)
C8A C9A 1.393(13)
C9A C10A 1.389(12)
C12A C13A 1.469(9)
C13A C14A 1.383(9)
C13A C18A 1.397(10)
C14A C15A 1.388(10)
C15A C16A 1.362(11)
C16A C17A 1.398(10)
C17A C18A 1.371(10)
Br1B C1B 1.944(7)
Br2B C16B 1.901(7)
Cl1B C2B 1.838(7)
O1B C12B 1.338(8)
O1B C11B 1.440(8)
O2B C12B 1.200(9)
C1B C2B 1.502(9)
C2B C11B 1.506(9)
C2B C3B 1.526(9)
C3B C4B 1.520(9)
C4B C5B 1.501(10)
C5B C10B 1.362(11)
C5B C6B 1.368(11)
C6B C7B 1.370(11)
C7B C8B 1.372(13)
C8B C9B 1.367(14)
C9B C10B 1.408(12)
C12B C13B 1.504(10)
C13B C14B 1.379(10)
C13B C18B 1.395(10)
C14B C15B 1.381(10)
C15B C16B 1.366(10)
C16B C17B 1.390(11)
C17B C18B 1.362(11)
C1A H1AA 0.9900
C1A H1AB 0.9900
C3A H3AA 0.9900
C3A H3AB 0.9900
C4A H4AA 0.9900
C4A H4AB 0.9900
C6A H6AA 0.9500
C7A H7AA 0.9500
C8A H8AA 0.9500
C9A H9AA 0.9500
C10A H10A 0.9500
C11A H11A 0.9900
C11A H11B 0.9900
C14A H14A 0.9500
C15A H15A 0.9500
C17A H17A 0.9500
C18A H18A 0.9500
C1B H1B1 0.9900
C1B H1B2 0.9900
C3B H3BA 0.9900
C3B H3BB 0.9900
C4B H4BA 0.9900
C4B H4BB 0.9900
C6B H6BA 0.9500
C7B H7BA 0.9500
C8B H8BA 0.9500
C9B H9BA 0.9500
C10B H10B 0.9500
C11B H11C 0.9900
C11B H11D 0.9900
C14B H14B 0.9500
C15B H15B 0.9500
C17B H17B 0.9500
C18B H18B 0.9500
loop_
_geom_torsion_atom_site_label_1
_geom_torsion_atom_site_label_2
_geom_torsion_atom_site_label_3
_geom_torsion_atom_site_label_4
_geom_torsion
Br1A C1A C2A C11A 68.3(7)
Br1A C1A C2A C3A -57.6(7)
Br1A C1A C2A Cl1A -174.3(3)
C1A C2A C3A C4A -45.1(9)
C11A C2A C3A C4A -173.8(7)
Cl1A C2A C3A C4A 68.3(7)
C2A C3A C4A C5A -179.8(6)
C3A C4A C5A C6A 112.5(8)
C3A C4A C5A C10A -69.4(9)
C10A C5A C6A C7A 0.5(11)
C4A C5A C6A C7A 178.7(7)
C5A C6A C7A C8A 1.4(12)
C6A C7A C8A C9A -2.2(12)
C7A C8A C9A C10A 1.2(13)
C6A C5A C10A C9A -1.6(11)
C4A C5A C10A C9A -179.7(7)
C8A C9A C10A C5A 0.7(12)
C12A O1A C11A C2A -179.6(6)
C1A C2A C11A O1A 49.1(8)
C3A C2A C11A O1A 178.1(6)
Cl1A C2A C11A O1A -64.5(7)
C11A O1A C12A O2A -3.4(10)
C11A O1A C12A C13A 175.7(6)
O2A C12A C13A C14A -6.1(11)
O1A C12A C13A C14A 174.8(6)
O2A C12A C13A C18A 172.9(7)
O1A C12A C13A C18A -6.2(10)
C18A C13A C14A C15A -1.5(11)
C12A C13A C14A C15A 177.6(6)
C13A C14A C15A C16A 0.5(11)
C14A C15A C16A C17A 1.0(11)
C14A C15A C16A Br2A -178.1(5)
C15A C16A C17A C18A -1.5(11)
Br2A C16A C17A C18A 177.7(5)
C16A C17A C18A C13A 0.4(11)
C14A C13A C18A C17A 1.0(11)
C12A C13A C18A C17A -178.0(7)
Br1B C1B C2B C11B 67.3(6)
Br1B C1B C2B C3B -58.1(7)
Br1B C1B C2B Cl1B -175.2(3)
C1B C2B C3B C4B -51.3(9)
C11B C2B C3B C4B -179.9(6)
Cl1B C2B C3B C4B 62.8(7)
C2B C3B C4B C5B 171.6(7)
C3B C4B C5B C10B -73.5(10)
C3B C4B C5B C6B 108.1(8)
C10B C5B C6B C7B -1.0(11)
C4B C5B C6B C7B 177.4(7)
C5B C6B C7B C8B 1.0(12)
C6B C7B C8B C9B 0.1(13)
C7B C8B C9B C10B -1.1(13)
C6B C5B C10B C9B 0.1(12)
C4B C5B C10B C9B -178.4(7)
C8B C9B C10B C5B 1.0(13)
C12B O1B C11B C2B 167.2(6)
C1B C2B C11B O1B 48.0(8)
C3B C2B C11B O1B 177.3(5)
Cl1B C2B C11B O1B -66.0(6)
C11B O1B C12B O2B 4.0(9)
C11B O1B C12B C13B -174.8(5)
O2B C12B C13B C14B 175.9(7)
O1B C12B C13B C14B -5.2(9)
O2B C12B C13B C18B -5.5(11)
O1B C12B C13B C18B 173.4(6)
C18B C13B C14B C15B 0.7(11)
C12B C13B C14B C15B 179.3(7)
C13B C14B C15B C16B -1.1(11)
C14B C15B C16B C17B 1.2(11)
C14B C15B C16B Br2B -178.7(5)
C15B C16B C17B C18B -0.9(11)
Br2B C16B C17B C18B 179.0(6)
C16B C17B C18B C13B 0.5(11)
C14B C13B C18B C17B -0.4(11)
C12B C13B C18B C17B -179.0(7)
