#------------------------------------------------------------------------------
#$Date: 2019-11-25 04:44:01 +0200 (Mon, 25 Nov 2019) $
#$Revision: 240041 $
#$URL: file:///home/coder/svn-repositories/cod/cif/4/12/92/4129292.cif $
#------------------------------------------------------------------------------
#
# This file is available in the Crystallography Open Database (COD),
# http://www.crystallography.net/
#
# All data on this site have been placed in the public domain by the
# contributors.
#
data_4129292
loop_
_publ_author_name
'Lim, Kelvin Meng-Hui'
'Hayashi, Tamio'
_publ_section_title
;
 Rhodium-catalyzed asymmetric arylation of allyl sulfones under the
 conditions of isomerization into alkenyl sulfones.
;
_journal_issue                   9
_journal_name_full               'Journal of the American Chemical Society'
_journal_page_first              3201
_journal_page_last               3204
_journal_paper_doi               10.1021/jacs.5b00216
_journal_volume                  137
_journal_year                    2015
_chemical_formula_sum            'C10 H11 Br O2 S'
_chemical_formula_weight         275.16
_space_group_crystal_system      monoclinic
_space_group_IT_number           4
_space_group_name_Hall           'P 2yb'
_space_group_name_H-M_alt        'P 1 21 1'
_atom_sites_solution_hydrogens   geom
_audit_creation_method           SHELXL-2014
_cell_angle_alpha                90
_cell_angle_beta                 104.014(3)
_cell_angle_gamma                90
_cell_formula_units_Z            2
_cell_length_a                   8.3850(9)
_cell_length_b                   5.7634(6)
_cell_length_c                   11.4508(11)
_cell_measurement_reflns_used    9298
_cell_measurement_temperature    100(2)
_cell_measurement_theta_max      28.29
_cell_measurement_theta_min      2.50
_cell_volume                     536.90(10)
_computing_cell_refinement       'Bruker SAINT'
_computing_data_collection       'Bruker APEX2'
_computing_data_reduction        'Bruker SAINT'
_computing_molecular_graphics    'Bruker SHELXTL'
_computing_publication_material  'Bruker SHELXTL'
_computing_structure_refinement  'SHELXL-2014 (Sheldrick, 2014)'
_computing_structure_solution    'SHELXS-97 (Sheldrick 2008)'
_diffrn_ambient_temperature      100(2)
_diffrn_measured_fraction_theta_full 0.998
_diffrn_measured_fraction_theta_max 0.998
_diffrn_measurement_device_type  'Bruker D8 Venture'
_diffrn_measurement_method       '\f and \w scans'
_diffrn_radiation_type           MoK\a
_diffrn_radiation_wavelength     0.71073
_diffrn_reflns_av_R_equivalents  0.0186
_diffrn_reflns_av_unetI/netI     0.0291
_diffrn_reflns_Laue_measured_fraction_full 0.998
_diffrn_reflns_Laue_measured_fraction_max 0.998
_diffrn_reflns_limit_h_max       11
_diffrn_reflns_limit_h_min       -11
_diffrn_reflns_limit_k_max       7
_diffrn_reflns_limit_k_min       -7
_diffrn_reflns_limit_l_max       15
_diffrn_reflns_limit_l_min       -15
_diffrn_reflns_number            10810
_diffrn_reflns_point_group_measured_fraction_full 0.974
_diffrn_reflns_point_group_measured_fraction_max 0.976
_diffrn_reflns_theta_full        25.242
_diffrn_reflns_theta_max         28.318
_diffrn_reflns_theta_min         2.504
_diffrn_source                   'Sealed Microfocusing Source'
_exptl_absorpt_coefficient_mu    3.993
_exptl_absorpt_correction_T_max  0.7457
_exptl_absorpt_correction_T_min  0.5834
_exptl_absorpt_correction_type   multi-scan
_exptl_absorpt_process_details   'Sadabs, (Sheldrick 2012)'
_exptl_crystal_colour            Colourless
_exptl_crystal_density_diffrn    1.702
_exptl_crystal_density_meas      ?
_exptl_crystal_density_method    'Not Measured'
_exptl_crystal_description       Rod
_exptl_crystal_F_000             276
_exptl_crystal_size_max          0.380
_exptl_crystal_size_mid          0.270
_exptl_crystal_size_min          0.180
_refine_diff_density_max         1.361
_refine_diff_density_min         -0.558
_refine_diff_density_rms         0.108
_refine_ls_abs_structure_details
; 
 Flack x determined using 1075 quotients [(I+)-(I-)]/[(I+)+(I-)] 
 (Parsons, Flack and Wagner, Acta Cryst. B69 (2013) 249-259). 
;
_refine_ls_abs_structure_Flack   0.016(4)
_refine_ls_extinction_method     none
_refine_ls_goodness_of_fit_ref   1.463
_refine_ls_hydrogen_treatment    constr
_refine_ls_matrix_type           full
_refine_ls_number_parameters     127
_refine_ls_number_reflns         2612
_refine_ls_number_restraints     1
_refine_ls_restrained_S_all      1.463
_refine_ls_R_factor_all          0.0381
_refine_ls_R_factor_gt           0.0368
_refine_ls_shift/su_max          0.000
_refine_ls_shift/su_mean         0.000
_refine_ls_structure_factor_coef Fsqd
_refine_ls_weighting_details
'w=1/[\s^2^(Fo^2^)+(0.0577P)^2^] where P=(Fo^2^+2Fc^2^)/3'
_refine_ls_weighting_scheme      calc
_refine_ls_wR_factor_gt          0.1083
_refine_ls_wR_factor_ref         0.1089
_reflns_Friedel_coverage         0.782
_reflns_Friedel_fraction_full    0.944
_reflns_Friedel_fraction_max     0.949
_reflns_number_gt                2517
_reflns_number_total             2612
_reflns_threshold_expression     'I > 2\s(I)'
_cod_data_source_file            ja5b00216_si_001.cif
_cod_data_source_block           E384
_cod_depositor_comments
;
The following automatic conversions were performed:

data item '_exptl_absorpt_correction_type' value 'Multi-scan' was
changed to 'multi-scan' in accordance with the
/home/saulius/struct/COD-crude-data/automatic-downloads/DataCite-retrospective/ACS/depositions/lib/dictionaries/cif_core.dic
dictionary named 'cif_core.dic' version 2.4.2 last updated on
2011-04-26.

data item '_exptl_crystal_density_meas' value 'Not Measured' was
changed to '?' -- the value is perceived as not measured.

Automatic conversion script
Id: cif_fix_values 6909 2019-04-08 15:41:33Z antanas 
;
_cod_original_sg_symbol_H-M      'P 21'
_cod_database_code               4129292
_shelx_space_group_comment
; 
The symmetry employed for this shelxl refinement is uniquely defined 
by the following loop, which should always be used as a source of 
symmetry information in preference to the above space-group names. 
They are only intended as comments. 
;
_shelx_estimated_absorpt_t_min   0.312
_shelx_estimated_absorpt_t_max   0.533
_shelxl_version_number           2014-3
_shelx_res_file
; 
TITL E384 in P2(1) 
CELL 0.71073 8.3850 5.7634 11.4508 90.000 104.014 90.000 
ZERR 2.00 0.0009 0.0006 0.0011 0.000 0.003 0.000 
LATT -1 
SYMM -x, y+1/2, -z 
SFAC C  H  O  S  Br 
UNIT 20  22  4  2  2 
L.S. 10 
ACTA 
BOND $H 
FMAP 2 
PLAN 20 
SIZE 0.38 0.27 0.18 
CONF 
TEMP -173.150 
WGHT    0.057700 
FVAR       0.23927 
BR1   5    0.787117    0.729090   -0.220137    11.00000    0.03750    0.07732 = 
         0.02841    0.00649    0.01512    0.01311 
S1    4    0.802465    1.263152    0.486609    11.00000    0.01748    0.01121 = 
         0.02800   -0.00170    0.00340   -0.00021 
O1    3    0.721504    1.482057    0.492050    11.00000    0.03210    0.01762 = 
         0.04714    0.00052    0.01589    0.00690 
O2    3    0.942948    1.211738    0.583781    11.00000    0.02588    0.02793 = 
         0.03187   -0.00323   -0.00215    0.00157 
C1    1    0.853431    1.231487    0.345122    11.00000    0.01872    0.01697 = 
         0.02951   -0.00103    0.00462   -0.00428 
AFIX  23 
H1A   2    0.884081    1.382595    0.315685    11.00000   -1.20000 
H1B   2    0.945541    1.121165    0.351020    11.00000   -1.20000 
AFIX   0 
C2    1    0.693965    1.136404    0.261597    11.00000    0.02188    0.02140 = 
         0.02782    0.00354    0.00146   -0.00214 
AFIX  13 
H2    2    0.610697    1.263781    0.242770    11.00000   -1.20000 
AFIX   0 
C3    1    0.633773    0.949659    0.336882    11.00000    0.03647    0.02312 = 
         0.03033   -0.00282    0.00673   -0.01696 
AFIX  23 
H3A   2    0.516875    0.913489    0.300480    11.00000   -1.20000 
H3B   2    0.698510    0.805785    0.337613    11.00000   -1.20000 
AFIX   0 
C4    1    0.652788    1.036054    0.464894    11.00000    0.02993    0.02328 = 
         0.02774   -0.00097    0.00475   -0.01188 
AFIX  23 
H4A   2    0.690377    0.908905    0.523193    11.00000   -1.20000 
H4B   2    0.546719    1.095740    0.475974    11.00000   -1.20000 
AFIX   0 
C5    1    0.722584    1.040339    0.144454    11.00000    0.02201    0.02277 = 
         0.02982    0.00104    0.00119   -0.00758 
C6    1    0.655361    1.151627    0.034452    11.00000    0.02402    0.02428 = 
         0.03791    0.01419    0.00430    0.00270 
AFIX  43 
H6    2    0.594885    1.291157    0.033973    11.00000   -1.20000 
AFIX   0 
C7    1    0.675366    1.062303   -0.073251    11.00000    0.02811    0.04694 = 
         0.03506    0.01988    0.00744    0.00404 
AFIX  43 
H7    2    0.626669    1.137383   -0.147139    11.00000   -1.20000 
AFIX   0 
C8    1    0.765659    0.865523   -0.072145    11.00000    0.02134    0.04572 = 
         0.02525    0.00826    0.00699   -0.00447 
C9    1    0.838989    0.753346    0.033268    11.00000    0.02776    0.03140 = 
         0.03054   -0.00075    0.00249    0.00179 
AFIX  43 
H9    2    0.902826    0.617523    0.032237    11.00000   -1.20000 
AFIX   0 
C10   1    0.817677    0.843341    0.142176    11.00000    0.03481    0.02415 = 
         0.02836    0.00389    0.00029    0.00235 
AFIX  43 
H10   2    0.868983    0.768633    0.215619    11.00000   -1.20000 
AFIX   0 
HKLF 4 1 1 0 0 0 1 0 0 0 1 
  
REM  E384 in P2(1) 
REM R1 =  0.0368 for    2517 Fo > 4sig(Fo)  and  0.0381 for all    2612 data 
REM    127 parameters refined using      1 restraints 
  
END 
  
WGHT      0.0631      0.4945 
  
REM Highest difference peak  1.361,  deepest hole -0.558,  1-sigma level  0.108 
Q1    1   0.7950  0.8666 -0.2179  11.00000  0.05    1.36 
Q2    1   0.7772  0.5240 -0.2206  11.00000  0.05    0.93 
Q3    1   0.7914  1.1614  0.4865  11.00000  0.05    0.81 
Q4    1   0.8644  0.7543 -0.1742  11.00000  0.05    0.62 
Q5    1   0.8426  1.2595  0.4259  11.00000  0.05    0.49 
Q6    1   0.6610  1.1028 -0.0382  11.00000  0.05    0.43 
Q7    1   0.8057  0.8173 -0.0269  11.00000  0.05    0.40 
Q8    1   0.7431  0.8078 -0.0774  11.00000  0.05    0.40 
Q9    1   0.7186  1.0281  0.4990  11.00000  0.05    0.39 
Q10   1   0.8094  0.7291  0.1358  11.00000  0.05    0.39 
Q11   1   0.7008  0.9569 -0.0594  11.00000  0.05    0.39 
Q12   1   0.7379  0.8922  0.1516  11.00000  0.05    0.38 
Q13   1   0.7367  1.1000  0.0811  11.00000  0.05    0.35 
Q14   1   0.7734  0.6779 -0.0572  11.00000  0.05    0.35 
Q15   1   0.6839  1.0009  0.2912  11.00000  0.05    0.33 
Q16   1   0.6771  1.0633  0.0638  11.00000  0.05    0.33 
Q17   1   0.6957  1.0345  0.2455  11.00000  0.05    0.32 
Q18   1   0.8379  0.6243  0.1257  11.00000  0.05    0.32 
Q19   1   0.8588  0.7472 -0.2761  11.00000  0.05    0.32 
Q20   1   0.8718  0.7849  0.0535  11.00000  0.05    0.32 
;
_shelx_res_checksum              32265
_shelx_hkl_file
; 
  -1   0   0   29.08    1.42 
   1   0   0   25.19    1.41 
   2   0   0 1000.00   49.23 
  -3   0   0   43.47    2.13 
  -3   0   0   42.65    2.14 
   3   0   0   43.06    2.14 
   3   0   0   42.79    2.13 
  -4   0   0   29.73    1.50 
  -4   0   0   30.53    1.50 
   4   0   0   29.37    1.49 
   4   0   0   29.20    1.50 
   4   0   0   29.61    1.50 
  -5   0   0   83.75    4.17 
  -5   0   0   84.21    4.16 
   5   0   0   83.06    4.16 
   5   0   0   83.64    4.17 
   5   0   0   84.50    4.15 
  -6   0   0    5.72    0.38 
  -6   0   0    5.78    0.37 
   6   0   0    5.96    0.36 
   6   0   0    5.89    0.39 
   6   0   0    5.67    0.41 
  -7   0   0   58.92    3.04 
  -7   0   0   62.92    3.06 
   7   0   0   61.06    3.03 
   7   0   0   60.40    3.06 
   7   0   0   59.42    3.05 
  -8   0   0   16.43    0.92 
   8   0   0   15.54    0.89 
   8   0   0   16.14    0.87 
   8   0   0   15.72    0.92 
  -9   0   0    5.28    0.53 
   9   0   0    5.06    0.49 
   9   0   0    5.36    0.44 
   9   0   0    5.02    0.52 
 -10   0   0    4.23    0.61 
  10   0   0    4.26    0.48 
  10   0   0    3.81    0.63 
  10  -1   0    3.41    0.59 
  10  -1   0    3.20    0.46 
  10  -1   0    3.44    0.61 
   9  -1   0    0.95    0.23 
   9  -1   0    0.61    0.28 
   9  -1   0    1.02    0.31 
  -9   1   0    0.43    0.26 
   8  -1   0    8.46    0.56 
   8  -1   0    8.77    0.60 
   8  -1   0    8.03    0.54 
  -8   1   0   10.42    0.61 
   7  -1   0    7.20    0.46 
   7  -1   0    7.42    0.46 
   7  -1   0    7.09    0.49 
  -7   1   0    7.72    0.49 
   6  -1   0   15.22    0.85 
   6  -1   0   14.94    0.86 
   6  -1   0   14.62    0.85 
  -6   1   0   17.74    0.84 
  -6   1   0   17.50    0.86 
   5  -1   0   17.09    0.85 
   5  -1   0   17.08    0.85 
   5  -1   0   17.38    0.85 
  -5   1   0   14.19    0.84 
  -5   1   0   15.09    0.84 
   4  -1   0   84.24    4.80 
   4  -1   0  102.42    4.77 
   4  -1   0  103.09    4.77 
  -4   1   0   96.48    4.76 
  -4   1   0   95.22    4.77 
   3  -1   0   92.13    4.45 
   3  -1   0   91.48    4.47 
  -3   1   0   88.00    4.44 
  -3   1   0   88.38    4.44 
   2  -1   0   85.57    3.85 
  -2   1   0   71.88    3.75 
  -2   1   0   71.20    3.76 
   1  -1   0  112.95    6.19 
   1  -1   0  114.34    6.25 
  -1   1   0  149.58    6.24 
   0  -1   0   -0.30    0.03 
   0  -1   0   -0.27    0.04 
   0  -1   0   -0.31    0.03 
   0   1   0   -0.31    0.03 
   0   1   0   -0.30    0.04 
   0   1   0   -0.34    0.02 
   0   1   0   -0.23    0.04 
   0   1   0   -0.32    0.03 
  -1  -1   0  111.08    5.23 
  -1  -1   0  106.35    5.27 
  -1  -1   0   94.85    5.23 
  -1  -1   0  108.43    5.22 
  -2  -1   0   84.23    3.87 
  -2  -1   0   85.43    3.89 
   2   1   0   72.35    3.87 
   2   1   0   71.67    3.88 
  -3  -1   0   93.48    4.56 
  -3  -1   0   94.51    4.56 
   3   1   0   90.93    4.56 
   3   1   0   90.07    4.56 
  -4  -1   0  106.63    4.97 
  -4  -1   0  103.63    4.97 
   4   1   0   97.64    4.97 
   4   1   0   95.63    4.97 
   4   1   0   98.62    4.95 
  -5  -1   0   18.29    0.85 
  -5  -1   0   17.96    0.84 
   5   1   0   14.22    0.81 
   5   1   0   14.66    0.84 
   5   1   0   14.50    0.84 
  -6  -1   0   15.33    0.88 
  -6  -1   0   15.26    0.89 
   6   1   0   17.39    0.90 
   6   1   0   17.36    0.89 
   6   1   0   17.26    0.85 
  -7  -1   0    7.51    0.47 
  -7  -1   0    7.31    0.50 
   7   1   0    7.45    0.48 
   7   1   0    7.42    0.50 
   7   1   0    7.89    0.44 
  -8  -1   0    8.75    0.64 
   8   1   0   10.90    0.59 
   8   1   0   10.77    0.64 
  -9  -1   0    0.66    0.28 
   9   1   0    0.52    0.19 
   9   1   0    0.25    0.24 
   9   1   0    0.28    0.26 
 -10  -1   0    2.58    0.40 
  10   1   0    3.69    0.59 
  10  -2   0    4.82    0.68 
  10  -2   0    5.57    0.55 
   9  -2   0    5.13    0.54 
   9  -2   0    4.67    0.60 
   9  -2   0    5.12    0.47 
  -9   2   0    5.74    0.53 
   8  -2   0   15.84    0.89 
   8  -2   0   16.10    0.91 
   8  -2   0   15.96    0.86 
   8  -2   0   16.00    0.99 
  -8   2   0   15.49    0.90 
  -8   2   0   14.40    0.87 
   7  -2   0   39.18    2.06 
   7  -2   0   40.13    2.06 
   7  -2   0   38.28    2.14 
  -7   2   0   41.98    2.06 
  -7   2   0   42.05    2.05 
   6  -2   0    1.88    0.23 
   6  -2   0    2.29    0.25 
   6  -2   0    1.94    0.21 
  -6   2   0    1.42    0.21 
  -6   2   0    1.37    0.23 
   5  -2   0  131.67    6.84 
   5  -2   0  134.94    6.80 
   5  -2   0  133.31    6.79 
  -5   2   0  146.03    6.80 
  -5   2   0  141.13    6.79 
   4  -2   0    8.03    0.46 
   4  -2   0    7.84    0.46 
   4  -2   0    8.02    0.52 
   4  -2   0    8.30    0.48 
  -4   2   0    9.98    0.48 
  -4   2   0    9.40    0.47 
   3  -2   0  271.09   13.32 
   3  -2   0  263.39   13.44 
   3  -2   0  265.57   13.33 
   3  -2   0  265.95   13.39 
  -3   2   0  279.72   13.33 
  -3   2   0  276.82   13.34 
   2  -2   0   69.04    3.50 
   2  -2   0   68.21    3.50 
   2  -2   0   69.49    3.52 
   2  -2   0   67.96    3.54 
  -2   2   0   72.80    3.54 
  -2   2   0   71.75    3.52 
  -2   2   0   74.55    3.50 
  -2   2   0   74.15    3.52 
   1  -2   0  145.73    7.48 
   1  -2   0  148.25    7.35 
  -1   2   0  144.89    7.35 
  -1   2   0  155.91    7.40 
  -1   2   0  150.13    7.40 
  -1   2   0  148.56    7.42 
   0  -2   0  316.14   15.53 
   0  -2   0  321.08   15.46 
   0  -2   0  320.38   15.45 
   0   2   0  309.56   15.60 
   0   2   0  301.53   15.44 
   0   2   0  311.46   15.49 
   0   2   0  311.08   15.44 
   0   2   0  306.71   15.45 
  -1  -2   0  143.46    7.50 
  -1  -2   0  151.23    7.43 
  -1  -2   0  150.17    7.44 
  -1  -2   0  151.11    7.44 
   1   2   0  151.74    7.44 
   1   2   0  149.40    7.46 
   1   2   0  154.41    7.44 
   1   2   0  151.94    7.44 
   1   2   0  148.09    7.45 
  -2  -2   0   69.69    3.56 
  -2  -2   0   69.69    3.58 
  -2  -2   0   70.83    3.56 
  -2  -2   0   70.13    3.55 
   2   2   0   75.17    3.56 
   2   2   0   73.96    3.56 
   2   2   0   74.39    3.56 
  -3  -2   0  279.59   13.94 
  -3  -2   0  274.13   13.99 
  -3  -2   0  274.14   13.97 
   3   2   0  292.34   13.99 
   3   2   0  285.29   13.97 
   3   2   0  288.44   13.97 
  -4  -2   0    8.51    0.54 
  -4  -2   0    8.56    0.51 
  -4  -2   0    8.53    0.51 
   4   2   0    9.92    0.51 
   4   2   0   10.12    0.52 
   4   2   0   10.27    0.52 
  -5  -2   0  134.36    6.91 
  -5  -2   0  133.42    6.94 
   5   2   0  143.94    6.89 
   5   2   0  144.52    6.92 
   5   2   0  142.92    6.93 
  -6  -2   0    2.16    0.27 
  -6  -2   0    2.05    0.23 
   6   2   0    1.50    0.24 
   6   2   0    1.55    0.23 
   6   2   0    1.56    0.16 
  -7  -2   0   38.55    2.13 
  -7  -2   0   40.79    2.10 
  -7  -2   0   39.15    2.09 
   7   2   0   42.28    2.11 
   7   2   0   43.39    2.11 
   7   2   0   41.71    2.05 
  -8  -2   0   16.26    0.92 
  -8  -2   0   14.57    0.89 
  -8  -2   0   16.40    0.89 
   8   2   0   15.38    0.90 
   8   2   0   14.54    1.10 
   8   2   0   15.16    0.82 
  -9  -2   0    5.60    0.53 
  -9  -2   0    5.31    0.53 
   9   2   0    5.85    0.54 
   9   2   0    5.24    0.53 
   9   2   0    5.43    0.41 
 -10  -2   0    5.62    0.59 
  10   2   0    5.89    0.50 
  10   2   0    5.79    0.69 
  10   2   0    5.88    0.66 
   9  -3   0    0.23    0.23 
   9  -3   0   -0.22    0.33 
   8  -3   0    6.17    0.44 
   8  -3   0    5.15    0.57 
  -8   3   0    4.05    0.45 
   7  -3   0    1.76    0.34 
   7  -3   0    1.05    0.20 
   7  -3   0    1.23    0.22 
  -7   3   0    1.45    0.21 
  -7   3   0    1.72    0.30 
   6  -3   0    7.42    0.58 
   6  -3   0    6.93    0.59 
   6  -3   0    7.77    0.47 
   6  -3   0    8.46    0.46 
   5  -3   0    0.62    0.15 
   5  -3   0    0.45    0.11 
   5  -3   0    0.73    0.21 
   5  -3   0    0.60    0.10 
  -5   3   0    1.12    0.20 
  -5   3   0    0.94    0.14 
   4  -3   0    9.74    0.62 
   4  -3   0   10.11    0.57 
   4  -3   0   10.12    0.52 
   4  -3   0    9.98    0.53 
   3  -3   0   22.37    1.22 
   3  -3   0   21.65    1.26 
  -3   3   0   24.21    1.22 
  -3   3   0   24.61    1.25 
  -3   3   0   24.38    1.22 
  -3   3   0   24.90    1.19 
   2  -3   0    6.15    0.37 
   2  -3   0    5.99    0.42 
  -2   3   0    6.24    0.37 
  -2   3   0    6.28    0.36 
  -2   3   0    6.65    0.40 
  -2   3   0    5.64    0.35 
  -1   3   0   29.87    1.51 
  -1   3   0   30.51    1.54 
  -1   3   0   29.89    1.51 
  -1   3   0   30.08    1.52 
  -1   3   0   29.37    1.51 
   0  -3   0    0.05    0.06 
   0  -3   0    0.11    0.09 
   0   3   0    0.01    0.07 
   0   3   0    0.08    0.06 
   0   3   0    0.04    0.10 
   0   3   0    0.02    0.06 
   0   3   0    0.04    0.06 
   1   3   0   31.24    1.51 
   1   3   0   30.59    1.52 
   1   3   0   30.08    1.52 
   1   3   0   30.13    1.51 
   1   3   0   30.42    1.52 
   1   3   0   29.62    1.54 
  -2  -3   0    6.03    0.34 
  -2  -3   0    5.94    0.33 
  -2  -3   0    5.95    0.35 
  -2  -3   0    6.08    0.38 
   2   3   0    6.18    0.37 
   2   3   0    6.33    0.35 
   2   3   0    6.08    0.34 
   2   3   0    6.08    0.34 
  -3  -3   0   22.09    1.21 
  -3  -3   0   20.61    1.22 
  -3  -3   0   23.24    1.24 
  -3  -3   0   23.58    1.20 
   3   3   0   25.20    1.21 
   3   3   0   25.75    1.21 
   3   3   0   25.64    1.21 
  -4  -3   0   10.35    0.56 
  -4  -3   0   10.61    0.58 
  -4  -3   0   10.59    0.62 
  -4  -3   0   10.64    0.58 
  -5  -3   0    0.80    0.17 
  -5  -3   0    0.72    0.13 
  -5  -3   0    0.62    0.12 
   5   3   0    0.94    0.15 
   5   3   0    1.05    0.16 
   5   3   0    1.06    0.17 
   6   3   0    3.82    0.25 
   6   3   0    3.59    0.32 
   6   3   0    3.69    0.33 
  -7  -3   0    1.16    0.19 
  -7  -3   0    1.45    0.27 
  -7  -3   0    1.36    0.25 
   7   3   0    1.37    0.23 
   7   3   0    1.73    0.18 
   7   3   0    1.82    0.26 
  -8  -3   0    6.16    0.49 
  -8  -3   0    5.86    0.44 
  -8  -3   0    5.61    0.43 
   8   3   0    4.59    0.47 
   8   3   0    4.25    0.34 
   8   3   0    4.07    0.44 
  -9  -3   0   -0.17    0.24 
   9   3   0    0.01    0.25 
   9   3   0    0.18    0.31 
   9   3   0   -0.05    0.17 
 -10  -3   0    1.72    0.36 
   9  -4   0    0.79    0.44 
   8  -4   0    3.65    0.59 
   8  -4   0    4.35    0.43 
  -8   4   0    3.62    0.45 
   7  -4   0    7.11    0.49 
   7  -4   0    7.93    0.53 
   7  -4   0    6.71    0.64 
  -7   4   0    7.77    0.50 
   6  -4   0    3.18    0.33 
   6  -4   0    3.36    0.45 
   6  -4   0    3.03    0.27 
  -6   4   0    2.47    0.28 
   5  -4   0   25.22    1.48 
   5  -4   0   25.44    1.35 
   5  -4   0   25.54    1.35 
   5  -4   0   26.10    1.41 
  -5   4   0   27.80    1.42 
  -5   4   0   29.78    1.42 
  -5   4   0   28.63    1.37 
   4  -4   0    4.24    0.44 
   4  -4   0    4.38    0.35 
  -4   4   0    4.99    0.35 
  -4   4   0    4.87    0.33 
  -4   4   0    5.03    0.33 
  -4   4   0    4.58    0.37 
   3  -4   0   31.15    1.72 
  -3   4   0   34.75    1.67 
  -3   4   0   34.26    1.66 
  -3   4   0   34.83    1.71 
  -3   4   0   27.48    1.76 
   2  -4   0   37.10    2.18 
  -2   4   0   42.55    2.13 
  -2   4   0   43.28    2.17 
  -2   4   0   44.54    2.13 
  -2   4   0   43.28    2.13 
  -2   4   0   42.66    2.14 
  -1   4   0   11.33    0.61 
  -1   4   0   11.12    0.63 
  -1   4   0   11.74    0.62 
  -1   4   0   11.42    0.62 
   0  -4   0  106.54    5.49 
   0   4   0  109.12    5.47 
   0   4   0  115.87    5.47 
   0   4   0  110.35    5.46 
   0   4   0  110.43    5.50 
  -1  -4   0   10.79    0.60 
  -1  -4   0   11.19    0.64 
  -1  -4   0   11.37    0.60 
   1   4   0   11.00    0.59 
   1   4   0   10.81    0.60 
   1   4   0   11.30    0.63 
   1   4   0   11.33    0.57 
   1   4   0   11.04    0.59 
   1   4   0   11.25    0.57 
   1   4   0   11.13    0.67 
  -2  -4   0   37.52    2.12 
  -2  -4   0   38.01    2.08 
  -2  -4   0   37.54    2.07 
   2   4   0   43.30    2.07 
   2   4   0   44.33    2.08 
   2   4   0   43.85    2.07 
   2   4   0   43.69    2.07 
   2   4   0   43.57    2.12 
  -3  -4   0   32.74    1.73 
  -3  -4   0   32.10    1.67 
  -3  -4   0   31.55    1.69 
  -3  -4   0   31.63    1.67 
   3   4   0   35.02    1.69 
   3   4   0   35.61    1.68 
   3   4   0   34.33    1.68 
  -4  -4   0    4.65    0.30 
  -4  -4   0    3.43    0.45 
  -4  -4   0    4.30    0.38 
   4   4   0    5.08    0.32 
   4   4   0    5.15    0.32 
   4   4   0    4.68    0.32 
  -5  -4   0   26.70    1.40 
  -5  -4   0   25.25    1.43 
  -5  -4   0   26.60    1.47 
   5   4   0   29.20    1.43 
   5   4   0   28.19    1.42 
   5   4   0   29.21    1.43 
  -6  -4   0    2.98    0.32 
  -6  -4   0    3.43    0.38 
  -6  -4   0    2.97    0.26 
  -6  -4   0    3.34    0.28 
   6   4   0    2.94    0.29 
   6   4   0    2.71    0.30 
   6   4   0    2.67    0.32 
  -7  -4   0    7.60    0.50 
   7   4   0    7.95    0.54 
   7   4   0    8.24    0.57 
  -8  -4   0    4.41    0.47 
  -8  -4   0    4.04    0.41 
  -8  -4   0    3.42    0.46 
   8   4   0    3.87    0.42 
   8   4   0    4.07    0.50 
  -9  -4   0    0.95    0.27 
  -9  -4   0    0.63    0.33 
   9   4   0    0.15    0.25 
   8  -5   0    1.86    0.49 
   7  -5   0    0.91    0.38 
  -7   5   0    0.60    0.32 
  -6   5   0    0.98    0.26 
   5  -5   0    2.03    0.47 
  -5   5   0    1.57    0.23 
  -5   5   0    1.73    0.24 
  -5   5   0    1.56    0.25 
  -4   5   0    3.26    0.33 
  -4   5   0    3.30    0.28 
  -4   5   0    2.99    0.32 
  -4   5   0    2.95    0.35 
  -4   5   0    3.36    0.29 
  -3   5   0   13.73    0.84 
  -3   5   0   14.04    0.79 
  -3   5   0   14.36    0.79 
  -3   5   0   14.70    0.81 
  -3   5   0   14.04    0.78 
  -2   5   0    2.36    0.31 
  -2   5   0    2.29    0.26 
  -2   5   0    2.12    0.25 
  -2   5   0    2.11    0.22 
  -2   5   0    2.25    0.23 
  -1   5   0   12.72    0.81 
  -1   5   0   13.69    0.77 
  -1   5   0   13.79    0.74 
  -1   5   0   14.45    0.75 
  -1   5   0   13.97    0.75 
   0  -5   0    0.06    0.14 
   0   5   0    0.05    0.10 
   0   5   0    0.09    0.11 
   0   5   0    0.03    0.12 
   0   5   0    0.12    0.17 
   0   5   0    0.04    0.09 
   1   5   0   14.08    0.76 
   1   5   0   12.78    0.81 
   1   5   0   12.95    0.75 
   1   5   0   13.86    0.73 
  -2  -5   0    2.79    0.24 
  -2  -5   0    2.83    0.32 
  -2  -5   0    2.73    0.24 
   2   5   0    2.19    0.32 
   2   5   0    2.31    0.21 
   2   5   0    2.31    0.25 
   2   5   0    2.43    0.23 
   2   5   0    2.05    0.19 
   2   5   0    2.31    0.19 
  -3  -5   0   17.53    0.93 
  -3  -5   0   18.44    0.87 
  -3  -5   0   17.87    0.85 
   3   5   0   14.56    0.85 
   3   5   0   14.46    0.83 
   3   5   0   14.76    0.84 
   3   5   0   14.44    0.84 
   4   5   0    3.31    0.28 
   4   5   0    3.25    0.24 
   4   5   0    3.00    0.26 
  -5  -5   0    2.13    0.24 
  -5  -5   0    2.41    0.32 
   5   5   0    1.69    0.25 
   5   5   0    1.51    0.25 
   5   5   0    1.71    0.19 
   5   5   0    1.34    0.23 
  -6  -5   0    1.97    0.34 
   6   5   0    1.13    0.20 
   6   5   0    1.26    0.21 
   6   5   0    1.12    0.21 
  -7  -5   0    0.72    0.20 
  -7  -5   0    0.68    0.29 
  -7  -5   0    0.70    0.27 
   7   5   0    0.87    0.20 
  -8  -5   0    2.37    0.44 
   8   5   0    2.07    0.35 
   6  -6   0    2.54    0.50 
  -6   6   0    2.08    0.40 
  -6   6   0    1.83    0.31 
   5  -6   0    6.74    0.72 
  -5   6   0    7.19    0.55 
  -5   6   0    7.18    0.59 
  -4   6   0    0.56    0.26 
  -4   6   0    0.57    0.21 
  -4   6   0    0.87    0.25 
  -3   6   0   10.60    0.68 
  -3   6   0   10.75    0.64 
  -3   6   0   11.07    0.73 
  -3   6   0   10.02    0.64 
  -3   6   0   11.04    0.67 
  -2   6   0    3.29    0.36 
  -2   6   0    3.52    0.34 
  -2   6   0    3.53    0.30 
  -2   6   0    3.36    0.33 
  -2   6   0    3.74    0.43 
  -1   6   0    3.01    0.33 
  -1   6   0    3.33    0.39 
  -1   6   0    3.27    0.29 
  -1   6   0    3.61    0.33 
  -1   6   0    3.21    0.32 
   0   6   0    9.74    0.59 
   0   6   0   10.13    0.63 
   0   6   0    9.86    0.60 
   0   6   0   10.17    0.70 
   0   6   0   10.24    0.59 
  -1  -6   0    3.33    0.37 
   1   6   0    3.26    0.31 
   1   6   0    3.26    0.41 
   1   6   0    3.10    0.30 
   1   6   0    3.13    0.30 
   1   6   0    3.33    0.28 
  -2  -6   0    2.93    0.39 
   2   6   0    3.46    0.31 
   2   6   0    3.30    0.42 
   2   6   0    3.20    0.28 
   2   6   0    3.55    0.32 
  -3  -6   0   10.38    0.64 
  -3  -6   0   10.21    0.61 
  -3  -6   0    9.88    0.70 
   3   6   0   11.02    0.62 
   3   6   0   10.99    0.59 
   3   6   0   10.97    0.60 
   3   6   0   11.02    0.60 
   3   6   0    9.32    0.97 
  -4  -6   0    0.82    0.21 
  -4  -6   0    1.06    0.19 
  -4  -6   0    0.97    0.26 
   4   6   0    0.94    0.17 
   4   6   0    0.65    0.18 
   4   6   0    0.59    0.17 
   4   6   0    0.72    0.14 
  -5  -6   0    6.33    0.58 
  -5  -6   0    6.84    0.48 
   5   6   0    8.02    0.51 
   5   6   0    7.40    0.47 
  -6  -6   0    2.94    0.40 
  -6  -6   0    2.96    0.46 
   6   6   0    2.04    0.37 
   6   6   0    2.37    0.29 
  -4   7   0    6.79    0.61 
  -3   7   0    3.29    0.44 
  -2   7   0    2.24    0.39 
  -1   7   0    3.25    0.42 
  -1   7   0    3.49    0.39 
   0   7   0   -0.10    0.24 
   0   7   0   -0.03    0.22 
   0   7   0    0.18    0.20 
  -1  -7   0    4.01    0.48 
   1   7   0    3.79    0.39 
   1   7   0    3.38    0.49 
  -2  -7   0    2.25    0.40 
   2   7   0    2.05    0.34 
   2   7   0    1.99    0.41 
  -3  -7   0    3.39    0.47 
   3   7   0    3.22    0.38 
  -4  -7   0    9.24    0.67 
   4   7   0    7.54    0.57 
   4   7   0    7.46    0.49 
   4   7  -1    3.03    0.38 
   4   7  -1    2.99    0.27 
  -4  -7   1    2.43    0.44 
  -4  -7   1    2.41    0.40 
   3   7  -1    1.61    0.23 
  -3  -7   1    1.64    0.32 
   2   7  -1    3.60    0.36 
   2   7  -1    3.45    0.37 
  -2  -7   1    3.46    0.45 
   1   7  -1    2.29    0.33 
   1   7  -1    2.31    0.34 
   0   7  -1    1.40    0.27 
   0   7  -1    1.27    0.23 
   0   7  -1    1.17    0.23 
  -1   7  -1    4.24    0.42 
  -1   7  -1    4.67    0.59 
  -2   7  -1    2.79    0.40 
  -3   7  -1    1.82    0.30 
  -4   7  -1    6.46    0.61 
   6   6  -1    1.47    0.27 
  -6  -6   1    1.97    0.36 
  -6  -6   1    2.06    0.40 
   5   6  -1    6.35    0.48 
   5   6  -1    6.47    0.47 
   5   6  -1    5.86    0.43 
  -5  -6   1    7.43    0.49 
  -5  -6   1    7.24    0.57 
  -5  -6   1    7.55    0.53 
   4   6  -1    1.85    0.23 
   4   6  -1    1.68    0.27 
   4   6  -1    1.93    0.22 
   4   6  -1    1.93    0.26 
  -4  -6   1    1.34    0.28 
  -4  -6   1    1.22    0.22 
  -4  -6   1    1.29    0.21 
   3   6  -1    4.49    0.34 
   3   6  -1    3.90    0.48 
   3   6  -1    4.69    0.32 
   3   6  -1    4.98    0.34 
   3   6  -1    4.83    0.35 
  -3  -6   1    6.02    0.38 
   2   6  -1    7.54    0.61 
   2   6  -1    7.99    0.46 
   2   6  -1    7.91    0.47 
   2   6  -1    7.68    0.51 
  -2  -6   1    6.94    0.49 
  -2  -6   1    7.20    0.55 
   1   6  -1    2.31    0.28 
   1   6  -1    2.49    0.28 
   1   6  -1    2.44    0.40 
   1   6  -1    2.91    0.26 
   1   6  -1    2.78    0.26 
   0   6  -1    5.25    0.42 
   0   6  -1    5.63    0.39 
   0   6  -1    5.29    0.39 
   0   6  -1    5.70    0.50 
   0   6  -1    5.52    0.38 
  -1   6  -1    6.45    0.45 
  -1   6  -1    6.75    0.44 
  -1   6  -1    6.89    0.46 
  -1   6  -1    6.72    0.54 
  -1   6  -1    6.63    0.49 
  -2   6  -1    5.21    0.39 
  -2   6  -1    5.04    0.48 
  -2   6  -1    5.04    0.39 
  -2   6  -1    4.63    0.36 
  -2   6  -1    4.66    0.42 
  -3   6  -1    7.13    0.52 
  -3   6  -1    7.34    0.50 
  -3   6  -1    7.59    0.56 
  -3   6  -1    7.71    0.59 
  -3   6  -1    7.16    0.48 
  -4   6  -1    2.15    0.39 
  -4   6  -1    2.20    0.35 
  -4   6  -1    2.27    0.44 
  -5   6  -1    5.69    0.50 
  -5   6  -1    5.34    0.62 
   5  -6   1    6.22    0.69 
  -6   6  -1    3.91    0.49 
   6  -6   1    3.76    0.70 
   8   5  -1    0.55    0.20 
  -8  -5   1    0.70    0.26 
  -8  -5   1    0.48    0.29 
  -8  -5   1    0.49    0.58 
   7   5  -1    6.33    0.46 
  -7  -5   1    6.44    0.56 
  -7  -5   1    5.64    0.47 
   6   5  -1    4.88    0.40 
   6   5  -1    4.36    0.36 
  -6  -5   1    4.05    0.36 
  -6  -5   1    4.02    0.42 
  -6  -5   1    4.08    0.47 
   5   5  -1   12.16    0.69 
   5   5  -1   12.56    0.68 
   5   5  -1   12.16    0.68 
  -5  -5   1   12.03    0.70 
  -5  -5   1   12.04    0.77 
  -5  -5   1   11.14    0.66 
  -5  -5   1   11.60    0.67 
   4   5  -1   13.46    0.64 
   4   5  -1   13.15    0.67 
   4   5  -1   13.21    0.68 
   4   5  -1   13.07    0.66 
  -4  -5   1   10.37    0.74 
  -4  -5   1   10.32    0.67 
  -4  -5   1   10.60    0.67 
   3   5  -1   12.48    0.68 
   3   5  -1   12.56    0.75 
   3   5  -1   12.57    0.69 
   3   5  -1   12.75    0.70 
   3   5  -1   12.86    0.70 
  -3  -5   1   13.56    0.78 
  -3  -5   1   13.50    0.71 
  -3  -5   1   13.64    0.71 
   2   5  -1   22.07    1.28 
   2   5  -1   23.44    1.24 
   2   5  -1   23.76    1.17 
   2   5  -1   23.34    1.18 
   2   5  -1   24.24    1.19 
   2   5  -1   23.90    1.17 
  -2  -5   1   22.01    1.20 
  -2  -5   1   22.69    1.19 
   1   5  -1    7.30    0.47 
   1   5  -1    7.58    0.53 
   1   5  -1    7.00    0.42 
   1   5  -1    7.18    0.44 
   1   5  -1    6.94    0.42 
  -1  -5   1    7.29    0.49 
  -1  -5   1    7.15    0.44 
   0   5  -1    9.14    0.53 
   0   5  -1    9.37    0.57 
   0   5  -1    9.13    0.61 
   0   5  -1    9.52    0.54 
   0   5  -1    9.46    0.52 
  -1   5  -1   27.20    1.41 
  -1   5  -1   27.95    1.47 
  -1   5  -1   27.43    1.40 
  -1   5  -1   27.48    1.44 
  -1   5  -1   26.54    1.40 
  -2   5  -1    5.11    0.34 
  -2   5  -1    5.00    0.35 
  -2   5  -1    5.05    0.39 
  -2   5  -1    4.89    0.42 
  -2   5  -1    5.39    0.37 
  -3   5  -1   15.46    0.87 
  -3   5  -1   15.59    0.85 
  -3   5  -1   15.40    0.84 
  -3   5  -1   14.88    0.84 
  -3   5  -1   15.51    0.89 
  -4   5  -1    5.11    0.42 
  -4   5  -1    5.63    0.39 
  -4   5  -1    5.11    0.44 
  -4   5  -1    5.26    0.37 
   4  -5   1    5.70    0.80 
  -5   5  -1    2.20    0.27 
  -5   5  -1    1.81    0.33 
  -5   5  -1    2.45    0.31 
   5  -5   1    2.55    0.48 
  -6   5  -1    3.54    0.47 
   6  -5   1    4.68    0.41 
   6  -5   1    4.46    0.59 
   7  -5   1    3.55    0.64 
   7  -5   1    3.36    0.40 
   8  -5   1    0.85    0.47 
   9   4  -1    3.35    0.44 
  -9  -4   1    3.39    0.47 
  -9  -4   1    2.89    0.46 
   8   4  -1    0.74    0.28 
   8   4  -1    0.51    0.20 
  -8  -4   1    1.17    0.24 
  -8  -4   1    1.16    0.25 
  -8  -4   1    0.99    0.26 
   7   4  -1   10.18    0.70 
   7   4  -1   10.16    0.67 
  -7  -4   1   12.24    0.74 
  -7  -4   1   11.59    0.66 
  -7  -4   1   11.56    0.69 
   6   4  -1    5.46    0.43 
   6   4  -1    5.44    0.45 
  -6  -4   1    7.30    0.44 
  -6  -4   1    7.15    0.42 
  -6  -4   1    7.31    0.46 
   5   4  -1   16.82    0.94 
   5   4  -1   16.41    0.96 
   5   4  -1   16.51    0.96 
  -5  -4   1   19.91    0.95 
  -5  -4   1   18.96    0.97 
  -5  -4   1   19.22    1.02 
   4   4  -1    6.47    0.42 
   4   4  -1    6.45    0.38 
   4   4  -1    6.53    0.42 
   4   4  -1    6.68    0.41 
  -4  -4   1    7.50    0.43 
  -4  -4   1    7.71    0.43 
  -4  -4   1    8.03    0.50 
  -4  -4   1    7.59    0.44 
   3   4  -1   15.70    0.89 
   3   4  -1   16.11    0.93 
   3   4  -1   14.47    0.93 
   3   4  -1   16.56    0.88 
   3   4  -1   16.13    0.87 
  -3  -4   1   19.00    0.90 
  -3  -4   1   18.59    0.90 
  -3  -4   1   19.24    0.89 
  -3  -4   1   18.13    0.95 
   2   4  -1   27.65    1.37 
   2   4  -1   27.18    1.42 
   2   4  -1   26.82    1.38 
   2   4  -1   27.32    1.37 
   2   4  -1   26.99    1.37 
  -2  -4   1   27.54    1.43 
  -2  -4   1   27.16    1.38 
  -2  -4   1   27.56    1.39 
  -2  -4   1   27.60    1.37 
   1   4  -1   12.24    0.68 
   1   4  -1   12.35    0.65 
   1   4  -1   12.07    0.61 
   1   4  -1   10.34    0.73 
   1   4  -1   12.16    0.64 
   1   4  -1   12.16    0.63 
  -1  -4   1   12.12    0.65 
  -1  -4   1   12.63    0.69 
   0   4  -1   42.39    2.17 
   0   4  -1   43.41    2.17 
   0   4  -1   45.05    2.23 
   0   4  -1   44.53    2.19 
   0   4  -1   42.33    2.21 
   0  -4   1   42.58    2.18 
   0  -4   1   43.94    2.21 
  -1   4  -1   28.52    1.46 
  -1   4  -1   29.59    1.50 
  -1   4  -1   29.05    1.46 
  -1   4  -1   27.81    1.50 
  -2   4  -1    7.06    0.41 
  -2   4  -1    7.26    0.42 
  -2   4  -1    7.22    0.42 
  -2   4  -1    6.85    0.50 
  -2   4  -1    6.84    0.44 
  -3   4  -1   11.40    0.63 
  -3   4  -1   11.34    0.64 
  -3   4  -1   11.51    0.62 
  -3   4  -1   11.53    0.66 
   3  -4   1   10.50    0.63 
   3  -4   1   10.59    0.69 
  -4   4  -1    1.80    0.25 
  -4   4  -1    1.83    0.22 
  -4   4  -1    1.97    0.22 
  -4   4  -1    1.66    0.25 
   4  -4   1    2.45    0.36 
   4  -4   1    2.42    0.26 
   5  -4   1    7.65    0.43 
   5  -4   1    7.56    0.50 
   5  -4   1    7.81    0.59 
   5  -4   1    7.33    0.41 
   6  -4   1    8.96    0.51 
   6  -4   1    8.93    0.57 
   6  -4   1    8.85    0.66 
   6  -4   1    8.34    0.48 
   7  -4   1    0.98    0.22 
   7  -4   1    0.95    0.21 
   7  -4   1    0.76    0.30 
   8  -4   1    7.40    0.75 
   8  -4   1    7.92    0.57 
   9  -4   1    3.49    0.45 
   9  -4   1    2.58    0.54 
  10   3  -1    1.81    0.36 
 -10  -3   1    1.95    0.37 
   9   3  -1   16.51    0.98 
   9   3  -1   16.35    1.02 
  -9  -3   1   15.71    0.99 
   8   3  -1    3.58    0.40 
   8   3  -1    3.42    0.49 
  -8  -3   1    4.21    0.43 
  -8  -3   1    3.62    0.38 
   7   3  -1   41.43    2.04 
   7   3  -1   41.91    2.04 
  -7  -3   1   37.17    2.01 
  -7  -3   1   37.72    2.02 
  -7  -3   1   38.62    2.06 
   6   3  -1   12.74    0.63 
  -6  -3   1    9.70    0.60 
  -6  -3   1    9.82    0.60 
  -6  -3   1    9.94    0.66 
   5   3  -1   51.36    2.39 
   5   3  -1   51.09    2.40 
  -5  -3   1   44.71    2.38 
  -5  -3   1   44.62    2.42 
  -5  -3   1   45.20    2.38 
  -4  -3   1   22.53    1.15 
  -4  -3   1   22.35    1.15 
  -4  -3   1   22.25    1.19 
  -4  -3   1   22.46    1.15 
   3   3  -1   14.12    0.79 
   3   3  -1   14.59    0.75 
   3   3  -1   14.28    0.76 
   3   3  -1   14.50    0.73 
  -3  -3   1   14.86    0.76 
  -3  -3   1   14.50    0.79 
  -3  -3   1   14.89    0.76 
  -3  -3   1   14.52    0.76 
   2   3  -1  127.86    6.34 
   2   3  -1  125.22    6.37 
   2   3  -1  127.59    6.38 
   2   3  -1  127.01    6.34 
  -2  -3   1  130.70    6.36 
  -2  -3   1  133.16    6.38 
  -2  -3   1  128.16    6.35 
  -2  -3   1  129.35    6.38 
   1   3  -1   44.22    2.15 
   1   3  -1   43.12    2.16 
   1   3  -1   43.05    2.17 
   1   3  -1   43.62    2.19 
   1   3  -1   42.28    2.16 
  -1  -3   1   43.59    2.16 
  -1  -3   1   44.97    2.17 
  -1  -3   1   42.06    2.19 
  -1  -3   1   43.70    2.15 
   0   3  -1   57.70    2.84 
   0   3  -1   57.40    2.84 
   0   3  -1   56.24    2.87 
   0   3  -1   56.94    2.86 
   0   3  -1   56.35    2.83 
   0  -3   1   58.92    2.86 
   0  -3   1   56.72    2.84 
  -1   3  -1   71.90    3.47 
  -1   3  -1   69.30    3.44 
  -1   3  -1   71.80    3.46 
  -1   3  -1   70.76    3.44 
  -1   3  -1   70.97    3.45 
   1  -3   1   66.53    3.44 
   1  -3   1   64.43    3.44 
  -2   3  -1    6.05    0.35 
  -2   3  -1    5.66    0.37 
  -2   3  -1    5.89    0.34 
  -2   3  -1    6.02    0.36 
  -3   3  -1   49.05    2.46 
  -3   3  -1   45.89    2.47 
  -3   3  -1   45.61    2.47 
   3  -3   1   51.22    2.41 
   3  -3   1   49.32    2.48 
   3  -3   1   51.09    2.45 
  -4   3  -1   16.61    0.97 
  -4   3  -1   16.46    0.98 
  -4   3  -1   15.95    0.94 
   4  -3   1   20.55    0.95 
   4  -3   1   19.38    1.03 
   4  -3   1   20.22    0.99 
   4  -3   1   20.64    0.94 
  -5   3  -1   26.81    1.50 
  -5   3  -1   26.85    1.48 
  -5   3  -1   27.64    1.51 
   5  -3   1   30.55    1.48 
   5  -3   1   31.16    1.48 
   5  -3   1   31.37    1.52 
   5  -3   1   29.91    1.56 
  -6   3  -1   15.48    0.87 
  -6   3  -1   16.09    0.89 
   6  -3   1   16.31    0.87 
   6  -3   1   16.47    0.97 
   6  -3   1   16.57    0.90 
  -7   3  -1    1.61    0.24 
  -7   3  -1    1.42    0.25 
  -7   3  -1    1.29    0.21 
  -8   3  -1    3.07    0.39 
   8  -3   1    2.11    0.48 
   8  -3   1    2.34    0.36 
   9  -3   1    1.83    0.29 
   9  -3   1    1.47    0.42 
  10   2  -1    0.26    0.21 
  10   2  -1    0.24    0.32 
  10   2  -1    0.34    0.34 
   9   2  -1    1.65    0.29 
   9   2  -1    1.38    0.29 
   9   2  -1    1.58    0.26 
  -9  -2   1    2.02    0.40 
  -9  -2   1    1.06    0.27 
  -9  -2   1    1.19    0.24 
   8   2  -1    2.57    0.43 
   8   2  -1    2.64    0.24 
   8   2  -1    2.47    0.34 
   7   2  -1    0.82    0.18 
   7   2  -1    0.81    0.18 
   7   2  -1    1.00    0.16 
  -7  -2   1    1.27    0.18 
  -7  -2   1    1.51    0.28 
  -7  -2   1    1.33    0.22 
   6   2  -1   41.91    2.25 
   6   2  -1   41.00    2.24 
   6   2  -1   40.22    2.20 
  -6  -2   1   47.04    2.25 
  -6  -2   1   47.84    2.24 
  -6  -2   1   47.79    2.27 
  -5  -2   1    4.42    0.33 
  -5  -2   1    4.06    0.32 
  -5  -2   1    4.41    0.29 
   4   2  -1   28.77    1.58 
   4   2  -1   28.35    1.61 
  -4  -2   1   35.12    1.61 
  -4  -2   1   33.01    1.63 
  -4  -2   1   34.43    1.62 
  -3  -2   1   13.68    0.73 
  -3  -2   1   14.75    0.73 
  -3  -2   1   14.01    0.75 
   2   2  -1    1.17    0.09 
   2   2  -1    0.92    0.10 
   2   2  -1    0.97    0.13 
   2   2  -1    0.90    0.07 
   1   2  -1   31.94    1.59 
   1   2  -1   31.49    1.61 
   1   2  -1   32.29    1.59 
   1   2  -1   32.29    1.60 
   0   2  -1    1.26    0.10 
   0   2  -1    1.25    0.11 
   0   2  -1    1.25    0.10 
   0   2  -1    1.28    0.13 
   0   2  -1    1.29    0.12 
  -1   2  -1  217.63   10.82 
  -1   2  -1  214.27   10.76 
  -1   2  -1  217.82   10.84 
  -1   2  -1  213.06   10.75 
   1  -2   1  224.31   10.75 
   1  -2   1  211.88   10.74 
   1  -2   1  220.65   10.86 
  -2   2  -1   23.95    1.30 
  -2   2  -1   22.37    1.31 
  -2   2  -1   22.39    1.30 
   2  -2   1   28.85    1.28 
   2  -2   1   28.87    1.28 
   2  -2   1   28.35    1.33 
  -3   2  -1   82.06    4.08 
  -3   2  -1   83.44    4.09 
  -3   2  -1   84.82    4.10 
   3  -2   1   81.23    4.12 
   3  -2   1   81.01    4.08 
   3  -2   1   83.08    4.08 
  -4   2  -1    8.31    0.52 
  -4   2  -1    8.44    0.53 
   4  -2   1   10.77    0.52 
   4  -2   1   10.68    0.58 
   4  -2   1   10.63    0.53 
  -5   2  -1   32.32    1.62 
  -5   2  -1   33.59    1.63 
   5  -2   1   30.97    1.67 
   5  -2   1   31.26    1.62 
   5  -2   1   31.78    1.63 
  -6   2  -1   34.90    1.76 
  -6   2  -1   34.95    1.76 
   6  -2   1   33.43    1.82 
   6  -2   1   34.80    1.77 
   6  -2   1   34.42    1.75 
   6  -2   1   34.54    1.76 
  -7   2  -1    2.51    0.26 
  -7   2  -1    2.67    0.26 
  -7   2  -1    2.48    0.30 
   7  -2   1    2.03    0.39 
   7  -2   1    1.74    0.31 
   7  -2   1    2.49    0.29 
  -8   2  -1   28.61    1.47 
  -8   2  -1   29.25    1.49 
   8  -2   1   26.64    1.45 
   8  -2   1   26.65    1.57 
   8  -2   1   28.68    1.49 
   8  -2   1   28.11    1.50 
  -9   2  -1    1.35    0.32 
   9  -2   1    1.81    0.34 
   9  -2   1    1.11    0.36 
   9  -2   1    1.77    0.27 
  10  -2   1    3.77    0.68 
  10  -2   1    4.25    0.52 
  10   1  -1    4.46    0.59 
  10   1  -1    3.97    0.61 
  10   1  -1    4.30    0.44 
 -10  -1   1    4.02    0.63 
 -10  -1   1    4.21    0.52 
   9   1  -1   30.23    1.59 
   9   1  -1   30.93    1.53 
   9   1  -1   30.97    1.61 
  -9  -1   1   27.24    1.56 
  -9  -1   1   29.12    1.60 
   8   1  -1    0.82    0.22 
   8   1  -1    0.89    0.19 
   8   1  -1    1.10    0.16 
  -8  -1   1    0.60    0.21 
   7   1  -1   47.75    2.40 
   7   1  -1   47.90    2.40 
   7   1  -1   47.73    2.36 
  -7  -1   1   46.29    2.40 
  -7  -1   1   46.26    2.38 
   6   1  -1   34.18    1.76 
   6   1  -1   34.02    1.72 
  -6  -1   1   34.47    1.75 
  -6  -1   1   35.10    1.76 
   5   1  -1   29.52    1.58 
   5   1  -1   28.48    1.55 
  -5  -1   1   33.39    1.58 
  -5  -1   1   33.06    1.59 
   4   1  -1  178.46    8.96 
   4   1  -1  183.06    8.97 
  -4  -1   1  182.61    8.97 
  -4  -1   1  183.22    9.00 
   3   1  -1   37.93    2.17 
   3   1  -1   38.36    2.15 
  -3  -1   1   46.98    2.18 
  -3  -1   1   47.28    2.18 
  -3  -1   1   47.71    2.17 
   2   1  -1  840.48   41.82 
  -2  -1   1  857.16   41.82 
   1   1  -1  163.89    8.27 
   1   1  -1  166.99    8.25 
   1   1  -1  168.24    8.31 
   1   1  -1  167.86    8.23 
  -1  -1   1  165.29    8.25 
  -1  -1   1  163.76    8.29 
  -1  -1   1  172.57    8.27 
   0   1  -1  301.34   15.46 
   0   1  -1  308.04   15.51 
   0   1  -1  298.56   15.52 
   0   1  -1  303.19   15.48 
   0  -1   1  318.03   15.49 
   0  -1   1  333.91   15.47 
   0  -1   1  332.48   15.54 
  -1   1  -1  323.79   15.82 
  -1   1  -1  330.70   15.80 
  -1   1  -1  351.37   15.85 
  -1   1  -1  320.29   15.77 
   1  -1   1  310.61   15.77 
   1  -1   1  322.76   15.85 
   1  -1   1  304.51   15.80 
   1  -1   1  309.28   15.77 
   1  -1   1  307.57   15.81 
   2  -1   1   11.43    0.60 
   2  -1   1   11.59    0.59 
   2  -1   1   11.30    0.58 
  -3   1  -1  162.46    7.15 
  -3   1  -1  160.30    7.15 
   3  -1   1  131.03    7.14 
   3  -1   1  136.58    7.14 
   3  -1   1  134.13    7.14 
  -4   1  -1    3.43    0.23 
  -4   1  -1    3.65    0.22 
   4  -1   1    3.17    0.22 
   4  -1   1    3.27    0.23 
   4  -1   1    3.31    0.23 
  -5   1  -1   61.09    2.93 
  -5   1  -1   62.50    2.93 
  -5   1  -1   60.91    2.94 
   5  -1   1   54.57    2.93 
   5  -1   1   54.43    2.93 
  -6   1  -1   17.54    0.96 
   6  -1   1   17.96    0.97 
   6  -1   1   18.56    0.96 
   6  -1   1   18.33    0.96 
  -7   1  -1    2.72    0.30 
   7  -1   1    2.48    0.25 
   7  -1   1    2.52    0.27 
   7  -1   1    2.23    0.30 
  -8   1  -1    2.23    0.36 
   8  -1   1    2.57    0.28 
   8  -1   1    2.84    0.39 
   8  -1   1    2.56    0.32 
  -9   1  -1    0.64    0.30 
   9  -1   1    0.89    0.23 
   9  -1   1    0.80    0.30 
  10  -1   1    1.96    0.44 
  10  -1   1    2.58    0.45 
  11   0  -1   -0.06    0.31 
  10   0  -1    2.14    0.40 
  10   0  -1    1.97    0.29 
 -10   0   1    1.84    0.40 
   9   0  -1    0.11    0.18 
   9   0  -1    0.06    0.18 
   9   0  -1    0.07    0.24 
  -9   0   1    0.19    0.25 
  -9   0   1    0.07    0.19 
   8   0  -1   12.14    0.66 
   8   0  -1   11.44    0.68 
   8   0  -1   11.65    0.72 
  -8   0   1   11.45    0.71 
   7   0  -1    0.34    0.13 
   7   0  -1    0.37    0.16 
   7   0  -1    0.29    0.13 
  -7   0   1    0.29    0.15 
  -7   0   1    0.42    0.13 
   6   0  -1   68.71    3.44 
   6   0  -1   68.61    3.46 
  -6   0   1   70.44    3.46 
   5   0  -1   34.40    1.74 
   5   0  -1   34.34    1.75 
  -5   0   1   35.31    1.73 
  -5   0   1   34.57    1.75 
   4   0  -1   66.69    3.35 
   4   0  -1   67.66    3.37 
  -4   0   1   67.61    3.37 
  -4   0   1   69.02    3.35 
   3   0  -1   86.83    4.32 
   3   0  -1   87.59    4.33 
  -3   0   1   88.34    4.31 
  -3   0   1   87.25    4.33 
   2   0  -1   28.81    1.44 
   2   0  -1   28.94    1.44 
  -2   0   1   28.70    1.44 
  -2   0   1   29.20    1.44 
  -1   0   1    6.05    0.31 
  -1   0   1    6.00    0.30 
  -1   0  -1   59.20    2.89 
  -1   0  -1   58.36    2.88 
  -1   0  -1   58.42    2.90 
   1   0   1   57.97    2.89 
  -2   0  -1   94.84    4.67 
  -2   0  -1   94.28    4.69 
  -2   0  -1   96.09    4.68 
   2   0   1   94.52    4.68 
   2   0   1   94.32    4.69 
   2   0   1   94.73    4.67 
  -3   0  -1   56.79    2.79 
  -3   0  -1   54.70    2.79 
   3   0   1   56.70    2.78 
   3   0   1   55.87    2.79 
   3   0   1   56.74    2.79 
  -4   0  -1   44.23    2.24 
  -4   0  -1   44.64    2.24 
   4   0   1   44.89    2.24 
   4   0   1   44.68    2.23 
   4   0   1   45.42    2.24 
  -5   0  -1   41.75    2.25 
  -5   0  -1   44.38    2.22 
   5   0   1   44.89    2.21 
   5   0   1   43.98    2.22 
   5   0   1   45.53    2.22 
  -6   0  -1   56.55    2.86 
  -6   0  -1   57.43    2.86 
   6   0   1   56.05    2.84 
   6   0   1   57.59    2.86 
   6   0   1   56.65    2.86 
  -7   0  -1    2.27    0.29 
   7   0   1    2.49    0.26 
   7   0   1    2.00    0.30 
   7   0   1    2.22    0.25 
  -8   0  -1   41.81    2.29 
   8   0   1   43.89    2.25 
   8   0   1   44.36    2.21 
   8   0   1   43.58    2.23 
  -9   0  -1    5.46    0.54 
   9   0   1    5.71    0.47 
   9   0   1    5.66    0.56 
   9   0   1    5.58    0.47 
 -10   0  -1   14.97    1.30 
  10   0   1   13.54    0.84 
  10   0   1   12.59    0.97 
  10  -1  -1    3.80    0.60 
  10  -1  -1    4.69    0.62 
  10  -1  -1    4.44    0.48 
   9  -1  -1   27.46    1.59 
   9  -1  -1   27.50    1.52 
   9  -1  -1   26.98    1.49 
   9  -1  -1   27.84    1.48 
  -9   1   1   31.08    1.54 
   8  -1  -1    0.71    0.15 
   8  -1  -1    0.66    0.22 
   8  -1  -1    0.74    0.18 
  -8   1   1    0.73    0.21 
  -8   1   1    0.95    0.17 
   7  -1  -1   46.74    2.38 
   7  -1  -1   44.80    2.37 
   7  -1  -1   47.22    2.37 
  -7   1   1   48.41    2.36 
  -7   1   1   47.37    2.38 
   6  -1  -1   34.04    1.71 
   6  -1  -1   33.53    1.70 
  -6   1   1   33.59    1.70 
  -6   1   1   32.78    1.71 
   5  -1  -1   32.53    1.57 
   5  -1  -1   32.67    1.58 
  -5   1   1   28.89    1.57 
  -5   1   1   29.89    1.56 
   4  -1  -1  174.85    8.67 
   4  -1  -1  178.34    8.54 
   4  -1  -1  154.88    8.55 
  -4   1   1  178.12    8.54 
  -4   1   1  179.94    8.55 
   3  -1  -1   47.97    2.13 
   3  -1  -1   47.22    2.10 
  -3   1   1   36.80    2.09 
  -3   1   1   36.37    2.09 
   2  -1  -1  827.48   40.72 
  -2   1   1  822.43   40.72 
  -2   1   1  829.65   40.70 
   1  -1  -1  167.61    8.10 
   1  -1  -1  163.54    8.20 
  -1   1   1  160.34    8.10 
  -1   1   1  163.57    8.10 
  -1   1   1  164.64    8.20 
   0  -1  -1  330.42   15.21 
   0  -1  -1  265.60   15.17 
   0  -1  -1  329.49   15.21 
   0   1   1  307.98   15.16 
   0   1   1  309.51   15.27 
   0   1   1  309.72   15.19 
   0   1   1  301.16   15.20 
  -1  -1  -1  305.95   16.19 
   1   1   1  329.29   16.20 
   1   1   1  336.10   16.19 
   1   1   1  339.72   16.18 
   2   1   1    3.94    0.23 
   2   1   1    4.04    0.23 
   2   1   1    4.21    0.23 
  -3  -1  -1  139.95    7.58 
  -3  -1  -1  138.81    7.58 
   3   1   1  159.07    7.60 
   3   1   1  166.68    7.63 
   3   1   1  164.77    7.59 
  -4  -1  -1    3.56    0.24 
  -4  -1  -1    3.55    0.24 
   4   1   1    3.61    0.24 
   4   1   1    3.79    0.22 
   4   1   1    3.65    0.26 
  -5  -1  -1   56.66    3.06 
   5   1   1   63.27    3.06 
   5   1   1   62.41    3.04 
   5   1   1   62.47    3.07 
  -6  -1  -1   18.92    0.96 
  -6  -1  -1   18.92    0.97 
   6   1   1   17.08    0.93 
   6   1   1   17.51    0.97 
   6   1   1   17.51    0.96 
  -7  -1  -1    2.27    0.25 
  -7  -1  -1    2.41    0.29 
   7   1   1    2.54    0.27 
   7   1   1    2.68    0.25 
   7   1   1    2.36    0.31 
  -8  -1  -1    2.65    0.35 
  -8  -1  -1    2.58    0.29 
   8   1   1    2.01    0.28 
   8   1   1    2.01    0.37 
   8   1   1    2.17    0.33 
  -9  -1  -1    0.88    0.31 
   9   1   1    1.02    0.22 
   9   1   1    0.77    0.25 
   9   1   1    0.79    0.27 
 -10  -1  -1    2.13    0.46 
  10   1   1    1.73    0.40 
  10   1   1    1.79    0.31 
  10  -2  -1    1.51    0.31 
  10  -2  -1    1.67    0.42 
   9  -2  -1    1.43    0.24 
   9  -2  -1    1.02    0.34 
   9  -2  -1    1.10    0.30 
  -9   2   1    1.31    0.23 
  -9   2   1    1.61    0.31 
   8  -2  -1    4.46    0.42 
   8  -2  -1    4.94    0.39 
   8  -2  -1    4.62    0.51 
   8  -2  -1    4.32    0.33 
   7  -2  -1    0.84    0.15 
   7  -2  -1    1.33    0.18 
   7  -2  -1    1.51    0.36 
   7  -2  -1    1.25    0.20 
  -7   2   1    0.76    0.15 
  -7   2   1    0.85    0.17 
   6  -2  -1   44.96    2.31 
   6  -2  -1   46.35    2.24 
   6  -2  -1   45.73    2.24 
   6  -2  -1   46.55    2.25 
  -6   2   1   42.34    2.24 
  -6   2   1   40.67    2.24 
   5  -2  -1    4.29    0.40 
  -5   2   1    6.04    0.34 
  -5   2   1    6.06    0.34 
   4  -2  -1   32.29    1.56 
   4  -2  -1   32.89    1.55 
   4  -2  -1   33.02    1.60 
  -4   2   1   28.09    1.55 
  -4   2   1   27.79    1.55 
   3  -2  -1   14.76    0.78 
   3  -2  -1   14.04    0.72 
   3  -2  -1   13.64    0.74 
  -2   2   1    1.11    0.14 
  -2   2   1    0.97    0.12 
  -2   2   1    0.98    0.08 
  -2   2   1    0.99    0.10 
  -1   2   1   31.94    1.61 
  -1   2   1   33.11    1.60 
  -1   2   1   32.56    1.63 
  -1   2   1   31.61    1.61 
  -1   2   1   31.48    1.61 
   0   2   1    1.13    0.11 
   0   2   1    1.10    0.10 
   0   2   1    1.00    0.09 
   0   2   1    1.07    0.08 
   0   2   1    1.07    0.15 
  -1  -2  -1  219.67   11.02 
  -1  -2  -1  223.21   10.94 
  -1  -2  -1  221.50   10.99 
   1   2   1  215.14   11.00 
   1   2   1  219.95   10.94 
   1   2   1  225.66   10.98 
   1   2   1  227.14   10.97 
  -2  -2  -1   28.49    1.31 
  -2  -2  -1   27.47    1.32 
  -2  -2  -1   28.83    1.29 
  -2  -2  -1   28.65    1.31 
   2   2   1   22.58    1.30 
   2   2   1   22.24    1.30 
   2   2   1   23.44    1.30 
  -3  -2  -1   82.75    4.13 
  -3  -2  -1   83.23    4.11 
  -3  -2  -1   83.25    4.12 
   3   2   1   83.08    4.12 
   3   2   1   82.31    4.12 
   3   2   1   83.70    4.12 
  -4  -2  -1   11.07    0.52 
   4   2   1    8.69    0.51 
   4   2   1    8.70    0.51 
   4   2   1    8.86    0.52 
  -5  -2  -1   32.58    1.68 
  -5  -2  -1   32.36    1.68 
   5   2   1   33.28    1.69 
   5   2   1   33.67    1.69 
   5   2   1   33.22    1.68 
  -6  -2  -1   34.92    1.79 
  -6  -2  -1   34.97    1.79 
   6   2   1   35.67    1.80 
   6   2   1   34.33    1.80 
   6   2   1   35.20    1.76 
  -7  -2  -1    2.32    0.27 
  -7  -2  -1    2.20    0.28 
   7   2   1    2.64    0.32 
   7   2   1    2.69    0.24 
   7   2   1    2.50    0.40 
  -8  -2  -1   27.89    1.54 
  -8  -2  -1   28.22    1.55 
   8   2   1   29.41    1.57 
   8   2   1   29.76    1.50 
   8   2   1   31.25    1.57 
  -9  -2  -1    1.49    0.31 
  -9  -2  -1    1.72    0.31 
   9   2   1    1.41    0.31 
   9   2   1    1.41    0.30 
   9   2   1    1.73    0.24 
 -10  -2  -1    4.35    0.55 
  10   2   1    5.45    0.66 
  10   2   1    5.07    0.61 
  10  -3  -1    1.70    0.46 
   9  -3  -1   15.70    0.90 
   9  -3  -1   14.16    1.03 
   8  -3  -1    4.08    0.39 
   8  -3  -1    3.70    0.52 
  -8   3   1    3.58    0.41 
  -8   3   1    3.37    0.35 
   7  -3  -1   37.83    1.97 
   7  -3  -1   37.07    1.95 
   7  -3  -1   36.26    2.05 
  -7   3   1   42.18    1.97 
   6  -3  -1   10.18    0.71 
   6  -3  -1   10.16    0.60 
   6  -3  -1    9.92    0.58 
   6  -3  -1   10.20    0.63 
  -6   3   1   12.61    0.60 
   5  -3  -1   44.35    2.32 
   5  -3  -1   44.96    2.35 
   5  -3  -1   44.36    2.41 
   5  -3  -1   44.84    2.32 
  -5   3   1   50.83    2.33 
  -5   3   1   49.88    2.35 
   4  -3  -1   22.48    1.27 
   4  -3  -1   22.55    1.32 
   4  -3  -1   22.52    1.23 
   4  -3  -1   21.78    1.23 
  -4   3   1   27.73    1.27 
  -4   3   1   27.51    1.31 
  -4   3   1   27.69    1.24 
   3  -3  -1   14.87    0.82 
  -3   3   1   14.38    0.76 
  -3   3   1   14.10    0.73 
  -3   3   1   14.13    0.79 
  -3   3   1   14.22    0.76 
   2  -3  -1  126.62    6.30 
  -2   3   1  129.79    6.25 
  -2   3   1  125.60    6.25 
  -2   3   1  127.71    6.29 
  -2   3   1  123.60    6.25 
  -2   3   1  125.74    6.25 
   1  -3  -1   42.10    2.15 
  -1   3   1   44.01    2.15 
  -1   3   1   43.34    2.19 
  -1   3   1   43.64    2.15 
  -1   3   1   42.36    2.15 
  -1   3   1   42.11    2.14 
   0  -3  -1   59.20    2.83 
   0  -3  -1   55.09    2.84 
   0   3   1   56.82    2.84 
   0   3   1   56.18    2.87 
   0   3   1   56.34    2.83 
   0   3   1   57.13    2.82 
   0   3   1   56.96    2.82 
  -1  -3  -1   67.99    3.51 
  -1  -3  -1   69.38    3.50 
  -1  -3  -1   69.63    3.48 
   1   3   1   68.66    3.49 
   1   3   1   73.37    3.51 
   1   3   1   71.68    3.48 
   1   3   1   72.52    3.48 
   1   3   1   69.83    3.48 
   2   3   1    6.80    0.38 
   2   3   1    6.75    0.37 
   2   3   1    6.49    0.37 
  -3  -3  -1   49.88    2.51 
  -3  -3  -1   52.09    2.54 
  -3  -3  -1   50.33    2.48 
  -3  -3  -1   48.16    2.50 
   3   3   1   50.76    2.50 
   3   3   1   49.37    2.51 
   3   3   1   50.16    2.51 
  -4  -3  -1   20.04    1.00 
  -4  -3  -1   20.83    1.03 
  -4  -3  -1   20.63    0.99 
  -4  -3  -1   21.00    0.96 
   4   3   1   16.67    0.99 
   4   3   1   16.09    0.98 
   4   3   1   16.83    0.98 
  -5  -3  -1   31.60    1.52 
  -5  -3  -1   31.47    1.52 
  -5  -3  -1   32.09    1.56 
   5   3   1   28.13    1.52 
   5   3   1   26.62    1.52 
   5   3   1   27.12    1.51 
  -6  -3  -1   16.42    0.88 
  -6  -3  -1   16.46    0.87 
  -6  -3  -1   16.86    0.93 
   6   3   1   15.24    0.89 
   6   3   1   15.04    0.87 
   6   3   1   15.88    0.88 
   6   3   1   15.97    0.83 
   7   3   1    1.73    0.23 
   7   3   1    1.82    0.32 
   7   3   1    1.66    0.24 
  -8  -3  -1    2.23    0.36 
  -8  -3  -1    1.96    0.33 
  -8  -3  -1    2.47    0.41 
   8   3   1    3.01    0.39 
   8   3   1    3.38    0.42 
   8   3   1    3.33    0.29 
   9   3   1    1.26    0.23 
   9   3   1    0.87    0.33 
   9   3   1    0.99    0.32 
   9  -4  -1    3.09    0.65 
   8  -4  -1    1.32    0.37 
  -8   4   1    0.63    0.25 
   7  -4  -1   11.20    0.63 
   7  -4  -1   10.87    0.79 
   7  -4  -1   10.71    0.60 
  -7   4   1   10.15    0.64 
   6  -4  -1    6.19    0.55 
   6  -4  -1    6.60    0.37 
  -6   4   1    5.56    0.38 
  -6   4   1    5.08    0.42 
  -6   4   1    4.78    0.38 
   5  -4  -1   18.48    0.90 
   5  -4  -1   19.10    0.91 
   5  -4  -1   18.29    1.06 
  -5   4   1   16.73    0.95 
  -5   4   1   17.01    0.92 
  -5   4   1   16.42    0.95 
   4  -4  -1    6.98    0.53 
  -4   4   1    6.88    0.41 
  -4   4   1    6.35    0.42 
  -4   4   1    6.56    0.36 
  -4   4   1    6.38    0.47 
  -4   4   1    6.34    0.41 
   3  -4  -1   17.05    0.92 
  -3   4   1   14.99    0.83 
  -3   4   1   15.51    0.83 
  -3   4   1   15.28    0.83 
  -3   4   1   14.77    0.82 
  -3   4   1   14.91    0.87 
   2  -4  -1   27.13    1.44 
  -2   4   1   26.46    1.37 
  -2   4   1   26.54    1.37 
  -2   4   1   27.20    1.42 
  -2   4   1   25.91    1.37 
   1  -4  -1   11.75    0.65 
  -1   4   1   12.02    0.65 
  -1   4   1   12.05    0.64 
  -1   4   1   11.20    0.66 
  -1   4   1   11.50    0.63 
  -1   4   1   11.56    0.69 
   0  -4  -1   45.12    2.23 
   0   4   1   45.48    2.23 
   0   4   1   43.15    2.20 
   0   4   1   42.85    2.21 
   0   4   1   44.36    2.27 
   0   4   1   43.02    2.21 
  -1  -4  -1   29.42    1.50 
  -1  -4  -1   30.00    1.48 
   1   4   1   28.57    1.46 
   1   4   1   28.46    1.48 
   1   4   1   27.90    1.50 
   1   4   1   29.18    1.47 
   1   4   1   29.01    1.45 
   1   4   1   29.51    1.45 
   1   4   1   28.70    1.54 
  -2  -4  -1   10.26    0.49 
   2   4   1    7.20    0.45 
   2   4   1    7.62    0.47 
  -3  -4  -1   10.38    0.58 
  -3  -4  -1   10.06    0.65 
   3   4   1   11.43    0.60 
   3   4   1   11.72    0.60 
   3   4   1   11.78    0.62 
  -4  -4  -1    2.53    0.25 
  -4  -4  -1    2.74    0.30 
   4   4   1    1.65    0.21 
   4   4   1    1.84    0.22 
   4   4   1    1.73    0.21 
  -5  -4  -1    7.88    0.46 
  -5  -4  -1    7.78    0.52 
  -5  -4  -1    7.74    0.57 
   5   4   1    8.60    0.51 
   5   4   1    8.78    0.51 
   5   4   1    9.25    0.52 
  -6  -4  -1    8.99    0.64 
  -6  -4  -1    9.31    0.53 
  -6  -4  -1    8.65    0.56 
  -6  -4  -1    9.32    0.60 
   6   4   1   10.02    0.59 
   6   4   1   10.15    0.58 
   6   4   1    9.96    0.59 
  -7  -4  -1    0.91    0.17 
  -7  -4  -1    0.77    0.23 
  -7  -4  -1    0.89    0.21 
   7   4   1    0.85    0.20 
   7   4   1    1.00    0.16 
   7   4   1    0.68    0.24 
  -8  -4  -1    7.53    0.64 
  -8  -4  -1    7.93    0.54 
   8   4   1    9.00    0.51 
   8   4   1    9.03    0.61 
   9   4   1    2.24    0.34 
   8  -5  -1    0.54    0.42 
   7  -5  -1    5.13    0.67 
  -7   5   1    6.14    0.43 
  -7   5   1    5.92    0.55 
   6  -5  -1    4.05    0.58 
  -6   5   1    4.35    0.43 
   5  -5  -1   10.59    0.83 
  -5   5   1   11.91    0.70 
  -5   5   1   12.08    0.68 
  -5   5   1   11.19    0.74 
  -5   5   1   11.84    0.70 
  -5   5   1   11.91    0.68 
   4  -5  -1   10.50    0.82 
  -4   5   1   12.76    0.72 
  -4   5   1   13.27    0.71 
  -4   5   1   12.67    0.76 
  -4   5   1   11.32    0.83 
  -4   5   1   12.79    0.70 
  -3   5   1   12.69    0.72 
  -3   5   1   12.33    0.70 
  -3   5   1   11.79    0.76 
  -3   5   1   12.38    0.70 
  -3   5   1   13.08    0.72 
  -2   5   1   23.87    1.25 
  -2   5   1   23.77    1.24 
  -2   5   1   23.42    1.26 
  -2   5   1   24.01    1.31 
  -2   5   1   24.11    1.24 
  -1   5   1    6.81    0.45 
  -1   5   1    6.90    0.43 
  -1   5   1    7.39    0.43 
  -1   5   1    7.27    0.52 
  -1   5   1    7.05    0.44 
   0  -5  -1    9.39    0.58 
   0   5   1    8.96    0.62 
   0   5   1    9.33    0.54 
   0   5   1    9.48    0.56 
   0   5   1    8.94    0.55 
   0   5   1    9.82    0.54 
  -1  -5  -1   25.20    1.36 
  -1  -5  -1   24.83    1.40 
   1   5   1   28.36    1.39 
   1   5   1   26.94    1.35 
   1   5   1   27.04    1.45 
   1   5   1   26.33    1.37 
   1   5   1   25.99    1.35 
   2   5   1    5.26    0.31 
   2   5   1    4.71    0.32 
   2   5   1    4.18    0.41 
   2   5   1    4.53    0.42 
   2   5   1    5.18    0.35 
  -3  -5  -1   13.82    0.81 
  -3  -5  -1   13.78    0.86 
  -3  -5  -1   13.63    0.77 
   3   5   1   14.95    0.78 
   3   5   1   15.37    0.81 
   3   5   1   15.70    0.79 
   3   5   1   15.71    0.78 
  -4  -5  -1    6.29    0.36 
  -4  -5  -1    7.00    0.50 
  -4  -5  -1    6.75    0.44 
   4   5   1    4.97    0.38 
   4   5   1    5.43    0.40 
   4   5   1    5.10    0.39 
  -5  -5  -1    2.86    0.35 
  -5  -5  -1    2.91    0.24 
  -5  -5  -1    2.97    0.39 
   5   5   1    2.36    0.29 
   5   5   1    2.09    0.32 
   5   5   1    2.19    0.27 
  -6  -5  -1    4.42    0.45 
  -6  -5  -1    4.44    0.45 
   6   5   1    3.62    0.35 
   6   5   1    3.70    0.37 
   6   5   1    3.73    0.39 
   7   5   1    1.33    0.23 
   7   5   1    2.12    0.25 
   8   5   1    1.40    0.28 
   6  -6  -1    1.76    0.44 
  -6   6   1    1.45    0.36 
  -6   6   1    1.45    0.28 
   5  -6  -1    7.15    0.70 
  -5   6   1    6.10    0.55 
  -5   6   1    5.83    0.51 
  -4   6   1    2.29    0.35 
  -4   6   1    2.13    0.34 
  -4   6   1    1.76    0.37 
  -3   6   1    4.94    0.42 
  -3   6   1    4.59    0.46 
  -3   6   1    4.51    0.41 
  -3   6   1    4.67    0.36 
  -3   6   1    4.57    0.39 
  -2   6   1    6.12    0.62 
  -2   6   1    7.38    0.51 
  -2   6   1    7.71    0.49 
  -2   6   1    7.34    0.48 
  -2   6   1    7.66    0.58 
  -1   6   1    3.00    0.31 
  -1   6   1    2.67    0.31 
  -1   6   1    2.47    0.27 
  -1   6   1    2.83    0.30 
  -1   6   1    2.66    0.37 
   0  -6  -1    6.07    0.47 
   0   6   1    5.35    0.39 
   0   6   1    5.83    0.39 
   0   6   1    5.16    0.41 
   0   6   1    5.31    0.41 
   0   6   1    5.54    0.50 
  -1  -6  -1    6.55    0.51 
   1   6   1    6.11    0.54 
   1   6   1    6.47    0.44 
   1   6   1    6.63    0.43 
   1   6   1    6.50    0.43 
   1   6   1    6.90    0.47 
  -2  -6  -1    6.07    0.40 
  -2  -6  -1    5.92    0.47 
   2   6   1    4.84    0.31 
   2   6   1    4.98    0.39 
   2   6   1    4.93    0.34 
   2   6   1    4.13    0.47 
   2   6   1    4.93    0.37 
  -3  -6  -1    5.85    0.53 
  -3  -6  -1    5.88    0.48 
   3   6   1    7.22    0.44 
   3   6   1    7.25    0.44 
   3   6   1    7.52    0.42 
   3   6   1    6.88    0.47 
  -4  -6  -1    2.54    0.40 
   4   6   1    2.40    0.31 
   4   6   1    2.39    0.30 
   4   6   1    2.33    0.29 
   4   6   1    2.22    0.25 
  -5  -6  -1    5.12    0.54 
  -5  -6  -1    5.55    0.55 
   5   6   1    6.49    0.47 
   5   6   1    6.22    0.42 
  -6  -6  -1    3.68    0.55 
   6   6   1    4.32    0.46 
   6   6   1    4.49    0.37 
  -4   7   1    3.02    0.49 
  -3   7   1    1.07    0.26 
  -2   7   1    3.60    0.43 
  -1   7   1    2.28    0.39 
  -1   7   1    2.24    0.37 
   0   7   1    1.18    0.24 
   0   7   1    1.10    0.25 
   0   7   1    1.40    0.26 
  -1  -7  -1    3.99    0.48 
   1   7   1    4.26    0.41 
   1   7   1    4.28    0.41 
  -2  -7  -1    3.59    0.47 
   2   7   1    2.66    0.37 
   2   7   1    2.97    0.38 
  -3  -7  -1    1.73    0.35 
   3   7   1    1.85    0.27 
   3   7   1    1.81    0.23 
   3   7   1    1.92    0.31 
  -4  -7  -1    7.04    0.64 
   4   7   1    6.31    0.44 
   4   7   1    6.82    0.55 
   4   7  -2    7.26    0.44 
  -4  -7   2    6.81    0.60 
  -4  -7   2    6.90    0.57 
   3   7  -2    1.21    0.20 
  -3  -7   2    0.87    0.25 
  -3  -7   2    0.94    0.28 
   2   7  -2    4.09    0.45 
   2   7  -2    3.72    0.34 
  -2  -7   2    4.21    0.47 
   1   7  -2    1.07    0.23 
   1   7  -2    0.93    0.19 
   0   7  -2    0.65    0.20 
   0   7  -2    0.64    0.22 
  -1   7  -2    0.72    0.21 
  -1   7  -2    0.76    0.36 
  -2   7  -2    1.64    0.28 
  -3   7  -2    0.87    0.27 
   6   6  -2    2.15    0.28 
  -6  -6   2    1.56    0.27 
  -6  -6   2    1.71    0.32 
   5   6  -2    4.85    0.38 
   5   6  -2    4.42    0.36 
   5   6  -2    4.25    0.42 
  -5  -6   2    4.42    0.67 
  -5  -6   2    5.45    0.43 
  -5  -6   2    5.18    0.49 
   4   6  -2    5.77    0.35 
   4   6  -2    5.52    0.37 
   4   6  -2    5.67    0.38 
   4   6  -2    5.05    0.40 
  -4  -6   2    5.65    0.50 
  -4  -6   2    5.59    0.42 
  -4  -6   2    5.56    0.43 
   3   6  -2    6.95    0.60 
   3   6  -2    6.83    0.43 
   3   6  -2    6.68    0.41 
   3   6  -2    6.78    0.42 
   3   6  -2    6.58    0.42 
  -3  -6   2    7.81    0.54 
  -3  -6   2    7.88    0.48 
   2   6  -2    4.72    0.52 
   2   6  -2    5.58    0.36 
   2   6  -2    5.00    0.40 
   2   6  -2    5.51    0.36 
  -2  -6   2    6.61    0.47 
  -2  -6   2    4.90    0.60 
   1   6  -2    5.61    0.36 
   1   6  -2    5.50    0.40 
   1   6  -2    5.57    0.52 
   1   6  -2    5.72    0.37 
   1   6  -2    5.52    0.43 
  -1  -6   2    5.32    0.40 
   0   6  -2    3.99    0.31 
   0   6  -2    3.86    0.33 
   0   6  -2    3.45    0.43 
   0   6  -2    3.74    0.36 
   0   6  -2    4.07    0.31 
  -1   6  -2    0.98    0.21 
  -1   6  -2    0.87    0.17 
  -1   6  -2    0.88    0.18 
  -1   6  -2    0.87    0.17 
  -1   6  -2    0.91    0.26 
  -2   6  -2    5.10    0.40 
  -2   6  -2    4.87    0.48 
  -2   6  -2    4.85    0.40 
  -2   6  -2    5.20    0.38 
  -2   6  -2    5.04    0.44 
  -3   6  -2    8.01    0.54 
  -3   6  -2    7.85    0.52 
  -3   6  -2    7.68    0.61 
  -3   6  -2    7.35    0.57 
  -4   6  -2    0.78    0.23 
  -4   6  -2    0.74    0.30 
  -5   6  -2    4.52    0.48 
   6  -6   2    0.08    0.43 
   8   5  -2    6.95    0.52 
  -8  -5   2    6.40    0.57 
  -8  -5   2    7.27    0.64 
   7   5  -2    2.60    0.33 
  -7  -5   2    3.53    0.44 
  -7  -5   2    3.16    0.39 
  -7  -5   2    3.29    0.47 
   6   5  -2    6.53    0.46 
   6   5  -2    6.17    0.42 
  -6  -5   2    5.55    0.52 
  -6  -5   2    5.50    0.47 
  -6  -5   2    5.57    0.44 
   5   5  -2    2.73    0.29 
   5   5  -2    2.72    0.26 
  -5  -5   2    2.82    0.30 
  -5  -5   2    2.50    0.23 
  -5  -5   2    2.53    0.29 
  -5  -5   2    2.57    0.37 
   4   5  -2    5.67    0.34 
   4   5  -2    5.54    0.33 
   4   5  -2    5.77    0.36 
  -4  -5   2    4.17    0.34 
  -4  -5   2    4.05    0.42 
  -4  -5   2    4.37    0.36 
   3   5  -2   11.07    0.56 
   3   5  -2   10.96    0.54 
   3   5  -2   11.10    0.56 
   3   5  -2   11.15    0.55 
  -3  -5   2    8.02    0.63 
  -3  -5   2    8.01    0.58 
   2   5  -2    1.53    0.17 
   2   5  -2    1.56    0.17 
   2   5  -2    1.52    0.15 
   2   5  -2    1.57    0.30 
   2   5  -2    1.66    0.17 
   2   5  -2    1.72    0.23 
  -2  -5   2    1.43    0.22 
  -2  -5   2    1.64    0.27 
   1   5  -2   35.12    1.82 
   1   5  -2   35.50    1.75 
   1   5  -2   35.00    1.79 
   1   5  -2   35.65    1.72 
   1   5  -2   35.83    1.73 
  -1  -5   2   31.07    1.75 
  -1  -5   2   31.54    1.78 
   0   5  -2    3.06    0.29 
   0   5  -2    2.99    0.34 
   0   5  -2    2.98    0.24 
   0   5  -2    2.93    0.24 
   0   5  -2    2.95    0.26 
   0  -5   2    3.53    0.29 
  -1   5  -2   34.20    1.73 
  -1   5  -2   31.95    1.67 
  -1   5  -2   32.86    1.71 
  -1   5  -2   32.29    1.66 
  -1   5  -2   32.48    1.68 
  -2   5  -2    3.07    0.33 
  -2   5  -2    2.75    0.30 
  -2   5  -2    2.84    0.25 
  -2   5  -2    2.62    0.26 
  -2   5  -2    2.87    0.27 
  -3   5  -2   11.15    0.63 
  -3   5  -2   10.62    0.62 
  -3   5  -2   11.02    0.61 
  -3   5  -2   11.61    0.68 
  -3   5  -2   10.62    0.66 
   3  -5   2    8.85    0.63 
  -4   5  -2    9.81    0.63 
  -4   5  -2   10.21    0.58 
  -4   5  -2    9.50    0.63 
  -4   5  -2   10.31    0.59 
   4  -5   2    8.99    0.69 
   4  -5   2    9.09    0.60 
  -5   5  -2    0.32    0.21 
   5  -5   2    0.14    0.18 
   5  -5   2    0.20    0.29 
  -6   5  -2   12.62    0.82 
   6  -5   2   12.23    0.76 
   6  -5   2   12.19    0.89 
   7  -5   2    2.80    0.65 
   7  -5   2    2.94    0.39 
   9   4  -2    5.51    0.51 
  -9  -4   2    5.01    0.54 
  -9  -4   2    5.48    0.56 
   8   4  -2    6.00    0.47 
   8   4  -2    5.22    0.53 
  -8  -4   2    5.48    0.52 
  -8  -4   2    5.36    0.71 
   7   4  -2    6.19    0.47 
   7   4  -2    6.45    0.50 
  -7  -4   2    6.51    0.53 
  -7  -4   2    7.04    0.49 
  -7  -4   2    6.81    0.49 
  -7  -4   2    7.60    0.51 
  -6  -4   2    6.35    0.43 
  -6  -4   2    6.20    0.40 
  -6  -4   2    6.09    0.43 
  -6  -4   2    6.44    0.50 
   5   4  -2   13.65    0.80 
   5   4  -2   13.90    0.81 
  -5  -4   2   15.58    0.87 
  -5  -4   2   15.22    0.81 
  -5  -4   2   16.01    0.81 
   4   4  -2   14.14    0.76 
   4   4  -2   13.58    0.77 
  -4  -4   2   15.27    0.78 
  -4  -4   2   14.96    0.78 
  -4  -4   2   14.62    0.77 
  -4  -4   2   14.26    0.83 
   3   4  -2    0.21    0.06 
   3   4  -2    0.22    0.08 
   3   4  -2    0.13    0.09 
   3   4  -2    0.25    0.13 
  -3  -4   2    0.55    0.16 
   2   4  -2    9.85    0.49 
   2   4  -2    9.13    0.50 
   2   4  -2    8.97    0.49 
   2   4  -2    9.23    0.56 
   1   4  -2    8.92    0.50 
   1   4  -2    9.39    0.48 
   1   4  -2    9.04    0.50 
   1   4  -2    9.12    0.52 
   1   4  -2    9.50    0.55 
   1   4  -2    9.54    0.58 
  -1  -4   2    9.49    0.56 
  -1  -4   2    9.54    0.53 
   0   4  -2   12.79    0.70 
   0   4  -2   11.73    0.71 
   0   4  -2   12.24    0.71 
   0   4  -2   12.42    0.65 
   0   4  -2   12.64    0.65 
  -1   4  -2    4.63    0.29 
  -1   4  -2    4.30    0.28 
  -1   4  -2    4.27    0.32 
  -1   4  -2    4.12    0.30 
  -1   4  -2    4.54    0.34 
   1  -4   2    4.80    0.31 
   1  -4   2    4.43    0.31 
  -2   4  -2    8.26    0.50 
  -2   4  -2    8.09    0.47 
  -2   4  -2    7.73    0.50 
  -2   4  -2    8.04    0.46 
  -3   4  -2    8.42    0.48 
  -3   4  -2    7.40    0.56 
  -3   4  -2    8.88    0.50 
  -3   4  -2    8.33    0.52 
  -4   4  -2    2.97    0.26 
  -4   4  -2    3.22    0.31 
   4  -4   2    3.55    0.47 
   5  -4   2    6.91    0.39 
   5  -4   2    7.15    0.48 
   5  -4   2    7.06    0.41 
   5  -4   2    6.33    0.55 
  -6   4  -2    0.20    0.16 
  -6   4  -2   -0.10    0.11 
   6  -4   2    0.25    0.19 
   6  -4   2    0.14    0.15 
   6  -4   2    0.19    0.32 
   6  -4   2    0.13    0.10 
   7  -4   2    7.59    0.67 
   7  -4   2    8.10    0.53 
   7  -4   2    7.13    0.55 
   8  -4   2    1.57    0.44 
   8  -4   2    1.27    0.25 
  10   3  -2    2.77    0.41 
 -10  -3   2    2.88    0.52 
   9   3  -2    8.36    0.68 
   9   3  -2    7.95    0.62 
  -9  -3   2    8.03    0.62 
  -9  -3   2    9.55    0.67 
   8   3  -2   22.35    1.30 
   8   3  -2   23.79    1.28 
  -8  -3   2   24.19    1.28 
  -8  -3   2   23.65    1.31 
   7   3  -2   13.62    0.81 
   7   3  -2   13.14    0.80 
  -7  -3   2   14.52    0.79 
  -7  -3   2   14.57    0.79 
  -7  -3   2   14.37    0.84 
   6   3  -2   35.62    1.84 
  -6  -3   2   36.22    1.87 
  -6  -3   2   36.28    1.83 
  -6  -3   2   35.75    1.84 
   5   3  -2   33.18    1.81 
  -5  -3   2   36.42    1.81 
  -5  -3   2   37.25    1.80 
  -5  -3   2   35.36    1.84 
   4   3  -2   31.33    1.64 
  -4  -3   2   32.61    1.64 
  -4  -3   2   33.32    1.67 
  -4  -3   2   32.49    1.64 
  -4  -3   2   31.86    1.63 
   3   3  -2   39.01    2.00 
   3   3  -2   39.97    1.95 
   3   3  -2   38.69    1.97 
  -3  -3   2   40.29    2.00 
  -3  -3   2   38.84    1.96 
  -3  -3   2   38.22    1.98 
  -3  -3   2   39.65    1.97 
   2   3  -2   47.08    2.35 
   2   3  -2   47.18    2.40 
   2   3  -2   46.29    2.36 
   2   3  -2   47.61    2.35 
  -2  -3   2   47.86    2.36 
  -2  -3   2   46.91    2.40 
  -2  -3   2   47.99    2.38 
  -2  -3   2   49.57    2.36 
   1   3  -2  103.88    5.17 
   1   3  -2  104.97    5.18 
   1   3  -2  102.35    5.18 
   1   3  -2  102.84    5.20 
   1   3  -2  102.27    5.18 
  -1  -3   2  106.26    5.20 
  -1  -3   2  106.35    5.18 
  -1  -3   2  109.01    5.17 
   0   3  -2    6.33    0.39 
   0   3  -2    6.62    0.35 
   0   3  -2    6.70    0.37 
   0   3  -2    6.36    0.35 
   0   3  -2    6.26    0.40 
  -1   3  -2   59.95    2.97 
  -1   3  -2   59.58    2.95 
  -1   3  -2   59.74    2.94 
  -1   3  -2   59.35    2.97 
   1  -3   2   57.50    2.96 
   1  -3   2   59.33    2.95 
  -2   3  -2   38.02    1.85 
  -2   3  -2   38.78    1.86 
  -2   3  -2   38.35    1.84 
   2  -3   2   34.92    1.87 
   2  -3   2   32.96    1.84 
  -3   3  -2   50.88    2.43 
  -3   3  -2   48.84    2.44 
  -3   3  -2   50.28    2.44 
   3  -3   2   46.64    2.46 
   3  -3   2   46.11    2.41 
   3  -3   2   47.99    2.40 
   3  -3   2   48.18    2.43 
  -4   3  -2   61.48    2.74 
   4  -3   2   52.31    2.77 
   4  -3   2   52.32    2.71 
   4  -3   2   52.82    2.75 
   4  -3   2   54.14    2.71 
  -5   3  -2    8.14    0.45 
   5  -3   2    6.72    0.40 
   5  -3   2    6.63    0.51 
   5  -3   2    6.77    0.42 
   5  -3   2    6.81    0.45 
   6  -3   2   32.81    1.76 
   6  -3   2   32.91    1.69 
   6  -3   2   33.07    1.71 
  -7   3  -2    8.65    0.54 
  -7   3  -2    8.40    0.55 
  -7   3  -2    8.69    0.54 
   7  -3   2    9.22    0.58 
   7  -3   2    8.71    0.67 
   7  -3   2    8.76    0.56 
   7  -3   2    8.20    0.52 
   8  -3   2    2.63    0.36 
   8  -3   2    2.35    0.50 
   9  -3   2   14.05    0.86 
   9  -3   2   12.71    0.99 
  10   2  -2    0.34    0.34 
  10   2  -2    0.48    0.33 
 -10  -2   2    1.05    0.32 
   9   2  -2    9.66    0.68 
   9   2  -2    9.29    0.69 
  -9  -2   2    9.55    0.63 
  -9  -2   2   10.39    0.69 
  -9  -2   2    9.93    0.68 
   8   2  -2    2.93    0.22 
   8   2  -2    2.83    0.37 
   8   2  -2    2.84    0.36 
  -8  -2   2    2.13    0.29 
  -8  -2   2    2.41    0.33 
  -8  -2   2    2.33    0.35 
   7   2  -2    1.03    0.19 
   7   2  -2    1.29    0.14 
  -7  -2   2    1.85    0.25 
   6   2  -2    6.60    0.45 
  -6  -2   2    7.45    0.47 
  -6  -2   2    7.46    0.44 
  -6  -2   2    7.46    0.45 
  -5  -2   2    8.26    0.45 
  -5  -2   2    7.84    0.53 
  -5  -2   2    8.04    0.49 
   4   2  -2  102.49    5.52 
  -4  -2   2  115.46    5.51 
  -4  -2   2  116.21    5.52 
  -4  -2   2  111.99    5.53 
   3   2  -2   37.83    2.01 
   3   2  -2   40.10    2.03 
  -3  -2   2   40.65    2.03 
  -3  -2   2   41.63    2.00 
  -3  -2   2   40.91    2.01 
   2   2  -2  142.98    7.61 
   2   2  -2  148.74    7.59 
   2   2  -2  150.42    7.63 
  -2  -2   2  155.27    7.60 
  -2  -2   2  159.72    7.62 
  -2  -2   2  156.05    7.60 
  -2  -2   2  162.67    7.63 
   1   2  -2   24.29    1.21 
   1   2  -2   24.18    1.19 
   1   2  -2   23.35    1.18 
   1   2  -2   25.01    1.18 
  -1  -2   2   23.13    1.18 
  -1  -2   2   22.68    1.20 
  -1  -2   2   22.71    1.18 
  -1  -2   2   23.25    1.20 
   0   2  -2   40.57    2.05 
   0   2  -2   41.51    2.04 
   0   2  -2   41.13    2.03 
   0   2  -2   42.05    2.05 
   0   2  -2   41.24    2.06 
   0  -2   2   38.29    2.04 
   0  -2   2   41.45    2.03 
   0  -2   2   41.79    2.05 
  -1   2  -2    2.51    0.19 
  -1   2  -2    2.63    0.20 
   1  -2   2    3.43    0.18 
   1  -2   2    3.60    0.18 
   1  -2   2    3.51    0.20 
   1  -2   2    3.38    0.21 
   1  -2   2    3.43    0.22 
  -2   2  -2   21.25    1.16 
  -2   2  -2   21.13    1.18 
  -2   2  -2   20.94    1.18 
  -2   2  -2   20.66    1.17 
   2  -2   2   25.53    1.16 
   2  -2   2   25.42    1.18 
   2  -2   2   24.50    1.19 
   2  -2   2   26.34    1.16 
  -3   2  -2   24.37    1.34 
  -3   2  -2   24.11    1.34 
   3  -2   2   27.80    1.33 
   3  -2   2   27.63    1.33 
   3  -2   2   27.66    1.37 
   3  -2   2   27.23    1.35 
   4  -2   2    5.85    0.33 
   4  -2   2    5.50    0.35 
   4  -2   2    5.48    0.38 
   5  -2   2    1.87    0.28 
   5  -2   2    2.16    0.20 
   5  -2   2    2.09    0.23 
  -6   2  -2    4.99    0.33 
  -6   2  -2    4.92    0.32 
   6  -2   2    3.48    0.36 
   6  -2   2    3.93    0.33 
   6  -2   2    3.77    0.40 
   6  -2   2    3.47    0.28 
   7  -2   2    1.88    0.32 
   7  -2   2    1.82    0.39 
   7  -2   2    2.34    0.30 
  -8   2  -2    0.58    0.25 
  -8   2  -2    0.45    0.18 
   8  -2   2    0.66    0.21 
   8  -2   2    0.55    0.25 
   8  -2   2    0.67    0.31 
   9  -2   2    1.59    0.28 
   9  -2   2    1.16    0.37 
  10  -2   2    2.90    0.48 
  10  -2   2    1.77    0.49 
 -11  -1   2    4.41    0.64 
  10   1  -2    3.89    0.51 
  10   1  -2    3.56    0.56 
   9   1  -2    5.12    0.38 
   9   1  -2    4.61    0.46 
   9   1  -2    5.16    0.50 
  -9  -1   2    5.84    0.49 
  -9  -1   2    5.33    0.51 
  -9  -1   2    5.18    0.42 
   8   1  -2   45.01    2.42 
   8   1  -2   45.38    2.42 
   8   1  -2   44.54    2.37 
  -8  -1   2   50.50    2.43 
  -8  -1   2   50.42    2.43 
  -8  -1   2   48.08    2.41 
  -7  -1   2    1.71    0.26 
  -7  -1   2    1.81    0.22 
  -7  -1   2    1.44    0.25 
   6   1  -2   62.44    3.22 
   6   1  -2   63.26    3.26 
  -6  -1   2   66.19    3.26 
  -6  -1   2   66.84    3.27 
  -6  -1   2   66.97    3.27 
   5   1  -2   28.48    1.30 
   5   1  -2   28.87    1.34 
  -5  -1   2   24.06    1.32 
  -5  -1   2   24.30    1.33 
  -5  -1   2   24.03    1.33 
   4   1  -2   32.65    1.52 
   4   1  -2   31.73    1.49 
  -4  -1   2   28.77    1.51 
  -4  -1   2   28.42    1.52 
  -4  -1   2   28.50    1.52 
   3   1  -2   40.97    1.99 
  -3  -1   2   40.20    1.98 
  -3  -1   2   38.93    1.99 
  -3  -1   2   39.56    2.00 
   2   1  -2   25.65    1.30 
   2   1  -2   26.14    1.30 
  -2  -1   2   26.17    1.30 
  -2  -1   2   25.16    1.30 
  -2  -1   2   26.43    1.29 
   1   1  -2  302.51   15.64 
   1   1  -2  318.44   15.69 
  -1  -1   2  325.81   15.65 
  -1  -1   2  320.82   15.70 
  -1  -1   2  316.43   15.68 
   0   1  -2   17.52    0.84 
   0   1  -2   18.20    0.85 
   0   1  -2   18.48    0.84 
   0  -1   2   15.61    0.84 
   0  -1   2   15.35    0.85 
   0  -1   2   15.25    0.84 
  -1   1  -2  294.75   14.11 
  -1   1  -2  297.30   14.14 
  -1   1  -2  294.70   14.11 
   1  -1   2  274.86   14.13 
   1  -1   2  275.90   14.13 
   1  -1   2  282.58   14.10 
   1  -1   2  280.82   14.14 
  -2   1  -2   45.69    2.23 
  -2   1  -2   45.46    2.24 
  -2   1  -2   46.92    2.23 
  -2   1  -2   44.43    2.23 
   2  -1   2   43.40    2.23 
   2  -1   2   43.49    2.23 
   2  -1   2   45.31    2.24 
  -3   1  -2  112.90    5.46 
  -3   1  -2  116.78    5.46 
  -3   1  -2  112.39    5.46 
  -3   1  -2  117.03    5.46 
   3  -1   2  104.07    5.46 
   3  -1   2  108.87    5.46 
   3  -1   2  102.11    5.46 
  -4   1  -2  150.10    7.56 
  -4   1  -2  151.68    7.57 
   4  -1   2  159.30    7.56 
   4  -1   2  153.98    7.57 
   4  -1   2  151.20    7.57 
  -5   1  -2    2.58    0.22 
  -5   1  -2    2.62    0.22 
   5  -1   2    2.08    0.21 
   5  -1   2    2.20    0.20 
   5  -1   2    2.14    0.23 
  -6   1  -2  148.87    7.31 
  -6   1  -2  146.33    7.31 
   6  -1   2  150.70    7.30 
   6  -1   2  144.41    7.31 
   6  -1   2  147.41    7.30 
  -7   1  -2   26.19    1.34 
   7  -1   2   25.08    1.33 
   7  -1   2   25.21    1.35 
   7  -1   2   25.20    1.33 
  -8   1  -2   27.07    1.46 
  -8   1  -2   27.36    1.48 
   8  -1   2   27.91    1.45 
   8  -1   2   27.99    1.49 
   8  -1   2   28.11    1.46 
  -9   1  -2   16.99    0.94 
  -9   1  -2   17.24    1.01 
   9  -1   2   15.20    1.01 
   9  -1   2   15.69    0.95 
  10  -1   2    1.36    0.43 
  10  -1   2    1.73    0.32 
  11   0  -2    5.69    1.04 
 -11   0   2    7.66    0.71 
  10   0  -2    0.34    0.33 
 -10   0   2    0.39    0.35 
   9   0  -2    6.67    0.45 
   9   0  -2    6.28    0.54 
   9   0  -2    6.39    0.48 
  -9   0   2    6.07    0.46 
  -9   0   2    6.48    0.55 
   8   0  -2   15.70    0.84 
   8   0  -2   15.50    0.89 
  -8   0   2   15.63    0.89 
   7   0  -2    4.78    0.32 
   7   0  -2    4.87    0.37 
  -7   0   2    4.79    0.36 
  -7   0   2    4.73    0.31 
  -7   0   2    4.52    0.34 
   6   0  -2   29.78    1.55 
   6   0  -2   29.70    1.53 
  -6   0   2   30.46    1.52 
  -6   0   2   31.35    1.56 
   5   0  -2   33.94    1.72 
   5   0  -2   33.30    1.70 
  -5   0   2   34.49    1.70 
  -5   0   2   34.19    1.72 
   4   0  -2   77.61    3.84 
   4   0  -2   76.15    3.82 
  -4   0   2   77.51    3.82 
  -4   0   2   78.54    3.84 
   3   0  -2    3.29    0.20 
  -3   0   2    3.16    0.19 
  -3   0   2    3.52    0.21 
  -2   0   2    3.69    0.20 
   1   0  -2   57.17    2.83 
   1   0  -2   54.96    2.80 
   1   0  -2   56.26    2.81 
  -1   0   2   57.02    2.82 
  -1   0   2   56.05    2.81 
   0   0  -2    4.31    0.25 
   0   0  -2    4.52    0.25 
   0   0   2    4.56    0.24 
   0   0   2    4.22    0.25 
   0   0   2    4.41    0.25 
   0   0   2    4.37    0.25 
  -1   0  -2   88.46    4.41 
  -1   0  -2   85.74    4.39 
  -1   0  -2   90.23    4.39 
   1   0   2   90.49    4.40 
   1   0   2   88.19    4.40 
   1   0   2   90.40    4.40 
  -2   0  -2   23.78    1.23 
  -2   0  -2   24.70    1.22 
  -2   0  -2   24.48    1.23 
   2   0   2   25.43    1.23 
   2   0   2   24.32    1.23 
  -3   0  -2   85.17    4.26 
  -3   0  -2   86.98    4.25 
  -3   0  -2   87.09    4.25 
   3   0   2   83.75    4.26 
   3   0   2   86.90    4.25 
   3   0   2   85.78    4.25 
  -4   0  -2    0.11    0.08 
  -4   0  -2    0.07    0.08 
   4   0   2    0.05    0.07 
   4   0   2    0.10    0.09 
   4   0   2    0.21    0.08 
  -5   0  -2    5.51    0.35 
  -5   0  -2    5.14    0.34 
   5   0   2    5.35    0.33 
   5   0   2    5.28    0.33 
   5   0   2    5.52    0.36 
  -6   0  -2    0.08    0.12 
  -6   0  -2    0.02    0.12 
   6   0   2    0.07    0.11 
   6   0   2    0.01    0.10 
   6   0   2   -0.06    0.14 
  -7   0  -2    3.99    0.36 
   7   0   2    3.77    0.37 
   7   0   2    3.85    0.32 
   7   0   2    4.01    0.32 
  -8   0  -2    2.19    0.38 
   8   0   2    1.76    0.28 
   8   0   2    1.97    0.29 
   8   0   2    1.82    0.39 
  -9   0  -2    3.22    0.51 
   9   0   2    3.23    0.51 
   9   0   2    3.67    0.40 
  10   0   2    6.22    0.58 
  10   0   2    5.32    0.71 
  11  -1  -2    4.45    1.01 
  10  -1  -2    6.24    0.62 
  10  -1  -2    5.85    0.63 
 -10   1   2    4.49    0.68 
   9  -1  -2    5.84    0.44 
   9  -1  -2    4.87    0.39 
   9  -1  -2    5.23    0.50 
  -9   1   2    5.37    0.51 
  -9   1   2    5.12    0.41 
   8  -1  -2   49.85    2.43 
   8  -1  -2   49.55    2.51 
   8  -1  -2   50.22    2.45 
   8  -1  -2   49.32    2.44 
  -8   1   2   44.50    2.41 
  -8   1   2   44.27    2.44 
   7  -1  -2    1.62    0.22 
   7  -1  -2    1.65    0.26 
   7  -1  -2    1.85    0.32 
   6  -1  -2   65.65    3.23 
   6  -1  -2   66.25    3.29 
   6  -1  -2   65.09    3.24 
  -6   1   2   64.79    3.25 
  -6   1   2   62.52    3.23 
   5  -1  -2   23.19    1.28 
   5  -1  -2   23.37    1.32 
   5  -1  -2   23.03    1.27 
  -5   1   2   28.21    1.28 
  -5   1   2   27.81    1.29 
   4  -1  -2   28.28    1.50 
   4  -1  -2   29.49    1.53 
   4  -1  -2   27.62    1.50 
  -4   1   2   32.34    1.51 
  -4   1   2   31.33    1.50 
   3  -1  -2   39.43    2.03 
   3  -1  -2   39.32    2.00 
  -3   1   2   41.29    2.01 
  -3   1   2   40.91    2.00 
  -2   1   2   25.76    1.30 
  -2   1   2   26.46    1.32 
  -2   1   2   25.59    1.30 
   1  -1  -2  321.68   15.70 
  -1   1   2  314.72   15.57 
  -1   1   2  302.22   15.60 
  -1   1   2  323.74   15.69 
   0  -1  -2   14.90    0.88 
   0   1   2   18.92    0.90 
   0   1   2   17.14    0.88 
   0   1   2   18.46    0.88 
  -1  -1  -2  277.73   14.38 
   1   1   2  302.46   14.38 
   1   1   2  292.34   14.38 
  -2  -1  -2   43.83    2.26 
   2   1   2   45.49    2.26 
   2   1   2   46.61    2.26 
   2   1   2   45.64    2.26 
  -3  -1  -2  105.68    5.39 
  -3  -1  -2  104.16    5.39 
  -3  -1  -2  105.23    5.39 
   3   1   2  114.87    5.39 
   3   1   2  112.49    5.39 
   3   1   2  111.84    5.39 
  -4  -1  -2  153.78    7.45 
  -4  -1  -2  156.22    7.45 
   4   1   2  149.16    7.45 
   4   1   2  144.54    7.45 
   4   1   2  150.43    7.46 
  -5  -1  -2    2.33    0.23 
  -5  -1  -2    2.29    0.22 
   5   1   2    2.54    0.21 
   5   1   2    2.52    0.25 
   5   1   2    2.66    0.22 
  -6  -1  -2  150.64    7.21 
  -6  -1  -2  150.85    7.22 
   6   1   2  144.47    7.19 
   6   1   2  145.50    7.22 
   6   1   2  136.28    7.24 
  -7  -1  -2   26.18    1.37 
   7   1   2   25.80    1.36 
   7   1   2   26.03    1.38 
   7   1   2   25.24    1.33 
  -8  -1  -2   29.41    1.50 
  -8  -1  -2   27.81    1.47 
   8   1   2   27.30    1.45 
   8   1   2   27.70    1.50 
   8   1   2   26.88    1.47 
  -9  -1  -2   15.20    1.04 
   9   1   2   17.60    1.02 
   9   1   2   18.48    0.98 
  10   1   2    1.84    0.34 
  10   1   2    1.21    0.44 
  10  -2  -2    1.36    0.40 
   9  -2  -2    9.75    0.69 
   9  -2  -2    9.85    0.77 
  -9   2   2   10.02    0.69 
  -9   2   2    9.24    0.62 
   8  -2  -2    2.61    0.31 
   8  -2  -2    2.43    0.35 
   8  -2  -2    2.46    0.44 
   8  -2  -2    2.10    0.24 
  -8   2   2    2.73    0.28 
  -8   2   2    2.81    0.36 
   7  -2  -2    1.75    0.50 
  -7   2   2    1.13    0.19 
  -7   2   2    1.47    0.22 
   6  -2  -2    7.29    0.51 
   6  -2  -2    7.28    0.44 
   6  -2  -2    7.18    0.43 
  -6   2   2    6.58    0.42 
  -6   2   2    6.78    0.44 
  -5   2   2    2.54    0.25 
  -5   2   2    2.97    0.23 
   4  -2  -2  113.02    5.25 
  -4   2   2  101.14    5.20 
  -4   2   2  101.11    5.19 
   3  -2  -2   39.71    1.97 
   3  -2  -2   41.51    2.03 
  -3   2   2   39.35    1.97 
  -3   2   2   38.94    2.01 
  -3   2   2   38.70    1.99 
   2  -2  -2  155.95    7.50 
   2  -2  -2  157.76    7.38 
  -2   2   2  146.85    7.37 
  -2   2   2  144.47    7.44 
  -2   2   2  142.90    7.36 
  -2   2   2  148.18    7.36 
   1  -2  -2   22.30    1.16 
   1  -2  -2   22.27    1.19 
   1  -2  -2   22.42    1.15 
  -1   2   2   22.27    1.15 
  -1   2   2   23.33    1.17 
  -1   2   2   24.08    1.16 
  -1   2   2   23.97    1.19 
   0  -2  -2   42.67    2.06 
   0  -2  -2   41.47    2.07 
   0  -2  -2   41.43    2.07 
   0   2   2   42.83    2.06 
   0   2   2   41.71    2.06 
   0   2   2   40.40    2.10 
   0   2   2   40.02    2.07 
   1   2   2    2.03    0.14 
   1   2   2    2.43    0.17 
   1   2   2    2.22    0.15 
  -2  -2  -2   25.79    1.16 
   2   2   2   21.90    1.16 
   2   2   2   21.81    1.16 
   2   2   2   21.97    1.16 
  -3  -2  -2   27.99    1.28 
   3   2   2   23.38    1.27 
   3   2   2   24.25    1.27 
   3   2   2   24.44    1.28 
  -4  -2  -2    5.75    0.31 
   4   2   2    4.17    0.30 
   4   2   2    4.45    0.32 
   4   2   2    4.43    0.31 
   5   2   2    3.63    0.30 
   5   2   2    3.38    0.27 
   5   2   2    3.56    0.28 
  -6  -2  -2    4.26    0.35 
  -6  -2  -2    4.16    0.35 
   6   2   2    5.25    0.39 
   6   2   2    5.11    0.36 
   6   2   2    5.36    0.33 
   7   2   2    4.32    0.40 
   7   2   2    4.21    0.38 
   7   2   2    4.42    0.33 
  -8  -2  -2    0.61    0.19 
  -8  -2  -2    0.51    0.22 
   8   2   2    0.53    0.17 
   8   2   2    0.66    0.24 
   8   2   2    0.57    0.23 
  -9  -2  -2    1.24    0.34 
   9   2   2    2.19    0.37 
   9   2   2    1.85    0.34 
   9   2   2    2.50    0.37 
 -10  -2  -2    1.86    0.37 
  10   2   2    1.41    0.33 
  10   2   2    1.35    0.44 
  10  -3  -2    2.36    0.50 
   9  -3  -2    8.21    0.74 
   8  -3  -2   22.18    1.34 
  -8   3   2   22.94    1.23 
  -8   3   2   23.25    1.22 
   7  -3  -2   14.18    0.76 
   7  -3  -2   13.28    0.88 
  -7   3   2   12.73    0.76 
   6  -3  -2   34.80    1.76 
   6  -3  -2   35.05    1.86 
  -6   3   2   34.62    1.78 
  -6   3   2   34.23    1.76 
   5  -3  -2   35.08    1.82 
   5  -3  -2   34.87    1.73 
  -5   3   2   32.97    1.75 
   4  -3  -2   31.52    1.66 
   4  -3  -2   32.50    1.57 
  -4   3   2   31.46    1.57 
  -4   3   2   31.16    1.63 
  -4   3   2   30.70    1.60 
  -4   3   2   30.54    1.58 
   3  -3  -2   39.32    1.90 
   3  -3  -2   37.75    1.98 
  -3   3   2   37.78    1.91 
  -3   3   2   37.25    1.95 
  -3   3   2   39.21    1.90 
  -3   3   2   37.62    1.96 
   2  -3  -2   48.10    2.39 
  -2   3   2   46.15    2.33 
  -2   3   2   44.91    2.34 
  -2   3   2   47.41    2.31 
  -2   3   2   46.29    2.34 
  -2   3   2   47.72    2.38 
   1  -3  -2  105.03    5.17 
  -1   3   2  105.36    5.17 
  -1   3   2  105.45    5.16 
  -1   3   2  101.37    5.21 
  -1   3   2  103.81    5.17 
  -1   3   2  104.56    5.18 
  -1   3   2  105.98    5.15 
   0   3   2    6.12    0.42 
   0   3   2    6.22    0.34 
   0   3   2    6.54    0.36 
   0   3   2    6.41    0.34 
   0   3   2    6.30    0.37 
  -1  -3  -2   59.73    2.98 
  -1  -3  -2   58.59    2.95 
  -1  -3  -2   60.14    2.97 
   1   3   2   59.93    2.95 
   1   3   2   59.15    2.97 
   1   3   2   59.06    2.94 
   1   3   2   59.97    2.95 
  -2  -3  -2   33.54    1.83 
  -2  -3  -2   34.91    1.84 
   2   3   2   37.90    1.82 
   2   3   2   37.83    1.83 
   2   3   2   36.85    1.82 
  -3  -3  -2   48.48    2.53 
  -3  -3  -2   49.56    2.55 
   3   3   2   50.67    2.52 
   3   3   2   50.90    2.52 
   3   3   2   51.88    2.52 
  -4  -3  -2   53.87    2.97 
  -4  -3  -2   55.50    2.99 
   4   3   2   61.62    2.97 
   4   3   2   61.90    2.97 
   4   3   2   63.07    2.97 
  -5  -3  -2    7.35    0.53 
  -5  -3  -2    7.39    0.48 
   5   3   2    8.08    0.49 
   5   3   2    7.99    0.50 
   5   3   2    8.51    0.49 
  -6  -3  -2   34.12    1.85 
  -6  -3  -2   32.44    1.80 
   6   3   2   35.15    1.82 
   6   3   2   38.51    1.82 
   6   3   2   35.31    1.83 
  -7  -3  -2    9.33    0.64 
  -7  -3  -2    8.61    0.58 
   7   3   2    9.14    0.53 
   7   3   2    8.79    0.60 
   7   3   2    8.80    0.61 
  -8  -3  -2    2.35    0.43 
   8   3   2    3.31    0.45 
   8   3   2    3.85    0.34 
   8   3   2    3.50    0.42 
  -9  -3  -2   13.81    0.95 
   9   3   2   14.89    0.95 
   9   3   2   15.19    0.86 
   9  -4  -2    4.99    0.68 
   8  -4  -2    4.41    0.60 
   8  -4  -2    4.91    0.51 
  -8   4   2    5.98    0.50 
   7  -4  -2    5.95    0.60 
   7  -4  -2    6.50    0.40 
   7  -4  -2    6.51    0.44 
  -7   4   2    6.03    0.48 
  -7   4   2    6.12    0.46 
  -7   4   2    7.19    0.57 
   6  -4  -2    6.09    0.43 
   6  -4  -2    6.22    0.60 
  -6   4   2    8.27    0.45 
  -6   4   2    8.05    0.48 
   5  -4  -2   15.31    0.73 
   5  -4  -2   15.26    0.74 
  -5   4   2   12.72    0.82 
  -5   4   2   13.45    0.74 
  -5   4   2   13.54    0.77 
   4  -4  -2   13.80    0.85 
  -4   4   2   13.53    0.76 
  -4   4   2   13.49    0.74 
  -4   4   2   13.23    0.75 
  -4   4   2   13.45    0.80 
  -4   4   2   13.61    0.74 
  -4   4   2   13.77    0.70 
   3  -4  -2    0.51    0.21 
  -3   4   2    0.30    0.11 
  -3   4   2    0.25    0.11 
  -3   4   2    0.27    0.10 
  -3   4   2    0.33    0.12 
  -3   4   2    0.19    0.14 
  -2   4   2    8.97    0.52 
  -2   4   2    8.66    0.58 
  -2   4   2    9.57    0.52 
  -2   4   2    9.09    0.52 
  -2   4   2    9.61    0.54 
   1  -4  -2    9.15    0.53 
  -1   4   2    9.28    0.58 
  -1   4   2    9.23    0.53 
  -1   4   2    9.21    0.52 
  -1   4   2    9.02    0.51 
  -1   4   2    9.21    0.51 
   0   4   2   12.85    0.65 
   0   4   2   12.44    0.66 
   0   4   2   11.75    0.74 
   0   4   2   12.37    0.68 
   0   4   2   13.22    0.64 
   0   4   2   12.47    0.68 
   0   4   2   12.53    0.67 
  -1  -4  -2    4.81    0.34 
  -1  -4  -2    4.50    0.31 
   1   4   2    4.39    0.39 
   1   4   2    4.50    0.31 
   1   4   2    4.58    0.27 
   1   4   2    4.48    0.27 
   1   4   2    4.17    0.27 
   2   4   2    8.29    0.47 
   2   4   2    8.46    0.49 
   3   4   2    8.85    0.50 
   3   4   2    8.85    0.51 
   3   4   2    8.71    0.52 
  -4  -4  -2    4.08    0.31 
   4   4   2    3.15    0.27 
   4   4   2    2.71    0.37 
   4   4   2    3.23    0.29 
   5   4   2    3.79    0.32 
   5   4   2    3.72    0.32 
   5   4   2    3.62    0.32 
  -6  -4  -2    0.21    0.22 
   6   4   2    0.27    0.16 
   6   4   2    0.27    0.16 
   6   4   2    0.34    0.17 
  -7  -4  -2    8.03    0.54 
   7   4   2    6.23    0.49 
   7   4   2    6.45    0.49 
   7   4   2    6.15    0.53 
   7   4   2    6.30    0.45 
  -8  -4  -2    1.69    0.35 
   8   4   2    1.94    0.25 
   8   4   2    1.46    0.28 
   8  -5  -2    6.13    0.76 
   7  -5  -2    3.51    0.59 
  -7   5   2    2.75    0.44 
  -7   5   2    2.54    0.34 
   6  -5  -2    5.47    0.64 
  -6   5   2    6.17    0.39 
  -6   5   2    5.96    0.47 
   5  -5  -2    1.91    0.38 
  -5   5   2    2.80    0.32 
  -5   5   2    2.05    0.25 
  -5   5   2    2.96    0.28 
  -5   5   2    2.67    0.32 
  -5   5   2    2.29    0.34 
   4  -5  -2    4.37    0.55 
  -4   5   2    5.65    0.40 
  -4   5   2    5.25    0.38 
  -4   5   2    5.61    0.38 
  -4   5   2    5.47    0.41 
  -4   5   2    6.21    0.47 
  -3   5   2   10.84    0.64 
  -3   5   2   10.66    0.62 
  -3   5   2   10.98    0.70 
  -3   5   2   10.55    0.62 
  -3   5   2   10.84    0.62 
  -2   5   2    1.87    0.30 
  -2   5   2    1.69    0.22 
  -2   5   2    1.58    0.20 
  -2   5   2    1.50    0.22 
  -2   5   2    1.44    0.25 
   1  -5  -2   30.97    1.75 
  -1   5   2   35.10    1.73 
  -1   5   2   33.55    1.80 
  -1   5   2   34.30    1.74 
  -1   5   2   34.68    1.74 
  -1   5   2   34.43    1.72 
   0   5   2    2.90    0.28 
   0   5   2    2.95    0.25 
   0   5   2    2.93    0.26 
   0   5   2    2.55    0.34 
   0   5   2    2.94    0.24 
  -1  -5  -2   26.93    1.62 
  -1  -5  -2   27.69    1.60 
   1   5   2   33.14    1.57 
   1   5   2   33.12    1.69 
   1   5   2   32.24    1.56 
   1   5   2   32.30    1.58 
   1   5   2   32.00    1.59 
   1   5   2   31.48    1.60 
  -2  -5  -2    2.75    0.34 
  -2  -5  -2    2.60    0.28 
   2   5   2    2.84    0.23 
   2   5   2    2.91    0.28 
   2   5   2    2.46    0.32 
   2   5   2    2.87    0.23 
  -3  -5  -2   10.03    0.68 
  -3  -5  -2    9.19    0.62 
   3   5   2   11.09    0.59 
   3   5   2   11.02    0.62 
   3   5   2   10.97    0.59 
  -4  -5  -2    9.06    0.60 
  -4  -5  -2    8.83    0.64 
   4   5   2   10.19    0.56 
   4   5   2    9.97    0.56 
   4   5   2    8.26    0.73 
  -5  -5  -2    0.14    0.21 
   5   5   2    0.50    0.16 
   5   5   2    0.37    0.18 
   5   5   2    0.44    0.18 
  -6  -5  -2   12.03    0.83 
  -6  -5  -2   12.64    0.85 
   6   5   2   13.64    0.80 
   6   5   2   13.77    0.79 
   6   5   2   13.33    0.77 
  -7  -5  -2    2.83    0.44 
   7   5   2    1.80    0.32 
   7   5   2    2.03    0.31 
   6  -6  -2    1.28    0.43 
  -6   6   2    1.66    0.28 
  -6   6   2    1.95    0.37 
   5  -6  -2    5.27    0.65 
  -5   6   2    4.60    0.45 
  -5   6   2    4.65    0.48 
  -4   6   2    5.27    0.46 
  -4   6   2    5.02    0.42 
  -4   6   2    5.16    0.45 
  -3   6   2    6.79    0.51 
  -3   6   2    7.16    0.62 
  -3   6   2    7.00    0.50 
  -3   6   2    6.83    0.48 
  -3   6   2    6.76    0.46 
  -2   6   2    4.91    0.49 
  -2   6   2    5.63    0.43 
  -2   6   2    5.32    0.40 
  -2   6   2    5.48    0.39 
  -2   6   2    5.30    0.43 
  -1   6   2    5.38    0.48 
  -1   6   2    5.32    0.38 
  -1   6   2    5.20    0.41 
  -1   6   2    5.46    0.39 
  -1   6   2    5.24    0.42 
   0   6   2    2.97    0.50 
   0   6   2    3.91    0.32 
   0   6   2    3.98    0.32 
   0   6   2    3.82    0.34 
   0   6   2    3.40    0.42 
  -1  -6  -2    1.14    0.25 
   1   6   2    0.92    0.18 
   1   6   2    0.86    0.25 
   1   6   2    0.71    0.27 
  -2  -6  -2    5.55    0.47 
  -2  -6  -2    5.87    0.43 
   2   6   2    4.88    0.37 
   2   6   2    4.80    0.32 
   2   6   2    4.89    0.35 
   2   6   2    4.56    0.40 
  -3  -6  -2    9.86    0.63 
   3   6   2    8.20    0.52 
   3   6   2    7.87    0.51 
   3   6   2    8.13    0.54 
   3   6   2    7.61    0.48 
  -4  -6  -2    1.03    0.29 
  -4  -6  -2    1.32    0.27 
   4   6   2    0.85    0.20 
   4   6   2    0.89    0.20 
   4   6   2    0.96    0.21 
   4   6   2    0.84    0.16 
  -5  -6  -2    6.86    0.61 
  -5  -6  -2    6.34    0.65 
   5   6   2    5.10    0.48 
   5   6   2    5.34    0.41 
   6   6   2    0.14    0.18 
   6   6   2    0.25    0.25 
  -4   7   2    7.42    0.61 
  -3   7   2    0.97    0.33 
  -3   7   2    0.85    0.25 
  -2   7   2    3.53    0.47 
  -2   7   2    3.64    0.46 
  -2   7   2    3.83    0.44 
  -1   7   2    0.87    0.24 
  -1   7   2    1.00    0.26 
  -1   7   2    0.88    0.34 
   0  -7  -2    0.98    0.31 
   0   7   2    0.43    0.23 
   0   7   2    0.57    0.36 
   0   7   2    0.55    0.23 
  -1  -7  -2    0.26    0.27 
   1   7   2    0.55    0.22 
   1   7   2    0.93    0.24 
  -2  -7  -2    1.38    0.34 
   2   7   2    1.66    0.27 
   2   7   2    2.23    0.29 
  -3  -7  -2    0.90    0.33 
   3   7   2    1.26    0.22 
   3   7   2    1.39    0.28 
   4   7  -3    7.11    0.48 
  -4  -7   3    8.85    0.63 
  -4  -7   3    8.91    0.66 
  -3  -7   3   -0.06    0.23 
  -3  -7   3   -0.01    0.21 
  -2  -7   3    5.96    0.50 
   1   7  -3    0.73    0.21 
   0   7  -3    1.39    0.25 
   0   7  -3    1.58    0.21 
  -1   7  -3    4.04    0.39 
  -2   7  -3    4.49    0.45 
  -3   7  -3    1.29    0.28 
   6   6  -3    1.44    0.21 
  -6  -6   3    0.97    0.28 
  -6  -6   3    0.99    0.25 
   5   6  -3    6.16    0.39 
   5   6  -3    6.44    0.46 
  -5  -6   3    4.94    0.46 
  -5  -6   3    4.77    0.55 
  -5  -6   3    5.28    0.51 
   4   6  -3    1.12    0.20 
   4   6  -3    1.05    0.16 
  -4  -6   3    1.32    0.23 
  -4  -6   3    1.37    0.27 
   3   6  -3    5.82    0.57 
   3   6  -3    5.74    0.35 
   3   6  -3    5.73    0.36 
   3   6  -3    5.27    0.33 
  -3  -6   3    4.06    0.45 
   2   6  -3    0.00    0.13 
   2   6  -3    0.23    0.25 
  -2  -6   3    0.18    0.17 
  -2  -6   3    0.22    0.19 
   1   6  -3    2.87    0.26 
   1   6  -3    2.88    0.30 
   1   6  -3    2.65    0.31 
   1   6  -3    2.73    0.41 
   0   6  -3    1.50    0.26 
   0   6  -3    1.77    0.23 
   0   6  -3    1.61    0.36 
   0   6  -3    1.61    0.23 
   0   6  -3    1.48    0.27 
   0  -6   3    1.23    0.20 
  -1   6  -3    4.26    0.35 
  -1   6  -3    3.75    0.38 
  -1   6  -3    4.30    0.45 
  -1   6  -3    4.11    0.33 
  -1   6  -3    4.40    0.34 
  -2   6  -3    5.27    0.40 
  -2   6  -3    5.29    0.47 
  -2   6  -3    6.02    0.50 
  -2   6  -3    5.50    0.42 
  -3   6  -3    7.38    0.52 
  -3   6  -3    7.10    0.60 
  -4   6  -3    4.78    0.45 
   5  -6   3    3.46    0.41 
   8   5  -3   -0.22    0.18 
  -8  -5   3    0.09    0.27 
  -8  -5   3   -0.19    0.26 
  -7  -5   3    2.41    0.41 
  -7  -5   3    2.71    0.39 
  -7  -5   3    2.35    0.42 
   6   5  -3    3.43    0.33 
   6   5  -3    3.39    0.37 
  -6  -5   3    4.90    0.45 
  -5  -5   3    0.88    0.23 
  -5  -5   3    0.93    0.19 
  -5  -5   3    0.91    0.14 
  -5  -5   3    0.92    0.17 
   4   5  -3    7.41    0.51 
  -4  -5   3    9.86    0.55 
  -4  -5   3    8.79    0.51 
  -4  -5   3    9.46    0.50 
  -4  -5   3    9.37    0.61 
   3   5  -3    3.44    0.23 
   3   5  -3    3.29    0.25 
  -3  -5   3    3.61    0.36 
  -3  -5   3    3.49    0.31 
  -3  -5   3    3.44    0.24 
   2   5  -3    5.43    0.33 
   2   5  -3    5.18    0.47 
   2   5  -3    5.46    0.34 
  -2  -5   3    6.46    0.44 
  -2  -5   3    6.62    0.41 
   1   5  -3   19.90    1.03 
   1   5  -3   19.03    1.09 
   1   5  -3   20.07    1.12 
   1   5  -3   19.68    1.06 
  -1  -5   3   21.42    1.07 
   0   5  -3    5.50    0.41 
   0   5  -3    5.33    0.37 
   0   5  -3    5.81    0.35 
   0   5  -3    5.16    0.43 
   0   5  -3    5.60    0.34 
   0  -5   3    5.81    0.40 
  -1   5  -3   21.24    1.15 
  -1   5  -3   20.88    1.11 
  -1   5  -3   20.71    1.08 
  -1   5  -3   21.03    1.14 
  -1   5  -3   20.42    1.09 
  -2   5  -3    0.90    0.15 
  -2   5  -3    1.22    0.21 
  -2   5  -3    0.90    0.16 
  -2   5  -3    1.06    0.20 
  -2   5  -3    1.03    0.18 
  -3   5  -3    4.99    0.35 
  -3   5  -3    4.64    0.34 
  -3   5  -3    4.57    0.39 
  -3   5  -3    4.39    0.41 
  -4   5  -3    0.70    0.20 
  -4   5  -3    1.16    0.17 
  -4   5  -3    1.00    0.17 
   4  -5   3    0.71    0.19 
   4  -5   3    1.09    0.29 
  -5   5  -3    7.26    0.57 
   5  -5   3    7.75    0.54 
   5  -5   3    7.24    0.64 
   6  -5   3    2.57    0.57 
   6  -5   3    2.37    0.36 
   7  -5   3    7.24    0.80 
   7  -5   3    6.78    0.54 
   9   4  -3    0.79    0.25 
  -9  -4   3    0.42    0.29 
  -9  -4   3    0.70    0.30 
  -9  -4   3    0.38    0.31 
   8   4  -3   12.41    0.81 
   8   4  -3   12.70    0.76 
  -8  -4   3   12.56    0.82 
  -8  -4   3   12.19    0.77 
  -8  -4   3   12.32    0.77 
   7   4  -3    6.53    0.44 
   7   4  -3    6.70    0.48 
  -7  -4   3    5.68    0.51 
  -7  -4   3    5.40    0.45 
  -7  -4   3    5.24    0.52 
  -7  -4   3    5.42    0.44 
  -6  -4   3    3.26    0.27 
  -6  -4   3    3.32    0.40 
  -6  -4   3    3.42    0.33 
  -5  -4   3    7.71    0.48 
  -5  -4   3    8.17    0.50 
  -5  -4   3    8.34    0.56 
   4   4  -3    0.58    0.12 
  -4  -4   3    0.36    0.17 
  -4  -4   3    0.23    0.15 
  -4  -4   3    0.26    0.10 
  -4  -4   3    0.25    0.14 
   3   4  -3   36.65    1.88 
   3   4  -3   36.33    1.83 
   3   4  -3   37.08    1.80 
  -3  -4   3   37.75    1.86 
  -3  -4   3   34.84    1.88 
  -3  -4   3   35.65    1.83 
   2   4  -3   15.73    0.79 
   2   4  -3   15.47    0.86 
   2   4  -3   15.66    0.78 
  -2  -4   3   15.24    0.82 
  -2  -4   3   14.49    0.85 
  -2  -4   3   15.27    0.79 
   1   4  -3   44.14    2.18 
   1   4  -3   44.56    2.25 
   1   4  -3   45.46    2.25 
   1   4  -3   44.35    2.19 
   1   4  -3   44.09    2.21 
  -1  -4   3   42.47    2.22 
  -1  -4   3   42.46    2.24 
   0   4  -3   48.73    2.32 
   0   4  -3   48.86    2.38 
   0   4  -3   46.47    2.34 
   0   4  -3   46.52    2.31 
   0   4  -3   49.55    2.37 
   0  -4   3   43.36    2.33 
   0  -4   3   42.10    2.34 
  -1   4  -3   28.23    1.46 
  -1   4  -3   29.70    1.49 
  -1   4  -3   30.33    1.50 
  -1   4  -3   30.80    1.47 
  -1   4  -3   28.81    1.44 
   1  -4   3   25.51    1.47 
   1  -4   3   26.84    1.46 
  -2   4  -3   47.14    2.35 
  -2   4  -3   46.84    2.38 
  -2   4  -3   48.34    2.36 
  -2   4  -3   48.57    2.37 
   2  -4   3   42.43    2.35 
  -3   4  -3   12.90    0.70 
  -3   4  -3   12.86    0.70 
  -3   4  -3   12.69    0.68 
  -3   4  -3   11.84    0.72 
   3  -4   3   11.44    0.73 
   3  -4   3   11.80    0.70 
  -4   4  -3   36.39    1.84 
   4  -4   3   35.38    1.80 
   4  -4   3   35.78    1.80 
   4  -4   3   36.51    1.86 
   4  -4   3   36.06    1.89 
   5  -4   3    4.36    0.47 
   5  -4   3    4.54    0.39 
   5  -4   3    4.25    0.31 
  -6   4  -3    4.39    0.40 
   6  -4   3    5.27    0.61 
   6  -4   3    5.24    0.39 
   6  -4   3    5.18    0.34 
   6  -4   3    5.68    0.44 
   7  -4   3   10.35    0.67 
   7  -4   3    9.68    0.85 
   7  -4   3   10.05    0.79 
   8  -4   3    3.06    0.62 
   8  -4   3    3.79    0.45 
  10   3  -3    1.13    0.32 
 -10  -3   3    1.34    0.35 
  -9  -3   3    2.17    0.32 
   8   3  -3    2.20    0.35 
  -8  -3   3    2.74    0.39 
  -8  -3   3    3.03    0.33 
  -8  -3   3    2.44    0.34 
  -7  -3   3    7.25    0.46 
  -7  -3   3    6.72    0.51 
  -7  -3   3    6.97    0.46 
  -6  -3   3   12.62    0.74 
  -6  -3   3   12.48    0.71 
  -6  -3   3   13.00    0.70 
   5   3  -3    7.74    0.50 
  -5  -3   3    8.92    0.49 
  -5  -3   3    8.58    0.50 
  -5  -3   3    9.04    0.54 
  -4  -3   3   14.11    0.76 
  -4  -3   3   13.77    0.73 
  -4  -3   3   14.21    0.75 
  -4  -3   3   13.89    0.78 
   3   3  -3    6.69    0.36 
   3   3  -3    5.17    0.50 
  -3  -3   3    6.60    0.41 
  -3  -3   3    6.12    0.34 
  -3  -3   3    6.18    0.36 
  -3  -3   3    6.18    0.38 
   2   3  -3    6.12    0.32 
   2   3  -3    5.67    0.33 
   2   3  -3    6.04    0.39 
   1   3  -3    0.41    0.07 
   1   3  -3    0.33    0.12 
   1   3  -3    0.28    0.08 
   1   3  -3    0.33    0.07 
   0   3  -3   58.60    2.93 
   0   3  -3   57.58    2.91 
   0   3  -3   56.61    2.89 
   0   3  -3   55.96    2.92 
   0   3  -3   56.81    2.90 
   0  -3   3   60.89    2.90 
   0  -3   3   60.76    2.88 
   0  -3   3   59.89    2.92 
  -1   3  -3   21.42    1.13 
  -1   3  -3   21.05    1.13 
  -1   3  -3   21.06    1.10 
  -1   3  -3   21.11    1.11 
  -1   3  -3   21.72    1.15 
   1  -3   3   23.74    1.13 
   1  -3   3   23.56    1.14 
  -2   3  -3   25.88    1.29 
  -2   3  -3   25.82    1.28 
  -2   3  -3   26.02    1.26 
  -2   3  -3   25.32    1.29 
   2  -3   3   24.20    1.25 
   2  -3   3   24.59    1.30 
   2  -3   3   23.59    1.28 
   2  -3   3   25.09    1.25 
  -3   3  -3   10.29    0.54 
  -3   3  -3    9.91    0.57 
  -3   3  -3   10.33    0.56 
   3  -3   3    9.94    0.53 
   3  -3   3   10.00    0.60 
   3  -3   3    9.79    0.53 
   3  -3   3   10.27    0.57 
  -4   3  -3   18.13    0.93 
  -4   3  -3   18.54    0.94 
   4  -3   3   16.67    0.91 
   4  -3   3   17.92    0.97 
   4  -3   3   16.82    0.94 
   4  -3   3   17.63    0.91 
  -5   3  -3   15.91    0.77 
   5  -3   3   13.12    0.75 
   5  -3   3   12.68    0.79 
   5  -3   3   13.46    0.73 
   5  -3   3   14.04    0.82 
  -6   3  -3    5.03    0.35 
   6  -3   3    4.08    0.36 
   6  -3   3    4.54    0.39 
   6  -3   3    4.61    0.46 
  -7   3  -3   17.28    0.95 
  -7   3  -3   18.90    0.96 
   7  -3   3   16.65    0.97 
   7  -3   3   16.29    0.96 
   7  -3   3   16.15    1.03 
   8  -3   3    2.16    0.37 
   8  -3   3    2.23    0.42 
   9  -3   3    4.14    0.71 
   9  -3   3    5.07    0.50 
  10   2  -3   23.87    1.42 
  10   2  -3   25.51    1.41 
 -10  -2   3   24.57    1.40 
   9   2  -3    3.13    0.45 
   9   2  -3    3.04    0.43 
  -9  -2   3    2.78    0.42 
  -9  -2   3    3.21    0.43 
  -9  -2   3    2.78    0.36 
   8   2  -3   38.40    2.05 
  -8  -2   3   39.04    2.00 
  -8  -2   3   36.68    1.97 
  -8  -2   3   39.82    2.01 
   7   2  -3   32.41    1.70 
  -7  -2   3   32.93    1.71 
  -7  -2   3   32.49    1.67 
  -7  -2   3   32.93    1.69 
   6   2  -3   27.22    1.37 
  -6  -2   3   25.52    1.38 
  -6  -2   3   26.71    1.37 
  -6  -2   3   25.87    1.35 
   5   2  -3   75.46    3.73 
  -5  -2   3   76.35    3.75 
  -5  -2   3   75.87    3.72 
  -5  -2   3   71.84    3.74 
   4   2  -3   37.63    2.00 
  -4  -2   3   39.28    2.01 
  -4  -2   3   40.95    1.98 
  -4  -2   3   41.13    2.00 
   3   2  -3  211.51   10.22 
   3   2  -3  204.21   10.24 
  -3  -2   3  205.22   10.25 
  -3  -2   3  202.88   10.21 
  -3  -2   3  208.04   10.22 
   2   2  -3    1.19    0.11 
   2   2  -3    1.21    0.14 
  -2  -2   3    0.99    0.14 
  -2  -2   3    1.02    0.11 
  -2  -2   3    1.03    0.13 
  -2  -2   3    1.04    0.08 
   1   2  -3  127.62    6.20 
   1   2  -3  130.40    6.18 
   1   2  -3  130.66    6.17 
  -1  -2   3  116.38    6.20 
  -1  -2   3  124.03    6.17 
  -1  -2   3  122.26    6.19 
  -1  -2   3  123.74    6.18 
   0   2  -3   19.41    0.94 
   0   2  -3   19.82    0.92 
   0   2  -3   18.87    0.92 
   0   2  -3   19.19    0.91 
   0   2  -3   18.36    0.91 
   0  -2   3   16.70    0.90 
   0  -2   3   15.81    0.91 
   0  -2   3   16.01    0.92 
  -1   2  -3   40.27    2.05 
  -1   2  -3   40.41    2.03 
  -1   2  -3   39.90    2.04 
  -1   2  -3   40.29    2.04 
   1  -2   3   42.37    2.03 
   1  -2   3   40.21    2.05 
   1  -2   3   42.21    2.04 
   1  -2   3   41.89    2.05 
  -2   2  -3   60.40    2.94 
  -2   2  -3   62.82    2.95 
  -2   2  -3   62.57    2.96 
   2  -2   3   54.93    2.95 
   2  -2   3   57.33    2.95 
   2  -2   3   59.66    2.94 
   2  -2   3   59.74    2.96 
   2  -2   3   57.09    2.94 
  -3   2  -3    6.13    0.38 
  -3   2  -3    5.69    0.37 
  -3   2  -3    5.89    0.37 
  -3   2  -3    5.83    0.38 
   3  -2   3    7.24    0.37 
   3  -2   3    7.22    0.40 
   3  -2   3    7.19    0.39 
   3  -2   3    6.99    0.37 
  -4   2  -3   93.80    4.67 
  -4   2  -3   93.68    4.67 
   4  -2   3   96.54    4.66 
   4  -2   3   93.42    4.68 
   4  -2   3   92.97    4.69 
  -5   2  -3   58.85    2.91 
  -5   2  -3   58.75    2.90 
   5  -2   3   57.07    2.89 
   5  -2   3   55.74    2.90 
   5  -2   3   57.07    2.91 
   5  -2   3   59.49    2.94 
  -6   2  -3   15.61    0.91 
  -6   2  -3   15.67    0.91 
   6  -2   3   18.32    0.98 
   6  -2   3   17.16    0.93 
   6  -2   3   17.43    0.93 
  -7   2  -3   38.46    1.93 
   7  -2   3   37.37    1.91 
   7  -2   3   37.35    1.94 
   7  -2   3   37.73    1.99 
   7  -2   3   36.19    1.93 
  -8   2  -3    4.89    0.47 
   8  -2   3    6.77    0.56 
   8  -2   3    6.72    0.49 
   8  -2   3    6.04    0.61 
   9  -2   3    9.84    0.67 
   9  -2   3    8.73    0.81 
  11   1  -3    1.63    0.45 
 -11  -1   3    2.98    0.59 
  10   1  -3   -0.19    0.30 
  10   1  -3    0.13    0.26 
 -10  -1   3    0.23    0.27 
 -10  -1   3    0.42    0.33 
  -9  -1   3    1.53    0.27 
  -9  -1   3    1.18    0.20 
  -9  -1   3    0.99    0.25 
   8   1  -3    1.13    0.23 
  -8  -1   3    1.45    0.29 
  -8  -1   3    1.31    0.24 
  -8  -1   3    0.98    0.21 
   7   1  -3   10.54    0.62 
  -7  -1   3   10.16    0.61 
  -7  -1   3   10.24    0.59 
  -7  -1   3   10.16    0.62 
  -6  -1   3    4.81    0.31 
  -6  -1   3    4.69    0.33 
  -6  -1   3    4.63    0.33 
   5   1  -3   17.82    0.86 
  -5  -1   3   15.69    0.82 
  -5  -1   3   15.96    0.86 
  -5  -1   3   15.70    0.86 
   4   1  -3   22.64    1.26 
  -4  -1   3   26.20    1.26 
  -4  -1   3   25.28    1.26 
   3   1  -3   11.48    0.59 
   3   1  -3   11.59    0.59 
  -3  -1   3   10.55    0.59 
  -3  -1   3   10.55    0.59 
   2   1  -3   68.71    3.40 
   2   1  -3   68.72    3.39 
  -2  -1   3   68.12    3.40 
  -2  -1   3   68.27    3.39 
   1   1  -3    9.58    0.57 
   1   1  -3    9.60    0.56 
  -1  -1   3   12.25    0.56 
  -1  -1   3   12.14    0.57 
   0   1  -3  178.99    8.91 
   0   1  -3  173.65    8.94 
   0   1  -3  169.04    8.93 
   0  -1   3  185.09    8.95 
   0  -1   3  189.45    8.96 
   0  -1   3  189.27    8.93 
  -1   1  -3   60.16    3.15 
  -1   1  -3   59.62    3.15 
  -1   1  -3   60.08    3.14 
   1  -1   3   66.59    3.16 
   1  -1   3   67.19    3.15 
   1  -1   3   68.31    3.15 
  -2   1  -3   26.82    1.52 
  -2   1  -3   27.64    1.52 
  -2   1  -3   28.02    1.52 
   2  -1   3   33.75    1.52 
   2  -1   3   33.15    1.53 
   2  -1   3   33.14    1.53 
  -3   1  -3   18.62    0.93 
  -3   1  -3   17.82    0.92 
  -3   1  -3   18.23    0.92 
   3  -1   3   17.34    0.93 
   3  -1   3   17.72    0.93 
   3  -1   3   18.38    0.92 
  -4   1  -3   13.63    0.71 
  -4   1  -3   13.63    0.71 
  -4   1  -3   12.84    0.72 
   4  -1   3   13.91    0.71 
   4  -1   3   13.26    0.72 
   4  -1   3   13.41    0.72 
  -5   1  -3   15.38    0.91 
  -5   1  -3   16.83    0.82 
   5  -1   3   14.87    0.83 
   5  -1   3   15.20    0.81 
   5  -1   3   14.25    0.82 
  -6   1  -3    0.48    0.14 
  -6   1  -3    0.28    0.12 
   6  -1   3    0.22    0.14 
   6  -1   3    0.09    0.15 
   6  -1   3    0.21    0.11 
  -7   1  -3   14.30    0.81 
  -7   1  -3   14.87    0.81 
   7  -1   3   14.72    0.81 
   7  -1   3   14.68    0.82 
   7  -1   3   14.25    0.85 
   8  -1   3    7.07    0.51 
   8  -1   3    6.76    0.47 
   8  -1   3    6.78    0.57 
   9  -1   3    4.50    0.47 
   9  -1   3    3.87    0.59 
  10  -1   3    4.30    0.58 
  10  -1   3    3.99    0.73 
  11   0  -3    5.67    0.96 
 -11   0   3    6.50    0.68 
  10   0  -3   21.77    1.27 
 -10   0   3   21.73    1.29 
 -10   0   3   22.03    1.24 
   9   0  -3   -0.12    0.22 
  -9   0   3    0.12    0.16 
  -9   0   3    0.02    0.20 
  -9   0   3    0.03    0.22 
   8   0  -3   54.50    2.76 
  -8   0   3   52.84    2.75 
  -8   0   3   55.70    2.77 
   7   0  -3   14.37    0.82 
  -7   0   3   14.62    0.77 
  -7   0   3   15.20    0.83 
   6   0  -3   27.99    1.45 
  -6   0   3   27.70    1.45 
  -6   0   3   28.65    1.42 
   5   0  -3   41.92    2.13 
  -5   0   3   42.03    2.11 
  -5   0   3   43.32    2.14 
   4   0  -3    5.59    0.34 
  -4   0   3    5.60    0.31 
  -4   0   3    5.64    0.33 
  -4   0   3    5.90    0.32 
   3   0  -3  236.63   11.73 
  -3   0   3  232.95   11.71 
  -3   0   3  241.30   11.74 
  -3   0   3  237.44   11.69 
   2   0  -3   80.54    3.95 
   2   0  -3   81.27    3.96 
  -2   0   3   80.40    3.96 
  -2   0   3   77.60    3.95 
   1   0  -3  213.94   10.63 
   1   0  -3  214.01   10.63 
   1   0  -3  208.87   10.59 
  -1   0   3  217.93   10.60 
  -1   0   3  218.58   10.63 
   0   0  -3  161.72    8.13 
   0   0  -3  168.79    8.12 
   0   0   3  160.86    8.14 
   0   0   3  170.63    8.13 
   0   0   3  166.81    8.14 
   0   0   3  159.02    8.13 
  -1   0  -3   77.58    3.87 
  -1   0  -3   77.91    3.87 
  -1   0  -3   78.26    3.86 
   1   0   3   77.73    3.86 
   1   0   3   81.15    3.87 
   1   0   3   77.11    3.87 
  -2   0  -3  334.77   16.41 
  -2   0  -3  328.59   16.38 
  -2   0  -3  336.10   16.42 
   2   0   3  328.90   16.42 
   2   0   3  334.89   16.41 
   2   0   3  329.94   16.42 
  -3   0  -3    2.95    0.20 
  -3   0  -3    3.01    0.19 
  -3   0  -3    2.87    0.21 
   3   0   3    2.69    0.20 
   3   0   3    3.09    0.20 
   3   0   3    2.81    0.21 
  -4   0  -3  309.72   15.23 
  -4   0  -3  311.60   15.24 
  -4   0  -3  303.71   15.25 
   4   0   3  304.67   15.22 
   4   0   3  315.20   15.24 
   4   0   3  309.42   15.25 
  -5   0  -3   38.36    1.92 
   5   0   3   37.52    1.93 
   5   0   3   37.85    1.91 
  -6   0  -3   34.34    1.76 
   6   0   3   33.85    1.75 
   6   0   3   34.22    1.76 
   6   0   3   34.72    1.77 
   7   0   3   13.99    0.78 
   7   0   3   14.20    0.83 
   7   0   3   13.61    0.78 
  -8   0  -3    0.19    0.18 
   8   0   3    0.03    0.25 
   8   0   3    0.08    0.17 
   8   0   3    0.03    0.17 
  -9   0  -3    2.78    0.43 
   9   0   3    3.04    0.42 
   9   0   3    2.77    0.40 
  10   0   3    5.73    0.61 
  11  -1  -3    3.25    0.75 
  10  -1  -3    0.48    0.34 
  10  -1  -3    0.01    0.33 
 -10   1   3    0.01    0.38 
   9  -1  -3    1.24    0.31 
   9  -1  -3    1.29    0.27 
  -9   1   3    0.35    0.18 
  -9   1   3    0.16    0.25 
   8  -1  -3    1.39    0.30 
   8  -1  -3    1.13    0.22 
  -8   1   3    1.38    0.18 
  -8   1   3    1.13    0.22 
   7  -1  -3    9.69    0.59 
   7  -1  -3   10.09    0.66 
  -7   1   3   10.03    0.56 
  -7   1   3   10.08    0.60 
  -6   1   3    2.95    0.25 
  -6   1   3    2.66    0.22 
   5  -1  -3   16.01    0.89 
   5  -1  -3   16.38    0.93 
  -5   1   3   18.04    0.90 
  -5   1   3   17.64    0.88 
   4  -1  -3   25.45    1.23 
   4  -1  -3   25.97    1.27 
  -4   1   3   22.56    1.23 
  -4   1   3   23.03    1.23 
   3  -1  -3   10.21    0.59 
  -3   1   3   10.72    0.57 
  -3   1   3   11.11    0.57 
   2  -1  -3   67.31    3.40 
   2  -1  -3   68.86    3.42 
  -2   1   3   68.71    3.40 
  -2   1   3   69.37    3.42 
   1  -1  -3   11.41    0.53 
   1  -1  -3   11.49    0.54 
   1  -1  -3   11.53    0.56 
  -1   1   3    9.07    0.53 
  -1   1   3    8.84    0.55 
  -1   1   3    9.35    0.53 
   0  -1  -3  178.01    8.54 
   0  -1  -3  147.87    8.54 
   0   1   3  179.08    8.53 
   0   1   3  176.33    8.54 
   0   1   3  181.78    8.56 
  -1  -1  -3   68.41    3.18 
  -1  -1  -3   67.51    3.17 
   1   1   3   59.13    3.17 
   1   1   3   61.08    3.17 
  -2  -1  -3   33.75    1.52 
  -2  -1  -3   34.35    1.52 
   2   1   3   27.33    1.51 
   2   1   3   27.82    1.51 
   2   1   3   27.06    1.51 
  -3  -1  -3   18.33    0.92 
  -3  -1  -3   18.22    0.95 
  -3  -1  -3   17.98    0.95 
   3   1   3   18.92    0.95 
   3   1   3   18.00    0.95 
   3   1   3   18.50    0.95 
  -4  -1  -3   12.49    0.73 
  -4  -1  -3   13.52    0.72 
   4   1   3   13.63    0.71 
   4   1   3   12.91    0.71 
   4   1   3   13.02    0.71 
  -5  -1  -3   15.56    0.89 
   5   1   3   16.80    0.88 
   5   1   3   17.43    0.89 
   5   1   3   16.63    0.90 
   5   1   3   17.25    0.91 
   6   1   3    0.34    0.13 
   6   1   3    0.39    0.13 
   6   1   3    0.38    0.17 
   7   1   3   14.83    0.88 
   7   1   3   14.96    0.84 
   7   1   3   15.03    0.82 
   8   1   3    5.89    0.53 
   8   1   3    6.15    0.48 
   8   1   3    5.95    0.45 
  -9  -1  -3    4.39    0.45 
   9   1   3    4.39    0.44 
   9   1   3    3.82    0.50 
   9   1   3    3.50    0.56 
  10   1   3    4.46    0.60 
  10  -2  -3   22.87    1.40 
   9  -2  -3    2.79    0.46 
   9  -2  -3    3.25    0.52 
  -9   2   3    3.19    0.46 
  -9   2   3    2.95    0.36 
   8  -2  -3   38.98    2.12 
   8  -2  -3   38.84    2.04 
  -8   2   3   40.98    2.03 
  -8   2   3   39.67    2.05 
   7  -2  -3   33.71    1.67 
   7  -2  -3   31.76    1.74 
  -7   2   3   31.76    1.67 
  -7   2   3   31.84    1.65 
   6  -2  -3   24.99    1.40 
  -6   2   3   26.40    1.34 
  -6   2   3   26.36    1.34 
   5  -2  -3   72.15    3.67 
  -5   2   3   75.37    3.62 
  -5   2   3   70.70    3.64 
   4  -2  -3   41.20    2.05 
  -4   2   3   38.70    1.99 
  -4   2   3   39.42    2.00 
   3  -2  -3  201.89    9.90 
   3  -2  -3  182.74    9.88 
  -3   2   3  199.29    9.85 
  -3   2   3  207.39    9.99 
  -3   2   3  205.53    9.86 
  -3   2   3  203.73    9.85 
   2  -2  -3    1.03    0.18 
   2  -2  -3    0.95    0.11 
  -2   2   3    1.44    0.18 
  -2   2   3    1.27    0.09 
  -2   2   3    1.13    0.11 
  -2   2   3    1.21    0.14 
   1  -2  -3  116.28    6.09 
   1  -2  -3  118.91    6.09 
   1  -2  -3  120.67    6.11 
   1  -2  -3  121.00    6.13 
  -1   2   3  130.17    6.13 
  -1   2   3  126.48    6.12 
  -1   2   3  131.72    6.11 
   0  -2  -3   15.69    0.91 
   0  -2  -3   15.95    0.92 
   0   2   3   19.41    0.91 
   0   2   3   18.38    0.92 
   0   2   3   20.27    0.95 
  -1  -2  -3   42.82    2.07 
  -1  -2  -3   43.01    2.09 
   1   2   3   40.99    2.07 
   1   2   3   39.36    2.08 
  -2  -2  -3   58.11    3.05 
  -2  -2  -3   58.13    3.04 
   2   2   3   63.12    3.04 
   2   2   3   62.85    3.05 
   2   2   3   63.54    3.05 
  -3  -2  -3    7.87    0.41 
  -3  -2  -3    7.62    0.41 
   3   2   3    6.26    0.40 
   3   2   3    6.12    0.39 
   3   2   3    6.29    0.40 
  -4  -2  -3   96.89    4.72 
   4   2   3   95.64    4.71 
   4   2   3   93.14    4.72 
   4   2   3   93.96    4.72 
  -5  -2  -3   59.07    2.89 
   5   2   3   57.25    2.88 
   5   2   3   55.78    2.89 
   5   2   3   57.18    2.89 
  -6  -2  -3   18.39    0.89 
   6   2   3   15.65    0.86 
   6   2   3   15.84    0.89 
   6   2   3   15.67    0.91 
   6   2   3   15.16    0.90 
  -7  -2  -3   36.36    2.01 
   7   2   3   40.50    1.99 
   7   2   3   39.65    2.04 
   7   2   3   40.15    2.03 
   8   2   3    4.90    0.40 
   8   2   3    4.74    0.48 
   8   2   3    4.28    0.49 
   9   2   3   11.11    0.83 
   9   2   3   10.29    0.82 
   9   2   3   12.27    0.74 
  10  -3  -3    0.42    0.40 
   9  -3  -3    0.17    0.27 
   9  -3  -3    1.67    0.39 
   8  -3  -3    2.38    0.48 
  -8   3   3    2.23    0.37 
  -8   3   3    2.56    0.31 
   7  -3  -3    6.77    0.45 
   7  -3  -3    6.73    0.58 
   6  -3  -3   10.15    0.91 
   6  -3  -3   11.70    0.59 
  -6   3   3   10.06    0.60 
  -6   3   3    9.51    0.60 
   5  -3  -3    8.97    0.48 
   5  -3  -3    8.93    0.59 
  -5   3   3    7.97    0.46 
  -5   3   3    7.95    0.49 
  -5   3   3    8.00    0.48 
  -4   3   3    8.99    0.51 
  -4   3   3    8.94    0.48 
  -4   3   3    8.47    0.55 
  -4   3   3    8.72    0.48 
   3  -3  -3    6.42    0.46 
   3  -3  -3    6.43    0.36 
  -3   3   3    6.43    0.40 
  -3   3   3    6.55    0.36 
  -3   3   3    6.61    0.40 
  -3   3   3    6.64    0.36 
  -3   3   3    6.26    0.44 
  -2   3   3    5.96    0.35 
  -2   3   3    6.25    0.36 
  -2   3   3    5.41    0.40 
  -2   3   3    5.66    0.33 
  -2   3   3    5.82    0.32 
  -1   3   3    0.37    0.14 
  -1   3   3    0.31    0.07 
  -1   3   3    0.24    0.07 
  -1   3   3    0.36    0.07 
  -1   3   3    0.29    0.10 
   0  -3  -3   59.16    2.87 
   0  -3  -3   61.84    2.88 
   0  -3  -3   62.41    2.85 
   0   3   3   55.36    2.91 
   0   3   3   52.70    2.86 
   0   3   3   54.42    2.87 
   0   3   3   56.72    2.85 
  -1  -3  -3   23.08    1.12 
  -1  -3  -3   23.37    1.14 
  -1  -3  -3   23.22    1.14 
   1   3   3   20.62    1.17 
   1   3   3   21.01    1.11 
   1   3   3   20.87    1.11 
   1   3   3   21.17    1.13 
  -2  -3  -3   25.52    1.33 
  -2  -3  -3   25.03    1.32 
   2   3   3   25.65    1.30 
   2   3   3   25.43    1.31 
   2   3   3   25.89    1.30 
  -3  -3  -3    9.91    0.58 
  -3  -3  -3   10.15    0.60 
   3   3   3   10.04    0.57 
   3   3   3   10.06    0.56 
   3   3   3   10.18    0.56 
  -4  -3  -3   17.87    0.99 
  -4  -3  -3   18.28    1.02 
   4   3   3   18.73    0.98 
   4   3   3   18.82    0.99 
   4   3   3   18.60    0.99 
  -5  -3  -3   13.73    0.82 
  -5  -3  -3   13.55    0.92 
   5   3   3   16.00    0.84 
   5   3   3   16.06    0.83 
   5   3   3   15.12    0.83 
  -6  -3  -3    4.70    0.44 
   6   3   3    4.98    0.40 
   6   3   3    4.83    0.41 
   6   3   3    5.07    0.39 
  -7  -3  -3   16.09    0.99 
  -7  -3  -3   16.76    1.04 
   7   3   3   18.68    1.02 
   7   3   3   18.86    0.96 
   7   3   3   18.58    1.02 
   8   3   3    1.05    0.31 
   8   3   3    0.98    0.29 
   8   3   3    1.39    0.25 
  -9  -3  -3    4.16    0.54 
   9   3   3    5.73    0.61 
   9   3   3    5.50    0.51 
   9  -4  -3    0.66    0.36 
   8  -4  -3   11.51    0.88 
   8  -4  -3   11.78    0.77 
  -8   4   3   12.03    0.74 
  -8   4   3   12.45    0.75 
   7  -4  -3    4.64    0.34 
   7  -4  -3    5.22    0.57 
   7  -4  -3    4.93    0.41 
  -7   4   3    6.59    0.43 
  -6   4   3    5.09    0.37 
  -6   4   3    5.14    0.37 
  -6   4   3    4.98    0.40 
   5  -4  -3    7.73    0.50 
   5  -4  -3    7.60    0.65 
  -5   4   3   10.57    0.52 
  -5   4   3   10.29    0.53 
   4  -4  -3    0.23    0.22 
  -4   4   3    0.55    0.10 
  -4   4   3    0.88    0.20 
  -4   4   3    0.55    0.14 
  -4   4   3    0.52    0.15 
  -4   4   3    0.66    0.13 
   3  -4  -3   35.02    1.90 
  -3   4   3   36.61    1.78 
  -3   4   3   35.03    1.87 
  -3   4   3   36.08    1.81 
  -3   4   3   36.18    1.83 
  -3   4   3   35.62    1.82 
  -3   4   3   35.27    1.80 
   2  -4  -3   15.37    0.92 
  -2   4   3   16.41    0.83 
  -2   4   3   15.39    0.85 
  -2   4   3   14.95    0.82 
  -2   4   3   16.51    0.91 
  -2   4   3   15.55    0.79 
  -2   4   3   15.00    0.83 
   1  -4  -3   43.29    2.18 
   1  -4  -3   41.98    2.22 
  -1   4   3   44.71    2.22 
  -1   4   3   43.71    2.22 
  -1   4   3   45.46    2.21 
  -1   4   3   44.24    2.23 
  -1   4   3   45.06    2.19 
  -1   4   3   44.03    2.28 
   0  -4  -3   42.37    2.33 
   0  -4  -3   43.11    2.29 
   0  -4  -3   42.38    2.32 
   0   4   3   48.81    2.30 
   0   4   3   47.16    2.30 
   0   4   3   46.71    2.33 
   0   4   3   48.30    2.30 
   0   4   3   49.87    2.39 
  -1  -4  -3   27.33    1.50 
  -1  -4  -3   26.73    1.51 
   1   4   3   29.31    1.45 
   1   4   3   30.53    1.47 
   1   4   3   29.86    1.56 
   1   4   3   29.27    1.50 
   1   4   3   30.47    1.47 
  -2  -4  -3   42.76    2.32 
  -2  -4  -3   42.09    2.30 
   2   4   3   47.28    2.30 
   2   4   3   48.20    2.28 
   2   4   3   46.92    2.28 
  -3  -4  -3   11.64    0.74 
  -3  -4  -3   11.73    0.70 
   3   4   3   13.04    0.69 
   3   4   3   12.76    0.68 
   3   4   3   12.85    0.70 
  -4  -4  -3   38.33    1.95 
  -4  -4  -3   36.35    1.91 
   4   4   3   36.98    1.90 
   4   4   3   37.31    1.91 
   4   4   3   36.54    1.89 
  -5  -4  -3    4.38    0.42 
   5   4   3    3.95    0.35 
   5   4   3    4.19    0.36 
   5   4   3    3.97    0.36 
  -6  -4  -3    5.30    0.49 
  -6  -4  -3    5.55    0.44 
   6   4   3    5.10    0.42 
   6   4   3    4.84    0.42 
   6   4   3    5.03    0.45 
  -7  -4  -3    9.41    0.72 
   7   4   3   10.39    0.71 
   7   4   3   10.45    0.67 
   7   4   3   10.38    0.66 
  -8  -4  -3    3.19    0.46 
   8   4   3    2.43    0.42 
   8   4   3    2.35    0.31 
   8  -5  -3    0.24    0.37 
   7  -5  -3    2.71    0.57 
   7  -5  -3    2.12    0.31 
  -7   5   3    1.51    0.24 
  -7   5   3    1.39    0.27 
  -6   5   3    3.27    0.30 
  -6   5   3    3.51    0.36 
  -6   5   3    3.20    0.36 
   5  -5  -3    0.82    0.33 
  -5   5   3    0.39    0.16 
  -5   5   3    0.45    0.20 
  -5   5   3    0.45    0.12 
  -5   5   3    0.19    0.12 
  -5   5   3    0.42    0.15 
  -5   5   3    0.40    0.18 
  -4   5   3    7.23    0.46 
  -4   5   3    5.86    0.60 
  -4   5   3    7.55    0.49 
  -4   5   3    6.59    0.53 
  -4   5   3    7.46    0.46 
   3  -5  -3    3.71    0.48 
  -3   5   3    3.36    0.28 
  -3   5   3    3.43    0.29 
  -3   5   3    3.48    0.38 
  -2   5   3    5.88    0.40 
  -2   5   3    5.44    0.37 
  -2   5   3    5.41    0.36 
  -2   5   3    5.49    0.37 
  -2   5   3    5.18    0.46 
   1  -5  -3   21.24    1.08 
  -1   5   3   19.01    1.06 
  -1   5   3   19.56    1.05 
  -1   5   3   20.16    1.04 
  -1   5   3   19.85    1.06 
  -1   5   3   19.52    1.13 
   0  -5  -3    5.97    0.43 
   0   5   3    5.79    0.40 
   0   5   3    5.37    0.32 
   0   5   3    5.51    0.34 
   0   5   3    5.56    0.37 
   0   5   3    5.18    0.35 
   1   5   3   21.22    1.05 
   1   5   3   18.33    1.06 
   1   5   3   20.72    1.08 
   1   5   3   20.72    1.04 
  -2  -5  -3    0.61    0.24 
   2   5   3    0.91    0.15 
   2   5   3    0.90    0.14 
   2   5   3    0.85    0.18 
   3   5   3    4.70    0.34 
   3   5   3    4.54    0.41 
   3   5   3    4.75    0.33 
  -4  -5  -3    0.96    0.25 
   4   5   3    1.21    0.18 
   4   5   3    1.29    0.19 
   4   5   3    1.10    0.20 
  -5  -5  -3    7.62    0.58 
  -5  -5  -3    7.91    0.61 
   5   5   3    8.09    0.54 
   5   5   3    8.00    0.54 
   5   5   3    7.81    0.52 
  -6  -5  -3    2.97    0.45 
   6   5   3    2.44    0.32 
   6   5   3    2.43    0.37 
   7   5   3    7.76    0.56 
   7   5   3    7.77    0.59 
   6  -6  -3    0.91    0.41 
  -6   6   3    1.16    0.25 
   5  -6  -3    4.63    0.67 
  -5   6   3    6.19    0.49 
  -5   6   3    5.89    0.50 
  -4   6   3    0.91    0.21 
  -4   6   3    1.11    0.23 
  -4   6   3    1.18    0.24 
  -3   6   3    4.94    0.42 
  -3   6   3    5.54    0.43 
  -3   6   3    5.58    0.44 
  -2   6   3    0.08    0.16 
  -2   6   3    0.12    0.18 
  -2   6   3    0.10    0.12 
  -2   6   3    0.27    0.31 
  -2   6   3    0.08    0.15 
   1  -6  -3    1.96    0.37 
  -1   6   3    3.05    0.38 
  -1   6   3    2.73    0.28 
  -1   6   3    2.83    0.30 
  -1   6   3    2.63    0.31 
  -1   6   3    2.81    0.32 
   0  -6  -3    1.66    0.28 
   0   6   3    1.82    0.25 
   0   6   3    1.63    0.30 
   0   6   3    1.68    0.35 
   0   6   3    1.48    0.25 
  -1  -6  -3    4.32    0.45 
   1   6   3    4.28    0.29 
   1   6   3    4.39    0.38 
   1   6   3    4.44    0.35 
   1   6   3    4.55    0.33 
  -2  -6  -3    4.37    0.48 
   2   6   3    5.40    0.43 
   2   6   3    5.64    0.38 
   2   6   3    5.44    0.35 
   2   6   3    5.46    0.40 
  -3  -6  -3    7.65    0.62 
  -3  -6  -3    7.19    0.55 
   3   6   3    7.65    0.53 
   3   6   3    7.53    0.46 
   3   6   3    7.51    0.50 
  -4  -6  -3    3.34    0.53 
  -4  -6  -3    3.72    0.53 
   4   6   3    4.91    0.42 
   4   6   3    4.82    0.35 
  -5  -6  -3    3.93    0.52 
   5   6   3    2.91    0.41 
   5   6   3    2.95    0.31 
  -4   7   3    7.13    0.60 
  -3   7   3    0.07    0.28 
  -3   7   3    0.08    0.23 
  -2   7   3    4.51    0.51 
  -2   7   3    4.99    0.49 
  -2   7   3    4.82    0.47 
  -1   7   3    0.65    0.24 
  -1   7   3    0.69    0.25 
   0  -7  -3    1.48    0.35 
   0   7   3    1.58    0.29 
  -1  -7  -3    4.34    0.54 
   1   7   3    3.83    0.43 
  -2  -7  -3    3.35    0.55 
   2   7   3    4.25    0.47 
   2   7   3    4.03    0.45 
   2   7   3    4.09    0.30 
  -3  -7  -3    1.95    0.39 
   3   7   3    1.43    0.29 
   3   7   3    1.46    0.19 
   4   7  -4    1.33    0.18 
  -4  -7   4    1.73    0.31 
  -3  -7   4    0.06    0.24 
  -2  -7   4    0.72    0.25 
   1   7  -4    1.75    0.33 
   1   7  -4    1.59    0.48 
  -1  -7   4    1.56    0.27 
   0   7  -4    0.41    0.37 
   0   7  -4    0.17    0.22 
  -1   7  -4    7.41    0.73 
   6   6  -4    1.48    0.21 
  -6  -6   4    2.02    0.40 
  -6  -6   4    2.52    0.41 
   5   6  -4    8.98    0.53 
  -5  -6   4    9.30    0.62 
  -5  -6   4    8.53    0.64 
   4   6  -4    2.35    0.31 
   4   6  -4    2.31    0.23 
  -4  -6   4    2.03    0.36 
  -4  -6   4    2.02    0.35 
   3   6  -4    7.83    0.49 
   3   6  -4    8.05    0.68 
   3   6  -4    8.03    0.47 
  -3  -6   4    8.75    0.57 
  -3  -6   4    8.97    0.60 
   2   6  -4    7.47    0.61 
   2   6  -4    6.90    0.46 
  -2  -6   4    6.94    0.51 
   1   6  -4    0.96    0.29 
   1   6  -4    0.92    0.16 
   1   6  -4    0.72    0.19 
  -1  -6   4    1.33    0.23 
   0   6  -4    7.89    0.56 
   0   6  -4    7.08    0.45 
   0   6  -4    7.15    0.48 
   0  -6   4    5.69    0.49 
  -1   6  -4    3.37    0.32 
  -1   6  -4    3.75    0.44 
  -1   6  -4    3.64    0.30 
  -2   6  -4    6.56    0.46 
  -2   6  -4    6.44    0.46 
  -2   6  -4    7.07    0.56 
  -3   6  -4    8.40    0.63 
  -3   6  -4    8.40    0.55 
   3  -6   4    7.28    0.56 
  -4   6  -4    0.68    0.25 
   4  -6   4    0.95    0.23 
   5  -6   4    9.31    0.66 
   8   5  -4    0.28    0.19 
  -8  -5   4    0.15    0.28 
  -8  -5   4   -0.18    0.24 
   7   5  -4    5.05    0.40 
  -7  -5   4    3.81    0.45 
  -7  -5   4    4.45    0.48 
  -7  -5   4    4.09    0.46 
  -6  -5   4    1.17    0.26 
  -6  -5   4    1.31    0.20 
  -6  -5   4    1.21    0.25 
   5   5  -4    7.40    0.47 
  -5  -5   4    7.37    0.52 
  -5  -5   4    7.59    0.56 
  -5  -5   4    7.28    0.46 
   4   5  -4    1.15    0.20 
  -4  -5   4    1.67    0.31 
  -4  -5   4    1.33    0.18 
  -4  -5   4    1.50    0.26 
  -3  -5   4    8.17    0.51 
  -3  -5   4    7.62    0.54 
   2   5  -4   11.20    0.59 
   2   5  -4   12.16    0.71 
   2   5  -4   11.13    0.59 
  -2  -5   4   11.01    0.69 
  -2  -5   4   10.79    0.66 
  -2  -5   4   10.29    0.58 
   1   5  -4    9.13    0.52 
   1   5  -4    8.49    0.61 
   1   5  -4    9.33    0.56 
  -1  -5   4   11.22    0.60 
   0   5  -4   25.40    1.30 
   0   5  -4   24.78    1.23 
   0   5  -4   24.39    1.29 
   0   5  -4   24.39    1.26 
   0  -5   4   22.82    1.24 
   0  -5   4   21.60    1.27 
  -1   5  -4   19.71    1.04 
  -1   5  -4   19.40    1.01 
  -1   5  -4   18.55    1.08 
  -1   5  -4   19.59    1.02 
  -1   5  -4   19.01    1.07 
   1  -5   4   20.09    1.06 
   1  -5   4   19.70    1.04 
  -2   5  -4   15.85    0.93 
  -2   5  -4   16.29    0.87 
  -2   5  -4   16.44    0.91 
  -2   5  -4   17.33    0.90 
  -2   5  -4   16.13    0.86 
   2  -5   4   14.78    0.90 
  -3   5  -4    3.04    0.34 
  -3   5  -4    3.37    0.30 
  -3   5  -4    2.92    0.28 
  -3   5  -4    3.13    0.35 
   3  -5   4    2.97    0.33 
  -4   5  -4    2.25    0.27 
  -4   5  -4    2.59    0.35 
  -5   5  -4    2.93    0.38 
   5  -5   4    2.83    0.37 
   5  -5   4    2.77    0.56 
  -6   5  -4    5.66    0.58 
   6  -5   4    7.08    0.70 
   6  -5   4    6.85    0.53 
   7  -5   4    2.12    0.51 
   9   4  -4    1.02    0.26 
  -9  -4   4    0.80    0.30 
  -9  -4   4    0.70    0.43 
  -9  -4   4    0.49    0.31 
   8   4  -4    4.65    0.47 
  -8  -4   4    6.30    0.56 
  -8  -4   4    6.46    0.51 
  -8  -4   4    5.81    0.50 
   7   4  -4    7.74    0.51 
  -7  -4   4    7.24    0.50 
  -7  -4   4    7.09    0.53 
  -7  -4   4    7.25    0.57 
   6   4  -4    8.76    0.60 
  -6  -4   4   11.01    0.67 
  -6  -4   4    9.83    0.58 
  -6  -4   4   10.84    0.63 
  -6  -4   4   10.51    0.59 
   5   4  -4   16.62    0.86 
  -5  -4   4   15.51    0.88 
  -5  -4   4   15.40    0.83 
  -5  -4   4   16.19    0.91 
   4   4  -4   29.15    1.47 
   4   4  -4   29.68    1.51 
  -4  -4   4   27.83    1.51 
  -4  -4   4   27.80    1.48 
   3   4  -4   14.59    0.82 
   3   4  -4   15.41    0.89 
  -3  -4   4   16.53    0.87 
  -3  -4   4   16.21    0.89 
  -3  -4   4   16.60    0.83 
   2   4  -4   74.99    3.67 
   2   4  -4   75.28    3.61 
  -2  -4   4   68.78    3.66 
  -2  -4   4   70.79    3.64 
  -2  -4   4   73.86    3.61 
   1   4  -4   20.76    1.16 
   1   4  -4   20.41    1.13 
   1   4  -4   19.59    1.15 
   1   4  -4   19.83    1.09 
   1   4  -4   20.88    1.09 
  -1  -4   4   23.83    1.09 
  -1  -4   4   23.41    1.11 
  -1  -4   4   24.36    1.15 
   0   4  -4   36.07    1.84 
   0   4  -4   38.02    1.88 
   0   4  -4   36.88    1.81 
   0   4  -4   36.46    1.86 
   0   4  -4   35.98    1.82 
   0  -4   4   34.32    1.85 
   0  -4   4   36.02    1.83 
  -1   4  -4   28.70    1.50 
  -1   4  -4   28.17    1.46 
  -1   4  -4   28.62    1.50 
  -1   4  -4   28.43    1.53 
  -1   4  -4   27.47    1.47 
   1  -4   4   30.48    1.51 
   1  -4   4   31.56    1.50 
  -2   4  -4   13.59    0.75 
  -2   4  -4   13.11    0.73 
  -2   4  -4   13.72    0.76 
  -2   4  -4   13.59    0.70 
   2  -4   4   14.03    0.75 
  -3   4  -4   28.88    1.49 
  -3   4  -4   29.70    1.44 
   3  -4   4   27.09    1.48 
   3  -4   4   26.25    1.46 
  -4   4  -4    6.56    0.39 
  -4   4  -4    6.36    0.39 
   4  -4   4    5.47    0.36 
   4  -4   4    5.53    0.35 
   4  -4   4    5.88    0.48 
   4  -4   4    5.50    0.43 
  -5   4  -4   27.62    1.28 
  -5   4  -4   27.02    1.31 
   5  -4   4   22.67    1.30 
   5  -4   4   22.55    1.25 
   5  -4   4   23.33    1.34 
   5  -4   4   22.50    1.24 
  -6   4  -4    2.88    0.37 
   6  -4   4    3.20    0.49 
   6  -4   4    3.28    0.36 
   6  -4   4    3.51    0.38 
   7  -4   4    5.73    0.65 
   7  -4   4    6.50    0.52 
   8  -4   4    2.51    0.51 
   8  -4   4    3.04    0.54 
  10   3  -4    9.98    0.76 
 -10  -3   4    9.89    0.78 
   9   3  -4    7.71    0.57 
  -9  -3   4    6.24    0.58 
  -9  -3   4    6.38    0.76 
   8   3  -4    3.91    0.41 
  -8  -3   4    4.65    0.45 
  -8  -3   4    4.63    0.39 
  -8  -3   4    4.74    0.40 
   7   3  -4    9.90    0.56 
  -7  -3   4    8.23    0.54 
  -7  -3   4    8.22    0.53 
  -7  -3   4    8.29    0.58 
  -6  -3   4    3.78    0.31 
  -6  -3   4    3.91    0.37 
  -6  -3   4    3.84    0.30 
   5   3  -4   31.76    1.61 
  -5  -3   4   31.17    1.61 
  -5  -3   4   31.11    1.62 
  -5  -3   4   30.85    1.58 
  -5  -3   4   32.33    1.64 
   4   3  -4   11.74    0.69 
   4   3  -4   11.65    0.66 
  -4  -3   4   12.35    0.70 
  -4  -3   4   12.43    0.66 
  -4  -3   4   12.14    0.63 
  -4  -3   4   12.69    0.68 
   3   3  -4   49.49    2.43 
   3   3  -4   46.99    2.39 
  -3  -3   4   46.81    2.41 
  -3  -3   4   48.29    2.39 
  -3  -3   4   47.44    2.42 
   2   3  -4   28.11    1.37 
   2   3  -4   28.61    1.32 
  -2  -3   4   25.42    1.31 
  -2  -3   4   25.18    1.34 
  -2  -3   4   24.84    1.35 
  -2  -3   4   24.71    1.33 
   1   3  -4   28.99    1.48 
   1   3  -4   30.19    1.43 
   1   3  -4   29.87    1.46 
  -1  -3   4   27.23    1.43 
  -1  -3   4   27.35    1.46 
  -1  -3   4   27.63    1.43 
   0   3  -4   11.44    0.56 
   0   3  -4   10.70    0.53 
   0   3  -4   11.09    0.56 
   0  -3   4    9.22    0.56 
   0  -3   4    8.93    0.52 
   0  -3   4    8.62    0.53 
  -1   3  -4    3.02    0.23 
  -1   3  -4    3.17    0.25 
  -1   3  -4    3.29    0.22 
  -1   3  -4    3.42    0.28 
  -1   3  -4    3.30    0.21 
  -1   3  -4    3.21    0.20 
   1  -3   4    3.20    0.24 
   1  -3   4    3.25    0.26 
   1  -3   4    3.34    0.21 
  -2   3  -4   46.14    2.48 
  -2   3  -4   46.33    2.49 
  -2   3  -4   45.85    2.48 
  -2   3  -4   47.26    2.51 
   2  -3   4   53.66    2.48 
   2  -3   4   52.19    2.48 
   2  -3   4   52.72    2.51 
   2  -3   4   52.60    2.51 
   2  -3   4   52.62    2.52 
  -3   3  -4   24.07    1.30 
  -3   3  -4   23.77    1.28 
  -3   3  -4   23.44    1.28 
   3  -3   4   27.83    1.32 
   3  -3   4   26.59    1.28 
   3  -3   4   25.44    1.31 
   3  -3   4   25.11    1.28 
  -4   3  -4   23.91    1.41 
  -4   3  -4   23.68    1.42 
   4  -3   4   29.24    1.41 
   4  -3   4   29.06    1.45 
   4  -3   4   29.64    1.40 
   4  -3   4   29.79    1.44 
  -5   3  -4   15.91    0.88 
  -5   3  -4   15.01    0.89 
   5  -3   4   18.07    0.94 
   5  -3   4   15.91    0.87 
   5  -3   4   16.11    0.90 
  -6   3  -4   14.23    0.89 
  -6   3  -4   14.00    0.89 
   6  -3   4   17.37    0.90 
   6  -3   4   18.11    0.98 
   6  -3   4   17.69    0.93 
  -7   3  -4    1.56    0.29 
   7  -3   4    2.27    0.35 
   7  -3   4    2.24    0.46 
   8  -3   4    5.22    0.65 
   8  -3   4    5.38    0.50 
  10   2  -4    3.43    0.62 
  10   2  -4    4.26    0.58 
 -10  -2   4    4.53    0.54 
   9   2  -4    8.41    0.64 
  -9  -2   4    9.00    0.64 
  -9  -2   4    8.20    0.63 
  -9  -2   4    9.60    0.64 
  -8  -2   4    2.56    0.43 
  -8  -2   4    3.09    0.34 
  -8  -2   4    2.76    0.31 
   7   2  -4   43.39    2.23 
  -7  -2   4   44.06    2.24 
  -7  -2   4   44.22    2.24 
  -7  -2   4   43.35    2.21 
  -6  -2   4    4.39    0.32 
  -6  -2   4    4.56    0.30 
  -6  -2   4    4.27    0.34 
   5   2  -4   54.06    2.66 
  -5  -2   4   52.78    2.67 
  -5  -2   4   52.35    2.66 
  -5  -2   4   52.46    2.63 
   4   2  -4   20.21    1.06 
   4   2  -4   19.72    1.05 
  -4  -2   4   20.48    1.05 
  -4  -2   4   20.49    1.02 
  -4  -2   4   20.22    1.06 
   3   2  -4   22.31    1.17 
   3   2  -4   21.43    1.15 
  -3  -2   4   22.66    1.16 
  -3  -2   4   23.66    1.15 
   2   2  -4  148.75    7.78 
   2   2  -4  151.02    7.79 
  -2  -2   4  164.52    7.81 
  -2  -2   4  158.84    7.82 
  -2  -2   4  159.34    7.79 
  -2  -2   4  163.77    7.80 
   1   2  -4   64.36    3.31 
   1   2  -4   64.13    3.28 
   1   2  -4   64.51    3.29 
  -1  -2   4   68.01    3.28 
  -1  -2   4   67.69    3.30 
  -1  -2   4   68.91    3.28 
   0   2  -4   82.87    4.23 
   0   2  -4   82.62    4.22 
   0   2  -4   84.04    4.22 
   0   2  -4   83.23    4.25 
   0  -2   4   86.95    4.24 
   0  -2   4   88.34    4.23 
   0  -2   4   90.07    4.22 
  -1   2  -4   96.00    4.73 
  -1   2  -4   94.44    4.72 
  -1   2  -4   96.76    4.74 
   1  -2   4   93.14    4.74 
   1  -2   4   95.56    4.73 
   1  -2   4   98.10    4.73 
  -2   2  -4   24.61    1.19 
  -2   2  -4   24.48    1.18 
  -2   2  -4   24.24    1.18 
   2  -2   4   22.48    1.18 
   2  -2   4   21.83    1.18 
   2  -2   4   23.19    1.18 
   2  -2   4   22.24    1.20 
  -3   2  -4   68.86    3.58 
  -3   2  -4   71.95    3.55 
  -3   2  -4   73.03    3.55 
   3  -2   4   73.76    3.55 
   3  -2   4   68.54    3.56 
   3  -2   4   72.54    3.56 
  -4   2  -4    4.81    0.32 
  -4   2  -4    4.84    0.32 
  -4   2  -4    4.42    0.31 
   4  -2   4    4.35    0.34 
   4  -2   4    4.52    0.33 
   4  -2   4    4.56    0.30 
  -5   2  -4   56.11    2.77 
  -5   2  -4   55.45    2.76 
   5  -2   4   55.27    2.76 
   5  -2   4   54.68    2.77 
   5  -2   4   53.25    2.77 
   5  -2   4   55.25    2.79 
  -6   2  -4    6.22    0.46 
  -6   2  -4    6.45    0.48 
   6  -2   4    8.67    0.56 
   6  -2   4    8.10    0.51 
   6  -2   4    8.24    0.50 
  -7   2  -4    9.18    0.62 
  -7   2  -4    9.52    0.58 
   7  -2   4    9.00    0.55 
   7  -2   4    9.40    0.68 
   7  -2   4    9.48    0.64 
   7  -2   4    9.70    0.61 
   8  -2   4    7.56    0.67 
   8  -2   4    8.00    0.57 
   8  -2   4    6.99    0.63 
   9  -2   4    3.59    0.47 
   9  -2   4    2.71    0.51 
  11   1  -4    0.12    0.39 
 -11  -1   4    0.17    0.37 
  10   1  -4   19.33    1.11 
 -10  -1   4   16.39    1.10 
 -10  -1   4   17.41    1.06 
   9   1  -4   11.73    0.76 
  -9  -1   4   11.20    0.81 
  -9  -1   4   11.99    0.71 
  -9  -1   4   11.75    0.76 
  -8  -1   4    7.59    0.50 
  -8  -1   4    8.00    0.55 
  -8  -1   4    8.12    0.53 
   7   1  -4   29.46    1.61 
  -7  -1   4   30.98    1.62 
  -7  -1   4   32.08    1.60 
  -7  -1   4   31.89    1.61 
   6   1  -4    6.85    0.43 
  -6  -1   4    6.56    0.36 
  -6  -1   4    6.74    0.42 
  -6  -1   4    6.54    0.42 
   5   1  -4   91.54    4.65 
  -5  -1   4   97.54    4.65 
  -5  -1   4   92.83    4.64 
  -5  -1   4   92.47    4.61 
   4   1  -4    3.73    0.24 
  -4  -1   4    3.35    0.23 
  -4  -1   4    3.38    0.24 
  -4  -1   4    3.07    0.19 
   3   1  -4   62.81    3.43 
   3   1  -4   63.94    3.43 
  -3  -1   4   73.37    3.43 
  -3  -1   4   76.32    3.44 
   2   1  -4   13.33    0.72 
   2   1  -4   13.02    0.73 
  -2  -1   4   14.81    0.73 
  -2  -1   4   14.77    0.71 
  -2  -1   4   14.25    0.73 
   1   1  -4   21.20    1.06 
   1   1  -4   20.96    1.07 
   0   1  -4   35.92    1.95 
   0   1  -4   37.81    1.95 
   0   1  -4   37.25    1.94 
   0  -1   4   42.03    1.94 
   0  -1   4   41.20    1.95 
   0  -1   4   40.61    1.96 
  -1   1  -4   21.99    1.29 
  -1   1  -4   21.96    1.29 
   1  -1   4   29.55    1.31 
   1  -1   4   29.57    1.29 
  -2   1  -4  154.25    7.82 
  -2   1  -4  150.62    7.82 
  -2   1  -4  153.88    7.83 
   2  -1   4  162.38    7.83 
   2  -1   4  161.41    7.83 
   2  -1   4  169.70    7.83 
  -3   1  -4   21.39    1.12 
  -3   1  -4   22.06    1.12 
  -3   1  -4   21.45    1.13 
   3  -1   4   22.80    1.13 
   3  -1   4   22.19    1.13 
   3  -1   4   22.11    1.13 
  -4   1  -4   15.93    0.94 
  -4   1  -4   15.92    0.93 
   4  -1   4   19.34    0.94 
   4  -1   4   19.37    0.95 
   4  -1   4   19.12    0.95 
  -5   1  -4   10.53    0.54 
  -5   1  -4    9.77    0.52 
  -5   1  -4    9.93    0.55 
   5  -1   4    7.96    0.51 
   5  -1   4    7.98    0.54 
   5  -1   4    8.30    0.53 
  -6   1  -4    0.16    0.14 
   6  -1   4    0.59    0.13 
   6  -1   4    0.53    0.19 
   6  -1   4    0.43    0.16 
   7  -1   4    0.74    0.19 
   7  -1   4    0.64    0.15 
   7  -1   4    0.61    0.24 
  -8   1  -4    0.89    0.25 
   8  -1   4    0.53    0.21 
   8  -1   4    0.48    0.30 
   9  -1   4    0.76    0.46 
   9  -1   4    1.10    0.27 
  11   0  -4    0.56    0.41 
  11   0  -4    0.54    0.44 
 -11   0   4    0.54    0.36 
  10   0  -4    6.57    0.65 
 -10   0   4    6.29    0.66 
 -10   0   4    6.69    0.57 
   9   0  -4   13.05    0.83 
  -9   0   4   13.42    0.78 
  -9   0   4   12.79    0.77 
  -9   0   4   13.35    0.83 
   8   0  -4    1.77    0.25 
  -8   0   4    1.70    0.28 
  -8   0   4    1.75    0.28 
  -8   0   4    1.56    0.22 
   7   0  -4   39.02    1.98 
  -7   0   4   38.26    1.93 
  -7   0   4   38.69    1.96 
  -7   0   4   38.19    1.98 
   6   0  -4   16.44    0.86 
  -6   0   4   16.06    0.84 
  -6   0   4   16.17    0.86 
  -6   0   4   15.24    0.82 
   5   0  -4   41.48    2.06 
  -5   0   4   41.75    2.06 
  -5   0   4   40.52    2.04 
  -5   0   4   39.60    2.03 
   4   0  -4   97.03    4.82 
  -4   0   4  100.64    4.82 
  -4   0   4   96.10    4.80 
  -4   0   4   95.27    4.80 
   3   0  -4   45.26    2.24 
  -3   0   4   45.72    2.25 
  -3   0   4   43.90    2.23 
   2   0  -4  438.08   20.98 
   2   0  -4  417.65   20.93 
   2   0  -4  430.01   20.89 
  -2   0   4  414.18   20.91 
  -2   0   4  418.53   20.93 
   1   0  -4   53.44    2.62 
   1   0  -4   52.28    2.63 
   1   0  -4   52.29    2.62 
  -1   0   4   53.96    2.62 
  -1   0   4   52.03    2.62 
  -1   0   4   53.45    2.63 
   0   0  -4  222.50   11.21 
   0   0  -4  229.88   11.19 
   0   0   4  232.39   11.18 
   0   0   4  223.88   11.18 
   0   0   4  231.15   11.18 
   0   0   4  219.57   11.18 
  -1   0  -4   41.61    2.08 
  -1   0  -4   41.24    2.09 
  -1   0  -4   41.98    2.09 
   1   0   4   42.76    2.09 
   1   0   4   41.98    2.09 
   1   0   4   42.00    2.08 
  -2   0  -4   52.67    2.63 
  -2   0  -4   53.11    2.61 
  -2   0  -4   52.33    2.62 
   2   0   4   51.80    2.62 
   2   0   4   53.59    2.62 
  -3   0  -4   21.86    1.11 
  -3   0  -4   22.01    1.10 
  -3   0  -4   21.63    1.12 
   3   0   4   21.66    1.12 
   3   0   4   21.36    1.12 
   3   0   4   22.05    1.12 
  -4   0  -4    2.86    0.22 
  -4   0  -4    2.78    0.21 
  -4   0  -4    2.87    0.25 
   4   0   4    2.90    0.24 
   4   0   4    2.85    0.22 
   4   0   4    2.88    0.23 
   4   0   4    2.70    0.26 
  -5   0  -4   45.07    2.27 
  -5   0  -4   45.81    2.24 
  -5   0  -4   43.87    2.26 
   5   0   4   45.27    2.26 
   5   0   4   43.62    2.27 
   5   0   4   44.72    2.26 
  -6   0  -4   16.57    0.90 
  -6   0  -4   16.84    0.91 
   6   0   4   16.81    0.94 
   6   0   4   17.12    0.91 
   6   0   4   16.77    0.91 
  -7   0  -4   16.30    0.88 
   7   0   4   16.09    0.89 
   7   0   4   15.75    0.89 
   7   0   4   15.91    0.94 
  -8   0  -4   10.71    0.67 
   8   0   4   10.12    0.67 
   8   0   4   11.12    0.68 
   8   0   4   10.39    0.75 
  -9   0  -4    6.17    0.60 
   9   0   4    6.87    0.56 
   9   0   4    6.56    0.71 
 -11   1   4    0.32    0.36 
  10  -1  -4   17.00    1.13 
  10  -1  -4   17.22    1.16 
 -10   1   4   19.51    1.06 
 -10   1   4   19.49    1.15 
   9  -1  -4   12.29    0.79 
   9  -1  -4   11.99    0.84 
  -9   1   4   12.03    0.71 
  -9   1   4   12.01    0.79 
   8  -1  -4    8.25    0.66 
   8  -1  -4    8.14    0.60 
  -8   1   4   10.43    0.56 
  -8   1   4   10.31    0.62 
   7  -1  -4   31.82    1.58 
   7  -1  -4   31.12    1.64 
  -7   1   4   29.64    1.58 
  -7   1   4   29.19    1.55 
   6  -1  -4    6.69    0.44 
   6  -1  -4    6.90    0.50 
  -6   1   4    7.18    0.44 
  -6   1   4    7.25    0.41 
   5  -1  -4   94.06    4.57 
   5  -1  -4   92.61    4.53 
  -5   1   4   88.09    4.52 
  -5   1   4   90.33    4.53 
   4  -1  -4    3.28    0.24 
   4  -1  -4    3.41    0.28 
  -4   1   4    3.71    0.23 
  -4   1   4    3.72    0.24 
   3  -1  -4   73.59    3.54 
   3  -1  -4   74.48    3.51 
  -3   1   4   64.23    3.51 
   2  -1  -4   14.85    0.73 
   2  -1  -4   15.57    0.75 
  -2   1   4   13.77    0.75 
  -2   1   4   13.43    0.73 
  -2   1   4   12.88    0.73 
  -1   1   4   21.33    1.08 
  -1   1   4   21.19    1.09 
  -1   1   4   21.46    1.08 
   0  -1  -4   40.06    1.95 
   0  -1  -4   40.64    1.94 
   0   1   4   37.03    1.95 
   0   1   4   37.78    1.94 
   0   1   4   39.11    1.95 
  -1  -1  -4   30.06    1.27 
   1   1   4   22.42    1.25 
   1   1   4   22.16    1.26 
  -2  -1  -4  161.72    7.85 
  -2  -1  -4  164.46    7.88 
  -2  -1  -4  166.86    7.88 
   2   1   4  156.28    7.87 
   2   1   4  151.28    7.88 
   2   1   4  157.09    7.88 
  -3  -1  -4   22.71    1.17 
  -3  -1  -4   23.12    1.13 
  -3  -1  -4   23.26    1.16 
   3   1   4   21.77    1.16 
   3   1   4   21.78    1.16 
   3   1   4   22.69    1.17 
  -4  -1  -4   19.48    0.96 
  -4  -1  -4   19.36    0.92 
  -4  -1  -4   19.45    0.96 
   4   1   4   16.87    0.96 
   4   1   4   16.73    0.95 
   4   1   4   16.36    0.95 
  -5  -1  -4    8.38    0.49 
  -5  -1  -4    8.20    0.54 
   5   1   4    9.83    0.54 
   5   1   4    9.78    0.56 
   5   1   4    9.50    0.55 
   6   1   4    0.19    0.14 
   6   1   4    0.30    0.14 
   6   1   4    0.15    0.17 
  -7  -1  -4    0.89    0.28 
   7   1   4    1.28    0.22 
   7   1   4    1.37    0.26 
   7   1   4    1.44    0.33 
  -8  -1  -4    0.56    0.22 
   8   1   4    0.72    0.23 
   8   1   4    0.90    0.22 
   8   1   4    0.58    0.28 
  -9  -1  -4    0.97    0.45 
   9   1   4    0.14    0.35 
   9   1   4    0.25    0.27 
  10  -2  -4    4.38    0.62 
   9  -2  -4    8.88    0.64 
   9  -2  -4    8.90    0.72 
  -9   2   4    8.28    0.57 
  -9   2   4    8.20    0.66 
  -8   2   4    1.56    0.27 
  -8   2   4    1.90    0.35 
   7  -2  -4   43.18    2.28 
   7  -2  -4   44.01    2.20 
  -7   2   4   42.83    2.20 
  -7   2   4   43.29    2.21 
   6  -2  -4    4.05    0.38 
   6  -2  -4    4.42    0.30 
  -6   2   4    2.99    0.29 
  -6   2   4    3.09    0.28 
   5  -2  -4   52.56    2.71 
   5  -2  -4   51.90    2.65 
  -5   2   4   53.37    2.65 
  -5   2   4   53.80    2.65 
   4  -2  -4   20.13    1.08 
  -4   2   4   19.61    1.03 
  -4   2   4   19.77    1.02 
   3  -2  -4   22.78    1.16 
  -3   2   4   21.23    1.12 
  -3   2   4   21.50    1.11 
   2  -2  -4  161.84    7.58 
  -2   2   4  147.69    7.57 
  -2   2   4  152.16    7.54 
  -2   2   4  149.67    7.55 
   1  -2  -4   67.28    3.19 
   1  -2  -4   66.42    3.24 
   1  -2  -4   66.24    3.21 
  -1   2   4   60.94    3.21 
  -1   2   4   64.14    3.23 
  -1   2   4   61.68    3.20 
   0  -2  -4   89.07    4.29 
   0  -2  -4   88.03    4.27 
   0   2   4   85.28    4.27 
   0   2   4   84.56    4.30 
   0   2   4   84.76    4.28 
  -1  -2  -4   95.19    4.75 
  -1  -2  -4   96.92    4.74 
   1   2   4   97.70    4.74 
   1   2   4   93.33    4.75 
  -2  -2  -4   23.36    1.24 
  -2  -2  -4   23.53    1.25 
   2   2   4   25.00    1.24 
   2   2   4   24.80    1.24 
   2   2   4   24.47    1.25 
  -3  -2  -4   72.28    3.63 
  -3  -2  -4   72.03    3.63 
   3   2   4   72.81    3.62 
   3   2   4   72.81    3.63 
   3   2   4   73.50    3.63 
  -4  -2  -4    4.60    0.35 
  -4  -2  -4    4.74    0.33 
   4   2   4    4.54    0.34 
   4   2   4    4.88    0.33 
   4   2   4    4.73    0.35 
  -5  -2  -4   55.75    2.77 
  -5  -2  -4   55.23    2.82 
   5   2   4   56.97    2.84 
   5   2   4   55.57    2.83 
   5   2   4   56.47    2.82 
   6   2   4    6.33    0.45 
   6   2   4    6.34    0.45 
   6   2   4    6.09    0.47 
  -7  -2  -4    9.97    0.63 
  -7  -2  -4   10.29    0.58 
   7   2   4   10.05    0.66 
   7   2   4   10.26    0.62 
   7   2   4   10.19    0.69 
  -8  -2  -4    7.35    0.55 
   8   2   4    7.54    0.63 
   8   2   4    7.88    0.55 
   8   2   4    7.30    0.63 
   9   2   4    3.41    0.49 
   9   2   4    3.58    0.63 
   9   2   4    3.76    0.49 
  10  -3  -4   10.38    0.89 
   9  -3  -4    6.96    0.70 
   8  -3  -4    4.36    0.54 
  -8   3   4    4.00    0.37 
  -8   3   4    4.35    0.44 
   7  -3  -4    8.20    0.67 
  -7   3   4    9.84    0.57 
  -6   3   4    1.89    0.24 
  -6   3   4    1.89    0.25 
  -6   3   4    2.09    0.20 
   5  -3  -4   30.20    1.64 
   5  -3  -4   30.27    1.55 
  -5   3   4   30.59    1.56 
  -5   3   4   30.92    1.57 
   4  -3  -4   12.85    0.75 
   4  -3  -4   12.27    0.65 
  -4   3   4   11.96    0.67 
  -4   3   4   11.71    0.63 
  -4   3   4   12.35    0.73 
  -4   3   4   11.96    0.68 
  -4   3   4   12.17    0.65 
   3  -3  -4   47.24    2.37 
   3  -3  -4   46.64    2.28 
  -3   3   4   46.27    2.27 
  -3   3   4   40.60    2.31 
  -3   3   4   46.85    2.31 
  -3   3   4   46.36    2.31 
  -3   3   4   46.71    2.35 
   2  -3  -4   25.41    1.31 
   2  -3  -4   26.22    1.39 
   2  -3  -4   24.74    1.31 
  -2   3   4   25.71    1.34 
  -2   3   4   28.04    1.34 
   1  -3  -4   26.85    1.46 
   1  -3  -4   27.23    1.43 
   1  -3  -4   27.06    1.44 
  -1   3   4   30.25    1.46 
  -1   3   4   29.62    1.50 
  -1   3   4   29.96    1.44 
   0  -3  -4    8.74    0.55 
   0  -3  -4    8.49    0.55 
   0  -3  -4    8.63    0.53 
   0   3   4   11.36    0.54 
   0   3   4   11.01    0.56 
   0   3   4   11.01    0.51 
  -1  -3  -4    3.31    0.26 
  -1  -3  -4    2.93    0.38 
   1   3   4    3.38    0.26 
   1   3   4    3.32    0.24 
   1   3   4    3.19    0.23 
  -2  -3  -4   44.95    2.39 
  -2  -3  -4   54.16    2.40 
   2   3   4   45.64    2.37 
   2   3   4   45.84    2.37 
   2   3   4   45.72    2.38 
  -3  -3  -4   26.06    1.30 
  -3  -3  -4   26.26    1.32 
  -3  -3  -4   25.59    1.29 
   3   3   4   23.96    1.29 
   3   3   4   23.81    1.27 
   3   3   4   22.86    1.29 
   4   3   4   24.34    1.25 
   4   3   4   23.77    1.26 
   4   3   4   23.56    1.26 
  -5  -3  -4   16.15    0.88 
   5   3   4   15.68    0.87 
   5   3   4   15.19    0.88 
   6   3   4   14.44    0.84 
   6   3   4   14.51    0.86 
   6   3   4   14.68    0.84 
   7   3   4    1.82    0.33 
   7   3   4    1.65    0.28 
   7   3   4    1.65    0.29 
   7   3   4    1.71    0.25 
  -8  -3  -4    5.55    0.52 
   8   3   4    3.96    0.60 
   8   3   4    4.08    0.53 
   8   3   4    4.52    0.47 
   9  -4  -4    0.29    0.32 
   8  -4  -4    5.70    0.61 
  -8   4   4    4.32    0.41 
  -8   4   4    4.26    0.71 
   7  -4  -4    7.18    0.50 
   7  -4  -4    7.12    0.65 
  -7   4   4    7.97    0.53 
  -7   4   4    7.50    0.48 
   6  -4  -4   10.29    0.54 
   6  -4  -4    9.82    0.72 
  -6   4   4    8.80    0.56 
  -6   4   4    8.27    0.52 
  -6   4   4    8.51    0.55 
   5  -4  -4   15.77    0.85 
   5  -4  -4   15.66    0.99 
  -5   4   4   16.17    0.84 
  -5   4   4   16.70    0.86 
  -5   4   4   16.24    0.90 
   4  -4  -4   26.85    1.57 
   4  -4  -4   27.20    1.42 
  -4   4   4   29.11    1.43 
  -4   4   4   29.00    1.43 
  -4   4   4   28.73    1.47 
   3  -4  -4   16.40    0.95 
   3  -4  -4   15.89    0.80 
  -3   4   4   15.37    0.80 
  -3   4   4   14.83    0.91 
  -3   4   4   15.60    0.84 
  -3   4   4   15.12    0.81 
  -3   4   4   15.19    0.85 
   2  -4  -4   72.24    3.70 
   2  -4  -4   73.09    3.68 
  -2   4   4   74.16    3.69 
  -2   4   4   75.22    3.77 
  -2   4   4   73.95    3.72 
  -2   4   4   75.45    3.70 
  -2   4   4   76.00    3.68 
  -2   4   4   74.26    3.71 
   1  -4  -4   23.35    1.09 
  -1   4   4   20.00    1.05 
  -1   4   4   19.65    1.15 
  -1   4   4   19.61    1.09 
  -1   4   4   20.30    1.06 
   0  -4  -4   34.56    1.84 
   0  -4  -4   35.17    1.80 
   0  -4  -4   34.58    1.84 
   0   4   4   36.07    1.79 
   0   4   4   37.87    1.90 
   0   4   4   36.23    1.84 
   0   4   4   36.90    1.81 
  -1  -4  -4   30.40    1.50 
  -1  -4  -4   31.00    1.47 
  -1  -4  -4   30.47    1.50 
   1   4   4   28.01    1.46 
   1   4   4   27.03    1.49 
   1   4   4   26.93    1.54 
   1   4   4   27.60    1.46 
  -2  -4  -4   14.08    0.78 
  -2  -4  -4   12.70    0.75 
  -2  -4  -4   14.72    0.80 
   2   4   4   13.78    0.74 
   2   4   4   13.39    0.77 
   2   4   4   14.02    0.75 
  -3  -4  -4   27.30    1.51 
  -3  -4  -4   26.97    1.49 
   3   4   4   29.25    1.47 
   3   4   4   29.20    1.46 
   3   4   4   29.41    1.49 
  -4  -4  -4    5.90    0.44 
  -4  -4  -4    5.59    0.48 
   4   4   4    6.18    0.42 
   4   4   4    6.26    0.43 
   4   4   4    6.09    0.42 
  -5  -4  -4   23.21    1.41 
  -5  -4  -4   22.83    1.37 
   5   4   4   27.27    1.36 
   5   4   4   27.95    1.38 
   5   4   4   27.29    1.38 
  -6  -4  -4    3.88    0.45 
   6   4   4    2.93    0.37 
   6   4   4    2.98    0.37 
   6   4   4    2.62    0.40 
  -7  -4  -4    6.52    0.64 
   7   4   4    8.05    0.57 
   7   4   4    8.53    0.59 
   8   4   4    2.81    0.49 
   8   4   4    2.73    0.48 
   8  -5  -4    0.40    0.35 
  -8   5   4   -0.13    0.18 
   7  -5  -4    3.84    0.62 
  -7   5   4    4.45    0.43 
  -7   5   4    4.80    0.42 
   6  -5  -4    1.24    0.38 
  -6   5   4    0.78    0.22 
  -6   5   4    0.51    0.17 
  -6   5   4    0.58    0.19 
   5  -5  -4    7.47    0.67 
  -5   5   4    5.97    0.54 
  -5   5   4    7.19    0.46 
  -5   5   4    7.18    0.43 
  -5   5   4    6.94    0.55 
  -5   5   4    7.30    0.48 
  -5   5   4    7.37    0.50 
   4  -5  -4    1.77    0.36 
  -4   5   4    1.13    0.24 
  -4   5   4    1.46    0.24 
  -4   5   4    1.22    0.20 
  -4   5   4    1.28    0.23 
  -4   5   4    1.36    0.24 
  -4   5   4    1.27    0.19 
  -3   5   4    5.95    0.43 
  -3   5   4    5.80    0.40 
  -3   5   4    5.96    0.40 
  -3   5   4    5.96    0.39 
  -3   5   4    6.02    0.35 
  -2   5   4   11.56    0.63 
  -2   5   4    9.86    0.69 
  -2   5   4   11.37    0.64 
  -2   5   4   11.45    0.59 
  -1   5   4    9.08    0.53 
  -1   5   4    9.47    0.52 
  -1   5   4    9.71    0.53 
  -1   5   4    9.13    0.58 
  -1   5   4    9.10    0.55 
   0  -5  -4   21.57    1.25 
   0  -5  -4   21.75    1.26 
   0   5   4   25.13    1.22 
   0   5   4   23.81    1.21 
   0   5   4   24.90    1.21 
   0   5   4   24.46    1.26 
  -1  -5  -4   20.44    1.09 
  -1  -5  -4   20.50    1.12 
   1   5   4   19.83    1.05 
   1   5   4   19.82    1.05 
  -2  -5  -4   13.94    0.98 
  -2  -5  -4   15.55    0.90 
   2   5   4   16.63    0.85 
   2   5   4   16.44    0.89 
   2   5   4   16.65    0.86 
  -3  -5  -4    3.31    0.40 
   3   5   4    3.41    0.31 
   3   5   4    3.50    0.30 
   3   5   4    3.41    0.34 
   4   5   4    2.39    0.32 
   4   5   4    2.41    0.31 
   4   5   4    2.69    0.29 
  -5  -5  -4    2.80    0.43 
   5   5   4    2.76    0.37 
   5   5   4    2.55    0.36 
   5   5   4    2.28    0.32 
   6   5   4    5.45    0.45 
   6   5   4    5.27    0.48 
   7   5   4    1.92    0.31 
   7   5   4    2.22    0.37 
   6  -6  -4    2.56    0.49 
  -6   6   4    1.54    0.29 
   5  -6  -4    9.11    0.82 
  -5   6   4    9.18    0.61 
  -5   6   4    8.99    0.63 
  -4   6   4    2.67    0.37 
  -4   6   4    2.08    0.33 
  -4   6   4    2.42    0.35 
  -3   6   4    8.41    0.54 
  -3   6   4    8.09    0.56 
  -3   6   4    7.79    0.54 
  -2   6   4    7.74    0.51 
  -2   6   4    7.28    0.49 
  -2   6   4    7.61    0.53 
  -1   6   4    0.74    0.19 
  -1   6   4    0.88    0.19 
  -1   6   4    1.11    0.19 
   0   6   4    7.36    0.44 
   0   6   4    7.17    0.51 
   0   6   4    6.86    0.45 
   0   6   4    7.19    0.48 
  -1  -6  -4    2.20    0.41 
  -1  -6  -4    2.47    0.35 
   1   6   4    3.33    0.31 
   1   6   4    3.42    0.35 
   1   6   4    3.45    0.33 
   1   6   4    3.30    0.25 
  -2  -6  -4    6.03    0.56 
  -2  -6  -4    5.99    0.50 
   2   6   4    6.62    0.50 
   2   6   4    7.08    0.46 
   2   6   4    6.54    0.42 
  -3  -6  -4    6.94    0.66 
   3   6   4    9.27    0.57 
   3   6   4    9.04    0.60 
   3   6   4    9.03    0.53 
  -4  -6  -4    1.36    0.35 
   4   6   4    0.82    0.25 
   4   6   4    0.94    0.18 
  -5  -6  -4    8.65    0.76 
   5   6   4    9.66    0.67 
   5   6   4    9.71    0.61 
  -4   7   4    1.33    0.30 
  -3   7   4    0.12    0.29 
  -3   7   4    0.08    0.25 
  -2   7   4    0.93    0.30 
  -2   7   4    0.85    0.24 
  -1   7   4    1.56    0.28 
   0  -7  -4    0.17    0.31 
   0   7   4    0.00    0.21 
  -1  -7  -4    7.63    0.68 
   1   7   4    7.34    0.58 
  -2  -7  -4    0.89    0.37 
   2   7   4    0.39    0.25 
   2   7   4    0.62    0.14 
  -3  -7   5    0.32    0.26 
  -2  -7   5    3.43    0.47 
   1   7  -5    1.39    0.41 
  -1  -7   5    1.15    0.27 
   6   6  -5    1.82    0.27 
  -6  -6   5    2.20    0.33 
  -6  -6   5    1.94    0.40 
   5   6  -5    5.21    0.42 
  -5  -6   5    7.57    0.54 
  -5  -6   5    7.03    0.55 
   4   6  -5    3.76    0.30 
  -4  -6   5    3.70    0.43 
  -4  -6   5    3.61    0.41 
   3   6  -5    6.90    0.64 
   3   6  -5    7.13    0.43 
   2   6  -5    1.27    0.32 
  -2  -6   5    1.00    0.22 
   1   6  -5   10.21    0.73 
  -1  -6   5   11.47    0.70 
   0   6  -5    3.61    0.45 
   0  -6   5    4.39    0.41 
  -1   6  -5    2.78    0.41 
   1  -6   5    2.68    0.33 
  -2   6  -5    5.93    0.40 
  -2   6  -5    5.90    0.43 
  -2   6  -5    5.76    0.54 
  -3   6  -5    0.90    0.23 
  -3   6  -5    0.76    0.22 
   3  -6   5    0.73    0.23 
  -4   6  -5    2.31    0.40 
   8   5  -5    3.66    0.38 
  -8  -5   5    3.21    0.49 
  -8  -5   5    3.11    0.51 
   7   5  -5   13.63    0.77 
  -7  -5   5   13.03    0.85 
  -7  -5   5   12.54    0.82 
   6   5  -5    9.45    0.54 
  -6  -5   5    8.32    0.63 
  -6  -5   5    7.88    0.60 
   5   5  -5    5.42    0.38 
  -5  -5   5    6.03    0.49 
  -5  -5   5    5.64    0.46 
   4   5  -5   15.29    0.79 
   4   5  -5   15.40    0.86 
  -4  -5   5   14.03    0.86 
  -4  -5   5   13.52    0.78 
  -4  -5   5   14.58    0.84 
   3   5  -5    5.72    0.35 
  -3  -5   5    5.49    0.42 
  -3  -5   5    5.30    0.45 
   2   5  -5    5.32    0.32 
   2   5  -5    5.65    0.45 
  -2  -5   5    4.22    0.29 
  -2  -5   5    4.56    0.40 
   1   5  -5   28.37    1.41 
   1   5  -5   29.02    1.48 
   1   5  -5   29.29    1.46 
  -1  -5   5   26.50    1.43 
  -1  -5   5   26.02    1.47 
   0   5  -5   -0.01    0.12 
   0   5  -5    0.09    0.26 
   0  -5   5    0.24    0.13 
   0  -5   5    0.36    0.17 
  -1   5  -5   23.54    1.18 
  -1   5  -5   22.08    1.13 
  -1   5  -5   21.86    1.17 
   1  -5   5   18.94    1.12 
   1  -5   5   18.85    1.14 
  -2   5  -5    4.33    0.33 
  -2   5  -5    3.99    0.42 
  -2   5  -5    4.15    0.29 
  -2   5  -5    3.98    0.32 
  -3   5  -5   10.48    0.57 
  -3   5  -5    9.66    0.63 
   3  -5   5    8.97    0.61 
  -4   5  -5    5.77    0.45 
   4  -5   5    6.52    0.49 
  -5   5  -5    2.59    0.40 
   5  -5   5    1.90    0.39 
   5  -5   5    2.03    0.36 
   6  -5   5    2.32    0.45 
   6  -5   5    2.69    0.39 
   9   4  -5    4.30    0.47 
  -9  -4   5    3.90    0.52 
  -9  -4   5    4.55    0.58 
  -8  -4   5    4.95    0.49 
  -8  -4   5    4.65    0.50 
  -8  -4   5    4.29    0.45 
   7   4  -5    8.77    0.60 
  -7  -4   5   10.33    0.64 
  -7  -4   5    9.42    0.60 
  -7  -4   5   10.40    0.67 
  -6  -4   5    4.30    0.42 
  -6  -4   5    4.32    0.40 
  -6  -4   5    4.32    0.32 
  -6  -4   5    4.50    0.33 
   5   4  -5    5.09    0.39 
  -5  -4   5    6.83    0.48 
  -5  -4   5    6.80    0.45 
   4   4  -5    1.87    0.25 
   4   4  -5    1.84    0.21 
  -4  -4   5    1.71    0.35 
  -4  -4   5    1.65    0.27 
   3   4  -5    2.34    0.21 
   3   4  -5    2.10    0.28 
  -3  -4   5    2.23    0.19 
  -3  -4   5    2.49    0.27 
  -3  -4   5    2.31    0.28 
   2   4  -5    0.58    0.18 
  -2  -4   5    1.12    0.15 
  -2  -4   5    1.02    0.17 
  -2  -4   5    1.01    0.14 
   1   4  -5    8.13    0.50 
   1   4  -5    8.39    0.48 
   1   4  -5    7.60    0.52 
   1   4  -5    8.01    0.56 
  -1  -4   5    9.36    0.54 
  -1  -4   5    9.53    0.49 
  -1  -4   5    9.41    0.47 
   0   4  -5    8.90    0.47 
   0   4  -5    8.36    0.50 
   0   4  -5    7.85    0.50 
   0   4  -5    8.96    0.56 
  -1   4  -5    0.10    0.07 
  -1   4  -5    0.12    0.09 
  -1   4  -5    0.08    0.11 
  -1   4  -5    0.06    0.14 
  -1   4  -5    0.10    0.12 
   1  -4   5    0.15    0.07 
   1  -4   5    0.27    0.09 
   1  -4   5    0.23    0.12 
   1  -4   5    0.26    0.15 
  -2   4  -5    4.78    0.34 
  -2   4  -5    4.63    0.39 
  -2   4  -5    5.23    0.31 
  -2   4  -5    4.90    0.31 
  -3   4  -5    0.87    0.15 
  -3   4  -5    0.84    0.13 
  -3   4  -5    0.80    0.19 
   3  -4   5    0.97    0.16 
   3  -4   5    0.99    0.14 
   3  -4   5    1.24    0.18 
   4  -4   5    6.53    0.50 
   4  -4   5    6.51    0.42 
   4  -4   5    6.73    0.47 
  -5   4  -5    1.07    0.21 
   5  -4   5    1.35    0.20 
   5  -4   5    1.59    0.25 
   5  -4   5    1.80    0.40 
   5  -4   5    1.43    0.21 
  -6   4  -5    3.39    0.42 
   6  -4   5    4.26    0.54 
   6  -4   5    4.13    0.42 
   6  -4   5    4.11    0.43 
   7  -4   5    1.51    0.42 
   7  -4   5    1.59    0.28 
  10   3  -5    1.77    0.35 
   9   3  -5   14.66    0.88 
  -9  -3   5   13.74    0.91 
   8   3  -5    2.78    0.36 
  -8  -3   5    2.22    0.32 
  -8  -3   5    2.45    0.34 
  -8  -3   5    2.22    0.40 
   7   3  -5   17.98    0.88 
  -7  -3   5   15.17    0.90 
  -7  -3   5   15.02    0.86 
  -7  -3   5   13.73    0.86 
   6   3  -5   39.65    2.06 
  -6  -3   5   40.60    2.05 
  -6  -3   5   39.77    2.00 
  -6  -3   5   38.63    2.02 
   5   3  -5   16.04    0.83 
   5   3  -5   15.34    0.80 
  -5  -3   5   13.95    0.82 
  -5  -3   5   14.56    0.81 
  -5  -3   5   14.15    0.79 
  -5  -3   5   13.90    0.76 
   4   3  -5  141.64    6.82 
   4   3  -5  135.34    6.78 
  -4  -3   5  135.29    6.80 
  -4  -3   5  137.09    6.79 
  -4  -3   5  136.24    6.81 
   3   3  -5   33.05    1.75 
   3   3  -5   32.52    1.72 
  -3  -3   5   36.00    1.72 
  -3  -3   5   34.46    1.75 
  -3  -3   5   33.99    1.74 
   2   3  -5   70.51    3.45 
   2   3  -5   69.64    3.41 
  -2  -3   5   66.88    3.39 
  -2  -3   5   69.26    3.41 
  -2  -3   5   66.88    3.43 
   1   3  -5   56.77    2.88 
   1   3  -5   55.83    2.90 
   1   3  -5   55.88    2.86 
   1   3  -5   57.61    2.88 
  -1  -3   5   57.00    2.89 
  -1  -3   5   59.22    2.86 
  -1  -3   5   60.61    2.86 
   0   3  -5    3.39    0.27 
   0   3  -5    3.46    0.24 
   0   3  -5    3.30    0.24 
   0   3  -5    3.58    0.30 
   0  -3   5    4.52    0.24 
  -1   3  -5   56.02    2.67 
  -1   3  -5   54.75    2.66 
  -1   3  -5   55.73    2.73 
  -1   3  -5   55.39    2.67 
  -1   3  -5   55.91    2.70 
   1  -3   5   51.59    2.67 
   1  -3   5   51.40    2.68 
   1  -3   5   48.41    2.70 
  -2   3  -5    3.48    0.29 
  -2   3  -5    3.41    0.25 
  -2   3  -5    3.39    0.26 
   2  -3   5    4.19    0.27 
   2  -3   5    4.45    0.26 
   2  -3   5    4.12    0.32 
   2  -3   5    4.50    0.30 
  -3   3  -5   42.83    2.08 
  -3   3  -5   42.63    2.09 
  -3   3  -5   43.11    2.11 
   3  -3   5   40.61    2.10 
   3  -3   5   40.28    2.08 
   3  -3   5   40.46    2.08 
   3  -3   5   39.80    2.10 
  -4   3  -5   12.00    0.70 
  -4   3  -5   11.55    0.68 
  -4   3  -5   11.84    0.68 
   4  -3   5   12.43    0.68 
   4  -3   5   13.58    0.72 
   4  -3   5   12.09    0.71 
  -5   3  -5    5.57    0.37 
   5  -3   5    4.71    0.40 
   5  -3   5    4.64    0.38 
   5  -3   5    4.52    0.43 
  -6   3  -5   11.73    0.67 
  -6   3  -5   11.98    0.68 
   6  -3   5   10.53    0.69 
   6  -3   5    9.94    0.68 
   6  -3   5   11.23    0.74 
   7  -3   5    1.45    0.64 
   7  -3   5    1.52    0.26 
   8  -3   5    8.91    0.80 
   8  -3   5    8.46    0.64 
  10   2  -5    1.19    0.33 
 -10  -2   5    1.30    0.33 
   9   2  -5    1.00    0.26 
  -9  -2   5    0.95    0.27 
  -9  -2   5    1.20    0.27 
  -8  -2   5    1.93    0.27 
  -8  -2   5    1.94    0.37 
  -8  -2   5    2.06    0.33 
  -7  -2   5   10.50    0.64 
  -7  -2   5   11.19    0.66 
  -7  -2   5   10.97    0.62 
  -6  -2   5    1.37    0.19 
  -6  -2   5    1.39    0.25 
  -6  -2   5    1.32    0.21 
  -5  -2   5   20.48    1.11 
  -5  -2   5   21.77    1.08 
  -5  -2   5   21.12    1.11 
   4   2  -5    1.62    0.20 
   4   2  -5    1.42    0.17 
  -4  -2   5    1.41    0.13 
  -4  -2   5    1.20    0.21 
  -4  -2   5    1.22    0.20 
  -3  -2   5    5.89    0.36 
  -3  -2   5    5.59    0.34 
  -3  -2   5    5.41    0.36 
  -3  -2   5    6.14    0.31 
  -2  -2   5    1.01    0.16 
  -2  -2   5    0.95    0.11 
  -2  -2   5    0.76    0.13 
   1   2  -5   11.12    0.55 
   1   2  -5   10.98    0.52 
  -1  -2   5    8.52    0.51 
  -1  -2   5    8.75    0.51 
  -1  -2   5    8.80    0.53 
   0   2  -5   75.50    3.96 
   0   2  -5   80.49    3.99 
   0   2  -5   76.50    3.97 
   0  -2   5   79.11    3.98 
   0  -2   5   84.37    3.96 
   0  -2   5   83.68    3.96 
  -1   2  -5    9.74    0.47 
   1  -2   5    7.06    0.47 
  -2   2  -5   42.84    2.30 
  -2   2  -5   43.06    2.29 
  -2   2  -5   43.29    2.31 
   2  -2   5   48.99    2.31 
   2  -2   5   47.08    2.30 
   2  -2   5   48.30    2.32 
   2  -2   5   48.86    2.32 
  -3   2  -5    4.18    0.29 
  -3   2  -5    4.20    0.29 
  -3   2  -5    4.33    0.28 
   3  -2   5    3.85    0.29 
   3  -2   5    3.94    0.30 
   3  -2   5    3.93    0.28 
  -4   2  -5   11.62    0.68 
  -4   2  -5   11.71    0.67 
  -4   2  -5   11.89    0.69 
   4  -2   5   12.74    0.70 
   4  -2   5   12.41    0.69 
   4  -2   5   12.74    0.69 
   4  -2   5   13.13    0.68 
  -5   2  -5    1.43    0.24 
  -5   2  -5    1.53    0.24 
  -5   2  -5    1.37    0.23 
   5  -2   5    1.38    0.20 
   5  -2   5    1.11    0.20 
   5  -2   5    1.23    0.22 
  -6   2  -5    6.84    0.51 
  -6   2  -5    7.62    0.47 
   6  -2   5    7.23    0.50 
   6  -2   5    6.68    0.43 
   6  -2   5    6.61    0.52 
   6  -2   5    6.77    0.53 
   7  -2   5    1.80    0.34 
   7  -2   5    1.69    0.32 
   7  -2   5    1.77    0.26 
   8  -2   5    1.88    0.42 
   8  -2   5    2.61    0.39 
  11   1  -5   10.39    0.90 
 -11  -1   5    9.71    0.81 
  10   1  -5    1.47    0.34 
 -10  -1   5    1.97    0.34 
 -10  -1   5    1.93    0.38 
   9   1  -5   46.50    2.40 
  -9  -1   5   45.67    2.37 
  -9  -1   5   48.01    2.41 
  -9  -1   5   44.50    2.41 
   8   1  -5    7.24    0.54 
  -8  -1   5    8.02    0.55 
  -8  -1   5    7.86    0.49 
  -8  -1   5    7.62    0.52 
   7   1  -5   61.24    3.08 
  -7  -1   5   62.28    3.08 
  -7  -1   5   60.33    3.06 
  -7  -1   5   60.08    3.02 
  -6  -1   5   42.19    2.23 
  -6  -1   5   42.22    2.11 
  -6  -1   5   43.50    2.16 
   5   1  -5   33.91    1.78 
  -5  -1   5   35.73    1.79 
  -5  -1   5   35.81    1.78 
  -5  -1   5   35.02    1.74 
   4   1  -5  228.76   10.76 
   4   1  -5  211.81   10.76 
  -4  -1   5  220.72   10.77 
  -4  -1   5  211.64   10.76 
   3   1  -5   42.64    2.12 
   3   1  -5   42.19    2.12 
  -3  -1   5   43.06    2.12 
  -3  -1   5   41.28    2.12 
   2   1  -5  253.58   12.31 
   2   1  -5  257.20   12.33 
  -2  -1   5  242.97   12.29 
  -2  -1   5  244.80   12.34 
   1   1  -5  197.87    9.90 
   1   1  -5  200.22    9.87 
   1   1  -5  202.37    9.89 
  -1  -1   5  207.78    9.92 
  -1  -1   5  198.60    9.87 
  -1  -1   5  196.54    9.88 
   0   1  -5   91.58    4.16 
   0   1  -5   87.07    4.18 
   0   1  -5   90.10    4.18 
   0  -1   5   77.60    4.18 
   0  -1   5   79.26    4.18 
   0  -1   5   80.50    4.16 
  -1   1  -5   90.36    4.56 
  -1   1  -5   88.85    4.57 
  -1   1  -5   92.34    4.55 
   1  -1   5   95.20    4.57 
   1  -1   5   92.47    4.56 
   1  -1   5   94.05    4.57 
  -2   1  -5    7.08    0.40 
  -2   1  -5    7.00    0.38 
  -2   1  -5    7.00    0.39 
   2  -1   5    6.64    0.39 
   2  -1   5    6.48    0.39 
   2  -1   5    6.82    0.40 
   2  -1   5    6.70    0.40 
  -3   1  -5   94.76    4.60 
  -3   1  -5   95.77    4.60 
  -3   1  -5   91.44    4.61 
   3  -1   5   90.87    4.61 
   3  -1   5   91.00    4.61 
  -4   1  -5   22.00    1.16 
  -4   1  -5   21.39    1.16 
  -4   1  -5   22.06    1.18 
   4  -1   5   22.93    1.18 
   4  -1   5   23.25    1.18 
   4  -1   5   23.39    1.17 
  -5   1  -5   23.00    1.17 
  -5   1  -5   23.83    1.16 
  -5   1  -5   23.33    1.15 
   5  -1   5   20.90    1.15 
   5  -1   5   20.65    1.17 
   5  -1   5   20.27    1.16 
  -6   1  -5   17.19    0.99 
  -6   1  -5   17.74    0.99 
   6  -1   5   18.36    1.01 
   6  -1   5   19.16    0.99 
   6  -1   5   19.72    1.04 
  -7   1  -5    5.15    0.42 
  -7   1  -5    4.31    0.37 
   7  -1   5    4.65    0.51 
   7  -1   5    4.53    0.36 
   7  -1   5    5.15    0.42 
  -8   1  -5   12.23    0.81 
   8  -1   5   13.26    0.89 
   8  -1   5   13.36    0.80 
   9  -1   5    1.13    0.31 
   9  -1   5    1.00    0.43 
  11   0  -5    1.79    0.47 
  11   0  -5    1.67    0.46 
 -11   0   5    1.76    0.40 
  10   0  -5    1.17    0.35 
  10   0  -5    1.52    0.36 
 -10   0   5    1.14    0.38 
 -10   0   5    1.35    0.31 
   9   0  -5    4.79    0.50 
  -9   0   5    4.54    0.37 
  -9   0   5    4.65    0.43 
  -9   0   5    4.69    0.51 
   8   0  -5    3.29    0.37 
  -8   0   5    2.97    0.36 
  -8   0   5    3.11    0.27 
  -8   0   5    3.13    0.31 
   7   0  -5   28.52    1.48 
  -7   0   5   27.89    1.44 
  -7   0   5   28.65    1.49 
  -7   0   5   28.61    1.46 
   6   0  -5    2.43    0.25 
  -6   0   5    2.69    0.22 
  -6   0   5    2.56    0.26 
  -6   0   5    2.45    0.20 
   5   0  -5   70.35    3.54 
  -5   0   5   70.39    3.52 
  -5   0   5   70.19    3.52 
  -5   0   5   72.98    3.55 
   4   0  -5    3.50    0.25 
   4   0  -5    3.52    0.27 
  -4   0   5    3.55    0.22 
  -4   0   5    3.61    0.25 
   3   0  -5   83.26    4.17 
   3   0  -5   86.14    4.19 
   3   0  -5   84.25    4.18 
  -3   0   5   83.89    4.18 
   2   0  -5   34.31    1.73 
   2   0  -5   33.48    1.73 
   2   0  -5   34.90    1.72 
  -2   0   5   34.81    1.73 
  -2   0   5   35.23    1.74 
   1   0  -5  153.53    7.47 
   1   0  -5  149.24    7.48 
   1   0  -5  152.56    7.48 
  -1   0   5  152.34    7.48 
  -1   0   5  151.35    7.50 
  -1   0   5  150.31    7.47 
   0   0  -5    3.23    0.22 
   0   0  -5    3.11    0.21 
   0   0   5    3.29    0.21 
   0   0   5    3.58    0.20 
   0   0   5    3.08    0.21 
   0   0   5    3.10    0.20 
  -1   0  -5    5.20    0.29 
  -1   0  -5    5.38    0.31 
  -1   0  -5    5.25    0.32 
   1   0   5    5.07    0.31 
   1   0   5    5.11    0.30 
   1   0   5    5.26    0.31 
  -2   0  -5   15.54    0.81 
  -2   0  -5   16.16    0.82 
  -2   0  -5   15.95    0.83 
   2   0   5   15.51    0.83 
   2   0   5   16.07    0.83 
   2   0   5   15.53    0.81 
  -3   0  -5    0.50    0.09 
  -3   0  -5    0.87    0.15 
  -3   0  -5    0.50    0.12 
   3   0   5    0.57    0.11 
   3   0   5    0.49    0.12 
   3   0   5    0.73    0.13 
  -4   0  -5   16.59    0.90 
  -4   0  -5   16.46    0.88 
  -4   0  -5   16.80    0.86 
   4   0   5   16.34    0.89 
   4   0   5   17.08    0.89 
   4   0   5   16.33    0.90 
  -5   0  -5    0.25    0.12 
  -5   0  -5    0.36    0.12 
  -5   0  -5    0.30    0.15 
   5   0   5    0.49    0.17 
   5   0   5    0.53    0.13 
   5   0   5    0.42    0.14 
  -6   0  -5   15.35    0.83 
  -6   0  -5   15.34    0.82 
   6   0   5   14.76    0.85 
   6   0   5   14.71    0.83 
   6   0   5   14.86    0.88 
  -7   0  -5    0.60    0.16 
  -7   0  -5    0.88    0.20 
   7   0   5    0.69    0.27 
   7   0   5    0.68    0.18 
   7   0   5    0.86    0.20 
  -8   0  -5    1.33    0.27 
   8   0   5    1.33    0.26 
   8   0   5    1.31    0.35 
   9   0   5    0.00    0.41 
   9   0   5    0.47    0.27 
 -11   1   5    9.56    0.93 
  10  -1  -5    2.13    0.41 
  10  -1  -5    1.92    0.36 
 -10   1   5    1.74    0.30 
 -10   1   5    1.66    0.39 
   9  -1  -5   47.04    2.44 
   9  -1  -5   46.26    2.37 
  -9   1   5   44.46    2.33 
  -9   1   5   45.81    2.39 
  -9   1   5   45.64    2.33 
   8  -1  -5    7.75    0.59 
   8  -1  -5    8.00    0.52 
  -8   1   5    6.58    0.52 
  -8   1   5    6.62    0.45 
  -8   1   5    6.62    0.45 
   7  -1  -5   61.41    2.98 
   7  -1  -5   56.88    3.10 
  -7   1   5   59.50    2.99 
  -7   1   5   59.90    2.95 
  -7   1   5   58.12    2.96 
   6  -1  -5   44.42    2.30 
   6  -1  -5   43.39    2.25 
  -6   1   5   45.75    2.26 
  -6   1   5   44.40    2.23 
  -6   1   5   44.39    2.21 
   5  -1  -5   36.71    1.86 
   5  -1  -5   36.61    1.82 
  -5   1   5   35.13    1.81 
  -5   1   5   35.33    1.83 
   4  -1  -5  214.48   10.75 
   4  -1  -5  217.00   10.80 
  -4   1   5  222.48   10.75 
   3  -1  -5   41.94    2.14 
   3  -1  -5   43.79    2.17 
  -3   1   5   42.66    2.15 
  -3   1   5   42.80    2.15 
   2  -1  -5  240.60   12.26 
   2  -1  -5  237.72   12.33 
  -2   1   5  253.10   12.35 
  -2   1   5  252.48   12.30 
  -2   1   5  260.62   12.30 
   1  -1  -5  206.47   10.06 
   1  -1  -5  201.31   10.02 
   1  -1  -5  198.13   10.02 
  -1   1   5  213.58   10.07 
  -1   1   5  199.78   10.04 
  -1   1   5  201.05   10.05 
   0  -1  -5   78.88    4.23 
   0  -1  -5   79.01    4.23 
   0   1   5   88.54    4.23 
   0   1   5   88.69    4.24 
   0   1   5   88.47    4.24 
   0   1   5   88.90    4.21 
  -1  -1  -5   93.28    4.59 
  -1  -1  -5   91.14    4.59 
   1   1   5   93.72    4.59 
   1   1   5   91.55    4.59 
   1   1   5   93.44    4.57 
  -2  -1  -5    6.59    0.40 
  -2  -1  -5    6.83    0.40 
  -2  -1  -5    6.63    0.35 
   2   1   5    6.87    0.39 
   2   1   5    6.81    0.40 
  -3  -1  -5   91.63    4.60 
  -3  -1  -5   90.82    4.64 
  -3  -1  -5   89.47    4.64 
   3   1   5   95.81    4.65 
   3   1   5   96.63    4.64 
   3   1   5   95.96    4.65 
  -4  -1  -5   23.53    1.20 
  -4  -1  -5   23.46    1.19 
  -4  -1  -5   23.25    1.15 
   4   1   5   22.28    1.18 
   4   1   5   22.19    1.20 
   4   1   5   21.63    1.19 
  -5  -1  -5   20.99    1.12 
  -5  -1  -5   20.35    1.18 
  -5  -1  -5   20.83    1.16 
   5   1   5   24.26    1.17 
   5   1   5   23.43    1.18 
   5   1   5   22.57    1.19 
  -6  -1  -5   18.91    0.94 
   6   1   5   17.38    0.98 
   6   1   5   18.22    1.02 
   6   1   5   16.98    0.97 
  -7  -1  -5    4.83    0.58 
   7   1   5    5.09    0.42 
   7   1   5    4.73    0.43 
   7   1   5    5.16    0.51 
  -8  -1  -5   13.52    0.75 
   8   1   5   11.59    0.97 
   8   1   5   12.01    0.80 
   8   1   5   12.42    0.77 
   9   1   5    1.33    0.33 
   9   1   5    0.74    0.41 
  10  -2  -5    1.02    0.37 
 -10   2   5    1.23    0.29 
   9  -2  -5    0.90    0.28 
   9  -2  -5    1.02    0.34 
  -9   2   5    1.46    0.31 
  -9   2   5    1.45    0.24 
  -9   2   5    1.45    0.22 
   8  -2  -5    2.00    0.35 
   8  -2  -5    1.82    0.42 
  -8   2   5    3.08    0.31 
  -8   2   5    3.08    0.38 
   7  -2  -5   10.01    0.64 
  -7   2   5    7.94    0.54 
  -7   2   5    7.84    0.52 
   6  -2  -5    1.36    0.23 
   6  -2  -5    1.51    0.27 
  -5   2   5   13.01    0.72 
  -5   2   5   13.11    0.71 
   4  -2  -5    1.51    0.26 
   4  -2  -5    1.05    0.18 
  -4   2   5    1.29    0.19 
  -4   2   5    1.38    0.18 
  -4   2   5    1.80    0.23 
  -4   2   5    1.35    0.20 
  -3   2   5    2.26    0.21 
  -3   2   5    2.23    0.19 
  -3   2   5    2.53    0.25 
   2  -2  -5    0.89    0.17 
   2  -2  -5    0.79    0.14 
  -2   2   5    1.45    0.17 
  -2   2   5    1.37    0.15 
   1  -2  -5    8.54    0.48 
   1  -2  -5    8.58    0.45 
   1  -2  -5    8.24    0.51 
   0  -2  -5   81.92    3.93 
   0  -2  -5   81.64    3.92 
   0   2   5   77.87    3.94 
   0   2   5   76.21    3.92 
   0   2   5   76.66    3.91 
  -2  -2  -5   47.00    2.26 
  -2  -2  -5   48.50    2.27 
   2   2   5   43.57    2.25 
   2   2   5   42.68    2.26 
   2   2   5   42.65    2.26 
  -3  -2  -5    4.06    0.32 
  -3  -2  -5    4.12    0.33 
   3   2   5    4.28    0.32 
   3   2   5    4.35    0.32 
   3   2   5    4.35    0.30 
  -4  -2  -5   13.40    0.70 
  -4  -2  -5   13.11    0.71 
   4   2   5   11.71    0.70 
   4   2   5   11.69    0.70 
   4   2   5   11.51    0.68 
  -5  -2  -5    1.30    0.23 
   5   2   5    1.59    0.27 
   5   2   5    1.42    0.22 
   5   2   5    1.19    0.19 
   6   2   5    7.50    0.53 
   6   2   5    7.65    0.57 
   6   2   5    7.58    0.52 
   7   2   5    0.99    0.27 
   7   2   5    0.94    0.25 
   7   2   5    0.96    0.22 
   8   2   5    2.38    0.36 
   8   2   5    2.29    0.41 
   8   2   5    3.36    0.44 
  10  -3  -5    2.11    0.45 
   9  -3  -5   13.02    0.95 
   8  -3  -5    2.09    0.37 
   8  -3  -5    2.16    0.47 
  -8   3   5    2.89    0.33 
  -8   3   5    2.62    0.40 
   7  -3  -5   15.16    1.00 
  -7   3   5   17.27    0.92 
   6  -3  -5   39.17    2.25 
  -6   3   5   44.48    2.19 
  -6   3   5   45.01    2.18 
   5  -3  -5   13.80    0.79 
   5  -3  -5   13.71    0.88 
  -5   3   5   15.34    0.82 
  -5   3   5   15.51    0.81 
  -5   3   5   15.46    0.80 
   4  -3  -5  137.16    6.87 
   4  -3  -5  134.25    6.79 
  -4   3   5  138.11    6.86 
  -4   3   5  139.75    6.80 
  -4   3   5  135.31    6.82 
  -4   3   5  140.53    6.82 
   3  -3  -5   33.61    1.65 
   3  -3  -5   34.44    1.73 
  -3   3   5   31.81    1.65 
  -3   3   5   31.66    1.71 
  -3   3   5   31.61    1.67 
   2  -3  -5   67.80    3.40 
   2  -3  -5   67.02    3.39 
   2  -3  -5   65.84    3.47 
  -2   3   5   68.94    3.42 
  -2   3   5   70.05    3.40 
  -2   3   5   71.05    3.46 
   1  -3  -5   59.15    2.80 
   1  -3  -5   53.94    2.77 
   1  -3  -5   56.96    2.77 
  -1   3   5   54.86    2.83 
  -1   3   5   54.13    2.79 
  -1   3   5   54.25    2.77 
   0   3   5    3.47    0.28 
   0   3   5    3.24    0.32 
   0   3   5    3.65    0.25 
  -1  -3  -5   51.59    2.69 
  -1  -3  -5   50.37    2.67 
  -1  -3  -5   50.26    2.69 
   1   3   5   57.79    2.73 
   1   3   5   55.56    2.67 
   1   3   5   54.97    2.69 
  -2  -3  -5    4.40    0.33 
  -2  -3  -5    4.09    0.30 
  -2  -3  -5    4.46    0.32 
   2   3   5    3.63    0.29 
   2   3   5    3.60    0.31 
   2   3   5    3.41    0.28 
  -3  -3  -5   40.34    2.13 
  -3  -3  -5   40.73    2.13 
   3   3   5   42.64    2.14 
   3   3   5   42.86    2.12 
   3   3   5   42.56    2.13 
  -4  -3  -5   12.71    0.71 
  -4  -3  -5   12.37    0.70 
   4   3   5   11.90    0.69 
   4   3   5   11.53    0.70 
   4   3   5   11.80    0.74 
  -5  -3  -5    4.00    0.42 
   5   3   5    5.19    0.42 
   5   3   5    5.29    0.40 
   5   3   5    5.47    0.42 
   6   3   5   10.50    0.89 
   6   3   5   12.08    0.74 
   6   3   5   12.34    0.74 
   7   3   5    1.32    0.26 
   7   3   5    1.25    0.30 
   7   3   5    1.27    0.29 
   8   3   5    9.87    0.70 
   8   3   5    9.16    0.77 
   9  -4  -5    3.92    0.62 
   8  -4  -5    4.03    0.57 
  -8   4   5    3.07    0.55 
   7  -4  -5    9.41    0.59 
   7  -4  -5    9.51    0.76 
  -7   4   5    8.30    0.69 
   6  -4  -5    4.06    0.32 
   6  -4  -5    4.46    0.52 
  -6   4   5    3.01    0.35 
  -6   4   5    3.14    0.34 
  -6   4   5    3.38    0.33 
   5  -4  -5    6.63    0.58 
   5  -4  -5    6.97    0.41 
  -5   4   5    5.47    0.42 
   4  -4  -5    1.72    0.32 
   4  -4  -5    1.66    0.21 
  -4   4   5    1.75    0.26 
  -4   4   5    1.82    0.23 
   3  -4  -5    2.53    0.22 
   3  -4  -5    2.21    0.40 
  -3   4   5    2.34    0.26 
  -3   4   5    2.77    0.28 
  -3   4   5    2.44    0.23 
   2  -4  -5    1.19    0.19 
  -2   4   5    0.69    0.22 
  -2   4   5    0.75    0.16 
  -2   4   5    0.72    0.13 
   1  -4  -5    9.31    0.52 
   1  -4  -5    9.70    0.49 
   1  -4  -5    9.48    0.53 
  -1   4   5    7.43    0.57 
  -1   4   5    8.34    0.48 
  -1   4   5    8.04    0.49 
  -1   4   5    8.10    0.52 
   0   4   5    8.85    0.54 
  -1  -4  -5    0.16    0.11 
  -1  -4  -5    0.29    0.17 
  -1  -4  -5    0.23    0.14 
   1   4   5    0.12    0.17 
   1   4   5    0.12    0.11 
   1   4   5    0.13    0.12 
   1   4   5    0.08    0.10 
   2   4   5    5.46    0.39 
   2   4   5    5.29    0.35 
   2   4   5    4.64    0.39 
   2   4   5    4.51    0.43 
  -3  -4  -5    1.36    0.21 
  -3  -4  -5    1.11    0.20 
  -3  -4  -5    1.43    0.27 
   3   4   5    0.93    0.17 
   3   4   5    1.00    0.20 
   3   4   5    0.87    0.16 
   4   4   5    4.10    0.36 
   4   4   5    4.06    0.35 
   4   4   5    4.21    0.38 
  -5  -4  -5    1.98    0.39 
  -5  -4  -5    1.69    0.30 
   5   4   5    1.06    0.21 
   5   4   5    1.01    0.22 
   5   4   5    1.05    0.23 
  -6  -4  -5    4.65    0.50 
   6   4   5    3.65    0.48 
   6   4   5    3.45    0.42 
   6   4   5    3.65    0.41 
  -7  -4  -5    1.40    0.34 
   7   4   5    0.86    0.27 
   7   4   5    0.92    0.26 
   8  -5  -5    3.52    0.63 
  -8   5   5    3.68    0.42 
   7  -5  -5   12.69    0.99 
  -7   5   5   14.19    0.84 
  -7   5   5   13.75    0.82 
   6  -5  -5    7.15    0.52 
   6  -5  -5    7.43    0.76 
  -6   5   5    9.11    0.54 
  -6   5   5    8.82    0.57 
   5  -5  -5    6.00    0.64 
   5  -5  -5    5.78    0.39 
  -5   5   5    5.57    0.38 
  -5   5   5    5.71    0.45 
  -5   5   5    5.72    0.40 
   4  -5  -5   13.95    0.99 
  -4   5   5   15.45    0.81 
  -4   5   5   15.48    0.85 
  -4   5   5   15.73    0.88 
  -3   5   5    5.88    0.44 
  -3   5   5    5.78    0.39 
  -3   5   5    5.91    0.41 
  -3   5   5    5.78    0.38 
   2  -5  -5    4.33    0.32 
  -2   5   5    5.36    0.37 
  -2   5   5    5.81    0.41 
  -2   5   5    5.35    0.34 
  -2   5   5    5.14    0.36 
   1  -5  -5   26.91    1.42 
   1  -5  -5   27.14    1.48 
  -1   5   5   28.38    1.48 
  -1   5   5   29.40    1.44 
  -1   5   5   28.69    1.44 
   0  -5  -5    0.35    0.12 
   0  -5  -5    0.38    0.20 
   0   5   5    0.02    0.11 
   0   5   5   -0.04    0.14 
   0   5   5   -0.01    0.13 
   0   5   5    0.04    0.09 
  -1  -5  -5   19.39    1.17 
  -1  -5  -5   18.48    1.10 
   1   5   5   22.83    1.12 
   1   5   5   22.42    1.15 
   1   5   5   22.72    1.11 
  -2  -5  -5    4.86    0.44 
  -2  -5  -5    4.84    0.51 
   2   5   5    4.74    0.46 
   2   5   5    4.17    0.34 
   2   5   5    4.06    0.33 
   2   5   5    4.44    0.39 
  -3  -5  -5    8.65    0.67 
  -3  -5  -5    8.79    0.63 
   3   5   5    9.64    0.88 
   3   5   5   10.46    0.60 
   3   5   5   10.14    0.63 
   3   5   5   10.66    0.59 
  -4  -5  -5    6.41    0.55 
   4   5   5    5.82    0.43 
   4   5   5    5.57    0.47 
   4   5   5    5.35    0.45 
  -5  -5  -5    1.86    0.35 
   5   5   5    2.55    0.37 
   5   5   5    2.65    0.34 
  -6  -5  -5    1.82    0.36 
   6   5   5    2.60    0.37 
   6   5   5    2.44    0.39 
   6  -6  -5    2.36    0.48 
  -6   6   5    1.97    0.38 
   5  -6  -5    7.06    0.72 
  -5   6   5    5.41    0.51 
  -4   6   5    4.15    0.42 
  -4   6   5    3.72    0.42 
  -3   6   5    6.80    0.52 
  -3   6   5    7.84    0.55 
  -2   6   5    1.26    0.22 
  -2   6   5    1.18    0.24 
   1  -6  -5   11.30    0.70 
  -1   6   5   10.48    0.67 
  -1   6   5    9.76    0.61 
  -1   6   5   10.23    0.65 
  -1   6   5   10.24    0.57 
  -1   6   5   10.71    0.59 
   0  -6  -5    4.60    0.47 
   0   6   5    3.50    0.27 
   0   6   5    3.51    0.35 
   0   6   5    3.48    0.34 
   0   6   5    3.84    0.40 
  -1  -6  -5    2.85    0.44 
   1   6   5    2.63    0.34 
   1   6   5    2.51    0.25 
   1   6   5    2.85    0.34 
   2   6   5    5.92    0.47 
   2   6   5    5.62    0.39 
   2   6   5    5.84    0.49 
  -3  -6  -5    0.86    0.33 
   3   6   5    0.78    0.23 
   3   6   5    0.80    0.17 
   4   6   5    2.09    0.40 
   4   6   5    2.80    0.32 
  -3   7   5    0.17    0.26 
  -2   7   5    4.44    0.48 
  -1   7   5    1.29    0.28 
   0  -7  -5    0.66    0.37 
   0   7   5    0.40    0.27 
  -1  -7  -5    1.86    0.43 
   1   7   5    2.24    0.33 
   1   7   5    2.22    0.25 
  -2  -7   6    3.94    0.51 
  -1  -7   6    1.38    0.30 
   6   6  -6    6.05    0.43 
  -6  -6   6    5.20    0.55 
  -6  -6   6    5.86    0.54 
   5   6  -6    2.88    0.30 
  -5  -6   6    3.19    0.43 
  -5  -6   6    2.96    0.41 
   4   6  -6    1.92    0.41 
   4   6  -6    1.71    0.25 
  -4  -6   6    1.60    0.28 
   3   6  -6    4.70    0.33 
   3   6  -6    4.67    0.57 
  -3  -6   6    4.42    0.46 
   2   6  -6    0.51    0.29 
   2   6  -6    0.60    0.13 
  -2  -6   6    1.18    0.23 
   1   6  -6    2.75    0.43 
  -1  -6   6    3.04    0.40 
   0   6  -6    5.22    0.50 
   0  -6   6    5.61    0.48 
  -1   6  -6    1.81    0.32 
   1  -6   6    2.50    0.35 
   1  -6   6    2.12    0.29 
  -2   6  -6    1.98    0.42 
   2  -6   6    2.34    0.37 
  -3   6  -6    0.66    0.22 
   3  -6   6    1.40    0.27 
   4  -6   6    0.22    0.23 
   8   5  -6   -0.01    0.29 
  -8  -5   6    0.26    0.31 
  -8  -5   6    0.55    0.29 
  -7  -5   6    3.89    0.49 
  -7  -5   6    4.48    0.51 
   6   5  -6    0.78    0.17 
  -6  -5   6    0.56    0.24 
  -6  -5   6    0.64    0.24 
   5   5  -6    0.94    0.17 
  -5  -5   6    1.59    0.27 
  -5  -5   6    1.57    0.25 
   4   5  -6    1.59    0.23 
   4   5  -6    1.47    0.29 
  -4  -5   6    1.89    0.32 
  -4  -5   6    2.11    0.34 
  -4  -5   6    2.23    0.21 
   3   5  -6   11.98    0.73 
   3   5  -6   12.09    0.64 
  -3  -5   6   11.18    0.70 
  -3  -5   6   10.89    0.63 
   2   5  -6    8.43    0.59 
   2   5  -6    8.83    0.50 
   1   5  -6   12.75    0.70 
   1   5  -6   11.86    0.62 
  -1  -5   6   10.46    0.70 
  -1  -5   6   10.57    0.64 
   0   5  -6    4.61    0.34 
   0   5  -6    4.36    0.37 
   0   5  -6    4.24    0.29 
  -1   5  -6    5.58    0.44 
  -1   5  -6    6.62    0.43 
   1  -5   6    5.35    0.46 
   1  -5   6    4.04    0.57 
  -2   5  -6    3.86    0.29 
  -2   5  -6    3.27    0.49 
  -2   5  -6    3.92    0.28 
   2  -5   6    4.19    0.38 
  -3   5  -6    2.51    0.29 
   3  -5   6    2.66    0.35 
  -4   5  -6    9.10    0.58 
   4  -5   6    8.43    0.61 
  -5   5  -6    0.78    0.28 
   5  -5   6    1.55    0.27 
   9   4  -6    4.57    0.45 
  -9  -4   6    3.54    0.53 
  -9  -4   6    4.04    0.55 
   8   4  -6    9.75    0.60 
  -8  -4   6    8.12    0.65 
  -8  -4   6    7.90    0.74 
  -8  -4   6    8.42    0.65 
   7   4  -6    2.13    0.30 
  -7  -4   6    2.29    0.37 
  -7  -4   6    2.11    0.39 
   6   4  -6   18.11    0.97 
  -6  -4   6   16.84    0.96 
  -6  -4   6   17.96    1.01 
  -6  -4   6   18.58    1.03 
   5   4  -6    1.85    0.24 
  -5  -4   6    1.64    0.29 
  -5  -4   6    1.62    0.30 
   4   4  -6    7.99    0.49 
   4   4  -6    8.32    0.56 
  -4  -4   6    9.15    0.59 
   3   4  -6   15.84    0.81 
   3   4  -6   16.18    0.88 
  -3  -4   6   13.42    0.85 
  -2  -4   6    9.75    0.51 
  -2  -4   6    9.11    0.51 
  -2  -4   6    9.00    0.57 
   1   4  -6   18.49    1.01 
   1   4  -6   20.29    0.95 
   1   4  -6   19.93    0.92 
   1   4  -6   19.35    0.95 
  -1  -4   6   14.71    0.95 
  -1  -4   6   15.15    0.91 
  -1  -4   6   14.76    0.90 
   0   4  -6    8.83    0.58 
   0   4  -6    8.97    0.56 
   0   4  -6    9.16    0.55 
   0  -4   6   11.39    0.58 
   0  -4   6   11.11    0.67 
   0  -4   6   11.58    0.55 
  -1   4  -6   14.75    0.76 
  -1   4  -6   14.31    0.74 
   1  -4   6   13.00    0.72 
   1  -4   6   13.48    0.76 
   1  -4   6   13.29    0.80 
  -2   4  -6    8.83    0.53 
  -2   4  -6    9.06    0.54 
   2  -4   6   10.12    0.54 
   2  -4   6   10.04    0.53 
   2  -4   6   10.02    0.59 
   2  -4   6   10.02    0.61 
  -3   4  -6    5.09    0.45 
  -3   4  -6    5.57    0.39 
  -3   4  -6    5.29    0.48 
   3  -4   6    6.61    0.39 
   3  -4   6    6.84    0.45 
  -4   4  -6    4.78    0.37 
  -4   4  -6    4.99    0.35 
  -4   4  -6    5.19    0.39 
   4  -4   6    4.69    0.41 
   4  -4   6    4.44    0.43 
   4  -4   6    4.49    0.37 
   4  -4   6    4.41    0.32 
  -5   4  -6    5.62    0.48 
   5  -4   6    6.76    0.51 
   5  -4   6    6.70    0.48 
   5  -4   6    6.54    0.55 
  -6   4  -6    3.31    0.45 
   6  -4   6    2.26    0.32 
   6  -4   6    2.53    0.52 
   7  -4   6    2.81    0.64 
  10   3  -6    1.99    0.34 
 -10  -3   6    1.82    0.42 
   9   3  -6    2.66    0.43 
  -9  -3   6    4.48    0.53 
  -9  -3   6    3.85    0.46 
   8   3  -6    5.66    0.44 
  -8  -3   6    4.23    0.42 
  -8  -3   6    4.51    0.47 
  -7  -3   6    6.33    0.44 
  -7  -3   6    6.36    0.49 
  -7  -3   6    6.37    0.43 
   6   3  -6    5.70    0.40 
  -6  -3   6    5.76    0.39 
  -6  -3   6    5.56    0.36 
  -6  -3   6    5.65    0.44 
  -5  -3   6    1.95    0.29 
  -5  -3   6    2.32    0.28 
  -5  -3   6    1.95    0.21 
   4   3  -6    5.50    0.38 
   4   3  -6    5.41    0.42 
  -4  -3   6    6.30    0.38 
  -4  -3   6    6.20    0.42 
  -4  -3   6    6.48    0.42 
   3   3  -6   12.11    0.70 
   3   3  -6   12.06    0.66 
  -3  -3   6   12.19    0.69 
  -3  -3   6   12.18    0.66 
  -3  -3   6   12.22    0.70 
  -3  -3   6   12.36    0.63 
   2   3  -6    4.95    0.36 
   2   3  -6    4.87    0.41 
  -2  -3   6    6.56    0.36 
  -2  -3   6    6.64    0.34 
  -2  -3   6    6.66    0.41 
   1   3  -6   22.91    1.11 
   1   3  -6   22.98    1.16 
   1   3  -6   22.66    1.11 
  -1  -3   6   19.91    1.14 
  -1  -3   6   20.81    1.11 
  -1  -3   6   20.44    1.11 
   0   3  -6   20.73    1.12 
   0   3  -6   21.03    1.16 
   0   3  -6   20.14    1.08 
   0   3  -6   20.43    1.10 
   0  -3   6   22.09    1.14 
   0  -3   6   22.80    1.11 
   0  -3   6   23.28    1.11 
  -1   3  -6   22.36    1.14 
  -1   3  -6   22.37    1.10 
  -1   3  -6   22.56    1.13 
   1  -3   6   20.55    1.15 
   1  -3   6   21.78    1.12 
   1  -3   6   21.53    1.14 
  -2   3  -6   23.25    1.20 
  -2   3  -6   23.22    1.18 
  -2   3  -6   23.64    1.22 
   2  -3   6   23.18    1.20 
   2  -3   6   22.99    1.23 
   2  -3   6   23.09    1.22 
   2  -3   6   23.59    1.20 
  -3   3  -6    6.21    0.49 
  -3   3  -6    7.99    0.46 
  -3   3  -6    7.91    0.43 
   3  -3   6    6.94    0.44 
   3  -3   6    6.74    0.44 
   3  -3   6    6.56    0.46 
  -4   3  -6   26.09    1.30 
  -4   3  -6   26.41    1.29 
   4  -3   6   23.32    1.29 
   4  -3   6   24.11    1.30 
   4  -3   6   23.75    1.31 
  -5   3  -6    4.53    0.38 
  -5   3  -6    4.81    0.40 
  -5   3  -6    4.67    0.38 
   5  -3   6    5.30    0.44 
   5  -3   6    5.03    0.42 
   5  -3   6    4.89    0.42 
  -6   3  -6    7.15    0.50 
   6  -3   6    5.80    0.50 
   6  -3   6    6.13    0.56 
   7  -3   6    5.82    0.62 
   7  -3   6    6.36    0.53 
  10   2  -6    4.67    0.56 
 -10  -2   6    4.28    0.57 
 -10  -2   6    4.23    0.61 
   9   2  -6    9.45    0.65 
  -9  -2   6    8.91    0.66 
  -9  -2   6    9.28    0.68 
   8   2  -6   31.59    1.52 
  -8  -2   6   28.19    1.52 
  -8  -2   6   27.11    1.52 
  -8  -2   6   27.17    1.48 
   7   2  -6    3.61    0.34 
  -7  -2   6    3.45    0.35 
  -7  -2   6    3.38    0.30 
  -7  -2   6    3.33    0.33 
   6   2  -6  100.52    4.80 
  -6  -2   6   94.73    4.80 
  -6  -2   6   93.67    4.80 
  -6  -2   6   95.89    4.77 
   5   2  -6   12.14    0.91 
   5   2  -6   15.28    0.80 
  -5  -2   6   15.04    0.80 
  -5  -2   6   15.16    0.76 
  -5  -2   6   15.13    0.81 
   4   2  -6  100.82    4.81 
   4   2  -6  101.99    4.83 
  -4  -2   6   94.65    4.81 
  -4  -2   6   92.38    4.82 
  -4  -2   6   94.67    4.78 
   3   2  -6   81.61    4.01 
   3   2  -6   81.31    4.00 
  -3  -2   6   79.68    4.01 
  -3  -2   6   78.92    4.00 
   2   2  -6   29.50    1.43 
   2   2  -6   29.09    1.45 
  -2  -2   6   28.22    1.41 
  -2  -2   6   27.39    1.43 
  -2  -2   6   26.59    1.44 
   1   2  -6   36.96    1.81 
   1   2  -6   35.99    1.78 
  -1  -2   6   35.39    1.78 
  -1  -2   6   34.29    1.77 
  -1  -2   6   33.72    1.79 
   0   2  -6   13.39    0.77 
   0   2  -6   13.64    0.78 
   0  -2   6   16.43    0.78 
   0  -2   6   15.16    0.82 
   0  -2   6   15.30    0.80 
  -1   2  -6   20.20    1.06 
  -1   2  -6   20.63    1.04 
   1  -2   6   20.61    1.07 
   1  -2   6   20.53    1.08 
   1  -2   6   20.99    1.06 
  -2   2  -6   19.51    1.02 
  -2   2  -6   18.94    1.02 
  -2   2  -6   19.18    1.00 
   2  -2   6   19.67    1.03 
   2  -2   6   19.61    1.04 
   2  -2   6   20.64    1.02 
  -3   2  -6    3.19    0.27 
  -3   2  -6    3.32    0.27 
  -3   2  -6    3.48    0.25 
   3  -2   6    3.08    0.25 
   3  -2   6    3.18    0.28 
   3  -2   6    2.94    0.25 
   3  -2   6    2.76    0.28 
  -4   2  -6   14.23    0.83 
  -4   2  -6   14.63    0.79 
  -4   2  -6   14.36    0.77 
   4  -2   6   13.93    0.80 
   4  -2   6   13.19    0.76 
   4  -2   6   14.84    0.78 
  -5   2  -6    2.01    0.26 
  -5   2  -6    1.88    0.29 
  -5   2  -6    1.63    0.28 
   5  -2   6    2.43    0.22 
   5  -2   6    2.18    0.30 
   5  -2   6    2.25    0.34 
   5  -2   6    2.47    0.31 
  -6   2  -6    4.27    0.37 
   6  -2   6    4.08    0.33 
   6  -2   6    4.33    0.41 
   6  -2   6    4.94    0.45 
   6  -2   6    4.26    0.46 
  -7   2  -6    0.80    0.27 
   7  -2   6    1.51    0.26 
   7  -2   6    1.28    0.33 
   7  -2   6    1.14    0.34 
   8  -2   6    4.12    0.62 
   8  -2   6    3.68    0.46 
  10   1  -6    4.42    0.56 
 -10  -1   6    3.87    0.62 
 -10  -1   6    3.42    0.49 
   9   1  -6    3.37    0.58 
  -9  -1   6    4.08    0.48 
  -9  -1   6    4.02    0.42 
   8   1  -6    9.13    0.61 
  -8  -1   6    8.98    0.61 
  -8  -1   6    9.59    0.58 
  -8  -1   6    8.65    0.49 
   7   1  -6   21.82    1.20 
  -7  -1   6   22.33    1.13 
  -7  -1   6   22.71    1.19 
  -7  -1   6   22.90    1.21 
   6   1  -6    8.25    0.53 
  -6  -1   6    9.40    0.53 
  -6  -1   6    9.10    0.54 
  -6  -1   6    8.89    0.47 
   5   1  -6   44.22    2.11 
  -5  -1   6   42.85    2.12 
  -5  -1   6   39.09    2.07 
  -5  -1   6   40.92    2.10 
   4   1  -6   18.25    0.94 
   4   1  -6   18.18    0.93 
  -4  -1   6   17.65    0.94 
  -4  -1   6   17.37    0.93 
   3   1  -6  114.82    5.59 
   3   1  -6  114.28    5.59 
  -3  -1   6  111.89    5.59 
  -3  -1   6  110.53    5.57 
   2   1  -6    4.90    0.29 
   2   1  -6    4.83    0.28 
  -2  -1   6    3.81    0.27 
  -2  -1   6    3.65    0.24 
  -2  -1   6    3.72    0.27 
   1   1  -6   64.20    3.05 
   1   1  -6   62.59    3.07 
  -1  -1   6   58.58    3.07 
  -1  -1   6   59.87    3.05 
  -1  -1   6   62.84    3.07 
   0   1  -6   52.57    2.42 
   0   1  -6   52.02    2.43 
   0  -1   6   46.38    2.41 
   0  -1   6   45.34    2.43 
   0  -1   6   46.71    2.43 
  -1   1  -6   26.52    1.29 
  -1   1  -6   26.72    1.31 
  -1   1  -6   26.39    1.30 
   1  -1   6   24.34    1.30 
   1  -1   6   24.69    1.30 
   1  -1   6   24.69    1.29 
  -2   1  -6   73.57    3.50 
  -2   1  -6   72.13    3.51 
  -2   1  -6   73.18    3.49 
   2  -1   6   65.33    3.55 
   2  -1   6   68.82    3.50 
   2  -1   6   68.64    3.50 
  -3   1  -6    5.90    0.40 
  -3   1  -6    6.47    0.42 
  -3   1  -6    6.17    0.40 
   3  -1   6    7.25    0.40 
   3  -1   6    7.13    0.42 
   3  -1   6    7.12    0.43 
  -4   1  -6   72.26    3.66 
  -4   1  -6   73.72    3.68 
  -4   1  -6   73.30    3.67 
   4  -1   6   72.24    3.68 
   4  -1   6   76.08    3.67 
   4  -1   6   73.26    3.68 
  -5   1  -6    9.96    0.62 
  -5   1  -6    9.33    0.61 
   5  -1   6   11.36    0.62 
   5  -1   6   11.71    0.65 
   5  -1   6   11.65    0.67 
  -6   1  -6   14.86    0.86 
  -6   1  -6   15.41    0.86 
   6  -1   6   16.18    0.92 
   6  -1   6   15.41    0.88 
   6  -1   6   15.41    0.85 
   7  -1   6    6.13    0.60 
   7  -1   6    6.01    0.49 
  -8   1  -6    4.96    0.57 
   8  -1   6    4.24    0.69 
   8  -1   6    5.07    0.50 
  11   0  -6   28.76    1.68 
 -11   0   6   28.85    1.59 
  10   0  -6    3.77    0.57 
  10   0  -6    3.84    0.55 
 -10   0   6    4.11    0.47 
 -10   0   6    4.71    0.65 
 -10   0   6    3.54    0.41 
   9   0  -6   34.27    1.80 
   9   0  -6   34.78    1.85 
  -9   0   6   33.36    1.75 
  -9   0   6   32.95    1.73 
  -9   0   6   33.88    1.81 
   8   0  -6   22.10    1.20 
   8   0  -6   22.66    1.25 
  -8   0   6   21.60    1.14 
  -8   0   6   22.34    1.22 
  -8   0   6   21.75    1.16 
   7   0  -6   14.64    0.82 
   7   0  -6   15.28    0.87 
  -7   0   6   15.10    0.83 
  -7   0   6   14.35    0.78 
  -7   0   6   13.73    0.77 
   6   0  -6   92.83    4.78 
   6   0  -6   97.23    4.81 
  -6   0   6   94.30    4.75 
  -6   0   6   96.79    4.75 
  -6   0   6   98.98    4.79 
   5   0  -6   17.96    0.96 
   5   0  -6   18.68    0.99 
  -5   0   6   18.70    0.97 
  -5   0   6   17.79    0.94 
  -5   0   6   18.14    0.93 
   4   0  -6  108.06    5.42 
   4   0  -6  110.75    5.43 
  -4   0   6  109.12    5.42 
   3   0  -6  157.88    7.81 
   3   0  -6  155.51    7.79 
   3   0  -6  160.30    7.81 
  -3   0   6  160.48    7.81 
  -3   0   6  156.41    7.80 
   2   0  -6    7.51    0.43 
   2   0  -6    7.50    0.41 
   2   0  -6    7.73    0.43 
  -2   0   6    7.63    0.42 
  -2   0   6    7.67    0.43 
   1   0  -6  147.32    7.36 
   1   0  -6  145.51    7.37 
   1   0  -6  149.43    7.36 
  -1   0   6  148.64    7.36 
  -1   0   6  151.21    7.37 
  -1   0   6  154.46    7.40 
  -1   0   6  148.61    7.37 
   0   0  -6    1.12    0.15 
   0   0  -6    1.13    0.14 
   0   0   6    1.25    0.15 
   0   0   6    1.10    0.14 
   0   0   6    1.25    0.15 
  -1   0  -6  182.00    8.84 
  -1   0  -6  173.06    8.84 
   1   0   6  178.27    8.83 
   1   0   6  184.32    8.84 
   1   0   6  175.10    8.84 
   1   0   6  182.28    8.83 
  -2   0  -6   18.28    0.94 
  -2   0  -6   17.52    0.93 
  -2   0  -6   17.78    0.96 
   2   0   6   18.66    0.95 
   2   0   6   18.03    0.93 
   2   0   6   18.74    0.95 
  -3   0  -6   39.49    1.98 
  -3   0  -6   38.96    1.96 
  -3   0  -6   38.94    1.99 
   3   0   6   38.81    1.99 
   3   0   6   40.35    1.99 
   3   0   6   38.68    1.99 
  -4   0  -6    7.59    0.50 
  -4   0  -6    8.12    0.48 
  -4   0  -6    7.83    0.46 
   4   0   6    7.86    0.50 
   4   0   6    8.32    0.48 
   4   0   6    8.05    0.52 
  -5   0  -6    4.01    0.30 
  -5   0  -6    4.01    0.32 
  -5   0  -6    3.83    0.37 
   5   0   6    3.49    0.44 
   5   0   6    3.81    0.32 
   5   0   6    3.78    0.39 
  -6   0  -6    6.56    0.50 
  -6   0  -6    6.61    0.44 
  -6   0  -6    6.59    0.45 
   6   0   6    6.12    0.46 
   6   0   6    6.71    0.45 
   6   0   6    5.93    0.53 
  -7   0  -6    0.16    0.21 
   7   0   6    0.25    0.29 
   7   0   6    0.19    0.17 
   7   0   6    0.16    0.20 
  -8   0  -6    5.60    0.55 
   8   0   6    6.84    0.54 
   8   0   6    6.33    0.71 
  10  -1  -6    3.57    0.58 
  10  -1  -6    3.49    0.56 
 -10   1   6    4.60    0.65 
 -10   1   6    4.24    0.45 
   9  -1  -6    4.06    0.47 
   9  -1  -6    3.47    0.50 
  -9   1   6    2.80    0.43 
  -9   1   6    3.19    0.37 
  -9   1   6    3.33    0.34 
   8  -1  -6    9.45    0.60 
   8  -1  -6    9.06    0.67 
  -8   1   6    9.25    0.56 
  -8   1   6    8.88    0.62 
  -8   1   6    9.14    0.53 
   7  -1  -6   22.59    1.18 
   7  -1  -6   22.01    1.26 
  -7   1   6   21.24    1.15 
  -7   1   6   22.49    1.20 
   6  -1  -6    9.22    0.54 
   6  -1  -6    9.30    0.60 
  -6   1   6    8.22    0.54 
   5  -1  -6   41.36    2.23 
   5  -1  -6   42.40    2.20 
  -5   1   6   46.40    2.21 
  -5   1   6   43.98    2.19 
   4  -1  -6   16.99    0.93 
   4  -1  -6   17.64    0.96 
  -4   1   6   18.42    0.94 
  -4   1   6   18.03    0.93 
   3  -1  -6  106.47    5.53 
   3  -1  -6  110.40    5.56 
  -3   1   6  115.21    5.54 
  -3   1   6  115.10    5.54 
   2  -1  -6    3.59    0.28 
   2  -1  -6    3.78    0.30 
  -2   1   6    4.85    0.29 
  -2   1   6    4.65    0.28 
  -2   1   6    5.21    0.30 
   1  -1  -6   60.51    3.08 
   1  -1  -6   60.92    3.07 
   1  -1  -6   59.57    3.07 
  -1   1   6   62.83    3.07 
  -1   1   6   63.30    3.08 
  -1   1   6   62.70    3.07 
   0  -1  -6   46.34    2.55 
   0  -1  -6   45.17    2.55 
   0   1   6   53.33    2.53 
   0   1   6   51.53    2.55 
   0   1   6   54.17    2.56 
   0   1   6   55.71    2.56 
  -1  -1  -6   24.06    1.32 
  -1  -1  -6   25.59    1.32 
   1   1   6   26.17    1.29 
   1   1   6   25.41    1.32 
   1   1   6   26.38    1.32 
   1   1   6   26.55    1.32 
  -2  -1  -6   69.22    3.61 
   2   1   6   72.98    3.61 
   2   1   6   74.61    3.60 
  -3  -1  -6    6.61    0.36 
  -3  -1  -6    7.30    0.41 
  -3  -1  -6    6.91    0.43 
   3   1   6    5.82    0.42 
   3   1   6    6.15    0.42 
   3   1   6    5.99    0.40 
  -4  -1  -6   72.58    3.66 
  -4  -1  -6   73.48    3.62 
  -4  -1  -6   76.19    3.68 
   4   1   6   73.56    3.68 
   4   1   6   70.22    3.67 
  -5  -1  -6   11.58    0.58 
  -5  -1  -6   11.94    0.68 
  -5  -1  -6   11.47    0.63 
   5   1   6    9.41    0.65 
   5   1   6    9.84    0.67 
   5   1   6    9.93    0.63 
  -6  -1  -6   15.26    0.85 
  -6  -1  -6   15.86    0.82 
   6   1   6   14.74    0.91 
   6   1   6   15.02    0.87 
   6   1   6   15.04    0.86 
  -7  -1  -6    6.28    0.67 
   7   1   6    6.38    0.53 
   7   1   6    6.82    0.51 
   7   1   6    6.61    0.60 
   8   1   6    4.96    0.50 
   8   1   6    4.33    0.67 
  10  -2  -6    3.72    0.57 
   9  -2  -6    8.29    0.71 
   9  -2  -6    8.76    0.66 
  -9   2   6    9.18    0.69 
  -9   2   6    8.82    0.60 
   8  -2  -6   26.93    1.61 
   8  -2  -6   27.73    1.54 
  -8   2   6   32.32    1.57 
  -8   2   6   30.04    1.53 
   7  -2  -6    3.14    0.43 
   7  -2  -6    3.48    0.35 
  -7   2   6    3.28    0.37 
  -7   2   6    3.40    0.31 
   6  -2  -6   95.06    4.90 
   6  -2  -6   96.02    4.96 
  -6   2   6  102.36    4.91 
  -6   2   6  100.48    4.90 
   5  -2  -6   15.14    0.83 
   5  -2  -6   15.52    0.90 
  -5   2   6   15.20    0.83 
  -5   2   6   15.87    0.84 
  -5   2   6   15.15    0.84 
   4  -2  -6   93.38    4.88 
   4  -2  -6   93.29    4.83 
  -4   2   6   98.59    4.84 
  -4   2   6  102.96    4.84 
  -4   2   6   98.89    4.88 
   3  -2  -6   79.64    4.00 
   3  -2  -6   81.72    4.04 
  -3   2   6   82.70    4.04 
  -3   2   6   79.76    4.01 
  -3   2   6   78.64    4.00 
   2  -2  -6   27.31    1.48 
   2  -2  -6   26.47    1.43 
  -2   2   6   29.55    1.47 
  -2   2   6   28.98    1.44 
  -2   2   6   28.80    1.45 
   1  -2  -6   33.82    1.79 
   1  -2  -6   33.76    1.78 
  -1   2   6   35.21    1.79 
  -1   2   6   37.08    1.81 
  -1   2   6   36.01    1.78 
   0  -2  -6   16.47    0.79 
   0  -2  -6   16.29    0.81 
   0   2   6   13.81    0.80 
   0   2   6   13.69    0.78 
   0   2   6   13.93    0.81 
  -1  -2  -6   20.56    1.09 
   1   2   6   21.05    1.08 
   1   2   6   20.64    1.09 
   1   2   6   21.30    1.12 
  -2  -2  -6   19.83    1.06 
  -2  -2  -6   19.87    1.05 
   2   2   6   19.67    1.04 
   2   2   6   20.28    1.06 
  -3  -2  -6    3.01    0.31 
  -3  -2  -6    3.27    0.31 
   3   2   6    3.68    0.29 
   3   2   6    3.66    0.31 
   3   2   6    3.68    0.31 
  -4  -2  -6   13.45    0.81 
   4   2   6   14.38    0.81 
   4   2   6   14.37    0.79 
   5   2   6    1.99    0.30 
   5   2   6    1.39    0.24 
   5   2   6    1.82    0.30 
   6   2   6    4.06    0.42 
   6   2   6    3.81    0.40 
   6   2   6    4.18    0.46 
   7   2   6    0.79    0.28 
   7   2   6    0.66    0.24 
   7   2   6    0.65    0.30 
   8   2   6    2.51    0.42 
   8   2   6    2.50    0.45 
   8   2   6    3.40    0.48 
   9  -3  -6    3.55    0.55 
   8  -3  -6    4.30    0.56 
  -8   3   6    5.55    0.51 
  -8   3   6    5.41    0.44 
   7  -3  -6    6.26    0.57 
   7  -3  -6    5.99    0.46 
   6  -3  -6    5.51    0.52 
  -6   3   6    5.90    0.41 
  -6   3   6    5.79    0.43 
  -6   3   6    6.03    0.43 
  -5   3   6    0.39    0.13 
  -5   3   6    0.39    0.18 
  -5   3   6    0.44    0.15 
  -5   3   6    0.60    0.27 
   4  -3  -6    6.60    0.49 
  -4   3   6    5.54    0.38 
  -4   3   6    5.81    0.44 
  -4   3   6    5.24    0.40 
   3  -3  -6   12.10    0.75 
  -3   3   6   12.06    0.66 
  -3   3   6   11.64    0.71 
  -3   3   6   12.18    0.68 
   2  -3  -6    6.20    0.33 
   2  -3  -6    6.08    0.46 
  -2   3   6    5.15    0.37 
  -2   3   6    4.75    0.41 
  -2   3   6    5.08    0.35 
   1  -3  -6   20.74    1.12 
   1  -3  -6   20.60    1.15 
  -1   3   6   22.73    1.15 
  -1   3   6   22.44    1.18 
  -1   3   6   22.14    1.13 
   0  -3  -6   22.16    1.12 
   0  -3  -6   22.61    1.14 
   0  -3  -6   21.79    1.11 
   0   3   6   20.24    1.16 
   0   3   6   20.65    1.13 
   0   3   6   20.41    1.10 
  -1  -3  -6   21.82    1.16 
  -1  -3  -6   21.87    1.18 
  -1  -3  -6   22.04    1.17 
   1   3   6   21.96    1.17 
   1   3   6   22.66    1.22 
   1   3   6   23.07    1.16 
  -2  -3  -6   24.15    1.25 
  -2  -3  -6   23.84    1.23 
   2   3   6   23.12    1.22 
   2   3   6   22.96    1.23 
   2   3   6   23.10    1.24 
  -3  -3  -6    6.91    0.49 
   3   3   6    7.64    0.47 
   3   3   6    7.93    0.48 
   3   3   6    6.28    0.62 
  -4  -3  -6   24.38    1.37 
   4   3   6   25.61    1.37 
   4   3   6   25.95    1.35 
   4   3   6   26.77    1.38 
  -5  -3  -6    5.22    0.39 
   5   3   6    4.43    0.41 
   5   3   6    4.35    0.43 
   5   3   6    4.62    0.42 
   6   3   6    8.03    0.60 
   6   3   6    7.80    0.60 
   6   3   6    7.72    0.58 
   7   3   6    6.27    0.53 
   7   3   6    5.52    0.63 
   7   3   6    6.36    0.61 
   9  -4  -6    3.96    0.61 
   8  -4  -6    7.64    0.77 
  -8   4   6    9.59    0.61 
   7  -4  -6    2.19    0.35 
   7  -4  -6    2.25    0.51 
  -7   4   6    2.29    0.34 
  -7   4   6    2.58    0.37 
   6  -4  -6   16.59    0.95 
   6  -4  -6   17.16    1.08 
  -6   4   6   18.15    0.98 
  -6   4   6   18.56    0.97 
  -6   4   6   16.16    1.06 
   5  -4  -6    1.79    0.35 
   5  -4  -6    1.70    0.26 
  -5   4   6    1.89    0.29 
  -5   4   6    1.75    0.28 
   4  -4  -6   10.95    0.72 
   4  -4  -6   10.85    0.56 
  -4   4   6    8.46    0.59 
  -4   4   6    8.23    0.56 
   3  -4  -6   14.10    0.80 
   3  -4  -6   12.66    0.99 
  -3   4   6   16.02    0.90 
  -3   4   6   16.00    0.81 
  -3   4   6   15.95    0.85 
   2  -4  -6    9.32    0.54 
   2  -4  -6    9.60    0.54 
   1  -4  -6   15.09    0.96 
   1  -4  -6   14.92    0.94 
  -1   4   6   19.11    0.99 
  -1   4   6   20.00    1.04 
  -1   4   6   19.88    0.94 
  -1   4   6   19.54    0.96 
   0  -4  -6   11.36    0.60 
   0  -4  -6   11.56    0.63 
   0  -4  -6   11.37    0.62 
   0   4   6    9.51    0.67 
   0   4   6    9.35    0.62 
   0   4   6    9.15    0.59 
  -1  -4  -6   13.99    0.81 
  -1  -4  -6   13.25    0.80 
   1   4   6   14.50    0.86 
   1   4   6   14.52    0.78 
   1   4   6   13.59    0.85 
   1   4   6   14.85    0.78 
  -2  -4  -6    8.56    0.63 
  -2  -4  -6   10.15    0.61 
   2   4   6    8.87    0.55 
   2   4   6    9.37    0.64 
   2   4   6    9.29    0.58 
   2   4   6    8.79    0.55 
  -3  -4  -6    7.03    0.46 
  -3  -4  -6    7.27    0.52 
  -3  -4  -6    6.45    0.48 
   3   4   6    5.47    0.43 
   3   4   6    5.95    0.47 
   3   4   6    5.71    0.44 
  -4  -4  -6    4.15    0.41 
  -4  -4  -6    4.47    0.48 
   4   4   6    5.33    0.42 
   4   4   6    5.12    0.43 
   4   4   6    4.48    0.40 
  -5  -4  -6    6.73    0.56 
   5   4   6    5.60    0.48 
   5   4   6    5.70    0.49 
   5   4   6    5.90    0.52 
  -6  -4  -6    2.65    0.48 
   6   4   6    3.24    0.41 
   6   4   6    3.42    0.43 
  -7  -4  -6    3.10    0.52 
   7   4   6    2.50    0.41 
   7   4   6    2.21    0.37 
  -7   5   6    2.77    0.37 
   6  -5  -6    0.54    0.21 
   6  -5  -6    0.76    0.36 
  -6   5   6    0.84    0.22 
  -6   5   6    0.78    0.21 
   5  -5  -6    1.66    0.38 
   5  -5  -6    1.60    0.21 
  -5   5   6    1.15    0.22 
  -5   5   6    1.12    0.22 
   4  -5  -6    2.04    0.26 
   4  -5  -6    2.29    0.50 
  -4   5   6    1.62    0.28 
  -4   5   6    1.80    0.32 
  -4   5   6    1.81    0.34 
   3  -5  -6   11.13    0.65 
  -3   5   6   11.80    0.68 
  -3   5   6   11.56    0.68 
  -3   5   6   12.29    0.67 
  -3   5   6   12.16    0.72 
  -2   5   6    8.72    0.53 
  -2   5   6    8.73    0.57 
   1  -5  -6   10.45    0.70 
   1  -5  -6   10.38    0.64 
  -1   5   6   11.56    0.63 
  -1   5   6   12.10    0.70 
  -1   5   6   12.32    0.66 
  -1   5   6   12.43    0.79 
   0   5   6    4.29    0.37 
   0   5   6    4.14    0.31 
   0   5   6    4.15    0.44 
   0   5   6    4.76    0.40 
  -1  -5  -6    5.52    0.50 
  -1  -5  -6    5.13    0.44 
  -1  -5  -6    5.63    0.42 
   1   5   6    5.93    0.39 
   1   5   6    5.97    0.44 
   1   5   6    6.15    0.41 
   1   5   6    6.38    0.53 
  -2  -5  -6    4.31    0.39 
  -2  -5  -6    4.33    0.46 
  -2  -5  -6    3.88    0.38 
   2   5   6    3.85    0.33 
   2   5   6    4.12    0.40 
   2   5   6    3.61    0.45 
   2   5   6    4.05    0.36 
  -3  -5  -6    2.81    0.44 
   3   5   6    2.64    0.34 
   3   5   6    2.78    0.36 
   3   5   6    2.52    0.30 
  -4  -5  -6    8.35    0.72 
   4   5   6    9.63    0.64 
   4   5   6   10.28    0.77 
   4   5   6    9.26    0.61 
  -5  -5  -6    1.22    0.34 
   5   5   6    0.61    0.23 
   5   5   6    0.99    0.25 
  -6  -5  -6    0.89    0.37 
   6  -6  -6    5.04    0.79 
  -6   6   6    6.27    0.52 
  -5   6   6    3.37    0.43 
  -5   6   6    3.13    0.36 
  -4   6   6    2.06    0.30 
  -4   6   6    1.60    0.29 
  -4   6   6    1.99    0.36 
  -3   6   6    4.82    0.44 
  -3   6   6    4.99    0.38 
  -3   6   6    4.74    0.45 
  -2   6   6    0.49    0.21 
  -2   6   6    0.60    0.17 
  -2   6   6    0.63    0.21 
  -2   6   6    0.47    0.12 
   1  -6  -6    2.87    0.44 
  -1   6   6    3.17    0.34 
  -1   6   6    2.95    0.38 
  -1   6   6    2.62    0.32 
  -1   6   6    2.67    0.24 
   0  -6  -6    6.15    0.55 
   0   6   6    4.86    0.35 
   0   6   6    4.93    0.44 
   0   6   6    5.04    0.46 
   1   6   6    1.41    0.23 
   1   6   6    1.77    0.33 
   1   6   6    1.93    0.27 
  -2  -6  -6    1.99    0.39 
   2   6   6    2.32    0.27 
   2   6   6    2.20    0.30 
   3   6   6    0.66    0.24 
   3   6   6    0.83    0.18 
  -4  -6  -6    0.79    0.40 
   4   6   6    0.59    0.26 
  -2   7   6    3.73    0.49 
  -1   7   6    1.17    0.28 
   0  -7  -6    1.86    0.43 
   0   7   6    1.05    0.27 
   0   7   6    1.49    0.23 
   5   6  -7    3.01    0.32 
  -5  -6   7    2.96    0.45 
   4   6  -7    2.44    0.45 
   4   6  -7    2.28    0.28 
  -4  -6   7    3.01    0.43 
   3   6  -7    6.44    0.63 
   3   6  -7    5.83    0.39 
  -3  -6   7    5.14    0.51 
   2   6  -7    0.58    0.30 
   2   6  -7    0.71    0.15 
  -2  -6   7    0.77    0.24 
   1   6  -7    3.35    0.45 
  -1  -6   7    3.00    0.42 
   0  -6   7    5.11    0.45 
   0  -6   7    5.14    0.48 
   1  -6   7    0.26    0.21 
   1  -6   7    0.36    0.23 
   2  -6   7    7.00    0.58 
   3  -6   7    1.68    0.32 
   7   5  -7    0.78    0.19 
  -7  -5   7    0.61    0.28 
  -7  -5   7    0.73    0.28 
   6   5  -7    4.11    0.36 
  -6  -5   7    4.54    0.47 
  -6  -5   7    4.55    0.47 
   5   5  -7    1.08    0.18 
  -5  -5   7    1.04    0.25 
  -5  -5   7    0.86    0.24 
   4   5  -7    1.91    0.25 
   3   5  -7    0.89    0.16 
   3   5  -7    0.58    0.23 
   3   5  -7    0.79    0.26 
  -3  -5   7    1.52    0.24 
  -3  -5   7    1.17    0.17 
   2   5  -7    3.48    0.62 
  -2  -5   7    5.22    0.32 
  -2  -5   7    5.00    0.35 
  -2  -5   7    4.90    0.44 
   1   5  -7    6.03    0.43 
   1   5  -7    6.35    0.54 
  -1  -5   7    7.77    0.42 
  -1  -5   7    8.22    0.48 
  -1  -5   7    7.82    0.54 
   0   5  -7    0.84    0.15 
   0   5  -7    1.04    0.20 
   0   5  -7    0.40    0.23 
   0   5  -7    0.67    0.17 
   0  -5   7    1.53    0.25 
  -1   5  -7    6.52    0.39 
  -1   5  -7    5.68    0.42 
  -2   5  -7    0.43    0.14 
   2  -5   7    0.52    0.19 
  -3   5  -7    6.48    0.46 
  -3   5  -7    6.11    0.43 
   3  -5   7    7.90    0.53 
  -4   5  -7    0.23    0.25 
   4  -5   7    0.08    0.20 
   5  -5   7    6.22    0.54 
  -9  -4   7    1.21    0.37 
  -9  -4   7    1.00    0.33 
   8   4  -7    5.03    0.43 
  -8  -4   7    4.21    0.51 
  -8  -4   7    4.50    0.53 
   7   4  -7    1.61    0.29 
  -7  -4   7    1.69    0.30 
  -7  -4   7    1.49    0.28 
   6   4  -7    4.73    0.46 
   6   4  -7    4.60    0.38 
  -6  -4   7    5.19    0.44 
  -6  -4   7    5.12    0.46 
   5   4  -7   15.04    0.81 
  -5  -4   7   13.92    0.85 
  -5  -4   7   14.75    0.85 
   4   4  -7    1.14    0.17 
  -4  -4   7    1.64    0.23 
   3   4  -7   30.45    1.49 
   3   4  -7   29.94    1.55 
  -3  -4   7   28.18    1.45 
  -3  -4   7   26.95    1.52 
   2   4  -7   16.60    0.89 
   2   4  -7   16.70    0.96 
   2   4  -7   16.53    0.91 
  -2  -4   7   17.09    0.89 
  -2  -4   7   17.49    0.88 
  -2  -4   7   15.70    0.93 
   1   4  -7   21.28    1.06 
   1   4  -7   21.31    1.06 
   1   4  -7   20.88    1.13 
  -1  -4   7   19.51    1.06 
  -1  -4   7   19.12    1.11 
  -1  -4   7   19.49    1.05 
   0   4  -7   35.50    1.73 
   0   4  -7   36.77    1.75 
   0  -4   7   33.29    1.79 
   0  -4   7   32.78    1.74 
   0  -4   7   33.58    1.76 
  -1   4  -7    5.41    0.35 
   1  -4   7    4.90    0.38 
   1  -4   7    4.97    0.43 
  -2   4  -7   33.70    1.67 
  -2   4  -7   34.53    1.70 
   2  -4   7   33.34    1.75 
   2  -4   7   31.80    1.72 
   2  -4   7   32.75    1.70 
  -3   4  -7    4.95    0.39 
  -3   4  -7    4.84    0.37 
  -3   4  -7    4.63    0.37 
   3  -4   7    5.77    0.41 
   3  -4   7    5.25    0.35 
   3  -4   7    5.39    0.43 
  -4   4  -7    4.08    0.38 
  -4   4  -7    3.88    0.34 
   4  -4   7    3.36    0.39 
   4  -4   7    3.25    0.40 
  -5   4  -7    9.93    0.68 
   5  -4   7    9.86    0.69 
   5  -4   7   10.58    0.69 
   6  -4   7    1.42    0.28 
   6  -4   7    1.52    0.60 
   9   3  -7    2.74    0.43 
  -9  -3   7    4.34    0.61 
  -9  -3   7    3.62    0.50 
   8   3  -7    9.44    0.62 
  -8  -3   7    9.04    0.61 
  -8  -3   7    9.35    0.66 
  -7  -3   7    3.04    0.38 
  -7  -3   7    2.57    0.30 
  -7  -3   7    2.76    0.30 
  -6  -3   7   12.36    0.72 
  -6  -3   7   12.77    0.76 
  -6  -3   7   13.11    0.76 
   5   3  -7    6.10    0.40 
   5   3  -7    6.36    0.45 
  -5  -3   7    5.97    0.44 
  -5  -3   7    5.29    0.42 
  -5  -3   7    5.43    0.38 
  -4  -3   7    5.82    0.42 
  -4  -3   7    5.84    0.38 
  -4  -3   7    6.01    0.43 
  -3  -3   7    2.75    0.29 
  -3  -3   7    2.71    0.24 
  -3  -3   7    2.95    0.20 
  -2  -3   7    9.01    0.49 
  -2  -3   7    8.79    0.51 
  -2  -3   7    8.75    0.55 
   1   3  -7    8.26    0.58 
   1   3  -7    8.13    0.53 
  -1  -3   7   10.00    0.53 
  -1  -3   7    9.95    0.57 
  -1  -3   7   10.47    0.53 
   0   3  -7    1.85    0.22 
   0   3  -7    1.90    0.28 
   0   3  -7    1.80    0.23 
   0  -3   7    2.61    0.29 
   0  -3   7    2.66    0.23 
   0  -3   7    2.72    0.23 
  -1   3  -7    2.13    0.18 
  -1   3  -7    1.86    0.23 
  -1   3  -7    2.08    0.23 
  -1   3  -7    1.95    0.29 
  -2   3  -7    0.66    0.15 
  -2   3  -7    0.71    0.12 
  -2   3  -7    0.66    0.15 
   2  -3   7    0.59    0.18 
   2  -3   7    0.81    0.17 
  -3   3  -7    0.68    0.15 
  -3   3  -7    0.75    0.18 
  -3   3  -7    0.87    0.15 
   3  -3   7    0.73    0.18 
   3  -3   7    0.86    0.19 
  -4   3  -7    0.43    0.17 
  -4   3  -7    0.12    0.18 
  -4   3  -7    0.36    0.16 
   4  -3   7    0.92    0.23 
  -5   3  -7    1.72    0.31 
  -5   3  -7    1.98    0.31 
  -5   3  -7    1.65    0.24 
   5  -3   7    1.30    0.26 
   5  -3   7    1.36    0.25 
   6  -3   7    5.35    0.48 
   6  -3   7    5.11    0.52 
   7  -3   7    0.45    0.38 
   7  -3   7    0.21    0.23 
  10   2  -7    9.99    0.75 
 -10  -2   7   10.26    0.77 
 -10  -2   7    9.05    0.73 
   9   2  -7    4.44    0.49 
  -9  -2   7    5.93    0.52 
  -9  -2   7    5.00    0.46 
  -9  -2   7    5.80    0.60 
   8   2  -7    7.30    0.56 
  -8  -2   7    8.38    0.58 
  -8  -2   7    8.24    0.53 
  -8  -2   7    8.34    0.57 
   7   2  -7   11.91    0.78 
  -7  -2   7   13.09    0.75 
  -7  -2   7   13.24    0.75 
   6   2  -7    8.58    0.57 
  -6  -2   7    9.45    0.53 
  -6  -2   7    9.43    0.58 
  -6  -2   7    9.72    0.57 
   5   2  -7   72.10    3.65 
   5   2  -7   73.36    3.64 
  -5  -2   7   74.22    3.65 
  -5  -2   7   71.13    3.64 
   4   2  -7    0.27    0.14 
   4   2  -7    0.31    0.12 
  -4  -2   7    0.07    0.09 
  -4  -2   7    0.10    0.13 
   3   2  -7   98.07    4.88 
   3   2  -7   97.45    4.86 
  -3  -2   7   96.73    4.87 
  -3  -2   7   99.20    4.86 
   2   2  -7   14.59    0.77 
   2   2  -7   14.74    0.75 
  -2  -2   7   12.76    0.75 
  -2  -2   7   13.29    0.74 
   1   2  -7   30.07    1.51 
   1   2  -7   27.89    1.56 
  -1  -2   7   30.78    1.51 
  -1  -2   7   29.32    1.52 
   0   2  -7   58.29    2.76 
   0   2  -7   56.09    2.75 
   0   2  -7   56.31    2.72 
   0  -2   7   53.73    2.75 
   0  -2   7   52.39    2.76 
   0  -2   7   52.57    2.74 
  -1   2  -7    0.54    0.13 
  -1   2  -7    0.64    0.13 
  -1   2  -7    0.53    0.10 
   1  -2   7    0.47    0.13 
   1  -2   7    0.36    0.14 
   1  -2   7    0.42    0.11 
  -2   2  -7  112.54    5.52 
  -2   2  -7  114.18    5.55 
  -2   2  -7  110.50    5.54 
   2  -2   7  110.84    5.54 
   2  -2   7  110.53    5.56 
   2  -2   7  111.73    5.55 
  -3   2  -7   26.44    1.42 
  -3   2  -7   26.36    1.41 
  -3   2  -7   25.41    1.43 
   3  -2   7   28.75    1.44 
   3  -2   7   29.37    1.39 
   3  -2   7   28.55    1.42 
   3  -2   7   27.89    1.44 
  -4   2  -7   30.08    1.48 
  -4   2  -7   30.64    1.47 
  -4   2  -7   30.54    1.49 
   4  -2   7   26.20    1.48 
   4  -2   7   27.12    1.46 
   4  -2   7   26.63    1.48 
   4  -2   7   26.69    1.45 
  -5   2  -7   20.56    1.10 
  -5   2  -7   20.57    1.13 
   5  -2   7   21.84    1.11 
   5  -2   7   19.99    1.09 
   5  -2   7   19.88    1.14 
   5  -2   7   20.40    1.13 
  -6   2  -7    1.60    0.25 
  -6   2  -7    2.39    0.36 
  -6   2  -7    1.71    0.26 
   6  -2   7    1.33    0.32 
   6  -2   7    1.57    0.26 
   6  -2   7    1.25    0.29 
   7  -2   7   10.17    0.69 
   7  -2   7    9.87    0.75 
  10   1  -7    8.30    0.66 
 -10  -1   7    6.03    0.60 
 -10  -1   7    6.25    0.72 
   9   1  -7    0.80    0.27 
  -9  -1   7    0.78    0.28 
  -9  -1   7    1.05    0.26 
   8   1  -7   23.26    1.12 
  -8  -1   7   19.92    1.12 
  -8  -1   7   19.14    1.08 
  -8  -1   7   18.17    1.02 
   7   1  -7    5.51    0.40 
  -7  -1   7    4.38    0.29 
  -7  -1   7    4.89    0.40 
  -7  -1   7    4.36    0.36 
   6   1  -7   31.43    1.59 
  -6  -1   7   31.26    1.60 
  -6  -1   7   29.25    1.54 
  -6  -1   7   30.68    1.57 
   5   1  -7   26.24    1.36 
   5   1  -7   26.11    1.37 
  -5  -1   7   25.96    1.35 
  -5  -1   7   27.65    1.38 
   3   1  -7   16.66    0.89 
   3   1  -7   16.27    0.89 
   3   1  -7   17.00    0.88 
  -3  -1   7   17.29    0.86 
  -3  -1   7   17.03    0.89 
   2   1  -7    9.80    0.61 
   2   1  -7    9.34    0.61 
  -2  -1   7   12.85    0.62 
  -2  -1   7   12.97    0.63 
   1   1  -7   36.11    1.85 
   1   1  -7   35.95    1.83 
  -1  -1   7   36.05    1.85 
  -1  -1   7   36.87    1.83 
  -1  -1   7   37.94    1.85 
   0  -1   7    0.65    0.11 
   0  -1   7    0.72    0.13 
   0  -1   7    1.01    0.15 
  -1   1  -7   20.41    1.22 
  -1   1  -7   20.52    1.20 
  -1   1  -7   20.40    1.21 
   1  -1   7   26.89    1.22 
   1  -1   7   26.93    1.23 
   1  -1   7   27.41    1.23 
  -2   1  -7    0.28    0.10 
  -2   1  -7    0.24    0.13 
  -2   1  -7    0.19    0.10 
   2  -1   7    0.27    0.12 
   2  -1   7    0.44    0.12 
   2  -1   7    0.39    0.11 
  -3   1  -7   13.44    0.86 
  -3   1  -7   13.68    0.84 
   3  -1   7   18.36    0.86 
   3  -1   7   17.83    0.87 
   4  -1   7    1.07    0.16 
   4  -1   7    1.30    0.20 
   4  -1   7    1.28    0.22 
  -5   1  -7    9.60    0.59 
  -5   1  -7    9.87    0.63 
  -5   1  -7    9.41    0.58 
   5  -1   7    9.75    0.61 
   5  -1   7    9.94    0.66 
   5  -1   7    9.50    0.58 
  -6   1  -7    4.75    0.43 
  -6   1  -7    4.29    0.36 
   6  -1   7    3.10    0.32 
   6  -1   7    3.26    0.50 
   6  -1   7    3.01    0.39 
   7  -1   7    0.64    0.23 
   7  -1   7    0.75    0.35 
   8  -1   7    0.74    0.40 
   8  -1   7    1.05    0.28 
  10   0  -7    8.44    0.73 
  10   0  -7    8.39    0.71 
 -10   0   7    8.77    0.81 
 -10   0   7    8.64    0.63 
   9   0  -7   18.84    1.13 
   9   0  -7   18.06    1.06 
  -9   0   7   19.10    1.10 
  -9   0   7   18.26    1.01 
  -9   0   7   17.87    0.99 
   8   0  -7   14.26    0.88 
   8   0  -7   13.66    0.82 
  -8   0   7   13.57    0.76 
  -8   0   7   14.12    0.77 
  -8   0   7   13.40    0.84 
   7   0  -7   30.41    1.55 
   7   0  -7   29.68    1.61 
  -7   0   7   29.41    1.50 
  -7   0   7   29.09    1.56 
  -7   0   7   29.13    1.50 
   6   0  -7   15.64    0.85 
   6   0  -7   15.84    0.89 
  -6   0   7   14.81    0.81 
  -6   0   7   15.93    0.87 
  -6   0   7   15.21    0.81 
   5   0  -7   65.40    3.25 
   5   0  -7   63.83    3.22 
  -5   0   7   63.79    3.23 
   4   0  -7    6.21    0.40 
   4   0  -7    6.00    0.35 
   4   0  -7    6.32    0.39 
  -4   0   7    6.03    0.37 
  -4   0   7    6.27    0.40 
   3   0  -7   72.51    3.63 
   3   0  -7   74.48    3.61 
   3   0  -7   71.99    3.62 
  -3   0   7   72.16    3.61 
  -3   0   7   72.62    3.63 
   2   0  -7  118.33    5.96 
   2   0  -7  119.35    5.95 
   2   0  -7  120.89    5.95 
  -2   0   7  123.58    5.97 
  -2   0   7  119.92    5.95 
   1   0  -7   84.98    4.12 
   1   0  -7   82.43    4.13 
  -1   0   7   82.82    4.12 
  -1   0   7   81.94    4.11 
  -1   0   7   83.91    4.12 
  -1   0   7   82.43    4.13 
   0   0  -7  166.66    8.40 
   0   0  -7  172.24    8.39 
   0   0   7  176.16    8.38 
   0   0   7  166.58    8.38 
   0   0   7  164.29    8.38 
   0   0   7  173.53    8.40 
  -1   0  -7   29.79    1.47 
  -1   0  -7   28.79    1.48 
   1   0   7   27.61    1.45 
   1   0   7   29.15    1.48 
   1   0   7   28.96    1.46 
   1   0   7   29.02    1.47 
  -2   0  -7  143.24    7.13 
  -2   0  -7  142.58    7.10 
   2   0   7  141.64    7.12 
   2   0   7  148.25    7.12 
   2   0   7  143.88    7.11 
  -3   0  -7   25.13    1.33 
  -3   0  -7   25.36    1.30 
  -3   0  -7   24.42    1.28 
   3   0   7   25.72    1.31 
   3   0   7   25.08    1.32 
   3   0   7   25.52    1.33 
  -4   0  -7   29.15    1.50 
  -4   0  -7   29.33    1.47 
  -4   0  -7   29.16    1.52 
   4   0   7   28.32    1.52 
   4   0   7   29.29    1.50 
   4   0   7   28.10    1.51 
  -5   0  -7   38.27    2.26 
  -5   0  -7   46.20    2.29 
  -5   0  -7   45.12    2.26 
   5   0   7   46.60    2.30 
   5   0   7   45.08    2.26 
   5   0   7   44.22    2.26 
  -6   0  -7    6.81    0.49 
  -6   0  -7    7.30    0.56 
  -6   0  -7    7.58    0.50 
   6   0   7    7.42    0.61 
   6   0   7    7.24    0.50 
   6   0   7    7.06    0.53 
  -7   0  -7   21.85    1.17 
   7   0   7   20.87    1.19 
   7   0   7   21.46    1.28 
   8   0   7    0.66    0.26 
   8   0   7    0.47    0.46 
  10  -1  -7    5.90    0.67 
  10  -1  -7    5.97    0.64 
   9  -1  -7    1.25    0.33 
   9  -1  -7    0.84    0.29 
  -9   1   7    0.52    0.21 
  -9   1   7    0.78    0.30 
   8  -1  -7   19.76    1.25 
   8  -1  -7   19.85    1.19 
  -8   1   7   24.52    1.23 
  -8   1   7   23.23    1.16 
   7  -1  -7    4.44    0.46 
   7  -1  -7    4.82    0.42 
  -7   1   7    5.35    0.37 
  -7   1   7    5.60    0.43 
   6  -1  -7   30.50    1.64 
   6  -1  -7   30.49    1.59 
  -6   1   7   30.68    1.58 
  -6   1   7   31.55    1.61 
   5  -1  -7   27.27    1.41 
   5  -1  -7   26.51    1.37 
  -5   1   7   25.21    1.36 
  -5   1   7   26.36    1.37 
   3  -1  -7   16.98    0.89 
   3  -1  -7   17.06    0.91 
  -3   1   7   16.45    0.88 
  -3   1   7   16.51    0.89 
   2  -1  -7   12.94    0.62 
   2  -1  -7   12.63    0.62 
   2  -1  -7   12.52    0.64 
  -2   1   7    9.79    0.61 
  -2   1   7    9.60    0.62 
  -2   1   7    9.66    0.61 
   1  -1  -7   38.03    1.89 
   1  -1  -7   36.29    1.89 
  -1   1   7   38.84    1.89 
  -1   1   7   36.89    1.89 
  -1   1   7   36.34    1.88 
   0   1   7    1.09    0.15 
   0   1   7    1.40    0.19 
   0   1   7    1.24    0.18 
   0   1   7    1.48    0.18 
  -1  -1  -7   25.42    1.17 
   1   1   7   20.83    1.12 
   1   1   7   19.70    1.12 
   1   1   7   21.17    1.09 
   1   1   7   20.71    1.12 
  -2  -1  -7    0.27    0.14 
  -2  -1  -7    0.15    0.12 
   2   1   7    0.20    0.13 
   2   1   7    0.19    0.11 
   3   1   7   13.48    0.78 
   3   1   7   13.92    0.76 
   3   1   7   13.55    0.77 
  -4  -1  -7    0.89    0.20 
  -4  -1  -7    1.14    0.21 
  -4  -1  -7    0.88    0.12 
  -5  -1  -7    9.68    0.58 
  -5  -1  -7    9.33    0.54 
  -5  -1  -7   10.07    0.66 
   5   1   7    9.95    0.67 
   5   1   7    9.56    0.60 
   5   1   7    9.38    0.63 
  -6  -1  -7    3.37    0.47 
   6   1   7    4.82    0.42 
   6   1   7    5.01    0.44 
   6   1   7    4.58    0.51 
   6   1   7    4.66    0.42 
  -7  -1  -7    0.76    0.35 
   7   1   7    1.14    0.26 
   7   1   7    0.87    0.32 
   7   1   7    0.90    0.26 
   8   1   7    1.49    0.31 
   8   1   7    1.26    0.46 
  10  -2  -7    9.29    0.80 
   9  -2  -7    4.67    0.58 
   9  -2  -7    5.44    0.57 
  -9   2   7    4.92    0.48 
  -9   2   7    4.77    0.59 
   8  -2  -7    8.40    0.60 
   8  -2  -7    8.45    0.67 
  -8   2   7    7.06    0.61 
   7  -2  -7   13.77    0.89 
   7  -2  -7   13.55    0.80 
  -7   2   7   13.69    0.78 
  -7   2   7   14.09    0.82 
   6  -2  -7    7.32    0.81 
   6  -2  -7    9.43    0.54 
  -6   2   7    8.43    0.55 
  -6   2   7    8.23    0.52 
   5  -2  -7   70.68    3.58 
   5  -2  -7   68.45    3.52 
  -5   2   7   70.21    3.54 
  -5   2   7   72.83    3.54 
   4  -2  -7    0.11    0.12 
   4  -2  -7    0.03    0.17 
  -4   2   7    0.24    0.13 
  -4   2   7    0.33    0.13 
  -4   2   7    0.40    0.16 
   3  -2  -7   98.06    4.84 
   3  -2  -7   96.47    4.79 
  -3   2   7   97.24    4.80 
  -3   2   7   91.07    4.86 
  -3   2   7   99.71    4.80 
   2  -2  -7   13.41    0.80 
   2  -2  -7   12.68    0.76 
   2  -2  -7   12.97    0.75 
  -2   2   7   14.74    0.76 
  -2   2   7   15.57    0.79 
  -2   2   7   14.18    0.76 
   1  -2  -7   30.11    1.56 
   1  -2  -7   30.65    1.55 
  -1   2   7   29.99    1.55 
  -1   2   7   30.72    1.56 
  -1   2   7   30.21    1.58 
   0  -2  -7   54.22    2.85 
   0  -2  -7   53.30    2.84 
   0   2   7   56.82    2.80 
   0   2   7   59.34    2.86 
   0   2   7   58.64    2.84 
   0   2   7   57.28    2.85 
  -1  -2  -7    0.36    0.14 
  -1  -2  -7    0.52    0.13 
   1   2   7    0.52    0.14 
   1   2   7    0.45    0.16 
   1   2   7    0.57    0.13 
  -2  -2  -7  111.14    5.62 
  -2  -2  -7  111.16    5.62 
   2   2   7  114.84    5.63 
   2   2   7  115.02    5.61 
  -3  -2  -7   28.03    1.43 
  -3  -2  -7   27.59    1.42 
   3   2   7   26.47    1.41 
   3   2   7   26.81    1.43 
   3   2   7   26.55    1.43 
  -4  -2  -7   27.93    1.54 
   4   2   7   29.74    1.54 
   4   2   7   28.14    1.56 
   4   2   7   30.43    1.54 
  -5  -2  -7   20.43    1.12 
   5   2   7   19.63    1.10 
   5   2   7   17.37    1.19 
   5   2   7   20.37    1.08 
   6   2   7    1.59    0.27 
   6   2   7    1.61    0.30 
   6   2   7    1.59    0.26 
   7   2   7   11.15    0.83 
   7   2   7   11.32    0.74 
   9  -3  -7    3.78    0.56 
   8  -3  -7    9.11    0.66 
  -8   3   7    9.29    0.68 
  -8   3   7    9.40    0.69 
   7  -3  -7    2.61    0.40 
   7  -3  -7    2.67    0.45 
  -7   3   7    2.10    0.32 
  -7   3   7    2.19    0.38 
  -7   3   7    2.11    0.31 
   6  -3  -7   12.58    0.67 
   6  -3  -7   12.38    0.78 
  -6   3   7   10.11    0.68 
  -6   3   7   10.16    0.67 
   5  -3  -7    5.01    0.41 
   5  -3  -7    5.37    0.52 
  -5   3   7    6.07    0.43 
  -5   3   7    6.39    0.43 
  -5   3   7    6.42    0.48 
  -5   3   7    6.23    0.41 
  -4   3   7    2.53    0.32 
  -4   3   7    2.82    0.29 
  -4   3   7    2.89    0.28 
   3  -3  -7    3.25    0.40 
  -3   3   7    4.09    0.32 
  -3   3   7    4.18    0.33 
  -3   3   7    4.50    0.37 
  -2   3   7    6.16    0.46 
  -2   3   7    6.23    0.41 
  -2   3   7    6.37    0.42 
   1  -3  -7    8.94    0.54 
   1  -3  -7   10.06    0.54 
  -1   3   7    7.87    0.51 
  -1   3   7    7.74    0.55 
  -1   3   7    7.54    0.50 
   0  -3  -7    2.69    0.26 
   0  -3  -7    2.94    0.30 
   0   3   7    1.81    0.24 
   0   3   7    2.02    0.30 
   0   3   7    1.84    0.27 
   1   3   7    2.21    0.27 
   1   3   7    2.03    0.25 
   1   3   7    2.21    0.32 
  -2  -3  -7    0.52    0.17 
   2   3   7    0.62    0.17 
   2   3   7    0.73    0.16 
   2   3   7    1.05    0.24 
   2   3   7    0.70    0.17 
  -3  -3  -7    0.71    0.21 
   3   3   7    0.80    0.18 
   3   3   7    0.93    0.19 
   3   3   7    0.61    0.18 
  -4  -3  -7    1.04    0.25 
   4   3   7    0.47    0.19 
   4   3   7    0.53    0.20 
   4   3   7    0.45    0.20 
  -5  -3  -7    1.32    0.30 
   5   3   7    2.22    0.38 
   5   3   7    1.64    0.27 
   5   3   7    1.51    0.28 
   6   3   7    3.56    0.50 
   6   3   7    3.73    0.44 
   6   3   7    3.66    0.51 
   7   3   7   -0.06    0.32 
   7   3   7   -0.16    0.22 
   8  -4  -7    4.46    0.63 
  -8   4   7    5.20    0.47 
   7  -4  -7    1.29    0.26 
   7  -4  -7    1.09    0.35 
  -7   4   7    1.49    0.28 
  -7   4   7    1.52    0.27 
   6  -4  -7    4.89    0.42 
   6  -4  -7    5.72    0.59 
  -6   4   7    4.90    0.44 
  -6   4   7    4.71    0.42 
   5  -4  -7   13.39    0.82 
   5  -4  -7   14.85    0.97 
  -5   4   7   15.60    0.83 
  -5   4   7   14.13    0.90 
  -5   4   7   15.40    0.86 
  -5   4   7   15.23    0.84 
   4  -4  -7    1.88    0.26 
  -4   4   7    1.28    0.20 
  -4   4   7    1.10    0.21 
   3  -4  -7   28.76    1.62 
   3  -4  -7   27.53    1.51 
  -3   4   7   30.42    1.54 
  -3   4   7   30.35    1.51 
   2  -4  -7   16.60    0.91 
   2  -4  -7   17.01    0.90 
  -2   4   7   16.77    0.91 
  -2   4   7   17.26    0.99 
  -2   4   7   16.72    0.94 
   1  -4  -7   19.13    1.08 
   1  -4  -7   19.88    1.09 
  -1   4   7   21.14    1.12 
  -1   4   7   21.44    1.17 
  -1   4   7   21.23    1.09 
  -1   4   7   20.46    1.05 
   0  -4  -7   33.41    1.81 
   0   4   7   35.39    1.82 
   0   4   7   35.70    1.87 
   0   4   7   35.86    1.80 
  -1  -4  -7    4.75    0.40 
  -1  -4  -7    5.37    0.45 
   1   4   7    5.59    0.39 
   1   4   7    5.82    0.49 
   1   4   7    5.67    0.40 
  -2  -4  -7   33.30    1.79 
  -2  -4  -7   32.56    1.76 
  -2  -4  -7   34.33    1.78 
   2   4   7   34.59    1.77 
   2   4   7   34.13    1.75 
   2   4   7   33.64    1.74 
  -3  -4  -7    5.36    0.47 
  -3  -4  -7    5.42    0.50 
  -3  -4  -7    5.24    0.42 
   3   4   7    4.51    0.42 
   3   4   7    5.37    0.51 
   3   4   7    4.91    0.44 
   3   4   7    4.94    0.42 
  -4  -4  -7    3.59    0.47 
  -4  -4  -7    3.30    0.48 
   4   4   7    4.06    0.42 
   4   4   7    3.92    0.43 
   4   4   7    3.46    0.38 
  -5  -4  -7   10.14    0.77 
   5   4   7    9.86    0.69 
   5   4   7   10.42    0.70 
   5   4   7   10.33    0.73 
  -6  -4  -7    1.32    0.39 
   6   4   7    0.89    0.27 
   6   4   7    0.82    0.27 
   7  -5  -7    0.86    0.40 
  -7   5   7    0.72    0.21 
   6  -5  -7    5.11    0.65 
  -6   5   7    3.69    0.41 
  -6   5   7    3.95    0.46 
   5  -5  -7    0.92    0.37 
   5  -5  -7    0.94    0.23 
  -5   5   7    0.84    0.21 
  -5   5   7    1.12    0.23 
  -4   5   7    2.21    0.33 
  -4   5   7    2.24    0.34 
   3  -5  -7    1.30    0.20 
  -3   5   7    1.08    0.20 
  -3   5   7    0.98    0.23 
  -3   5   7    0.89    0.20 
  -2   5   7    3.41    0.36 
  -2   5   7    3.65    0.37 
  -2   5   7    3.51    0.42 
  -2   5   7    3.37    0.36 
  -1   5   7    5.95    0.46 
  -1   5   7    5.51    0.51 
  -1   5   7    5.66    0.44 
  -1   5   7    5.54    0.37 
   0  -5  -7    1.24    0.27 
   0  -5  -7    1.43    0.21 
   0   5   7    0.87    0.16 
   0   5   7    0.81    0.26 
   0   5   7    0.81    0.20 
   0   5   7    0.88    0.21 
   1   5   7    5.97    0.45 
   1   5   7    6.09    0.42 
   1   5   7    6.37    0.47 
   1   5   7    5.56    0.59 
  -2  -5  -7    0.71    0.30 
   2   5   7    0.41    0.20 
   2   5   7    0.50    0.16 
   2   5   7    0.40    0.20 
   3   5   7    6.51    0.52 
   3   5   7    5.99    0.46 
   3   5   7    6.29    0.51 
  -4  -5  -7    0.08    0.32 
   4   5   7    0.17    0.19 
   4   5   7    0.19    0.24 
  -5  -5  -7    5.95    0.67 
   5   5   7    5.36    0.49 
   5   5   7    5.29    0.53 
  -5   6   7    3.36    0.43 
  -4   6   7    2.51    0.38 
  -4   6   7    2.04    0.33 
  -4   6   7    2.72    0.40 
  -3   6   7    6.61    0.53 
  -3   6   7    6.26    0.52 
  -3   6   7    6.63    0.51 
  -2   6   7    0.71    0.21 
  -2   6   7    0.75    0.22 
  -2   6   7    0.69    0.22 
   1  -6  -7    3.11    0.49 
  -1   6   7    3.89    0.43 
  -1   6   7    3.60    0.42 
  -1   6   7    3.62    0.29 
   0  -6  -7    5.21    0.59 
   0   6   7    6.07    0.42 
   0   6   7    6.68    0.51 
   0   6   7    7.00    0.55 
  -1  -6  -7    0.48    0.34 
   1   6   7    0.41    0.16 
   1   6   7    0.54    0.22 
  -2  -6  -7    7.18    0.74 
   2   6   7    7.72    0.51 
   2   6   7    8.17    0.60 
  -3  -6  -7    1.90    0.44 
   3   6   7    1.83    0.35 
   3   6   7    1.62    0.31 
  -5  -6   8    1.52    0.30 
   4   6  -8    1.33    0.21 
  -4  -6   8    1.91    0.32 
   3   6  -8    3.32    0.31 
  -3  -6   8    4.23    0.48 
   2   6  -8    0.19    0.14 
  -2  -6   8    0.07    0.22 
   1   6  -8    2.88    0.30 
  -1  -6   8    4.21    0.41 
  -1  -6   8    4.08    0.46 
   0  -6   8    0.67    0.26 
   0  -6   8    0.98    0.27 
   1  -6   8    2.55    0.40 
   1  -6   8    2.35    0.34 
   2  -6   8    0.79    0.30 
   7   5  -8    5.41    0.42 
  -7  -5   8    4.21    0.54 
  -7  -5   8    4.37    0.53 
   6   5  -8    0.23    0.17 
  -6  -5   8    0.17    0.24 
  -6  -5   8   -0.01    0.24 
   5   5  -8    5.90    0.43 
  -5  -5   8    5.31    0.51 
   4   5  -8    4.02    0.34 
  -4  -5   8    3.61    0.42 
   3   5  -8    2.32    0.40 
   3   5  -8    2.23    0.27 
  -3  -5   8    1.96    0.36 
   2   5  -8   11.63    0.61 
   2   5  -8   11.24    0.66 
  -2  -5   8    9.68    0.61 
  -2  -5   8    9.32    0.68 
   1   5  -8    2.95    0.28 
   1   5  -8    2.51    0.32 
  -1  -5   8    2.96    0.28 
  -1  -5   8    3.36    0.34 
  -1  -5   8    3.29    0.40 
   0   5  -8   11.43    0.64 
   0   5  -8   11.61    0.65 
   0  -5   8   10.82    0.74 
   0  -5   8   11.26    0.69 
  -1   5  -8    5.89    0.40 
   1  -5   8    5.76    0.48 
   1  -5   8    5.61    0.51 
   1  -5   8    5.76    0.43 
  -2   5  -8    0.93    0.17 
   2  -5   8    0.98    0.24 
   2  -5   8    1.20    0.23 
   2  -5   8    0.81    0.24 
  -3   5  -8    5.64    0.41 
   3  -5   8    4.97    0.50 
   4  -5   8    2.98    0.46 
   8   4  -8    4.04    0.44 
  -8  -4   8    5.69    0.54 
  -8  -4   8    5.67    0.57 
   7   4  -8    0.33    0.18 
  -7  -4   8    0.25    0.23 
  -7  -4   8    0.37    0.25 
   6   4  -8    4.12    0.39 
   6   4  -8    4.54    0.50 
  -6  -4   8    5.75    0.47 
  -6  -4   8    5.66    0.48 
   5   4  -8    1.53    0.27 
   5   4  -8    1.10    0.20 
  -5  -4   8    1.93    0.28 
   4   4  -8   11.26    0.67 
  -4  -4   8   12.25    0.73 
  -3  -4   8    6.09    0.48 
  -3  -4   8    6.42    0.38 
   2   4  -8    9.30    0.53 
   2   4  -8    9.39    0.53 
  -2  -4   8    8.51    0.52 
  -2  -4   8    8.09    0.58 
   1   4  -8    1.12    0.18 
   1   4  -8    1.55    0.23 
   0   4  -8    3.43    0.29 
   0   4  -8    3.77    0.36 
   0  -4   8    3.26    0.31 
   0  -4   8    3.33    0.38 
   0  -4   8    2.89    0.25 
  -1   4  -8    0.60    0.25 
  -1   4  -8    0.60    0.15 
   1  -4   8    0.86    0.23 
   1  -4   8    0.85    0.14 
   1  -4   8    1.06    0.19 
  -2   4  -8    1.54    0.25 
  -2   4  -8    1.20    0.30 
  -2   4  -8    1.41    0.25 
  -2   4  -8    1.63    0.23 
   2  -4   8    1.48    0.25 
   2  -4   8    1.63    0.24 
   2  -4   8    1.33    0.22 
   2  -4   8    1.42    0.23 
  -3   4  -8    6.67    0.45 
  -3   4  -8    6.91    0.45 
   3  -4   8    5.95    0.50 
   3  -4   8    5.53    0.49 
  -4   4  -8    0.52    0.18 
  -4   4  -8    0.76    0.24 
  -5   4  -8    4.63    0.53 
   5  -4   8    3.71    0.46 
   9   3  -8    6.50    0.56 
  -9  -3   8    5.38    0.60 
   8   3  -8    1.23    0.24 
  -8  -3   8    2.19    0.42 
  -8  -3   8    1.93    0.35 
   7   3  -8   23.18    1.16 
  -7  -3   8   20.99    1.18 
  -7  -3   8   20.43    1.20 
  -7  -3   8   21.60    1.18 
  -7  -3   8   19.61    1.11 
   6   3  -8    0.67    0.18 
   6   3  -8    0.66    0.24 
  -6  -3   8    0.65    0.20 
  -6  -3   8    0.53    0.15 
  -6  -3   8    0.62    0.26 
   5   3  -8   36.00    1.79 
   5   3  -8   35.44    1.83 
  -5  -3   8   34.15    1.81 
  -5  -3   8   33.56    1.79 
   4   3  -8   17.35    0.93 
   4   3  -8   17.46    0.97 
  -4  -3   8   16.70    0.95 
  -4  -3   8   16.93    0.87 
  -4  -3   8   16.82    0.92 
   3   3  -8   14.89    0.79 
  -3  -3   8   12.19    0.73 
  -3  -3   8   11.62    0.81 
  -3  -3   8   14.37    0.71 
   2   3  -8   46.78    2.33 
   2   3  -8   47.25    2.29 
  -2  -3   8   43.20    2.32 
  -2  -3   8   43.35    2.26 
   1   3  -8    2.58    0.32 
   1   3  -8    2.44    0.25 
  -1  -3   8    2.64    0.31 
  -1  -3   8    2.65    0.26 
   0   3  -8   60.54    2.97 
   0   3  -8   53.20    2.98 
   0   3  -8   61.23    2.93 
   0  -3   8   56.66    2.98 
   0  -3   8   58.95    2.92 
  -1   3  -8   10.40    0.68 
  -1   3  -8   10.67    0.63 
  -1   3  -8   10.63    0.62 
  -1   3  -8   10.38    0.58 
   1  -3   8   11.03    0.66 
   1  -3   8   11.89    0.64 
  -2   3  -8   13.41    0.74 
  -2   3  -8   13.73    0.71 
   2  -3   8   12.48    0.77 
   2  -3   8   12.47    0.75 
  -3   3  -8   13.73    0.75 
  -3   3  -8   13.10    0.76 
   3  -3   8   13.36    0.78 
  -4   3  -8    4.69    0.40 
  -4   3  -8    4.27    0.40 
  -4   3  -8    4.34    0.39 
  -5   3  -8    4.71    0.46 
  -5   3  -8    5.42    0.43 
   5  -3   8    3.95    0.42 
   5  -3   8    3.97    0.44 
   6  -3   8    7.91    0.60 
   6  -3   8    7.08    0.85 
  10   2  -8    0.47    0.32 
 -10  -2   8    0.71    0.35 
   9   2  -8    2.63    0.46 
  -9  -2   8    2.97    0.46 
  -9  -2   8    2.93    0.42 
  -8  -2   8    8.49    0.61 
  -8  -2   8    8.74    0.60 
  -8  -2   8    8.25    0.57 
   7   2  -8    3.01    0.35 
  -7  -2   8    3.12    0.34 
  -7  -2   8    2.90    0.35 
  -7  -2   8    3.10    0.30 
   6   2  -8    7.80    0.60 
  -6  -2   8   10.00    0.58 
  -6  -2   8    9.52    0.57 
   5   2  -8    3.82    0.35 
   5   2  -8    3.97    0.36 
  -5  -2   8    5.03    0.34 
   4   2  -8   12.18    0.71 
   4   2  -8   12.54    0.69 
  -4  -2   8   12.00    0.70 
  -4  -2   8   12.26    0.69 
   3   2  -8    4.47    0.36 
   3   2  -8    4.47    0.33 
  -2  -2   8    3.60    0.31 
  -2  -2   8    3.48    0.27 
   1   2  -8   22.68    1.29 
   1   2  -8   23.67    1.32 
  -1  -2   8   26.75    1.32 
  -1  -2   8   27.30    1.30 
   0   2  -8    3.12    0.22 
   0   2  -8    3.19    0.27 
   0  -2   8    2.84    0.26 
   0  -2   8    2.76    0.25 
   0  -2   8    2.80    0.30 
  -1   2  -8   19.57    1.05 
  -1   2  -8   19.54    1.02 
  -1   2  -8   19.42    1.06 
   1  -2   8   20.14    1.06 
   1  -2   8   19.99    1.07 
   1  -2   8   20.73    1.05 
  -2   2  -8    5.84    0.37 
  -2   2  -8    5.75    0.39 
  -2   2  -8    5.74    0.34 
   2  -2   8    4.54    0.39 
   2  -2   8    4.44    0.40 
   2  -2   8    4.25    0.34 
  -3   2  -8   20.60    1.04 
  -3   2  -8   20.31    1.07 
  -3   2  -8   19.45    1.05 
   3  -2   8   19.12    1.07 
   3  -2   8   18.95    1.04 
   3  -2   8   19.29    1.07 
  -4   2  -8    7.69    0.51 
  -4   2  -8    8.19    0.49 
  -4   2  -8    8.47    0.50 
   4  -2   8    6.44    0.50 
   4  -2   8    6.34    0.55 
   4  -2   8    6.13    0.45 
   4  -2   8    6.81    0.45 
  -5   2  -8    5.26    0.48 
  -5   2  -8    5.28    0.43 
   5  -2   8    4.09    0.43 
   5  -2   8    4.09    0.53 
   5  -2   8    4.03    0.39 
  -6   2  -8   10.09    0.63 
  -6   2  -8    9.04    0.64 
   6  -2   8    7.17    0.72 
   6  -2   8    7.86    0.61 
   6  -2   8    7.80    0.60 
   7  -2   8    2.30    0.43 
   7  -2   8    2.82    0.44 
  10   1  -8    5.62    0.64 
  10   1  -8    5.76    0.64 
 -10  -1   8    5.53    0.58 
   9   1  -8   12.67    0.85 
  -9  -1   8   13.33    0.89 
  -9  -1   8   13.44    0.80 
   8   1  -8    5.38    0.52 
  -8  -1   8    5.09    0.48 
  -8  -1   8    4.61    0.32 
  -8  -1   8    5.02    0.42 
   7   1  -8   41.87    2.26 
  -7  -1   8   45.33    2.28 
  -7  -1   8   46.05    2.24 
  -7  -1   8   43.39    2.21 
   6   1  -8    1.19    0.20 
  -6  -1   8    1.03    0.17 
  -6  -1   8    1.09    0.20 
  -6  -1   8    0.96    0.17 
   5   1  -8   76.73    3.84 
   5   1  -8   76.50    3.83 
   5   1  -8   73.56    3.82 
  -5  -1   8   77.22    3.80 
  -5  -1   8   79.03    3.84 
   4   1  -8   41.36    2.06 
   4   1  -8   43.18    2.06 
   4   1  -8   40.83    2.06 
  -4  -1   8   39.37    2.07 
  -4  -1   8   38.34    2.03 
   3   1  -8   48.24    2.45 
   3   1  -8   48.92    2.45 
   3   1  -8   47.36    2.43 
  -3  -1   8   48.35    2.45 
  -3  -1   8   49.76    2.46 
  -3  -1   8   48.97    2.42 
   2   1  -8   82.51    3.94 
   2   1  -8   81.18    3.93 
   2   1  -8   78.52    3.90 
  -2  -1   8   76.50    3.93 
  -2  -1   8   75.88    3.90 
  -2  -1   8   78.58    3.94 
   1   1  -8    9.27    0.52 
   1   1  -8    8.71    0.55 
  -1  -1   8    9.71    0.55 
  -1  -1   8   10.20    0.52 
  -1  -1   8    9.79    0.55 
   0   1  -8  132.38    6.57 
   0   1  -8  134.83    6.55 
   0  -1   8  131.82    6.55 
   0  -1   8  130.67    6.57 
   0  -1   8  133.08    6.57 
  -1   1  -8   40.14    2.20 
  -1   1  -8   44.37    2.18 
  -1   1  -8   42.65    2.20 
   1  -1   8   43.22    2.18 
   1  -1   8   44.50    2.19 
   1  -1   8   44.94    2.19 
  -2   1  -8   39.86    1.88 
  -2   1  -8   36.89    1.87 
  -2   1  -8   40.71    1.85 
   2  -1   8   33.87    1.85 
   2  -1   8   33.58    1.86 
   2  -1   8   33.72    1.85 
  -3   1  -8   66.58    3.35 
  -3   1  -8   66.47    3.32 
  -3   1  -8   67.95    3.33 
   3  -1   8   66.23    3.36 
   3  -1   8   67.46    3.34 
   3  -1   8   64.09    3.35 
   3  -1   8   66.96    3.34 
   4  -1   8    1.57    0.26 
   4  -1   8    1.47    0.23 
   4  -1   8    1.47    0.23 
  -5   1  -8   25.31    1.38 
  -5   1  -8   26.03    1.41 
  -5   1  -8   26.01    1.37 
   5  -1   8   25.72    1.37 
   5  -1   8   27.68    1.44 
   5  -1   8   25.22    1.39 
  -6   1  -8    0.45    0.24 
  -6   1  -8    0.76    0.25 
   6  -1   8    1.10    0.35 
   6  -1   8    1.07    0.23 
  -7   1  -8    5.45    0.61 
   7  -1   8    6.39    0.53 
   7  -1   8    5.81    0.61 
   7  -1   8    7.37    0.92 
  10   0  -8    0.46    0.35 
  10   0  -8    0.33    0.33 
 -10   0   8    0.42    0.27 
 -10   0   8    0.18    0.41 
   9   0  -8    1.00    0.30 
   9   0  -8    1.09    0.33 
  -9   0   8    1.08    0.34 
  -9   0   8    0.99    0.22 
  -9   0   8    0.94    0.21 
   8   0  -8    5.03    0.47 
   8   0  -8    4.99    0.51 
  -8   0   8    4.98    0.37 
  -8   0   8    4.97    0.38 
  -8   0   8    5.24    0.51 
   7   0  -8    0.07    0.30 
   7   0  -8    0.02    0.18 
  -7   0   8    0.05    0.13 
  -7   0   8   -0.09    0.18 
  -7   0   8    0.06    0.12 
   6   0  -8   14.37    0.79 
   6   0  -8   14.12    0.82 
  -6   0   8   11.92    0.88 
  -6   0   8   13.99    0.74 
  -6   0   8   14.16    0.76 
   5   0  -8    1.10    0.18 
   5   0  -8    1.31    0.26 
  -5   0   8    1.10    0.17 
  -5   0   8    1.14    0.20 
   4   0  -8   57.78    2.89 
   4   0  -8   56.81    2.92 
   4   0  -8   57.85    2.91 
  -4   0   8   59.26    2.92 
  -4   0   8   58.37    2.90 
   3   0  -8   27.91    1.43 
   3   0  -8   28.26    1.46 
   3   0  -8   28.03    1.45 
  -3   0   8   28.62    1.44 
  -3   0   8   28.55    1.46 
   2   0  -8   38.66    1.98 
   2   0  -8   38.56    1.97 
   2   0  -8   38.79    1.97 
  -2   0   8   39.51    1.96 
  -2   0   8   39.57    1.98 
   1   0  -8   43.07    2.13 
   1   0  -8   41.88    2.14 
  -1   0   8   42.10    2.12 
  -1   0   8   40.89    2.12 
  -1   0   8   43.23    2.14 
   0   0  -8    8.24    0.45 
   0   0  -8    7.98    0.47 
   0   0   8    7.77    0.45 
   0   0   8    6.95    0.42 
   0   0   8    7.39    0.46 
   0   0   8    7.74    0.45 
  -1   0  -8   47.27    2.38 
  -1   0  -8   46.23    2.36 
   1   0   8   47.64    2.36 
   1   0   8   46.10    2.34 
   1   0   8   47.13    2.35 
  -2   0  -8    2.38    0.24 
  -2   0  -8    2.11    0.28 
   2   0   8    1.74    0.22 
   2   0   8    2.16    0.24 
   2   0   8    2.44    0.27 
   2   0   8    2.04    0.24 
  -3   0  -8   58.59    2.95 
  -3   0  -8   59.49    3.00 
  -3   0  -8   58.62    2.97 
   3   0   8   58.01    2.98 
   3   0   8   60.13    2.98 
   3   0   8   59.97    3.00 
  -4   0  -8    3.14    0.37 
  -4   0  -8    3.53    0.31 
  -4   0  -8    3.38    0.30 
   4   0   8    3.22    0.35 
   4   0   8    3.42    0.32 
   4   0   8    3.77    0.41 
  -5   0  -8    7.92    0.51 
  -5   0  -8    7.36    0.51 
  -5   0  -8    8.06    0.60 
   5   0   8    8.44    0.62 
   5   0   8    7.72    0.53 
   5   0   8    7.76    0.54 
  -6   0  -8    3.12    0.38 
  -6   0  -8    2.91    0.45 
   6   0   8    2.67    0.38 
   6   0   8    2.45    0.38 
   6   0   8    2.71    0.39 
  -7   0  -8    0.01    0.36 
   7   0   8    0.03    0.22 
   7   0   8   -0.02    0.39 
  10  -1  -8    5.39    0.70 
  10  -1  -8    5.03    0.61 
   9  -1  -8   13.83    0.87 
   9  -1  -8   13.27    0.89 
  -9   1   8   12.58    0.88 
  -9   1   8   12.22    0.78 
   8  -1  -8    5.06    0.50 
   8  -1  -8    5.06    0.52 
  -8   1   8    5.10    0.42 
   7  -1  -8   45.43    2.25 
   7  -1  -8   44.91    2.29 
  -7   1   8   41.83    2.22 
  -7   1   8   42.64    2.26 
   6  -1  -8    1.12    0.20 
   6  -1  -8    0.96    0.24 
  -6   1   8    1.28    0.21 
  -6   1   8    1.26    0.19 
  -6   1   8    1.24    0.18 
   5  -1  -8   77.82    3.82 
   5  -1  -8   77.13    3.78 
  -5   1   8   72.53    3.77 
  -5   1   8   74.92    3.79 
   4  -1  -8   38.15    2.03 
   4  -1  -8   39.23    2.06 
  -4   1   8   41.47    2.03 
  -4   1   8   41.22    2.04 
   3  -1  -8   48.67    2.45 
   3  -1  -8   47.53    2.47 
  -3   1   8   49.97    2.46 
  -3   1   8   48.44    2.45 
   2  -1  -8   76.08    3.97 
   2  -1  -8   78.46    3.98 
   2  -1  -8   75.08    3.97 
  -2   1   8   82.88    3.98 
  -2   1   8   81.25    3.97 
  -2   1   8   83.80    3.98 
   1  -1  -8    8.04    0.62 
   1  -1  -8   10.00    0.53 
  -1   1   8    8.72    0.52 
  -1   1   8    8.66    0.52 
  -1   1   8    9.08    0.49 
  -1   1   8    8.45    0.52 
   0  -1  -8  128.16    6.55 
   0  -1  -8  134.15    6.55 
   0   1   8  130.91    6.55 
   0   1   8  132.13    6.54 
   0   1   8  135.92    6.55 
   0   1   8  131.55    6.52 
  -1  -1  -8   42.77    2.27 
  -1  -1  -8   44.67    2.26 
   1   1   8   44.97    2.26 
   1   1   8   45.44    2.27 
   1   1   8   44.49    2.23 
   1   1   8   45.80    2.26 
  -2  -1  -8   33.83    1.94 
  -2  -1  -8   33.75    1.92 
   2   1   8   40.43    1.94 
   2   1   8   39.07    1.93 
   2   1   8   40.50    1.93 
   2   1   8   38.74    1.89 
  -3  -1  -8   64.95    3.36 
  -3  -1  -8   66.27    3.37 
   3   1   8   68.77    3.36 
   3   1   8   67.34    3.37 
   3   1   8   66.73    3.37 
   4   1   8    3.29    0.41 
   4   1   8    3.25    0.34 
   4   1   8    3.26    0.36 
  -5  -1  -8   25.46    1.32 
  -5  -1  -8   24.96    1.37 
  -5  -1  -8   27.12    1.43 
   5   1   8   25.87    1.39 
   5   1   8   26.63    1.43 
   5   1   8   24.99    1.40 
  -6  -1  -8    1.05    0.19 
  -6  -1  -8    1.28    0.30 
   6   1   8    0.53    0.23 
   6   1   8    0.68    0.48 
   6   1   8    0.80    0.24 
   6   1   8    0.80    0.26 
   7   1   8    5.30    0.72 
   7   1   8    5.74    0.54 
  10  -2  -8    1.12    0.37 
   9  -2  -8    3.10    0.54 
   9  -2  -8    3.22    0.54 
  -9   2   8    2.95    0.47 
   8  -2  -8    8.51    0.68 
   8  -2  -8    8.38    0.61 
  -8   2   8    6.51    0.64 
   7  -2  -8    3.08    0.40 
   7  -2  -8    2.99    0.44 
  -7   2   8    3.17    0.41 
  -7   2   8    3.09    0.35 
  -7   2   8    2.54    0.33 
   6  -2  -8    9.76    0.64 
   6  -2  -8    9.53    0.56 
  -6   2   8    7.88    0.57 
  -6   2   8    8.10    0.54 
  -6   2   8    7.64    0.53 
   5  -2  -8    4.70    0.36 
   5  -2  -8    4.63    0.44 
  -5   2   8    4.15    0.35 
  -5   2   8    4.22    0.38 
   4  -2  -8   12.36    0.71 
   4  -2  -8   12.06    0.76 
  -4   2   8   12.83    0.75 
  -4   2   8   12.72    0.71 
  -4   2   8   12.69    0.72 
  -3   2   8    4.43    0.36 
  -3   2   8    4.49    0.34 
  -3   2   8    4.18    0.34 
   2  -2  -8    3.64    0.32 
   2  -2  -8    3.62    0.32 
   2  -2  -8    3.65    0.38 
  -2   2   8    4.68    0.40 
  -2   2   8    5.22    0.34 
  -2   2   8    5.12    0.34 
   1  -2  -8   27.21    1.32 
   1  -2  -8   26.96    1.33 
  -1   2   8   23.95    1.31 
  -1   2   8   24.17    1.33 
  -1   2   8   23.83    1.31 
   0  -2  -8    2.69    0.29 
   0  -2  -8    2.87    0.28 
   0   2   8    2.92    0.21 
   0   2   8    2.64    0.29 
   0   2   8    2.82    0.28 
   0   2   8    2.65    0.27 
  -1  -2  -8   20.09    1.06 
  -1  -2  -8   20.75    1.05 
   1   2   8   19.24    1.05 
   1   2   8   19.10    1.04 
   1   2   8   18.40    1.07 
  -2  -2  -8    4.55    0.38 
  -2  -2  -8    4.37    0.43 
   2   2   8    5.89    0.40 
   2   2   8    5.90    0.42 
   2   2   8    6.08    0.44 
  -3  -2  -8   19.00    1.06 
  -3  -2  -8   19.31    1.09 
   3   2   8   20.11    1.09 
   3   2   8   19.85    1.07 
   3   2   8   19.86    1.09 
  -4  -2  -8    6.45    0.54 
  -4  -2  -8    5.94    0.47 
   4   2   8    8.06    0.52 
   4   2   8    7.96    0.54 
  -5  -2  -8    4.65    0.56 
   5   2   8    5.42    0.54 
   5   2   8    5.36    0.49 
   5   2   8    5.44    0.48 
  -6  -2  -8    8.28    0.74 
   6   2   8    9.30    0.74 
   6   2   8    9.51    0.66 
   6   2   8    9.38    0.70 
   7   2   8    3.09    0.48 
   7   2   8    3.52    0.64 
   7   2   8    2.94    0.46 
   9  -3  -8    5.14    0.64 
  -9   3   8    6.39    0.50 
   8  -3  -8    2.00    0.38 
   8  -3  -8    1.18    0.27 
  -8   3   8    1.66    0.37 
  -8   3   8    1.55    0.27 
   7  -3  -8   20.57    1.30 
   7  -3  -8   19.88    1.21 
  -7   3   8   23.49    1.22 
  -7   3   8   22.70    1.21 
  -7   3   8   23.99    1.24 
   6  -3  -8    0.75    0.21 
   6  -3  -8    0.67    0.29 
  -6   3   8    0.81    0.18 
  -6   3   8    0.77    0.22 
  -6   3   8    0.65    0.18 
   5  -3  -8   33.68    1.86 
   5  -3  -8   31.97    1.77 
  -5   3   8   36.56    1.79 
  -5   3   8   35.51    1.79 
   4  -3  -8   16.91    1.04 
   4  -3  -8   16.45    0.93 
  -4   3   8   17.39    0.94 
  -4   3   8   17.49    0.98 
  -4   3   8   16.89    0.94 
   3  -3  -8   14.25    0.89 
   3  -3  -8   14.40    0.80 
  -3   3   8   14.60    0.86 
  -3   3   8   14.75    0.81 
   2  -3  -8   42.81    2.38 
  -2   3   8   50.36    2.44 
  -2   3   8   47.11    2.38 
  -2   3   8   47.82    2.40 
   1  -3  -8    2.62    0.30 
   1  -3  -8    2.38    0.29 
   1  -3  -8    2.75    0.27 
  -1   3   8    2.58    0.30 
  -1   3   8    2.41    0.28 
  -1   3   8    2.42    0.33 
   0  -3  -8   59.51    3.05 
   0  -3  -8   57.05    3.05 
   0   3   8   63.42    3.10 
   0   3   8   62.55    3.05 
  -1  -3  -8   12.03    0.68 
   1   3   8   10.54    0.65 
   1   3   8   10.68    0.66 
   1   3   8   11.03    0.70 
  -2  -3  -8   12.81    0.79 
   2   3   8   13.15    0.83 
   2   3   8   13.81    0.78 
   2   3   8   14.05    0.79 
   2   3   8   13.26    0.77 
  -3  -3  -8   13.55    0.82 
   3   3   8   13.89    0.81 
   3   3   8   13.78    0.81 
   3   3   8   13.66    0.80 
   3   3   8   13.23    0.85 
   4   3   8    4.04    0.57 
   4   3   8    4.38    0.44 
   4   3   8    4.39    0.43 
  -5  -3  -8    3.76    0.57 
   5   3   8    5.06    0.53 
   5   3   8    5.28    0.54 
   5   3   8    5.34    0.48 
   6   3   8    6.54    0.67 
   8  -4  -8    5.56    0.66 
  -8   4   8    4.10    0.44 
   7  -4  -8    0.68    0.35 
  -7   4   8    0.20    0.18 
   6  -4  -8    5.83    0.60 
   6  -4  -8    5.07    0.45 
  -6   4   8    4.33    0.43 
  -6   4   8    4.56    0.47 
   5  -4  -8    1.57    0.24 
   5  -4  -8    1.65    0.37 
  -5   4   8    1.08    0.22 
  -5   4   8    1.03    0.21 
  -5   4   8    0.99    0.24 
  -5   4   8    1.08    0.21 
   4  -4  -8   11.67    0.69 
   4  -4  -8   12.18    0.83 
  -4   4   8   12.11    0.72 
  -4   4   8   11.44    0.70 
  -4   4   8   11.26    0.76 
  -3   4   8    4.38    0.39 
  -3   4   8    4.03    0.38 
   2  -4  -8    8.46    0.53 
  -2   4   8    9.00    0.56 
  -2   4   8    9.47    0.58 
  -1   4   8    1.24    0.20 
  -1   4   8    1.73    0.30 
   0  -4  -8    3.20    0.37 
   0  -4  -8    2.55    0.37 
   0   4   8    3.47    0.35 
   0   4   8    3.67    0.35 
  -1  -4  -8    0.81    0.24 
  -1  -4  -8    0.82    0.22 
   1   4   8    0.16    0.17 
   1   4   8    0.46    0.17 
  -2  -4  -8    1.49    0.25 
  -2  -4  -8    1.41    0.26 
  -2  -4  -8    1.78    0.32 
   2   4   8    1.37    0.24 
   2   4   8    1.77    0.30 
   2   4   8    1.43    0.24 
   2   4   8    1.84    0.39 
  -3  -4  -8    6.38    0.59 
  -3  -4  -8    6.51    0.58 
   3   4   8    6.72    0.62 
   3   4   8    6.68    0.52 
   3   4   8    7.12    0.51 
   3   4   8    6.85    0.54 
  -4  -4  -8    1.47    0.35 
  -4  -4  -8    1.32    0.33 
   4   4   8    0.75    0.25 
   4   4   8    0.63    0.24 
   4   4   8    0.63    0.26 
  -5  -4  -8    3.47    0.57 
   5   4   8    4.82    0.49 
   5   4   8    4.30    0.50 
   7  -5  -8    4.22    0.69 
  -7   5   8    5.09    0.47 
   6  -5  -8    0.13    0.34 
  -6   5   8    0.04    0.21 
   5  -5  -8    5.26    0.68 
  -5   5   8    6.00    0.54 
  -5   5   8    6.58    0.51 
   4  -5  -8    3.32    0.41 
  -4   5   8    4.51    0.45 
  -4   5   8    4.10    0.42 
   3  -5  -8    1.94    0.35 
  -3   5   8    2.52    0.36 
  -3   5   8    2.17    0.37 
   2  -5  -8   10.19    0.66 
   2  -5  -8    9.33    0.65 
  -2   5   8   11.52    0.68 
  -2   5   8   11.62    0.69 
  -2   5   8   10.75    0.63 
   1  -5  -8    3.34    0.38 
   1  -5  -8    3.16    0.41 
  -1   5   8    2.93    0.38 
  -1   5   8    2.68    0.38 
   0  -5  -8   10.95    0.75 
   0  -5  -8   10.85    0.70 
   0   5   8   11.45    0.70 
   0   5   8   12.10    0.72 
  -1  -5  -8    5.64    0.56 
   1   5   8    6.14    0.49 
   1   5   8    5.20    0.46 
   1   5   8    5.75    0.43 
  -2  -5  -8    1.13    0.34 
   2   5   8    1.02    0.38 
   2   5   8    0.64    0.19 
   2   5   8    0.91    0.23 
  -3  -5  -8    5.26    0.64 
   3   5   8    5.25    0.45 
   3   5   8    5.34    0.50 
  -4  -5  -8    3.48    0.62 
   4   5   8    2.33    0.42 
   4   5   8    1.91    0.31 
  -4   6   8    1.46    0.29 
  -3   6   8    3.39    0.42 
  -2   6   8    0.36    0.21 
  -1   6   8    3.02    0.41 
  -1   6   8    2.78    0.29 
   0  -6  -8    1.06    0.37 
   0   6   8    0.77    0.17 
   0   6   8    0.89    0.26 
  -1  -6  -8    2.49    0.45 
   1   6   8    1.62    0.28 
   1   6   8    1.53    0.22 
  -2  -6  -8    1.06    0.43 
   2   6   8    0.72    0.25 
   3   6  -9    1.79    0.28 
  -3  -6   9    2.19    0.33 
   2   6  -9    3.26    0.32 
  -2  -6   9    2.56    0.45 
   1   6  -9    0.73    0.18 
  -1  -6   9    1.06    0.28 
  -1  -6   9    1.10    0.28 
   0   6  -9    1.63    0.29 
   0  -6   9    1.91    0.45 
   0  -6   9    2.26    0.35 
   6   5  -9    6.35    0.48 
  -6  -5   9    5.91    0.57 
   5   5  -9    0.92    0.20 
  -5  -5   9    0.99    0.26 
   4   5  -9    8.03    0.50 
  -4  -5   9    6.53    0.57 
   3   5  -9    2.45    0.29 
   3   5  -9    2.32    0.40 
  -3  -5   9    2.09    0.29 
  -3  -5   9    2.33    0.39 
   2   5  -9    5.53    0.39 
   2   5  -9    5.46    0.42 
  -2  -5   9    4.72    0.42 
  -2  -5   9    4.81    0.49 
  -1  -5   9    3.67    0.45 
  -1  -5   9    3.89    0.39 
   0   5  -9    3.01    0.31 
   0  -5   9    3.25    0.43 
   0  -5   9    2.67    0.39 
  -1   5  -9    8.71    0.50 
   1  -5   9    7.10    0.57 
   1  -5   9    6.39    0.59 
   2  -5   9    0.73    0.26 
   2  -5   9    0.92    0.26 
  -3   5  -9    5.07    0.42 
   3  -5   9    4.19    0.52 
   8   4  -9    0.22    0.21 
  -8  -4   9    0.18    0.31 
  -8  -4   9    0.09    0.27 
   7   4  -9    5.85    0.48 
  -7  -4   9    5.88    0.58 
  -7  -4   9    5.94    0.53 
   6   4  -9    1.56    0.23 
  -6  -4   9    1.29    0.26 
   5   4  -9    2.97    0.34 
   5   4  -9    2.73    0.45 
  -5  -4   9    3.98    0.42 
   4   4  -9    3.83    0.34 
   4   4  -9    3.96    0.44 
  -4  -4   9    2.88    0.40 
   3   4  -9    4.50    0.47 
   3   4  -9    4.93    0.40 
  -3  -4   9    6.57    0.38 
  -3  -4   9    6.24    0.47 
   2   4  -9   11.24    0.75 
   2   4  -9   11.46    0.66 
  -2  -4   9   11.47    0.71 
  -2  -4   9   11.30    0.71 
  -2  -4   9   11.85    0.66 
   1   4  -9    5.67    0.41 
   1   4  -9    5.53    0.49 
  -1  -4   9    5.79    0.49 
  -1  -4   9    6.12    0.39 
  -1  -4   9    6.21    0.43 
   0   4  -9    6.53    0.54 
   0   4  -9    6.80    0.46 
   0  -4   9    7.72    0.55 
   0  -4   9    6.92    0.67 
   0  -4   9    7.60    0.45 
  -1   4  -9    4.24    0.35 
   1  -4   9    3.54    0.44 
   1  -4   9    3.52    0.38 
   2  -4   9    3.15    0.43 
   2  -4   9    3.38    0.42 
   2  -4   9    3.31    0.39 
  -3   4  -9    0.36    0.18 
  -3   4  -9    0.50    0.21 
   3  -4   9    0.10    0.22 
  -4   4  -9    2.20    0.37 
  -4   4  -9    2.41    0.35 
   4  -4   9    2.98    0.42 
   5  -4   9    1.90    0.34 
   9   3  -9    4.92    0.53 
  -9  -3   9    4.81    0.61 
   8   3  -9    9.42    0.64 
  -8  -3   9    8.65    0.64 
  -8  -3   9    8.62    0.67 
   7   3  -9    3.09    0.38 
  -7  -3   9    3.96    0.44 
  -7  -3   9    3.41    0.40 
   6   3  -9   29.64    1.51 
   6   3  -9   27.66    1.55 
  -6  -3   9   27.69    1.51 
  -6  -3   9   29.25    1.53 
   5   3  -9    0.98    0.20 
   5   3  -9    1.18    0.26 
   4   3  -9   27.67    1.47 
   4   3  -9   28.83    1.43 
  -4  -3   9   25.89    1.44 
  -4  -3   9   27.01    1.38 
  -4  -3   9   26.81    1.43 
   3   3  -9    6.85    0.48 
   3   3  -9    7.37    0.55 
  -3  -3   9    7.84    0.48 
  -3  -3   9    8.23    0.46 
  -3  -3   9    8.20    0.53 
   2   3  -9    7.58    0.52 
   2   3  -9    7.49    0.45 
  -2  -3   9    6.21    0.49 
  -2  -3   9    6.62    0.44 
   1   3  -9   11.54    0.69 
   1   3  -9   11.86    0.76 
  -1  -3   9   13.21    0.70 
  -1  -3   9   12.34    0.73 
   0   3  -9    2.06    0.27 
   0  -3   9    1.61    0.25 
   0  -3   9    1.66    0.27 
  -1   3  -9   32.37    1.70 
  -1   3  -9   33.64    1.74 
   1  -3   9   34.09    1.77 
   1  -3   9   34.88    1.76 
  -2   3  -9    9.59    0.54 
  -2   3  -9    9.73    0.57 
  -2   3  -9    9.47    0.58 
   2  -3   9    8.18    0.59 
   2  -3   9    8.33    0.62 
  -3   3  -9   19.94    1.11 
  -3   3  -9   20.52    1.11 
  -3   3  -9   20.91    1.08 
   3  -3   9   19.51    1.12 
  -4   3  -9   10.16    0.62 
  -4   3  -9   10.40    0.64 
   4  -3   9    8.54    0.64 
   4  -3   9    7.82    0.67 
  -5   3  -9    6.60    0.59 
  -5   3  -9    6.84    0.53 
   5  -3   9    5.75    0.54 
   9   2  -9    8.87    0.67 
  -9  -2   9    8.52    0.68 
  -9  -2   9    8.32    0.66 
   8   2  -9    0.55    0.24 
  -8  -2   9    0.19    0.23 
  -8  -2   9    0.15    0.22 
  -8  -2   9    0.39    0.25 
   7   2  -9   10.96    0.77 
  -7  -2   9   13.34    0.72 
  -7  -2   9   12.93    0.72 
  -7  -2   9   13.45    0.77 
  -7  -2   9   13.45    0.79 
   6   2  -9   16.03    0.92 
   6   2  -9   16.51    0.91 
  -6  -2   9   15.70    0.91 
  -6  -2   9   15.62    0.84 
  -5  -2   9   11.03    0.66 
  -5  -2   9   10.91    0.65 
  -5  -2   9   10.81    0.59 
   4   2  -9   49.14    2.38 
   4   2  -9   46.89    2.39 
   4   2  -9   49.50    2.36 
  -4  -2   9   44.37    2.38 
  -4  -2   9   43.61    2.38 
   3   2  -9   11.09    0.65 
   3   2  -9   11.48    0.69 
   3   2  -9   11.89    0.72 
  -3  -2   9   14.16    0.70 
   2   2  -9   65.50    3.14 
   2   2  -9   62.49    3.11 
  -2  -2   9   58.72    3.10 
  -2  -2   9   60.53    3.11 
   1   2  -9    1.42    0.23 
   1   2  -9    1.41    0.28 
  -1  -2   9    1.50    0.22 
  -1  -2   9    1.65    0.27 
   0   2  -9   14.29    0.78 
   0   2  -9   14.06    0.74 
   0  -2   9   14.32    0.80 
   0  -2   9   13.90    0.78 
   0  -2   9   13.59    0.77 
  -1   2  -9   10.27    0.60 
  -1   2  -9   10.14    0.62 
  -1   2  -9    9.59    0.63 
   1  -2   9   11.67    0.62 
   1  -2   9   11.64    0.64 
   1  -2   9   11.16    0.66 
  -2   2  -9    3.96    0.33 
  -2   2  -9    3.65    0.31 
  -2   2  -9    3.81    0.36 
  -3   2  -9    2.38    0.32 
  -3   2  -9    2.59    0.35 
  -3   2  -9    3.11    0.33 
   3  -2   9    3.71    0.36 
   3  -2   9    3.80    0.42 
   3  -2   9    3.89    0.30 
  -4   2  -9    8.44    0.64 
  -4   2  -9    8.69    0.62 
   4  -2   9   11.08    0.66 
   4  -2   9   11.24    0.72 
  -5   2  -9    0.60    0.27 
   5  -2   9    1.61    0.31 
   5  -2   9    1.25    0.36 
   5  -2   9    1.21    0.24 
  -6   2  -9    2.16    0.33 
   6  -2   9    1.91    0.29 
  10   1  -9    2.72    0.40 
  10   1  -9    2.67    0.46 
   9   1  -9    9.61    0.74 
   9   1  -9    9.54    0.77 
  -9  -1   9   10.93    0.80 
  -9  -1   9   10.68    0.68 
   8   1  -9   13.42    0.88 
   8   1  -9   13.68    0.84 
  -8  -1   9   13.03    0.73 
  -8  -1   9   13.76    0.78 
  -8  -1   9   13.88    0.88 
   7   1  -9    5.15    0.45 
   7   1  -9    4.17    0.69 
  -7  -1   9    5.26    0.38 
  -7  -1   9    5.18    0.46 
  -7  -1   9    4.81    0.34 
   6   1  -9   42.87    2.12 
   6   1  -9   42.12    2.11 
  -6  -1   9   38.53    2.07 
  -6  -1   9   40.23    2.12 
   5   1  -9    8.29    0.55 
   5   1  -9    8.29    0.55 
   5   1  -9    8.10    0.53 
  -5  -1   9    9.30    0.50 
  -5  -1   9    9.36    0.56 
   4   1  -9   29.40    1.55 
   4   1  -9   29.98    1.56 
   4   1  -9   30.73    1.57 
  -4  -1   9   30.61    1.57 
  -4  -1   9   30.14    1.53 
   3   1  -9   62.85    3.27 
   3   1  -9   62.60    3.27 
   3   1  -9   61.99    3.25 
  -3  -1   9   67.40    3.28 
  -3  -1   9   68.37    3.25 
  -3  -1   9   68.61    3.29 
   2   1  -9    9.41    0.62 
   2   1  -9   10.11    0.64 
  -2  -1   9   11.96    0.63 
  -2  -1   9   11.53    0.59 
  -2  -1   9   11.70    0.64 
   1   1  -9   67.08    3.47 
   1   1  -9   69.63    3.45 
  -1  -1   9   69.73    3.48 
  -1  -1   9   70.19    3.47 
  -1  -1   9   70.11    3.45 
   0   1  -9   12.76    0.67 
   0   1  -9   13.25    0.71 
   0  -1   9   11.80    0.69 
   0  -1   9   12.04    0.67 
   0  -1   9   11.75    0.70 
  -1   1  -9   60.60    2.96 
  -1   1  -9   60.89    2.99 
   1  -1   9   57.02    2.96 
   1  -1   9   59.64    2.98 
   1  -1   9   57.81    2.98 
  -2   1  -9    5.95    0.39 
  -2   1  -9    5.94    0.43 
  -2   1  -9    6.00    0.39 
   2  -1   9    4.97    0.40 
   2  -1   9    4.92    0.41 
   2  -1   9    4.87    0.38 
  -3   1  -9   11.72    0.69 
  -3   1  -9   11.88    0.65 
  -3   1  -9   11.95    0.64 
   3  -1   9   10.50    0.67 
   3  -1   9   10.71    0.71 
   3  -1   9   10.19    0.64 
   3  -1   9    9.96    0.66 
  -4   1  -9   12.18    0.73 
  -4   1  -9   12.36    0.72 
  -4   1  -9   12.02    0.77 
   4  -1   9   12.59    0.72 
   4  -1   9   11.77    0.75 
   4  -1   9   13.39    0.69 
   4  -1   9   12.13    0.81 
  -5   1  -9    0.87    0.27 
  -5   1  -9    1.03    0.25 
  -5   1  -9    1.02    0.23 
   5  -1   9    1.00    0.24 
   5  -1   9    0.82    0.23 
   5  -1   9    1.04    0.34 
  -6   1  -9   14.34    0.90 
  -6   1  -9   13.81    0.96 
   6  -1   9   13.45    0.99 
   6  -1   9   13.75    0.86 
   6  -1   9   14.45    0.87 
   7  -1   9    0.21    0.39 
  10   0  -9   -0.01    0.34 
  10   0  -9    0.48    0.39 
   9   0  -9   15.62    1.00 
   9   0  -9   16.01    0.98 
  -9   0   9   14.64    0.87 
  -9   0   9   15.47    1.03 
   8   0  -9    1.49    0.30 
   8   0  -9    1.36    0.32 
  -8   0   9    1.81    0.31 
  -8   0   9    1.51    0.30 
   7   0  -9   50.54    2.55 
   7   0  -9   50.09    2.58 
  -7   0   9   50.44    2.57 
  -7   0   9   49.19    2.52 
  -7   0   9   48.35    2.50 
   6   0  -9   10.08    0.64 
   6   0  -9   10.43    0.66 
  -6   0   9   10.47    0.65 
  -6   0   9    9.85    0.60 
   5   0  -9   35.90    1.82 
   5   0  -9   34.49    1.83 
  -5   0   9   35.52    1.83 
  -5   0   9   35.36    1.80 
   4   0  -9    6.62    0.41 
   4   0  -9    6.97    0.46 
   4   0  -9    6.97    0.46 
  -4   0   9    6.36    0.54 
  -4   0   9    6.67    0.42 
   3   0  -9    3.38    0.30 
   3   0  -9    3.71    0.28 
   3   0  -9    3.57    0.31 
  -3   0   9    3.55    0.31 
  -3   0   9    3.54    0.28 
   2   0  -9   23.33    1.21 
   2   0  -9   23.46    1.23 
   2   0  -9   22.47    1.21 
  -2   0   9   23.64    1.22 
  -2   0   9   23.75    1.24 
  -2   0   9   23.84    1.21 
   1   0  -9   43.34    2.23 
   1   0  -9   45.36    2.22 
  -1   0   9   43.51    2.22 
  -1   0   9   43.88    2.22 
   0   0  -9   12.21    0.88 
   0   0  -9   15.37    0.82 
   0   0   9   15.32    0.80 
   0   0   9   14.95    0.76 
   0   0   9   15.05    0.80 
   0   0   9   14.87    0.81 
  -1   0  -9   71.11    3.56 
  -1   0  -9   69.18    3.57 
   1   0   9   72.03    3.56 
   1   0   9   70.07    3.55 
   1   0   9   72.18    3.53 
   1   0   9   72.39    3.57 
  -2   0  -9    0.89    0.21 
  -2   0  -9    1.13    0.17 
   2   0   9    1.11    0.18 
   2   0   9    1.43    0.26 
   2   0   9    1.15    0.21 
   2   0   9    1.04    0.18 
  -3   0  -9   14.87    0.84 
  -3   0  -9   14.84    0.88 
   3   0   9   15.01    0.87 
   3   0   9   15.11    0.89 
   3   0   9   15.76    0.85 
  -4   0  -9    0.22    0.16 
  -4   0  -9    0.19    0.23 
  -4   0  -9    0.21    0.16 
   4   0   9    0.06    0.24 
   4   0   9    0.20    0.20 
   4   0   9    0.19    0.16 
  -5   0  -9    2.95    0.40 
  -5   0  -9    2.84    0.37 
  -5   0  -9    3.24    0.47 
   5   0   9    3.19    0.39 
   5   0   9    2.84    0.37 
   5   0   9    3.02    0.53 
  -6   0  -9    0.43    0.26 
  -6   0  -9    0.74    0.30 
   6   0   9    0.36    0.23 
   6   0   9    0.52    0.36 
   7   0   9    0.39    0.25 
  10  -1  -9    3.94    0.60 
   9  -1  -9   10.79    0.78 
   9  -1  -9    9.92    0.79 
  -9   1   9    9.77    0.84 
   8  -1  -9   13.48    0.89 
   8  -1  -9   14.16    0.85 
  -8   1   9   13.44    0.80 
  -8   1   9   13.10    0.79 
  -8   1   9   12.73    0.87 
   7  -1  -9    5.13    0.48 
   7  -1  -9    5.13    0.51 
  -7   1   9    5.11    0.41 
  -7   1   9    5.15    0.61 
  -7   1   9    5.21    0.42 
   6  -1  -9   38.40    2.09 
   6  -1  -9   39.07    2.05 
  -6   1   9   41.54    2.07 
  -6   1   9   40.46    2.04 
   5  -1  -9    9.39    0.57 
   5  -1  -9    9.38    0.60 
  -5   1   9    8.28    0.58 
  -5   1   9    8.26    0.54 
   4  -1  -9   29.12    1.57 
   4  -1  -9   29.61    1.55 
  -4   1   9   30.44    1.55 
  -4   1   9   30.67    1.57 
   3  -1  -9   68.33    3.31 
   3  -1  -9   67.80    3.30 
  -3   1   9   63.70    3.30 
  -3   1   9   62.66    3.28 
   2  -1  -9   11.82    0.62 
   2  -1  -9   11.69    0.63 
   2  -1  -9   11.88    0.64 
  -2   1   9    9.03    0.60 
  -2   1   9    9.33    0.62 
  -2   1   9    9.64    0.61 
   1  -1  -9   69.69    3.49 
   1  -1  -9   70.81    3.48 
  -1   1   9   69.92    3.48 
  -1   1   9   68.70    3.48 
  -1   1   9   69.33    3.48 
  -1   1   9   68.40    3.46 
   0  -1  -9   12.49    0.72 
   0  -1  -9   12.30    0.71 
   0   1   9   12.82    0.71 
   0   1   9   12.56    0.68 
   0   1   9   12.36    0.70 
   0   1   9   12.77    0.71 
  -1  -1  -9   59.49    3.01 
  -1  -1  -9   58.50    3.02 
   1   1   9   60.83    2.98 
   1   1   9   62.29    3.01 
   1   1   9   58.83    3.00 
   1   1   9   58.42    3.06 
  -2  -1  -9    5.05    0.41 
   2   1   9    6.23    0.39 
   2   1   9    6.05    0.44 
   2   1   9    6.62    0.44 
   2   1   9    6.58    0.45 
  -3  -1  -9   10.42    0.71 
  -3  -1  -9   10.67    0.66 
   3   1   9   11.73    0.69 
   3   1   9   11.63    0.72 
   3   1   9   11.77    0.68 
  -4  -1  -9   12.43    0.80 
  -4  -1  -9   12.11    0.73 
   4   1   9   12.50    0.76 
   4   1   9   12.41    0.75 
   4   1   9   12.37    0.80 
  -5  -1  -9    0.86    0.31 
   5   1   9    1.11    0.26 
   5   1   9    1.05    0.25 
   5   1   9    1.13    0.32 
  -6  -1  -9   14.62    0.96 
   6   1   9   13.66    0.98 
   6   1   9   14.20    0.89 
   6   1   9   13.27    0.85 
   7   1   9    0.43    0.47 
   7   1   9    0.37    0.28 
   9  -2  -9    8.51    0.75 
  -9   2   9    8.28    0.76 
  -9   2   9    8.50    0.62 
   8  -2  -9    0.11    0.28 
   8  -2  -9    0.35    0.32 
  -8   2   9    0.44    0.21 
  -8   2   9    0.40    0.30 
  -8   2   9    0.41    0.24 
   7  -2  -9   12.80    0.77 
   7  -2  -9   12.95    0.84 
  -7   2   9   11.34    0.80 
  -7   2   9   11.44    0.73 
   6  -2  -9   16.00    0.99 
   6  -2  -9   15.77    0.92 
  -6   2   9   17.01    0.95 
  -6   2   9   16.22    0.92 
  -6   2   9   16.67    0.92 
   5  -2  -9   10.50    0.65 
  -5   2   9    7.80    0.58 
  -5   2   9    7.52    0.54 
   4  -2  -9   43.29    2.37 
   4  -2  -9   45.77    2.42 
  -4   2   9   49.39    2.38 
  -4   2   9   48.72    2.39 
   3  -2  -9   15.11    0.79 
  -3   2   9   11.80    0.72 
  -3   2   9   11.34    0.73 
  -3   2   9   11.89    0.72 
   2  -2  -9   60.21    3.15 
   2  -2  -9   59.54    3.15 
  -2   2   9   65.46    3.17 
  -2   2   9   63.99    3.15 
  -2   2   9   63.79    3.15 
   1  -2  -9    1.55    0.25 
   1  -2  -9    1.48    0.21 
  -1   2   9    1.46    0.21 
  -1   2   9    1.62    0.20 
  -1   2   9    1.48    0.31 
  -1   2   9    1.61    0.26 
   0  -2  -9   14.29    0.81 
   0  -2  -9   14.66    0.80 
   0   2   9   14.16    0.80 
   0   2   9   13.89    0.80 
   0   2   9   13.96    0.74 
  -1  -2  -9   11.28    0.66 
  -1  -2  -9   11.41    0.64 
   1   2   9   10.57    0.65 
   1   2   9    8.82    0.71 
   1   2   9   10.50    0.63 
   2   2   9    3.88    0.37 
   2   2   9    3.58    0.36 
   2   2   9    3.28    0.38 
  -3  -2  -9    3.62    0.42 
  -3  -2  -9    4.01    0.33 
   3   2   9    2.82    0.38 
   3   2   9    3.00    0.37 
   3   2   9    3.03    0.42 
   3   2   9    2.90    0.43 
   4   2   9    8.75    0.66 
   4   2   9    8.90    0.62 
   4   2   9    8.95    0.63 
   5   2   9    0.34    0.24 
   5   2   9    0.45    0.30 
   5   2   9    0.43    0.28 
  -6  -2  -9    2.54    0.43 
   6   2   9    2.23    0.42 
   6   2   9    1.72    0.41 
   6   2   9    2.14    0.32 
   9  -3  -9    4.92    0.64 
  -9   3   9    4.76    0.48 
   8  -3  -9    9.01    0.76 
  -8   3   9    8.96    0.62 
   7  -3  -9    3.49    0.47 
   7  -3  -9    3.44    0.55 
  -7   3   9    3.51    0.38 
  -7   3   9    3.40    0.50 
   6  -3  -9   27.69    1.55 
   6  -3  -9   28.66    1.64 
  -6   3   9   30.02    1.57 
  -6   3   9   29.52    1.55 
  -6   3   9   30.63    1.56 
   5  -3  -9    1.87    0.33 
   5  -3  -9    1.99    0.42 
  -5   3   9    1.17    0.25 
  -5   3   9    1.21    0.23 
   4  -3  -9   26.34    1.53 
   4  -3  -9   25.86    1.45 
  -4   3   9   28.92    1.46 
  -4   3   9   28.28    1.50 
  -4   3   9   28.45    1.46 
   3  -3  -9    8.05    0.61 
   3  -3  -9    8.31    0.51 
  -3   3   9    6.91    0.51 
  -3   3   9    7.00    0.51 
  -3   3   9    6.93    0.54 
   2  -3  -9    7.09    0.51 
  -2   3   9    7.75    0.51 
  -2   3   9    7.92    0.55 
  -2   3   9    7.44    0.51 
   1  -3  -9   13.13    0.70 
   1  -3  -9   13.74    0.73 
   1  -3  -9   13.26    0.74 
  -1   3   9   11.03    0.76 
  -1   3   9   11.65    0.73 
  -1   3   9   11.12    0.72 
   0  -3  -9    1.63    0.24 
   0  -3  -9    1.62    0.27 
   0   3   9    2.05    0.30 
   0   3   9    2.02    0.35 
   0   3   9    1.90    0.31 
  -1  -3  -9   36.01    1.78 
  -1  -3  -9   35.25    1.79 
   1   3   9   32.11    1.80 
   1   3   9   33.63    1.77 
   1   3   9   32.66    1.76 
  -2  -3  -9    8.19    0.59 
  -2  -3  -9    8.34    0.63 
   2   3   9   10.01    0.67 
   2   3   9    9.18    0.61 
   2   3   9    9.83    0.62 
   2   3   9    9.37    0.62 
  -3  -3  -9   19.95    1.18 
   3   3   9   20.01    1.15 
   3   3   9   21.74    1.17 
   3   3   9   21.22    1.17 
  -4  -3  -9    9.29    0.77 
   4   3   9   10.15    0.71 
   4   3   9   10.21    0.71 
   4   3   9   10.33    0.68 
  -5  -3  -9    6.30    0.72 
   5   3   9    6.89    0.66 
   5   3   9    7.21    0.70 
   5   3   9    7.56    0.60 
   6   3   9    6.69    0.75 
   8  -4  -9    0.56    0.36 
  -8   4   9    0.04    0.18 
   7  -4  -9    5.46    0.66 
  -7   4   9    5.93    0.49 
   6  -4  -9    1.36    0.40 
  -6   4   9    1.58    0.26 
  -6   4   9    1.83    0.32 
   5  -4  -9    4.16    0.58 
  -5   4   9    3.53    0.46 
  -5   4   9    3.28    0.40 
   4  -4  -9    3.58    0.56 
  -4   4   9    4.12    0.43 
  -4   4   9    4.62    0.45 
  -4   4   9    4.33    0.42 
  -3   4   9    4.78    0.43 
  -3   4   9    5.14    0.45 
  -3   4   9    4.81    0.47 
   2  -4  -9   12.02    0.70 
  -2   4   9   11.06    0.70 
  -2   4   9   11.90    0.71 
  -2   4   9   10.17    0.79 
   1  -4  -9    5.99    0.45 
   1  -4  -9    5.55    0.50 
  -1   4   9    5.25    0.46 
  -1   4   9    5.50    0.46 
   0  -4  -9    8.39    0.57 
   0  -4  -9    8.18    0.58 
   0   4   9    6.67    0.54 
   0   4   9    6.76    0.53 
  -1  -4  -9    3.72    0.46 
  -1  -4  -9    3.57    0.44 
   1   4   9    4.21    0.40 
   1   4   9    4.12    0.49 
   1   4   9    3.97    0.43 
   2   4   9    2.06    0.47 
   2   4   9    1.64    0.26 
   2   4   9    1.96    0.36 
   2   4   9    1.45    0.27 
  -3  -4  -9   -0.04    0.32 
  -3  -4  -9    0.07    0.33 
   3   4   9    0.22    0.27 
   3   4   9    0.30    0.21 
   3   4   9    0.47    0.22 
  -4  -4  -9    3.30    0.56 
   4   4   9    2.40    0.42 
   4   4   9    2.09    0.33 
   5   4   9    0.71    0.30 
   6  -5  -9    5.84    0.75 
  -6   5   9    7.52    0.56 
   5  -5  -9    1.31    0.41 
  -5   5   9    0.84    0.22 
  -4   5   9    8.72    0.62 
   3  -5  -9    1.82    0.42 
  -3   5   9    2.09    0.31 
  -3   5   9    2.39    0.37 
   2  -5  -9    4.65    0.48 
   2  -5  -9    4.89    0.45 
  -2   5   9    5.58    0.42 
  -2   5   9    5.42    0.50 
  -2   5   9    5.46    0.47 
   1  -5  -9    3.37    0.46 
   1  -5  -9    3.90    0.47 
  -1   5   9    5.41    0.48 
  -1   5   9    5.47    0.46 
   0  -5  -9    3.05    0.49 
   0   5   9    3.13    0.47 
   0   5   9    2.81    0.38 
  -1  -5  -9    7.29    0.69 
   1   5   9    8.32    0.56 
   1   5   9    8.62    0.60 
  -2  -5  -9    1.03    0.39 
   2   5   9    0.26    0.18 
   2   5   9    0.51    0.23 
  -3  -5  -9    3.80    0.69 
   3   5   9    5.06    0.49 
   3   5   9    5.30    0.47 
  -3   6   9    2.29    0.41 
  -2   6   9    3.14    0.43 
   1  -6  -9    1.21    0.48 
  -1   6   9    0.81    0.18 
  -1   6   9    0.73    0.25 
   0  -6  -9    2.41    0.44 
   0   6   9    1.53    0.28 
   0   6   9    1.46    0.25 
   5   5 -10    1.97    0.33 
  -5  -5  10    2.53    0.43 
   4   5 -10    4.27    0.38 
  -4  -5  10    4.01    0.46 
   3   5 -10    0.85    0.19 
  -3  -5  10    0.93    0.22 
  -3  -5  10    1.06    0.25 
   2   5 -10    4.81    0.40 
  -2  -5  10    5.54    0.52 
  -2  -5  10    5.35    0.45 
   1   5 -10    0.29    0.16 
  -1  -5  10    0.57    0.24 
  -1  -5  10    0.43    0.23 
   0   5 -10    1.92    0.30 
   0  -5  10    2.55    0.45 
   0  -5  10    2.50    0.43 
  -1   5 -10    0.31    0.18 
   1  -5  10    0.84    0.28 
   1  -5  10    0.42    0.26 
  -2   5 -10    1.41    0.22 
   2  -5  10    1.71    0.34 
   2  -5  10    1.41    0.32 
   7   4 -10    0.52    0.22 
  -7  -4  10    0.47    0.28 
   6   4 -10   14.01    0.79 
  -6  -4  10   12.11    0.82 
   5   4 -10    7.41    0.52 
  -5  -4  10    7.41    0.58 
   4   4 -10    2.04    0.30 
   4   4 -10    2.29    0.45 
  -4  -4  10    1.30    0.26 
  -4  -4  10    1.33    0.24 
   3   4 -10   11.95    0.68 
   3   4 -10   12.58    0.72 
   3   4 -10   12.62    0.82 
  -3  -4  10   12.07    0.69 
  -3  -4  10   11.33    0.76 
   2   4 -10    0.74    0.26 
   2   4 -10    0.51    0.18 
  -2  -4  10    0.87    0.20 
  -2  -4  10    1.00    0.24 
   1   4 -10   18.95    0.98 
  -1  -4  10   17.13    0.98 
  -1  -4  10   17.26    1.03 
   0   4 -10    4.90    0.40 
   0  -4  10    5.28    0.50 
   0  -4  10    5.23    0.44 
  -1   4 -10    9.53    0.57 
   1  -4  10    8.31    0.65 
   1  -4  10    7.95    0.60 
  -2   4 -10    8.63    0.59 
   2  -4  10    9.07    0.64 
   2  -4  10    9.07    0.67 
  -3   4 -10    2.62    0.36 
   3  -4  10    3.18    0.45 
   4  -4  10    6.03    0.57 
   8   3 -10    1.71    0.30 
  -8  -3  10    1.32    0.28 
   7   3 -10    6.07    0.51 
   6   3 -10    1.45    0.25 
  -6  -3  10    1.37    0.25 
   5   3 -10   10.64    0.73 
  -5  -3  10   13.12    0.76 
  -5  -3  10   12.41    0.76 
  -5  -3  10   13.29    0.66 
   4   3 -10    6.44    0.50 
   4   3 -10    6.00    0.55 
  -4  -3  10    7.56    0.48 
  -4  -3  10    7.99    0.45 
  -4  -3  10    7.91    0.53 
   3   3 -10    3.00    0.41 
   3   3 -10    2.84    0.33 
  -3  -3  10    3.53    0.31 
  -3  -3  10    3.05    0.28 
  -3  -3  10    3.38    0.38 
  -2  -3  10   12.28    0.74 
  -2  -3  10   12.31    0.70 
  -2  -3  10   11.62    0.69 
   1   3 -10    0.17    0.16 
  -1  -3  10    0.17    0.16 
  -1  -3  10    0.03    0.07 
  -1  -3  10    0.10    0.19 
   0   3 -10    4.14    0.38 
   0   3 -10    3.70    0.44 
   0  -3  10    5.46    0.41 
   0  -3  10    5.74    0.47 
  -1   3 -10    0.33    0.24 
  -1   3 -10    0.64    0.18 
  -1   3 -10    0.43    0.15 
   1  -3  10    0.92    0.21 
   1  -3  10    1.09    0.24 
   1  -3  10    0.69    0.20 
  -2   3 -10    3.24    0.36 
  -2   3 -10    3.70    0.37 
  -2   3 -10    3.31    0.36 
   2  -3  10    3.62    0.45 
   2  -3  10    3.30    0.38 
  -3   3 -10    1.41    0.25 
  -3   3 -10    0.83    0.22 
  -4   3 -10    0.20    0.21 
  -4   3 -10    0.69    0.29 
   4  -3  10    0.18    0.23 
  -5   3 -10    0.43    0.26 
   5  -3  10    1.06    0.28 
   9   2 -10    2.64    0.39 
   9   2 -10    2.56    0.46 
  -9  -2  10    2.91    0.53 
   8   2 -10   24.09    1.37 
   8   2 -10   25.20    1.34 
  -8  -2  10   23.26    1.26 
  -8  -2  10   22.94    1.28 
   7   2 -10    4.17    0.49 
   7   2 -10    4.04    0.45 
  -7  -2  10    4.26    0.36 
  -7  -2  10    4.66    0.46 
   6   2 -10   28.90    1.54 
   6   2 -10   29.46    1.54 
   6   2 -10   29.61    1.56 
  -6  -2  10   28.49    1.54 
  -6  -2  10   28.42    1.54 
  -6  -2  10   28.49    1.47 
   5   2 -10   28.18    1.53 
   5   2 -10   29.18    1.52 
   5   2 -10   28.25    1.54 
  -5  -2  10   29.40    1.54 
  -5  -2  10   29.82    1.53 
   4   2 -10    7.67    0.49 
   4   2 -10    8.07    0.53 
   4   2 -10    7.97    0.56 
  -4  -2  10    7.77    0.52 
  -4  -2  10    8.08    0.53 
   3   2 -10   28.84    1.55 
   3   2 -10   29.07    1.57 
  -3  -2  10   30.88    1.56 
  -3  -2  10   30.40    1.56 
   2   2 -10    1.51    0.27 
   2   2 -10    1.51    0.26 
  -2  -2  10    1.46    0.25 
  -2  -2  10    1.88    0.30 
   1   2 -10   41.11    2.12 
   1   2 -10   39.68    2.05 
   1   2 -10   39.86    2.09 
  -1  -2  10   40.30    2.11 
  -1  -2  10   43.41    2.10 
   0   2 -10    7.44    0.49 
   0   2 -10    7.33    0.44 
   0  -2  10    7.13    0.46 
   0  -2  10    6.98    0.48 
   0  -2  10    6.54    0.52 
  -1   2 -10   20.92    1.11 
  -1   2 -10   20.87    1.06 
   1  -2  10   19.24    1.09 
   1  -2  10   19.92    1.08 
   1  -2  10   19.90    1.12 
  -2   2 -10   13.28    0.74 
  -2   2 -10   13.16    0.78 
   2  -2  10   13.17    0.80 
   2  -2  10   12.97    0.78 
   2  -2  10   12.67    0.74 
  -3   2 -10    4.42    0.44 
  -3   2 -10    4.33    0.40 
  -3   2 -10    4.17    0.41 
   3  -2  10    3.31    0.51 
   3  -2  10    3.10    0.40 
  -4   2 -10   11.39    0.75 
  -4   2 -10   11.33    0.74 
  -4   2 -10   11.94    0.76 
   4  -2  10   11.49    0.75 
   4  -2  10   11.86    0.86 
  -5   2 -10   -0.03    0.24 
   5  -2  10   -0.04    0.21 
   9   1 -10    5.28    0.62 
   9   1 -10    5.58    0.64 
  -9  -1  10    5.50    0.51 
   8   1 -10    0.34    0.27 
   8   1 -10    0.50    0.30 
  -8  -1  10    0.42    0.28 
  -8  -1  10    0.37    0.17 
  -8  -1  10    0.36    0.21 
   7   1 -10    6.07    0.56 
   7   1 -10    5.85    0.53 
  -7  -1  10    6.56    0.46 
  -7  -1  10    6.64    0.43 
  -7  -1  10    6.85    0.56 
   6   1 -10    0.83    0.24 
   6   1 -10    0.44    0.22 
  -6  -1  10    0.49    0.20 
  -6  -1  10    0.34    0.16 
   5   1 -10    9.76    0.63 
   5   1 -10    9.61    0.63 
   5   1 -10   10.04    0.64 
  -5  -1  10   10.84    0.65 
  -5  -1  10   10.97    0.59 
   4   1 -10    5.18    0.40 
   4   1 -10    4.83    0.38 
   4   1 -10    5.13    0.37 
  -4  -1  10    4.57    0.39 
  -4  -1  10    4.36    0.33 
  -4  -1  10    4.56    0.38 
  -3  -1  10    2.47    0.24 
  -3  -1  10    2.48    0.28 
  -3  -1  10    2.35    0.29 
   2   1 -10    7.18    0.51 
   2   1 -10    7.31    0.53 
  -2  -1  10    8.52    0.47 
  -2  -1  10    8.44    0.51 
  -2  -1  10    8.18    0.51 
   1   1 -10    7.73    0.51 
   1   1 -10    7.37    0.47 
  -1  -1  10    7.77    0.47 
  -1  -1  10    7.94    0.51 
  -1  -1  10    8.31    0.50 
   0  -1  10    9.71    0.57 
   0  -1  10    9.58    0.58 
   0  -1  10    9.74    0.60 
   1  -1  10    4.39    0.36 
   1  -1  10    4.72    0.40 
   1  -1  10    4.69    0.37 
  -2   1 -10   14.48    0.93 
  -2   1 -10   14.36    0.89 
   2  -1  10   17.57    0.93 
   2  -1  10   17.52    0.91 
   2  -1  10   18.12    0.93 
  -3   1 -10    1.30    0.26 
  -3   1 -10    1.38    0.23 
  -3   1 -10    1.55    0.23 
  -4   1 -10    4.41    0.44 
  -4   1 -10    4.46    0.43 
  -4   1 -10    4.19    0.47 
   4  -1  10    4.81    0.59 
   4  -1  10    4.52    0.44 
  -5   1 -10    0.33    0.29 
   5  -1  10    0.48    0.25 
   5  -1  10    0.67    0.40 
   5  -1  10    0.95    0.24 
  -6   1 -10    2.45    0.38 
   6  -1  10    2.51    0.42 
   9   0 -10    5.46    0.63 
   9   0 -10    5.54    0.64 
  -9   0  10    5.32    0.73 
  -9   0  10    5.37    0.51 
   8   0 -10   31.46    1.68 
   8   0 -10   31.50    1.71 
  -8   0  10   29.68    1.61 
  -8   0  10   31.41    1.72 
  -8   0  10   31.16    1.63 
   7   0 -10    1.22    0.26 
   7   0 -10    1.35    0.30 
  -7   0  10    1.46    0.22 
  -7   0  10    1.24    0.22 
  -7   0  10    1.65    0.31 
   6   0 -10   25.38    1.38 
   6   0 -10   24.90    1.36 
  -6   0  10   25.29    1.33 
  -6   0  10   25.38    1.38 
   5   0 -10   40.43    2.04 
   5   0 -10   40.99    2.09 
   5   0 -10   40.34    2.10 
  -5   0  10   40.64    2.06 
  -5   0  10   40.52    2.10 
   4   0 -10    5.57    0.42 
   4   0 -10    5.73    0.39 
   4   0 -10    5.77    0.44 
  -4   0  10    5.48    0.43 
  -4   0  10    5.86    0.39 
   3   0 -10   62.71    3.19 
   3   0 -10   63.87    3.19 
   3   0 -10   63.19    3.21 
  -3   0  10   64.88    3.19 
  -3   0  10   63.71    3.22 
   2   0 -10    5.30    0.40 
   2   0 -10    5.37    0.43 
  -2   0  10    5.50    0.38 
  -2   0  10    5.08    0.37 
  -2   0  10    5.39    0.41 
   1   0 -10   58.55    2.91 
   1   0 -10   56.13    2.92 
  -1   0  10   57.90    2.90 
  -1   0  10   59.61    2.93 
  -1   0  10   57.10    2.91 
   0   0 -10    1.11    0.18 
   0   0 -10    1.02    0.20 
   0   0  10    1.05    0.18 
   0   0  10    1.05    0.18 
   0   0  10    0.89    0.18 
  -1   0 -10   14.74    0.85 
  -1   0 -10   15.28    0.82 
   1   0  10   14.80    0.82 
   1   0  10   14.47    0.83 
   1   0  10   13.80    0.76 
   1   0  10   15.24    0.83 
  -2   0 -10   14.92    0.85 
  -2   0 -10   15.21    0.89 
   2   0  10   15.16    0.86 
   2   0  10   15.61    0.87 
   2   0  10   14.89    0.85 
   2   0  10   15.38    0.81 
  -3   0 -10    2.20    0.31 
  -3   0 -10    2.14    0.38 
   3   0  10    1.86    0.29 
   3   0  10    2.04    0.35 
   3   0  10    1.98    0.31 
   3   0  10    1.87    0.31 
  -4   0 -10   20.46    1.17 
  -4   0 -10   20.97    1.21 
   4   0  10   21.26    1.18 
   4   0  10   21.89    1.25 
   4   0  10   21.65    1.19 
  -5   0 -10    0.15    0.30 
  -5   0 -10    0.23    0.23 
   5   0  10    0.36    0.36 
   5   0  10    0.39    0.22 
  -6   0 -10   13.82    0.97 
   6   0  10   13.37    0.86 
   6   0  10   13.24    1.15 
   9  -1 -10    5.46    0.64 
   9  -1 -10    4.76    0.66 
  -9   1  10    5.12    0.51 
   8  -1 -10    0.32    0.32 
   8  -1 -10    0.58    0.32 
  -8   1  10    0.20    0.23 
  -8   1  10    0.52    0.22 
  -8   1  10    0.50    0.33 
   7  -1 -10    7.26    0.59 
   7  -1 -10    6.87    0.55 
  -7   1  10    5.88    0.49 
  -7   1  10    6.00    0.48 
  -7   1  10    6.34    0.59 
   6  -1 -10    0.69    0.45 
   6  -1 -10    0.24    0.22 
  -6   1  10    0.58    0.18 
  -6   1  10    0.50    0.24 
   5  -1 -10   10.38    0.67 
   5  -1 -10   10.94    0.65 
  -5   1  10    9.39    0.61 
  -5   1  10    9.79    0.66 
   4  -1 -10    4.47    0.43 
   4  -1 -10    4.47    0.41 
  -4   1  10    5.35    0.42 
  -4   1  10    4.93    0.38 
   3  -1 -10    2.58    0.33 
   3  -1 -10    2.44    0.34 
  -3   1  10    3.59    0.34 
   2  -1 -10    8.71    0.50 
   2  -1 -10    8.38    0.51 
  -2   1  10    7.13    0.49 
  -2   1  10    6.91    0.51 
  -2   1  10    7.29    0.46 
  -2   1  10    6.91    0.47 
   1  -1 -10    7.79    0.49 
   1  -1 -10    8.05    0.52 
  -1   1  10    7.33    0.46 
  -1   1  10    7.37    0.49 
  -1   1  10    7.27    0.51 
  -1   1  10    7.55    0.48 
   0   1  10    5.01    0.39 
   0   1  10    5.70    0.41 
   0   1  10    5.86    0.38 
   1   1  10    2.29    0.31 
   1   1  10    2.02    0.28 
   1   1  10    2.53    0.31 
   1   1  10    2.14    0.27 
  -2  -1 -10   17.64    0.85 
   2   1  10   14.16    0.84 
   2   1  10   13.09    0.83 
   2   1  10   13.86    0.79 
   2   1  10   14.88    0.86 
  -3  -1 -10    2.21    0.30 
  -3  -1 -10    2.44    0.41 
   3   1  10    1.54    0.30 
   3   1  10    1.69    0.30 
   3   1  10    1.57    0.27 
   3   1  10    1.31    0.24 
  -4  -1 -10    4.68    0.53 
   4   1  10    4.62    0.47 
   4   1  10    4.41    0.46 
   4   1  10    3.91    0.62 
  -5  -1 -10    0.43    0.35 
   5   1  10    0.44    0.35 
   5   1  10    0.58    0.25 
   5   1  10    0.81    0.29 
  -6  -1 -10    2.61    0.47 
   6   1  10    2.59    0.52 
   6   1  10    2.33    0.34 
   9  -2 -10    3.45    0.61 
  -9   2  10    2.73    0.43 
   8  -2 -10   23.14    1.36 
   8  -2 -10   22.76    1.39 
  -8   2  10   23.93    1.30 
  -8   2  10   22.88    1.32 
  -8   2  10   26.28    1.52 
   7  -2 -10    4.50    0.50 
   7  -2 -10    4.79    0.55 
  -7   2  10    4.43    0.43 
  -7   2  10    4.07    0.44 
  -7   2  10    4.42    0.55 
   6  -2 -10   28.89    1.54 
   6  -2 -10   28.70    1.60 
  -6   2  10   29.79    1.53 
  -6   2  10   27.76    1.56 
   5  -2 -10   29.95    1.51 
   5  -2 -10   27.51    1.63 
  -5   2  10   28.32    1.50 
  -5   2  10   28.13    1.53 
   4  -2 -10    7.87    0.60 
   4  -2 -10    7.79    0.54 
  -4   2  10    7.75    0.55 
  -4   2  10    7.76    0.52 
   3  -2 -10   31.57    1.57 
   3  -2 -10   32.47    1.61 
  -3   2  10   29.31    1.57 
  -3   2  10   26.10    1.61 
  -3   2  10   29.35    1.58 
   2  -2 -10    1.49    0.27 
   2  -2 -10    1.74    0.31 
  -2   2  10    1.25    0.22 
  -2   2  10    1.29    0.29 
   1  -2 -10   43.33    2.12 
   1  -2 -10   42.88    2.12 
  -1   2  10   40.92    2.12 
  -1   2  10   39.63    2.11 
  -1   2  10   40.87    2.07 
  -1   2  10   38.88    2.12 
   0  -2 -10    6.73    0.49 
   0  -2 -10    6.88    0.53 
   0   2  10    7.61    0.44 
   0   2  10    7.57    0.52 
   0   2  10    6.89    0.50 
   0   2  10    7.79    0.52 
  -1  -2 -10   20.39    1.11 
  -1  -2 -10   20.15    1.13 
   1   2  10   19.34    1.12 
   1   2  10   21.10    1.12 
   1   2  10   20.17    1.27 
  -2  -2 -10   13.08    0.85 
  -2  -2 -10   12.54    0.78 
   2   2  10   13.51    0.81 
   2   2  10   14.08    0.81 
   2   2  10   13.88    0.82 
  -3  -2 -10    3.10    0.49 
   3   2  10    3.81    0.46 
   3   2  10    4.00    0.49 
   3   2  10    3.95    0.47 
   3   2  10    4.26    0.43 
   4   2  10   11.79    0.84 
   4   2  10   12.10    0.77 
   4   2  10   12.20    0.81 
   4   2  10   11.43    0.84 
  -5  -2 -10    0.21    0.38 
   5   2  10   -0.19    0.37 
   5   2  10    0.02    0.23 
   5   2  10    0.29    0.33 
   8  -3 -10    2.01    0.44 
  -8   3  10    1.58    0.28 
   7  -3 -10    4.73    0.53 
  -7   3  10    6.77    0.51 
   6  -3 -10    1.38    0.29 
   6  -3 -10    1.43    0.36 
  -6   3  10    1.44    0.24 
  -6   3  10    1.27    0.30 
   5  -3 -10   13.12    0.75 
   5  -3 -10   13.31    0.86 
  -5   3  10   10.36    0.72 
  -5   3  10   10.28    0.76 
   4  -3 -10    7.90    0.53 
   4  -3 -10    8.06    0.65 
  -4   3  10    6.30    0.55 
  -4   3  10    6.58    0.51 
   3  -3 -10    3.38    0.37 
  -3   3  10    2.63    0.39 
  -3   3  10    2.54    0.34 
  -3   3  10    2.54    0.38 
  -2   3  10    9.50    0.62 
  -2   3  10    9.55    0.61 
  -2   3  10    8.96    0.64 
   1  -3 -10   -0.02    0.15 
   1  -3 -10    0.01    0.22 
   1  -3 -10    0.13    0.20 
  -1   3  10    0.19    0.21 
  -1   3  10   -0.02    0.13 
  -1   3  10    0.04    0.17 
  -1   3  10   -0.02    0.19 
   0   3  10    3.40    0.42 
   0   3  10    4.07    0.38 
   0   3  10    3.59    0.41 
  -1  -3 -10    0.93    0.28 
   1   3  10    0.41    0.21 
   1   3  10    0.25    0.26 
   1   3  10    0.38    0.19 
  -2  -3 -10    3.52    0.49 
   2   3  10    3.66    0.42 
   2   3  10    3.53    0.44 
   2   3  10    2.55    0.44 
   2   3  10    3.53    0.43 
  -3  -3 -10    2.30    0.40 
   3   3  10    1.22    0.27 
   3   3  10    1.41    0.33 
   3   3  10    1.32    0.30 
  -4  -3 -10    0.05    0.38 
   4   3  10    0.80    0.43 
   4   3  10    0.40    0.25 
   4   3  10    0.56    0.36 
   4   3  10    0.42    0.29 
   5   3  10    0.21    0.36 
   5   3  10    0.65    0.28 
   7  -4 -10    0.47    0.39 
  -7   4  10    0.40    0.22 
   6  -4 -10   12.59    1.01 
  -6   4  10   15.10    0.86 
   5  -4 -10    6.99    0.73 
  -5   4  10    7.58    0.65 
  -5   4  10    7.82    0.56 
  -4   4  10    2.24    0.37 
  -4   4  10    2.17    0.32 
   3  -4 -10   11.98    0.86 
  -3   4  10   12.51    0.77 
  -3   4  10   12.99    0.80 
  -3   4  10   12.32    0.83 
   2  -4 -10    0.64    0.27 
  -2   4  10    0.69    0.27 
  -2   4  10    0.46    0.20 
  -2   4  10    0.35    0.24 
   1  -4 -10   17.32    1.04 
   1  -4 -10   17.43    1.01 
  -1   4  10   19.11    1.04 
  -1   4  10   17.96    1.09 
  -1   4  10   18.57    1.04 
   0  -4 -10    5.37    0.52 
   0  -4 -10    5.08    0.54 
   0   4  10    5.14    0.54 
   0   4  10    4.62    0.49 
   0   4  10    4.93    0.44 
  -1  -4 -10    7.57    0.67 
  -1  -4 -10    7.67    0.89 
   1   4  10    8.56    0.70 
   1   4  10    9.15    0.65 
   1   4  10    8.99    0.61 
  -2  -4 -10    8.29    0.71 
  -2  -4 -10    8.48    0.72 
   2   4  10    8.16    0.61 
   2   4  10    9.00    0.63 
  -3  -4 -10    2.38    0.46 
   3   4  10    3.20    0.44 
   3   4  10    2.51    0.42 
  -4  -4 -10    5.29    0.71 
   4   4  10    6.57    0.61 
  -5   5  10    1.60    0.27 
  -4   5  10    4.36    0.46 
  -3   5  10    0.73    0.22 
  -2   5  10    4.67    0.47 
   1  -5 -10    0.46    0.31 
  -1   5  10    0.06    0.22 
   0  -5 -10    2.58    0.41 
   0   5  10    1.96    0.37 
  -1  -5 -10    0.80    0.40 
   1   5  10    0.39    0.19 
   1   5  10    0.71    0.24 
  -2  -5 -10    2.31    0.48 
   2   5  10    1.18    0.25 
   2   5  10    1.93    0.38 
  -4  -5  11    1.30    0.37 
   3   5 -11    0.16    0.18 
  -3  -5  11    1.15    0.29 
   2   5 -11    3.31    0.36 
  -2  -5  11    3.56    0.46 
  -2  -5  11    3.88    0.48 
  -1  -5  11    1.62    0.32 
  -1  -5  11    1.47    0.31 
   0   5 -11    3.60    0.38 
   0  -5  11    3.37    0.53 
   0  -5  11    3.66    0.52 
   6   4 -11    1.93    0.28 
  -6  -4  11    2.43    0.42 
   5   4 -11    3.73    0.40 
  -5  -4  11    3.89    0.47 
   4   4 -11    5.98    0.45 
  -4  -4  11    4.95    0.40 
  -4  -4  11    5.17    0.50 
   3   4 -11    3.36    0.35 
  -3  -4  11    3.12    0.36 
  -3  -4  11    2.71    0.41 
   2   4 -11    7.03    0.47 
  -2  -4  11    5.39    0.47 
  -2  -4  11    5.71    0.53 
   1   4 -11    1.84    0.31 
  -1  -4  11    1.99    0.28 
  -1  -4  11    2.00    0.31 
   0   4 -11   10.71    0.65 
   0  -4  11    9.83    0.71 
   0  -4  11   10.36    0.69 
  -1   4 -11    0.82    0.21 
   1  -4  11    1.46    0.30 
   1  -4  11    1.31    0.31 
  -2   4 -11    6.09    0.49 
   2  -4  11    5.36    0.56 
   2  -4  11    5.52    0.59 
   3  -4  11    1.15    0.32 
   8   3 -11    6.15    0.60 
  -8  -3  11    5.00    0.60 
   7   3 -11    7.40    0.60 
  -7  -3  11    7.01    0.57 
   6   3 -11    0.67    0.23 
   6   3 -11    0.92    0.30 
   6   3 -11    0.51    0.35 
  -6  -3  11    0.18    0.21 
   5   3 -11   14.42    0.83 
   5   3 -11   14.42    0.85 
  -5  -3  11   14.05    0.85 
  -5  -3  11   14.25    0.78 
   4   3 -11    0.78    0.21 
   4   3 -11    0.80    0.19 
  -4  -3  11    1.41    0.25 
   3   3 -11   19.04    1.04 
  -3  -3  11   18.50    1.07 
  -3  -3  11   18.72    1.02 
   2   3 -11    2.09    0.42 
   2   3 -11    1.32    0.22 
  -2  -3  11    1.92    0.25 
  -2  -3  11    1.75    0.27 
   1   3 -11    7.72    0.51 
   1   3 -11    7.25    0.62 
  -1  -3  11    6.97    0.53 
  -1  -3  11    6.91    0.56 
   0   3 -11    3.76    0.46 
   0   3 -11    3.44    0.37 
   0  -3  11    3.61    0.41 
   0  -3  11    3.66    0.44 
  -1   3 -11    0.49    0.18 
  -1   3 -11    0.88    0.21 
   1  -3  11    1.16    0.25 
   1  -3  11    1.64    0.28 
  -2   3 -11    6.65    0.50 
  -2   3 -11    6.09    0.49 
   2  -3  11    5.96    0.58 
   2  -3  11    5.32    0.52 
  -3   3 -11    2.52    0.39 
  -3   3 -11    3.04    0.38 
   3  -3  11    3.50    0.44 
  -4   3 -11    7.68    0.59 
   4  -3  11    7.73    0.62 
   8   2 -11    1.30    0.31 
   8   2 -11    1.60    0.40 
  -8  -2  11    1.86    0.26 
   7   2 -11   18.55    1.08 
   7   2 -11   19.01    1.10 
  -7  -2  11   17.97    1.00 
   6   2 -11    0.69    0.30 
   6   2 -11    0.62    0.25 
   6   2 -11    0.66    0.26 
   5   2 -11   21.22    1.13 
   5   2 -11   21.83    1.18 
   5   2 -11   21.94    1.16 
  -5  -2  11   18.97    1.15 
  -5  -2  11   20.01    1.15 
   4   2 -11    3.83    0.39 
   4   2 -11    3.46    0.43 
   4   2 -11    3.61    0.32 
   3   2 -11    7.68    0.49 
   3   2 -11    6.86    0.54 
  -3  -2  11    6.32    0.49 
  -3  -2  11    5.72    0.46 
   2   2 -11   13.26    0.79 
   2   2 -11   13.21    0.85 
  -2  -2  11   13.57    0.78 
  -2  -2  11   14.34    0.81 
   1   2 -11    0.72    0.26 
   1   2 -11    0.73    0.15 
   1   2 -11    0.73    0.19 
  -1  -2  11    0.85    0.16 
  -1  -2  11    0.63    0.16 
  -1  -2  11    0.70    0.22 
   0   2 -11   25.89    1.33 
   0   2 -11   25.74    1.29 
   0  -2  11   24.07    1.33 
   0  -2  11   24.26    1.35 
   0  -2  11   24.11    1.32 
  -1   2 -11    4.24    0.39 
  -1   2 -11    4.20    0.42 
   1  -2  11    4.67    0.46 
   1  -2  11    4.89    0.42 
   1  -2  11    4.87    0.37 
  -2   2 -11    9.03    0.57 
  -2   2 -11    9.22    0.60 
   2  -2  11    7.30    0.58 
   2  -2  11    7.42    0.62 
  -3   2 -11    8.26    0.60 
  -3   2 -11    7.79    0.60 
  -3   2 -11    8.39    0.61 
   3  -2  11    7.98    0.60 
   3  -2  11    8.12    0.72 
  -4   2 -11    0.82    0.32 
  -4   2 -11    0.70    0.26 
   4  -2  11    0.87    0.25 
  -5   2 -11    7.51    0.66 
   9   1 -11    1.46    0.38 
   9   1 -11    1.73    0.44 
  -9  -1  11    1.23    0.30 
   8   1 -11   17.66    1.07 
   8   1 -11   17.89    1.08 
  -8  -1  11   14.15    1.18 
  -8  -1  11   17.96    1.12 
   7   1 -11   14.53    0.92 
   7   1 -11   14.93    0.92 
  -7  -1  11   14.71    0.94 
  -7  -1  11   15.34    0.84 
  -7  -1  11   14.00    0.94 
   6   1 -11    8.63    0.58 
   6   1 -11    7.80    0.60 
  -6  -1  11    8.69    0.54 
  -6  -1  11    8.32    0.62 
   5   1 -11   21.48    1.16 
   5   1 -11   21.11    1.14 
   5   1 -11   21.01    1.14 
  -5  -1  11   20.73    1.10 
  -5  -1  11   20.21    1.17 
   4   1 -11    3.53    0.33 
   4   1 -11    2.99    0.53 
  -4  -1  11    3.09    0.30 
  -4  -1  11    2.88    0.36 
  -4  -1  11    3.36    0.35 
   3   1 -11   27.05    1.44 
   3   1 -11   26.72    1.44 
   3   1 -11   27.08    1.39 
  -3  -1  11   27.66    1.39 
  -3  -1  11   27.21    1.43 
  -3  -1  11   26.84    1.44 
   2   1 -11    1.44    0.25 
   2   1 -11    1.01    0.23 
  -2  -1  11    1.13    0.27 
  -2  -1  11    1.49    0.23 
  -2  -1  11    1.45    0.19 
   1   1 -11   18.44    1.01 
   1   1 -11   18.02    1.07 
  -1  -1  11   19.45    1.04 
  -1  -1  11   19.31    1.01 
  -1  -1  11   19.25    1.05 
   0   1 -11   12.15    0.74 
   0   1 -11   12.32    0.70 
   0  -1  11   12.27    0.72 
   0  -1  11   12.16    0.74 
   0  -1  11   12.16    0.70 
  -1   1 -11    6.44    0.47 
  -1   1 -11    6.41    0.50 
   1  -1  11    6.76    0.51 
   1  -1  11    6.73    0.48 
   1  -1  11    5.94    0.46 
  -2   1 -11   11.37    0.67 
  -2   1 -11   11.33    0.71 
   2  -1  11    9.54    0.88 
   2  -1  11   10.22    0.66 
   2  -1  11   10.86    0.68 
  -3   1 -11    0.91    0.25 
  -3   1 -11    0.97    0.26 
   3  -1  11    1.33    0.24 
   3  -1  11    1.18    0.35 
  -4   1 -11    7.76    0.63 
  -4   1 -11    7.47    0.68 
   4  -1  11    7.22    0.58 
   4  -1  11    7.84    0.78 
  -5   1 -11    3.79    0.58 
   5  -1  11    3.87    0.46 
   9   0 -11    2.40    0.46 
   9   0 -11    2.55    0.47 
  -9   0  11    2.56    0.46 
  -9   0  11    2.31    0.51 
   8   0 -11    2.45    0.53 
   8   0 -11    2.60    0.39 
  -8   0  11    2.37    0.43 
  -8   0  11    2.33    0.31 
  -8   0  11    2.19    0.40 
   7   0 -11   13.51    0.86 
   7   0 -11   13.12    0.86 
  -7   0  11   12.64    0.88 
  -7   0  11   12.91    0.77 
  -7   0  11   12.57    0.77 
   6   0 -11    1.50    0.28 
   6   0 -11    1.80    0.40 
  -6   0  11    1.43    0.23 
  -6   0  11    1.56    0.30 
   5   0 -11   25.38    1.37 
   5   0 -11   24.38    1.36 
  -5   0  11   25.72    1.33 
  -5   0  11   25.95    1.39 
   4   0 -11   23.03    1.21 
   4   0 -11   22.91    1.24 
   4   0 -11   22.80    1.26 
  -4   0  11   23.93    1.27 
  -4   0  11   23.17    1.22 
   3   0 -11   13.66    0.80 
   3   0 -11   14.30    0.82 
   3   0 -11   14.31    0.80 
  -3   0  11   13.97    0.78 
  -3   0  11   13.76    0.82 
  -3   0  11   14.22    0.80 
   2   0 -11   43.73    2.17 
   2   0 -11   42.37    2.18 
  -2   0  11   40.98    2.16 
  -2   0  11   43.21    2.19 
  -2   0  11   41.54    2.15 
   1   0 -11    3.59    0.38 
   1   0 -11    3.40    0.33 
  -1   0  11    3.06    0.32 
  -1   0  11    3.11    0.36 
  -1   0  11    3.20    0.34 
   0   0 -11   59.31    2.89 
   0   0 -11   55.55    2.91 
   0   0  11   57.08    2.89 
   0   0  11   57.10    2.88 
   0   0  11   56.96    2.91 
  -1   0 -11    5.71    0.58 
  -1   0 -11    5.29    0.44 
   1   0  11    5.80    0.45 
   1   0  11    5.86    0.45 
   1   0  11    5.44    0.44 
  -2   0 -11   17.64    1.02 
  -2   0 -11   17.18    0.98 
   2   0  11   17.02    0.97 
   2   0  11   17.93    0.99 
   2   0  11   17.34    0.99 
  -3   0 -11   11.72    0.78 
  -3   0 -11   11.43    0.73 
   3   0  11   11.28    0.74 
   3   0  11   12.61    0.76 
   3   0  11   11.55    0.83 
   3   0  11   11.45    0.67 
  -4   0 -11    2.33    0.37 
   4   0  11    2.46    0.43 
   4   0  11    2.91    0.44 
  -5   0 -11    9.81    0.84 
   5   0  11    8.84    1.12 
   5   0  11   10.32    0.69 
   9  -1 -11    1.39    0.46 
   9  -1 -11    1.54    0.42 
  -9   1  11    1.21    0.31 
   8  -1 -11   18.18    1.12 
   8  -1 -11   17.89    1.11 
  -8   1  11   16.84    1.16 
  -8   1  11   16.36    1.24 
  -8   1  11   17.63    1.02 
   7  -1 -11   15.49    0.97 
   7  -1 -11   14.97    0.94 
  -7   1  11   15.04    0.99 
  -7   1  11   14.71    0.88 
   6  -1 -11    8.12    0.64 
   6  -1 -11    8.50    0.63 
  -6   1  11    8.52    0.66 
  -6   1  11    8.33    0.57 
   5  -1 -11   20.81    1.17 
   5  -1 -11   20.45    1.15 
  -5   1  11   19.84    1.13 
  -5   1  11   21.26    1.17 
   4  -1 -11    3.30    0.40 
   4  -1 -11    2.94    0.42 
  -4   1  11    3.54    0.35 
  -4   1  11    3.43    0.40 
   3  -1 -11   28.65    1.48 
   3  -1 -11   26.98    1.47 
   3  -1 -11   27.40    1.42 
  -3   1  11   27.38    1.45 
   2  -1 -11    1.33    0.21 
   2  -1 -11    1.21    0.23 
  -2   1  11    1.17    0.20 
  -2   1  11    1.20    0.24 
  -2   1  11    1.51    0.20 
   1  -1 -11   19.27    1.06 
   1  -1 -11   19.64    1.03 
  -1   1  11   18.60    1.05 
  -1   1  11   18.84    1.00 
  -1   1  11   18.05    1.01 
  -1   1  11   18.27    1.02 
   0  -1 -11   11.68    0.72 
   0  -1 -11   11.80    0.75 
   0   1  11   11.63    0.72 
   0   1  11   12.07    0.73 
   0   1  11   12.53    0.69 
   0   1  11   12.09    0.69 
  -1  -1 -11    7.21    0.49 
  -1  -1 -11    6.54    0.52 
   1   1  11    5.61    0.45 
   1   1  11    5.64    0.49 
   1   1  11    6.27    0.44 
   1   1  11    6.27    0.48 
  -2  -1 -11   10.63    0.77 
  -2  -1 -11   10.36    0.69 
   2   1  11   12.29    0.72 
   2   1  11   11.34    0.73 
   2   1  11   11.74    0.70 
  -3  -1 -11    1.19    0.32 
   3   1  11    0.90    0.24 
   3   1  11    0.83    0.28 
   3   1  11    1.09    0.32 
  -4  -1 -11    6.96    0.70 
   4   1  11    7.48    0.73 
   4   1  11    7.23    0.67 
   4   1  11    8.19    0.62 
   4   1  11    8.26    0.78 
  -5  -1 -11    4.29    0.73 
   5   1  11    3.74    0.57 
   5   1  11    4.23    0.52 
   8  -2 -11    2.14    0.44 
   8  -2 -11    2.48    0.67 
  -8   2  11    1.44    0.28 
   7  -2 -11   17.83    1.10 
   7  -2 -11   18.27    1.15 
  -7   2  11   18.84    1.05 
  -7   2  11   18.38    1.46 
  -7   2  11   17.86    1.07 
  -6   2  11    0.63    0.21 
  -6   2  11    0.75    0.30 
   5  -2 -11   19.24    1.19 
   5  -2 -11   18.96    1.14 
  -5   2  11   21.15    1.18 
  -5   2  11   22.29    1.13 
  -4   2  11    3.88    0.40 
  -4   2  11    3.99    0.45 
   3  -2 -11    6.57    0.53 
  -3   2  11    7.69    0.52 
  -3   2  11    7.22    0.53 
  -3   2  11    6.99    0.55 
   2  -2 -11   14.01    0.81 
   2  -2 -11   14.83    0.83 
  -2   2  11   13.08    0.81 
  -2   2  11   13.43    0.80 
  -2   2  11   13.53    0.76 
  -2   2  11   13.41    0.83 
   1  -2 -11    0.71    0.23 
   1  -2 -11    0.71    0.20 
  -1   2  11    0.55    0.22 
  -1   2  11    0.58    0.21 
  -1   2  11    0.72    0.17 
  -1   2  11    0.67    0.20 
   0  -2 -11   24.45    1.36 
   0  -2 -11   24.64    1.38 
   0   2  11   25.39    1.37 
   0   2  11   25.38    1.30 
   0   2  11   25.08    1.37 
   0   2  11   26.52    1.36 
  -1  -2 -11    4.63    0.40 
  -1  -2 -11    4.78    0.51 
   1   2  11    4.42    0.44 
   1   2  11    4.21    0.46 
   1   2  11    4.12    0.46 
  -2  -2 -11    7.90    0.69 
   2   2  11    8.81    0.61 
   2   2  11    8.43    0.64 
   2   2  11    8.19    0.64 
  -3  -2 -11    8.72    0.71 
   3   2  11    8.59    0.69 
   3   2  11    8.26    0.61 
   3   2  11    8.14    0.68 
   3   2  11    7.67    0.69 
  -4  -2 -11    0.69    0.41 
   4   2  11    0.94    0.38 
   4   2  11    0.95    0.27 
   4   2  11    1.03    0.38 
   4   2  11    0.33    0.38 
  -5  -2 -11    8.20    0.92 
   5   2  11    6.71    0.85 
   5   2  11    7.58    0.72 
   8  -3 -11    5.37    0.73 
  -8   3  11    6.29    0.55 
   7  -3 -11    7.92    0.77 
  -7   3  11    7.97    0.60 
   6  -3 -11    0.10    0.30 
   6  -3 -11    0.07    0.36 
   5  -3 -11   14.93    0.98 
   5  -3 -11   13.76    0.87 
  -5   3  11   13.52    0.84 
  -5   3  11   13.86    0.92 
   4  -3 -11    1.31    0.29 
  -4   3  11    0.91    0.28 
  -4   3  11    0.70    0.26 
  -4   3  11    0.79    0.23 
   3  -3 -11   19.26    1.10 
  -3   3  11   19.47    1.08 
  -3   3  11   19.02    1.11 
   2  -3 -11    1.76    0.30 
  -2   3  11    1.48    0.25 
  -2   3  11    1.73    0.30 
  -2   3  11    1.89    0.38 
   1  -3 -11    6.62    0.53 
   1  -3 -11    6.95    0.60 
  -1   3  11    7.70    0.54 
  -1   3  11    6.96    0.58 
  -1   3  11    7.67    0.61 
  -1   3  11    7.67    0.46 
   0  -3 -11    3.82    0.49 
   0   3  11    3.36    0.47 
   0   3  11    3.39    0.39 
   0   3  11    3.62    0.48 
  -1  -3 -11    1.31    0.34 
   1   3  11    0.33    0.30 
   1   3  11    0.60    0.23 
   1   3  11    0.64    0.50 
  -2  -3 -11    6.07    0.64 
   2   3  11    6.04    0.61 
   2   3  11    6.17    0.58 
   2   3  11    6.41    0.54 
  -3  -3 -11    3.12    0.48 
   3   3  11    2.80    0.51 
   3   3  11    2.88    0.45 
   3   3  11    2.47    0.48 
  -4  -3 -11    9.02    1.09 
   4   3  11    8.57    0.66 
   4   3  11    8.23    0.79 
   6  -4 -11    2.64    0.50 
  -6   4  11    2.45    0.41 
   5  -4 -11    4.47    0.68 
  -5   4  11    3.74    0.45 
  -4   4  11    5.42    0.49 
  -3   4  11    4.09    0.65 
  -3   4  11    3.70    0.43 
   2  -4 -11    4.80    0.57 
  -2   4  11    6.83    0.52 
  -2   4  11    6.53    0.70 
  -2   4  11    6.33    0.60 
   1  -4 -11    2.00    0.34 
   1  -4 -11    2.48    0.44 
  -1   4  11    1.97    0.37 
  -1   4  11    1.62    0.35 
  -1   4  11    1.62    0.39 
   0  -4 -11   10.26    0.76 
   0   4  11   10.93    0.71 
   0   4  11   10.56    0.91 
  -1  -4 -11    1.55    0.39 
   1   4  11    0.84    0.25 
  -2  -4 -11    5.41    0.70 
   2   4  11    6.31    0.55 
   2   4  11    5.37    0.53 
  -3  -4 -11    0.99    0.46 
   3   4  11    1.06    0.32 
  -3   5  11    0.46    0.23 
  -2   5  11    3.53    0.44 
  -1   5  11    1.00    0.27 
   0  -5 -11    2.93    0.55 
   0   5  11    3.95    0.63 
   5   4 -12    0.75    0.23 
  -5  -4  12    1.33    0.30 
   4   4 -12    0.44    0.20 
  -4  -4  12    0.27    0.22 
  -3  -4  12    3.53    0.43 
  -3  -4  12    3.05    0.43 
   2   4 -12    0.05    0.19 
  -2  -4  12    0.02    0.24 
  -2  -4  12    0.13    0.24 
  -1  -4  12    4.70    0.52 
  -1  -4  12    4.39    0.50 
   0   4 -12    0.22    0.20 
   0  -4  12    0.25    0.27 
   0  -4  12    0.02    0.24 
  -1   4 -12    3.59    0.46 
   1  -4  12    4.06    0.56 
   1  -4  12    4.28    0.53 
   7   3 -12   11.06    0.84 
   7   3 -12   10.67    0.76 
  -7  -3  12   10.37    0.79 
   6   3 -12    5.49    0.52 
   6   3 -12    5.39    0.71 
   6   3 -12    5.09    0.55 
  -6  -3  12    4.87    0.49 
   5   3 -12    8.49    0.60 
   5   3 -12    8.23    0.77 
   5   3 -12    7.88    0.56 
  -5  -3  12    7.88    0.53 
  -5  -3  12    8.09    0.60 
   4   3 -12   14.61    0.85 
   4   3 -12   14.78    0.97 
  -4  -3  12   13.10    0.81 
  -4  -3  12   13.99    0.87 
   3   3 -12    1.17    0.24 
   3   3 -12    0.96    0.37 
  -3  -3  12    0.94    0.25 
  -3  -3  12    1.06    0.25 
   2   3 -12   21.03    1.09 
   2   3 -12   19.89    1.19 
  -2  -3  12   18.22    1.09 
  -2  -3  12   18.69    1.11 
   1   3 -12    5.43    0.46 
  -1  -3  12    5.67    0.54 
  -1  -3  12    5.41    0.50 
   0   3 -12    8.68    0.57 
   0  -3  12    7.50    0.60 
   0  -3  12    7.37    0.63 
  -1   3 -12   11.43    0.76 
   1  -3  12   12.39    0.80 
   1  -3  12   13.05    0.85 
  -2   3 -12    0.79    0.25 
   2  -3  12    0.34    0.27 
   2  -3  12    0.12    0.30 
   3  -3  12    5.68    0.56 
   8   2 -12    1.10    0.35 
   8   2 -12    1.41    0.43 
  -8  -2  12    0.32    0.38 
   7   2 -12    2.77    0.50 
   7   2 -12    3.12    0.53 
  -7  -2  12    2.04    0.38 
   6   2 -12    0.35    0.27 
   6   2 -12    0.34    0.34 
   6   2 -12    0.39    0.26 
  -6  -2  12    0.35    0.22 
   5   2 -12    6.20    0.53 
   5   2 -12    6.54    0.49 
   5   2 -12    5.72    0.60 
  -5  -2  12    6.07    0.50 
   4   2 -12    0.14    0.22 
   4   2 -12   -0.17    0.27 
  -4  -2  12    0.24    0.30 
  -4  -2  12    0.15    0.19 
   3   2 -12    6.88    0.50 
   3   2 -12    6.03    0.58 
  -3  -2  12    5.99    0.48 
  -3  -2  12    6.61    0.52 
   2   2 -12    2.18    0.35 
  -2  -2  12    2.12    0.38 
  -2  -2  12    2.28    0.31 
   1   2 -12    4.46    0.44 
   1   2 -12    4.64    0.57 
  -1  -2  12    4.97    0.46 
  -1  -2  12    4.74    0.39 
   0   2 -12    2.60    0.37 
   0   2 -12    2.28    0.38 
   0  -2  12    3.19    0.45 
   0  -2  12    3.58    0.39 
  -1   2 -12    7.25    0.56 
  -1   2 -12    7.00    0.54 
   1  -2  12    7.34    0.56 
   1  -2  12    8.03    0.62 
  -2   2 -12    3.25    0.48 
  -2   2 -12    3.29    0.44 
   2  -2  12    4.23    0.54 
   2  -2  12    4.41    0.47 
  -3   2 -12    0.38    0.24 
  -3   2 -12    0.28    0.32 
   3  -2  12    0.46    0.24 
   8   1 -12    0.04    0.36 
   8   1 -12    0.16    0.35 
  -8  -1  12    0.41    0.26 
   7   1 -12   28.73    1.60 
   7   1 -12   29.35    1.59 
  -7  -1  12   29.47    1.83 
  -7  -1  12   28.07    1.52 
   6   1 -12   13.15    0.85 
   6   1 -12   12.80    0.83 
  -6  -1  12   12.74    0.88 
  -6  -1  12   13.65    0.77 
   5   1 -12   14.52    0.87 
   5   1 -12   14.69    0.88 
   5   1 -12   13.59    0.84 
  -5  -1  12   14.30    0.84 
  -5  -1  12   14.11    0.90 
  -5  -1  12   14.69    0.81 
   4   1 -12   39.29    2.04 
   4   1 -12   39.11    2.00 
   4   1 -12   39.57    2.04 
  -4  -1  12   38.15    2.05 
  -4  -1  12   38.82    1.98 
  -4  -1  12   39.53    2.03 
   3   1 -12    2.29    0.41 
   3   1 -12    1.86    0.28 
  -3  -1  12    1.96    0.35 
  -3  -1  12    1.64    0.30 
  -3  -1  12    2.09    0.34 
   2   1 -12   59.34    2.95 
   2   1 -12   58.05    2.94 
  -2  -1  12   57.45    2.90 
  -2  -1  12   57.56    2.93 
  -2  -1  12   56.10    2.94 
   1   1 -12    8.41    0.60 
   1   1 -12    7.69    0.54 
  -1  -1  12    8.70    0.59 
  -1  -1  12    8.13    0.55 
  -1  -1  12    8.64    0.58 
   0   1 -12   17.31    0.94 
   0   1 -12   17.45    0.97 
   0  -1  12   16.51    0.97 
   0  -1  12   16.47    0.93 
   0  -1  12   15.68    0.95 
  -1   1 -12   20.46    1.18 
  -1   1 -12   20.59    1.15 
   1  -1  12   21.07    1.18 
   1  -1  12   21.31    1.16 
   1  -1  12   21.46    1.18 
  -2   1 -12    0.57    0.27 
  -2   1 -12    0.42    0.26 
   2  -1  12    0.63    0.28 
   2  -1  12    0.45    0.25 
  -3   1 -12   12.39    0.85 
  -3   1 -12   12.67    0.86 
   3  -1  12   13.66    0.82 
   3  -1  12   12.94    0.96 
  -4   1 -12   -0.19    0.29 
   4  -1  12    0.28    0.25 
   8   0 -12    6.44    0.71 
   8   0 -12    6.68    0.72 
  -8   0  12    6.33    0.58 
  -8   0  12    6.30    0.83 
   7   0 -12    7.02    0.66 
   7   0 -12    6.55    0.64 
  -7   0  12    7.03    0.72 
  -7   0  12    6.27    0.54 
   6   0 -12    5.79    0.60 
   6   0 -12    5.33    0.54 
  -6   0  12    5.45    0.59 
   5   0 -12   12.21    0.77 
   5   0 -12   12.02    0.78 
  -5   0  12   12.10    0.72 
  -5   0  12   11.71    0.81 
   4   0 -12    0.34    0.22 
   4   0 -12    0.50    0.23 
   4   0 -12    0.23    0.24 
  -4   0  12    0.42    0.19 
  -4   0  12    0.35    0.23 
  -4   0  12    0.36    0.18 
   3   0 -12   15.46    0.88 
   3   0 -12   15.24    0.90 
  -3   0  12   15.06    0.86 
  -3   0  12   15.06    0.90 
  -3   0  12   14.99    0.85 
   2   0 -12    1.16    0.25 
   2   0 -12    1.07    0.25 
  -2   0  12    0.96    0.21 
  -2   0  12    1.25    0.25 
   1   0 -12    7.40    0.53 
  -1   0  12    7.14    0.53 
  -1   0  12    7.69    0.52 
  -1   0  12    7.36    0.55 
   0   0 -12    0.85    0.25 
   0   0 -12    0.85    0.22 
   0   0  12    0.88    0.25 
   0   0  12    1.22    0.24 
   0   0  12    1.19    0.24 
  -1   0 -12    4.57    0.49 
  -1   0 -12    3.76    0.44 
   1   0  12    4.08    0.42 
   1   0  12    3.60    0.44 
   1   0  12    4.21    0.44 
  -2   0 -12    2.24    0.37 
  -2   0 -12    2.32    0.42 
   2   0  12    2.67    0.43 
   2   0  12    2.60    0.42 
   2   0  12    2.35    0.43 
  -3   0 -12    0.17    0.32 
   3   0  12    0.05    0.26 
   3   0  12    0.21    0.34 
  -4   0 -12    0.38    0.38 
   4   0  12    0.21    0.45 
   4   0  12    0.38    0.30 
   8  -1 -12    0.47    0.39 
   8  -1 -12    0.61    0.40 
  -8   1  12    0.26    0.26 
  -8   1  12    0.25    0.34 
   7  -1 -12   28.55    1.63 
   7  -1 -12   29.02    1.61 
  -7   1  12   29.07    1.55 
  -7   1  12   28.71    1.66 
   6  -1 -12   13.19    0.87 
   6  -1 -12   13.81    0.90 
  -6   1  12   12.84    0.92 
  -6   1  12   13.36    0.81 
   5  -1 -12   14.68    0.90 
   5  -1 -12   14.40    0.93 
  -5   1  12   13.97    0.93 
  -5   1  12   14.94    0.86 
   4  -1 -12   39.02    2.07 
   4  -1 -12   39.50    2.06 
  -4   1  12   39.43    2.07 
  -4   1  12   39.42    2.03 
   3  -1 -12    2.12    0.33 
   3  -1 -12    1.74    0.29 
  -3   1  12    1.89    0.34 
  -3   1  12    1.96    0.28 
  -3   1  12    1.88    0.32 
   2  -1 -12   55.06    2.90 
   2  -1 -12   57.14    2.92 
  -2   1  12   56.89    2.88 
  -2   1  12   57.91    2.93 
  -2   1  12   58.58    2.90 
   1  -1 -12    8.34    0.62 
   1  -1 -12    8.11    0.58 
  -1   1  12    7.85    0.57 
  -1   1  12    8.87    0.56 
  -1   1  12    8.96    0.62 
  -1   1  12    8.15    0.53 
   0  -1 -12   16.76    1.00 
   0  -1 -12   16.78    0.97 
   0   1  12   17.79    0.94 
   0   1  12   17.29    0.96 
   0   1  12   16.57    0.99 
   0   1  12   15.71    0.92 
  -1  -1 -12   20.29    1.15 
   1   1  12   20.67    1.11 
   1   1  12   21.25    1.15 
   1   1  12   20.36    1.18 
   1   1  12   20.55    1.12 
  -2  -1 -12    0.66    0.32 
   2   1  12    0.43    0.28 
   2   1  12    0.43    0.24 
   2   1  12    0.43    0.23 
  -3  -1 -12   13.13    0.92 
   3   1  12   13.45    0.84 
   3   1  12   12.42    0.90 
   3   1  12   12.69    0.94 
  -4  -1 -12   -0.19    0.39 
   4   1  12    0.55    0.29 
   4   1  12    0.23    0.40 
   8  -2 -12    0.74    0.45 
  -8   2  12    1.21    0.30 
   7  -2 -12    2.50    0.43 
   7  -2 -12    2.95    0.60 
  -7   2  12    3.59    0.46 
   6  -2 -12    0.84    0.39 
   6  -2 -12    0.67    0.31 
  -6   2  12    0.44    0.22 
  -6   2  12    0.33    0.35 
   5  -2 -12    6.26    0.65 
   5  -2 -12    6.03    0.59 
  -5   2  12    7.01    0.54 
  -5   2  12    6.32    0.64 
   4  -2 -12    0.22    0.26 
   4  -2 -12    0.34    0.38 
  -4   2  12    0.10    0.19 
  -4   2  12    0.30    0.29 
   3  -2 -12    6.47    0.56 
  -3   2  12    6.81    0.58 
  -3   2  12    6.79    0.52 
  -3   2  12    6.43    0.54 
   2  -2 -12    2.58    0.45 
  -2   2  12    2.50    0.35 
  -2   2  12    2.00    0.36 
  -2   2  12    2.38    0.33 
  -2   2  12    2.30    0.38 
   1  -2 -12    5.26    0.45 
   1  -2 -12    4.93    0.53 
  -1   2  12    4.03    0.42 
  -1   2  12    3.68    0.50 
  -1   2  12    4.00    0.38 
  -1   2  12    3.62    0.44 
   0  -2 -12    3.04    0.48 
   0  -2 -12    2.83    0.43 
   0   2  12    2.04    0.39 
   0   2  12    2.92    0.44 
   0   2  12    2.90    0.34 
   0   2  12    2.50    0.46 
  -1  -2 -12    7.77    0.66 
   1   2  12    6.04    0.58 
   1   2  12    6.57    0.62 
   1   2  12    6.59    0.54 
  -2  -2 -12    3.76    0.63 
   2   2  12    3.41    0.57 
   2   2  12    3.31    0.46 
   2   2  12    3.24    0.53 
  -3  -2 -12    0.32    0.42 
   3   2  12    0.43    0.26 
   3   2  12    0.35    0.34 
   3   2  12    0.39    0.38 
   7  -3 -12   10.14    0.95 
  -7   3  12   11.45    0.76 
   6  -3 -12    5.27    0.76 
  -6   3  12    5.60    0.52 
   5  -3 -12    6.88    0.66 
   5  -3 -12    7.57    0.77 
  -5   3  12    9.28    0.62 
   4  -3 -12   13.19    0.91 
  -4   3  12   13.45    0.93 
  -4   3  12   15.15    0.96 
  -4   3  12   15.21    0.87 
   3  -3 -12    1.13    0.32 
  -3   3  12    1.14    0.25 
  -3   3  12    0.96    0.31 
  -3   3  12    1.22    0.35 
   2  -3 -12   19.16    1.19 
  -2   3  12   21.37    1.16 
  -2   3  12   20.67    1.10 
  -2   3  12   20.87    1.21 
   1  -3 -12    4.99    0.52 
   1  -3 -12    5.87    0.59 
  -1   3  12    5.59    0.60 
  -1   3  12    5.35    0.47 
  -1   3  12    5.58    0.42 
   0  -3 -12    7.58    0.73 
   0   3  12    9.20    0.63 
   0   3  12    8.53    0.71 
  -1  -3 -12   12.31    0.93 
   1   3  12   12.27    1.00 
   1   3  12   12.41    0.80 
  -2  -3 -12    0.33    0.40 
   2   3  12    0.59    0.43 
   2   3  12    0.38    0.25 
   2   3  12    0.33    0.30 
   3   3  12    6.33    0.73 
   3   3  12    6.45    0.72 
  -5   4  12    0.85    0.26 
  -4   4  12    0.13    0.21 
  -3   4  12    2.33    0.39 
  -2   4  12    0.23    0.21 
  -2   4  12   -0.04    0.23 
  -1   4  12    2.41    0.38 
   0  -4 -12    0.00    0.37 
   0   4  12   -0.06    0.22 
  -1  -4 -12    4.64    0.69 
   1   4  12    3.68    0.49 
  -3  -4  13    5.19    0.62 
  -2  -4  13    2.97    0.51 
  -2  -4  13    2.38    0.49 
   6   3 -13    2.72    0.48 
   5   3 -13    1.55    0.29 
  -5  -3  13    2.61    0.42 
   4   3 -13    0.97    0.25 
  -4  -3  13    0.82    0.28 
  -4  -3  13    0.91    0.27 
   3   3 -13    3.13    0.43 
  -3  -3  13    4.04    0.49 
  -3  -3  13    4.63    0.48 
   2   3 -13    0.25    0.22 
  -2  -3  13    0.79    0.27 
  -2  -3  13    0.57    0.28 
   1   3 -13    8.44    0.64 
  -1  -3  13   10.18    0.72 
  -1  -3  13    9.79    0.70 
   0  -3  13    1.67    0.34 
   0  -3  13    1.39    0.32 
  -1   3 -13    4.18    0.45 
   1  -3  13    3.56    0.54 
   1  -3  13    4.16    0.63 
   7   2 -13    5.22    0.67 
   7   2 -13    5.74    0.64 
  -7  -2  13    5.53    0.61 
   6   2 -13   18.74    1.11 
   6   2 -13   19.05    1.10 
  -6  -2  13   17.73    1.07 
   5   2 -13    0.71    0.27 
   5   2 -13    0.46    0.38 
   5   2 -13    0.83    0.27 
  -5  -2  13    1.13    0.26 
   4   2 -13   28.03    1.50 
  -4  -2  13   27.03    1.49 
   3   2 -13    3.35    0.44 
  -3  -2  13    3.74    0.45 
   2   2 -13   10.12    0.67 
   2   2 -13   10.02    0.81 
  -2  -2  13    9.46    0.69 
   1   2 -13   11.41    0.77 
   1   2 -13   11.46    0.90 
  -1  -2  13   12.78    0.80 
  -1  -2  13   11.81    0.72 
   0   2 -13   -0.17    0.23 
   0   2 -13    0.07    0.26 
   0  -2  13    0.24    0.23 
   0  -2  13    0.33    0.27 
  -1   2 -13    6.64    0.57 
   1  -2  13    6.25    0.57 
   1  -2  13    7.34    0.66 
  -2   2 -13    0.94    0.30 
   2  -2  13    1.26    0.38 
   2  -2  13    1.30    0.30 
   7   1 -13    2.72    0.59 
   7   1 -13    2.20    0.39 
  -7  -1  13    1.69    0.31 
   6   1 -13    3.49    0.52 
   6   1 -13    3.20    0.54 
  -6  -1  13    3.07    0.41 
  -6  -1  13    3.26    0.43 
   5   1 -13    8.45    0.67 
   5   1 -13    8.98    0.69 
   5   1 -13    8.82    0.62 
  -5  -1  13    7.83    0.60 
  -5  -1  13    7.92    0.57 
   4   1 -13    0.92    0.33 
   4   1 -13    1.11    0.27 
   4   1 -13    0.73    0.24 
  -4  -1  13    0.73    0.23 
  -4  -1  13    0.48    0.29 
  -4  -1  13    0.76    0.21 
   3   1 -13   11.72    0.79 
   3   1 -13   11.79    0.75 
  -3  -1  13   10.75    0.74 
  -3  -1  13   11.54    0.74 
  -3  -1  13   11.13    0.68 
   2   1 -13    0.31    0.32 
   2   1 -13    0.17    0.25 
  -2  -1  13    0.20    0.23 
  -2  -1  13    0.29    0.20 
  -2  -1  13    0.21    0.21 
   1   1 -13   17.80    0.99 
   1   1 -13   18.32    1.03 
  -1  -1  13   16.24    0.97 
  -1  -1  13   17.48    1.02 
   0   1 -13    1.70    0.32 
   0   1 -13    1.82    0.30 
   0  -1  13    2.25    0.33 
   0  -1  13    1.88    0.29 
  -1   1 -13    9.81    0.68 
  -1   1 -13    9.43    0.67 
   1  -1  13    7.80    0.65 
   1  -1  13    7.99    0.69 
  -2   1 -13    3.49    0.58 
  -2   1 -13    4.46    0.56 
   2  -1  13    4.32    0.54 
   2  -1  13    4.62    0.59 
  -3   1 -13    1.87    0.39 
   3  -1  13    2.75    0.46 
   8   0 -13    9.33    0.88 
  -8   0  13    8.36    0.72 
   7   0 -13   11.52    0.87 
   7   0 -13   11.56    0.88 
  -7   0  13   11.52    0.78 
  -7   0  13   11.46    0.99 
   6   0 -13   24.77    1.39 
   6   0 -13   22.50    1.48 
  -6   0  13   23.98    1.43 
  -6   0  13   25.35    1.32 
   5   0 -13    2.75    0.49 
   5   0 -13    2.55    0.48 
  -5   0  13    2.00    0.37 
  -5   0  13    2.24    0.37 
  -5   0  13    2.16    0.39 
   4   0 -13   37.39    1.95 
   4   0 -13   36.23    1.91 
   4   0 -13   37.25    1.93 
  -4   0  13   36.92    1.92 
  -4   0  13   37.02    1.91 
  -4   0  13   36.24    1.97 
   3   0 -13    5.30    0.52 
   3   0 -13    5.04    0.53 
  -3   0  13    5.24    0.54 
  -3   0  13    4.67    0.45 
  -3   0  13    5.27    0.47 
   2   0 -13   16.05    0.96 
   2   0 -13   16.26    0.96 
  -2   0  13   15.92    0.91 
  -2   0  13   14.37    0.93 
  -2   0  13   15.43    0.95 
   1   0 -13   23.96    1.35 
   1   0 -13   22.99    1.32 
  -1   0  13   24.58    1.36 
  -1   0  13   24.07    1.30 
  -1   0  13   25.26    1.32 
   0   0 -13    1.78    0.31 
   0   0 -13    1.27    0.31 
   0   0  13    1.56    0.31 
   0   0  13    1.75    0.30 
   0   0  13    1.53    0.28 
  -1   0 -13   13.76    0.90 
  -1   0 -13   14.71    0.93 
   1   0  13   14.11    0.87 
  -2   0 -13    0.91    0.34 
   2   0  13    0.58    0.29 
   2   0  13    0.36    0.64 
  -3   0 -13    6.13    0.69 
   3   0  13    6.01    0.84 
   3   0  13    6.35    0.64 
   7  -1 -13    1.18    0.49 
   7  -1 -13    1.99    0.46 
  -7   1  13    2.99    0.48 
   6  -1 -13    3.43    0.58 
   6  -1 -13    3.76    0.62 
  -6   1  13    3.48    0.47 
  -6   1  13    3.34    0.51 
   5  -1 -13    7.47    0.68 
   5  -1 -13    7.54    0.86 
  -5   1  13    8.72    0.60 
  -5   1  13    8.30    0.75 
   4  -1 -13    0.86    0.31 
  -4   1  13    0.80    0.24 
  -4   1  13    0.95    0.30 
  -4   1  13    0.88    0.24 
   3  -1 -13   11.33    0.72 
   3  -1 -13   11.03    0.79 
  -3   1  13   12.10    0.72 
  -3   1  13   11.46    0.81 
  -3   1  13   11.86    0.73 
   2  -1 -13    0.40    0.29 
  -2   1  13    0.20    0.21 
  -2   1  13    0.33    0.44 
  -2   1  13    0.44    0.30 
   1  -1 -13   17.24    1.05 
  -1   1  13   18.92    1.02 
  -1   1  13   17.86    1.09 
  -1   1  13   18.09    1.03 
   0  -1 -13    2.10    0.34 
   0  -1 -13    2.15    0.35 
   0   1  13    1.77    0.29 
   0   1  13    1.92    0.33 
   0   1  13    1.77    0.33 
   0   1  13    1.76    0.28 
  -1  -1 -13    7.88    0.74 
   1   1  13    8.98    0.64 
   1   1  13    8.69    0.73 
   1   1  13    9.14    0.66 
  -2  -1 -13    4.11    0.67 
   2   1  13    4.14    0.51 
  -3  -1 -13    2.17    0.46 
   3   1  13    2.15    0.37 
   3   1  13    2.28    0.49 
   7  -2 -13    7.22    0.83 
  -7   2  13    6.18    0.62 
   6  -2 -13   17.17    1.15 
   6  -2 -13   18.01    1.22 
  -6   2  13   19.10    1.08 
   5  -2 -13    0.94    0.43 
   5  -2 -13    1.11    0.38 
  -5   2  13    0.73    0.41 
  -5   2  13    0.79    0.26 
   4  -2 -13   25.90    1.52 
  -4   2  13   27.37    1.55 
  -4   2  13   28.61    1.49 
   3  -2 -13    3.34    0.57 
  -3   2  13    3.86    0.43 
  -3   2  13    4.06    0.58 
  -3   2  13    3.38    0.44 
   2  -2 -13   10.06    0.76 
  -2   2  13    9.55    0.69 
  -2   2  13    9.97    0.78 
  -2   2  13   10.03    0.68 
  -2   2  13   10.16    0.65 
   1  -2 -13   11.64    0.85 
  -1   2  13   11.37    0.77 
  -1   2  13   11.21    0.75 
  -1   2  13   12.24    0.72 
  -1   2  13   11.13    0.85 
   0  -2 -13    0.15    0.33 
   0   2  13    0.32    0.29 
   0   2  13    0.26    0.24 
   0   2  13    0.07    0.32 
   0   2  13    0.08    0.23 
  -1  -2 -13    6.18    0.78 
   1   2  13    6.77    0.72 
   1   2  13    7.29    0.58 
  -2  -2 -13    1.27    0.44 
   2   2  13    1.00    0.30 
   6  -3 -13    2.31    0.58 
  -6   3  13    3.18    0.49 
  -5   3  13    1.53    0.29 
  -4   3  13    1.13    0.28 
   3  -3 -13    4.36    0.69 
  -3   3  13    2.77    0.43 
  -3   3  13    2.87    0.43 
  -3   3  13    1.99    0.40 
   2  -3 -13    0.60    0.40 
  -2   3  13    0.09    0.22 
  -2   3  13    0.25    0.23 
  -2   3  13    0.36    0.35 
   1  -3 -13    9.93    0.81 
   1  -3 -13    9.43    0.71 
  -1   3  13    8.02    0.77 
  -1   3  13    8.62    0.65 
   0  -3 -13    1.33    0.54 
   0   3  13    0.69    0.27 
   0   3  13    1.06    0.52 
   1   3  13    4.54    0.52 
  -2   4  13    3.42    0.56 
   3   3 -14    3.42    0.43 
  -3  -3  14    2.46    0.36 
  -3  -3  14    3.05    0.41 
   2   3 -14    0.08    0.25 
  -2  -3  14   -0.02    0.32 
  -2  -3  14    0.12    0.29 
   5   2 -14   11.03    0.78 
  -5  -2  14   10.31    0.73 
   4   2 -14    1.79    0.34 
   4   2 -14    0.92    0.57 
  -4  -2  14    1.80    0.31 
   3   2 -14   16.55    0.99 
   3   2 -14   15.86    1.13 
  -3  -2  14   16.32    0.99 
   2   2 -14    0.60    0.28 
  -2  -2  14    0.28    0.28 
   1   2 -14    8.41    0.65 
  -1  -2  14    8.58    0.74 
  -1  -2  14    8.65    0.67 
   0   2 -14    5.87    0.56 
   0  -2  14    4.80    0.55 
   0  -2  14    4.91    0.64 
   6   1 -14   15.54    1.04 
  -6  -1  14   15.68    0.95 
   5   1 -14    0.66    0.32 
  -5  -1  14    0.59    0.25 
  -5  -1  14    0.78    0.26 
   4   1 -14    9.15    0.72 
  -4  -1  14    9.65    0.68 
  -4  -1  14    9.41    0.64 
   3   1 -14    8.07    0.65 
   3   1 -14    7.62    0.74 
  -3  -1  14    7.18    0.56 
  -3  -1  14    7.52    0.62 
   2   1 -14    1.39    0.32 
  -2  -1  14    0.55    0.26 
  -2  -1  14    0.58    0.29 
   1   1 -14    6.21    0.60 
   1   1 -14    6.74    0.61 
   1   1 -14    6.49    0.76 
  -1  -1  14    6.08    0.62 
  -1  -1  14    5.76    0.54 
   0   1 -14    0.13    0.30 
   0  -1  14    0.23    0.31 
   0  -1  14    0.33    0.28 
  -1   1 -14    4.93    0.59 
   1  -1  14    4.17    0.59 
   1  -1  14    4.56    0.66 
   6   0 -14    1.42    0.70 
   6   0 -14    1.21    0.37 
  -6   0  14    1.34    0.32 
  -6   0  14    1.15    0.30 
   5   0 -14   10.70    0.82 
   5   0 -14   11.06    0.84 
  -5   0  14   10.18    0.73 
  -5   0  14   11.12    0.74 
  -5   0  14   11.32    1.08 
   4   0 -14    0.53    0.34 
  -4   0  14    0.31    0.35 
  -4   0  14    0.61    0.26 
  -4   0  14    0.22    0.25 
   3   0 -14   28.24    1.55 
   3   0 -14   27.73    1.65 
  -3   0  14   26.47    1.57 
  -3   0  14   29.35    1.52 
  -3   0  14   27.57    1.49 
   2   0 -14    8.74    0.74 
   2   0 -14    8.47    0.71 
  -2   0  14    8.41    0.63 
  -2   0  14    9.01    0.66 
  -2   0  14    8.18    0.74 
   1   0 -14   21.93    1.30 
   1   0 -14   23.13    1.32 
  -1   0  14   22.36    1.26 
  -1   0  14   23.87    1.29 
   0   0 -14   14.96    0.97 
   0   0 -14   13.78    0.96 
   0   0  14   14.53    0.92 
   0   0  14   14.43    0.90 
  -1   0 -14    4.08    0.64 
   1   0  14    3.76    0.61 
   1   0  14    3.46    0.54 
   6  -1 -14   16.19    1.13 
   6  -1 -14   15.90    1.10 
  -6   1  14   15.64    0.99 
   5  -1 -14    0.74    0.45 
   5  -1 -14    0.58    0.40 
  -5   1  14    0.52    0.29 
  -5   1  14    0.61    0.43 
  -5   1  14    0.82    0.29 
   4  -1 -14   10.31    0.80 
  -4   1  14    9.51    0.70 
  -4   1  14    9.35    0.69 
  -4   1  14    9.67    0.83 
   3  -1 -14    7.07    0.71 
  -3   1  14    8.27    0.62 
  -3   1  14    7.22    0.60 
  -3   1  14    7.53    0.73 
   2  -1 -14    0.51    0.35 
  -2   1  14    1.04    0.27 
  -2   1  14    1.21    0.30 
  -2   1  14    0.84    0.38 
   1  -1 -14    5.38    0.68 
  -1   1  14    6.63    0.57 
  -1   1  14    6.58    0.71 
  -1   1  14    6.45    0.58 
   0  -1 -14    0.32    0.37 
   0   1  14   -0.05    0.37 
   0   1  14    0.22    0.26 
   0   1  14    0.22    0.29 
  -1  -1 -14    4.10    0.70 
   1   1  14    4.55    0.55 
  -5   2  14   11.94    0.83 
   4  -2 -14    1.87    0.43 
  -4   2  14    1.52    0.32 
  -4   2  14    1.89    0.33 
   3  -2 -14   16.66    1.10 
  -3   2  14   16.19    1.00 
  -3   2  14   16.58    0.98 
   2  -2 -14    0.22    0.38 
  -2   2  14    0.45    0.49 
  -2   2  14    0.49    0.27 
   1  -2 -14    8.14    0.92 
  -1   2  14    7.95    0.65 
  -1   2  14    8.50    0.64 
   0  -2 -14    4.89    0.74 
   0   2  14    5.51    0.57 
  -3   3  14    3.18    0.57 
  -3   3  14    2.74    0.48 
  -2   3  14   -0.07    0.24 
   4   1 -15    2.64    0.45 
  -4  -1  15    3.25    0.53 
   3   1 -15   11.82    0.90 
  -3  -1  15   13.79    0.89 
   2   1 -15    8.62    0.78 
  -2  -1  15   10.10    0.79 
   4   0 -15    2.77    0.45 
  -4   0  15    2.53    0.37 
  -4   0  15    2.60    0.38 
   3   0 -15    0.30    0.38 
  -3   0  15    0.02    0.30 
  -3   0  15    0.07    0.32 
   2   0 -15    0.91    0.39 
  -2   0  15    0.75    0.30 
  -2   0  15    0.98    0.35 
   1   0 -15    0.41    0.40 
  -1   0  15    1.29    0.35 
  -1   0  15    1.12    0.39 
   4  -1 -15    2.59    0.49 
  -4   1  15    2.41    0.38 
  -4   1  15    2.81    0.40 
   3  -1 -15   13.23    1.00 
  -3   1  15   12.84    0.88 
  -3   1  15   11.55    0.86 
   2  -1 -15    9.32    0.85 
  -2   1  15    8.32    0.72 
  -2   1  15    9.16    0.75 
   0   0   0    0.00    0.00 
;
_shelx_hkl_checksum              5124
loop_
_space_group_symop_operation_xyz
'x, y, z'
'-x, y+1/2, -z'
loop_
_atom_site_label
_atom_site_type_symbol
_atom_site_fract_x
_atom_site_fract_y
_atom_site_fract_z
_atom_site_U_iso_or_equiv
_atom_site_adp_type
_atom_site_occupancy
_atom_site_site_symmetry_order
_atom_site_calc_flag
_atom_site_refinement_flags_posn
_atom_site_refinement_flags_adp
Br1 Br 0.78712(6) 0.72909(15) -0.22014(4) 0.0465(2) Uani 1 1 d . .
S1 S 0.80247(10) 1.26315(14) 0.48661(8) 0.0193(2) Uani 1 1 d . .
O1 O 0.7215(4) 1.4821(5) 0.4920(4) 0.0312(7) Uani 1 1 d . .
O2 O 0.9429(4) 1.2117(6) 0.5838(3) 0.0301(6) Uani 1 1 d . .
C1 C 0.8534(4) 1.2315(8) 0.3451(3) 0.0219(7) Uani 1 1 d . .
H1A H 0.8841 1.3826 0.3157 0.026 Uiso 1 1 calc R U
H1B H 0.9455 1.1212 0.3510 0.026 Uiso 1 1 calc R U
C2 C 0.6940(5) 1.1364(7) 0.2616(4) 0.0245(9) Uani 1 1 d . .
H2 H 0.6107 1.2638 0.2428 0.029 Uiso 1 1 calc R U
C3 C 0.6338(6) 0.9497(8) 0.3369(4) 0.0302(10) Uani 1 1 d . .
H3A H 0.5169 0.9135 0.3005 0.036 Uiso 1 1 calc R U
H3B H 0.6985 0.8058 0.3376 0.036 Uiso 1 1 calc R U
C4 C 0.6528(6) 1.0361(8) 0.4649(4) 0.0274(9) Uani 1 1 d . .
H4A H 0.6904 0.9089 0.5232 0.033 Uiso 1 1 calc R U
H4B H 0.5467 1.0957 0.4760 0.033 Uiso 1 1 calc R U
C5 C 0.7226(5) 1.0403(7) 0.1445(4) 0.0257(9) Uani 1 1 d . .
C6 C 0.6554(6) 1.1516(8) 0.0345(4) 0.0293(10) Uani 1 1 d . .
H6 H 0.5949 1.2912 0.0340 0.035 Uiso 1 1 calc R U
C7 C 0.6754(6) 1.0623(10) -0.0733(5) 0.0367(12) Uani 1 1 d . .
H7 H 0.6267 1.1374 -0.1471 0.044 Uiso 1 1 calc R U
C8 C 0.7657(6) 0.8655(10) -0.0721(4) 0.0305(10) Uani 1 1 d . .
C9 C 0.8390(5) 0.7533(10) 0.0333(4) 0.0307(8) Uani 1 1 d . .
H9 H 0.9028 0.6175 0.0322 0.037 Uiso 1 1 calc R U
C10 C 0.8177(6) 0.8433(8) 0.1422(5) 0.0304(10) Uani 1 1 d . .
H10 H 0.8690 0.7686 0.2156 0.036 Uiso 1 1 calc R U
loop_
_atom_site_aniso_label
_atom_site_aniso_U_11
_atom_site_aniso_U_22
_atom_site_aniso_U_33
_atom_site_aniso_U_23
_atom_site_aniso_U_13
_atom_site_aniso_U_12
Br1 0.0375(3) 0.0773(5) 0.0284(3) 0.0065(3) 0.01512(19) 0.0131(3)
S1 0.0175(4) 0.0112(4) 0.0280(4) -0.0017(4) 0.0034(3) -0.0002(3)
O1 0.0321(17) 0.0176(15) 0.047(2) 0.0005(13) 0.0159(15) 0.0069(12)
O2 0.0259(13) 0.0279(16) 0.0319(14) -0.0032(14) -0.0021(11) 0.0016(13)
C1 0.0187(15) 0.0170(17) 0.0295(17) -0.0010(17) 0.0046(13) -0.0043(16)
C2 0.0219(19) 0.0214(19) 0.028(2) 0.0035(15) 0.0015(16) -0.0021(14)
C3 0.036(2) 0.023(2) 0.030(2) -0.0028(17) 0.0067(19) -0.0170(18)
C4 0.030(2) 0.0233(19) 0.028(2) -0.0010(16) 0.0048(18) -0.0119(17)
C5 0.022(2) 0.0228(19) 0.030(2) 0.0010(17) 0.0012(16) -0.0076(16)
C6 0.024(2) 0.024(2) 0.038(2) 0.0142(17) 0.0043(17) 0.0027(15)
C7 0.028(2) 0.047(3) 0.035(3) 0.020(2) 0.0074(19) 0.004(2)
C8 0.021(2) 0.046(3) 0.025(2) 0.0083(19) 0.0070(17) -0.0045(18)
C9 0.0278(19) 0.031(2) 0.0305(19) -0.001(2) 0.0025(15) 0.002(2)
C10 0.035(2) 0.0242(19) 0.028(2) 0.0039(17) 0.0003(19) 0.0024(18)
loop_
_atom_type_symbol
_atom_type_description
_atom_type_scat_dispersion_real
_atom_type_scat_dispersion_imag
_atom_type_scat_source
C C 0.0033 0.0016 'International Tables Vol C Tables 4.2.6.8 and 6.1.1.4'
H H 0.0000 0.0000 'International Tables Vol C Tables 4.2.6.8 and 6.1.1.4'
O O 0.0106 0.0060 'International Tables Vol C Tables 4.2.6.8 and 6.1.1.4'
S S 0.1246 0.1234 'International Tables Vol C Tables 4.2.6.8 and 6.1.1.4'
Br Br -0.2901 2.4595 'International Tables Vol C Tables 4.2.6.8 and 6.1.1.4'
loop_
_geom_angle_atom_site_label_1
_geom_angle_atom_site_label_2
_geom_angle_atom_site_label_3
_geom_angle
O1 S1 O2 116.9(2)
O1 S1 C1 110.4(2)
O2 S1 C1 110.46(18)
O1 S1 C4 108.9(2)
O2 S1 C4 111.8(2)
C1 S1 C4 96.5(2)
C2 C1 S1 103.7(3)
C2 C1 H1A 111.0
S1 C1 H1A 111.0
C2 C1 H1B 111.0
S1 C1 H1B 111.0
H1A C1 H1B 109.0
C5 C2 C3 112.5(4)
C5 C2 C1 112.2(4)
C3 C2 C1 104.7(3)
C5 C2 H2 109.1
C3 C2 H2 109.1
C1 C2 H2 109.1
C4 C3 C2 109.8(3)
C4 C3 H3A 109.7
C2 C3 H3A 109.7
C4 C3 H3B 109.7
C2 C3 H3B 109.7
H3A C3 H3B 108.2
C3 C4 S1 106.3(3)
C3 C4 H4A 110.5
S1 C4 H4A 110.5
C3 C4 H4B 110.5
S1 C4 H4B 110.5
H4A C4 H4B 108.7
C10 C5 C6 117.6(5)
C10 C5 C2 121.8(4)
C6 C5 C2 120.6(4)
C7 C6 C5 121.4(4)
C7 C6 H6 119.3
C5 C6 H6 119.3
C8 C7 C6 119.3(4)
C8 C7 H7 120.4
C6 C7 H7 120.4
C7 C8 C9 121.9(5)
C7 C8 Br1 120.3(4)
C9 C8 Br1 117.7(4)
C8 C9 C10 118.7(5)
C8 C9 H9 120.6
C10 C9 H9 120.6
C5 C10 C9 121.1(5)
C5 C10 H10 119.5
C9 C10 H10 119.5
loop_
_geom_bond_atom_site_label_1
_geom_bond_atom_site_label_2
_geom_bond_distance
Br1 C8 1.916(5)
S1 O1 1.441(3)
S1 O2 1.442(3)
S1 C1 1.782(4)
S1 C4 1.789(4)
C1 C2 1.544(5)
C1 H1A 0.9900
C1 H1B 0.9900
C2 C5 1.523(7)
C2 C3 1.539(6)
C2 H2 1.0000
C3 C4 1.519(7)
C3 H3A 0.9900
C3 H3B 0.9900
C4 H4A 0.9900
C4 H4B 0.9900
C5 C10 1.391(7)
C5 C6 1.404(6)
C6 C7 1.384(8)
C6 H6 0.9500
C7 C8 1.362(8)
C7 H7 0.9500
C8 C9 1.376(6)
C9 C10 1.401(7)
C9 H9 0.9500
C10 H10 0.9500
loop_
_geom_torsion_atom_site_label_1
_geom_torsion_atom_site_label_2
_geom_torsion_atom_site_label_3
_geom_torsion_atom_site_label_4
_geom_torsion
O1 S1 C1 C2 -84.2(3)
O2 S1 C1 C2 145.0(3)
C4 S1 C1 C2 28.8(3)
S1 C1 C2 C5 -165.8(3)
S1 C1 C2 C3 -43.5(4)
C5 C2 C3 C4 164.4(4)
C1 C2 C3 C4 42.3(5)
C2 C3 C4 S1 -20.9(5)
O1 S1 C4 C3 109.1(4)
O2 S1 C4 C3 -120.2(3)
C1 S1 C4 C3 -5.1(4)
C3 C2 C5 C10 -51.0(6)
C1 C2 C5 C10 66.7(5)
C3 C2 C5 C6 130.1(4)
C1 C2 C5 C6 -112.2(5)
C10 C5 C6 C7 3.4(7)
C2 C5 C6 C7 -177.7(4)
C5 C6 C7 C8 -1.7(7)
C6 C7 C8 C9 -0.5(8)
C6 C7 C8 Br1 177.0(4)
C7 C8 C9 C10 0.9(8)
Br1 C8 C9 C10 -176.7(4)
C6 C5 C10 C9 -2.9(7)
C2 C5 C10 C9 178.2(4)
C8 C9 C10 C5 0.9(8)
