#------------------------------------------------------------------------------
#$Date: 2019-11-25 09:09:53 +0200 (Mon, 25 Nov 2019) $
#$Revision: 240582 $
#$URL: file:///home/coder/svn-repositories/cod/cif/4/12/99/4129974.cif $
#------------------------------------------------------------------------------
#
# This file is available in the Crystallography Open Database (COD),
# http://www.crystallography.net/
#
# All data on this site have been placed in the public domain by the
# contributors.
#
data_4129974
loop_
_publ_author_name
'Shi, Qinqin'
'Zhang, Siyuan'
'Zhang, Junxiang'
'Oswald, Victoria F.'
'Amassian, Aram'
'Marder, Seth R.'
'Blakey, Simon B.'
_publ_section_title
;
 KO(t)Bu-Initiated Aryl C-H Iodination: A Powerful Tool for the Synthesis
 of High Electron Affinity Compounds.
;
_journal_issue                   12
_journal_name_full               'Journal of the American Chemical Society'
_journal_page_first              3946
_journal_page_last               3949
_journal_paper_doi               10.1021/jacs.5b12259
_journal_volume                  138
_journal_year                    2016
_chemical_absolute_configuration ad
_chemical_formula_moiety         'Br C3 I2 N S'
_chemical_formula_sum            'C3 Br I2 N S'
_chemical_formula_weight         415.81
_space_group_crystal_system      orthorhombic
_space_group_IT_number           19
_space_group_name_Hall           'P 2ac 2ab'
_space_group_name_H-M_alt        'P 21 21 21'
_audit_creation_date             2015-11-12
_audit_creation_method
;
Olex2 1.2-dev
(compiled 2015.10.28 svn.r3245 for OlexSys, GUI svn.r5128)
;
_cell_angle_alpha                90
_cell_angle_beta                 90
_cell_angle_gamma                90
_cell_formula_units_Z            4
_cell_length_a                   4.2100(4)
_cell_length_b                   13.2907(10)
_cell_length_c                   14.1228(11)
_cell_measurement_reflns_used    4121
_cell_measurement_temperature    100(2)
_cell_measurement_theta_max      30.50
_cell_measurement_theta_min      2.884
_cell_volume                     790.22(11)
_computing_cell_refinement       'SAINT v8.34A (Bruker, 2013)'
_computing_data_collection       'APEX2 v2014.11 (Bruker, 2014)'
_computing_data_reduction        'SAINT v8.34A (Bruker, 2013)'
_computing_molecular_graphics    'Olex2 (Dolomanov et al., 2009)'
_computing_publication_material  'Olex2 (Dolomanov et al., 2009)'
_computing_structure_refinement  'SHELXL-2014/7 (Sheldrick, 2014)'
_computing_structure_solution    'SHELXT-2014/4 (Sheldrick, 2015)'
_diffrn_ambient_temperature      100(2)
_diffrn_detector_area_resol_mean 512
_diffrn_measured_fraction_theta_full 0.999
_diffrn_measured_fraction_theta_max 0.995
_diffrn_measurement_device_type  'Bruker APEX-II CCD'
_diffrn_measurement_method       '\f and \w scans'
_diffrn_radiation_monochromator  graphite
_diffrn_radiation_type           MoK\a
_diffrn_radiation_wavelength     0.71073
_diffrn_reflns_av_R_equivalents  0.0459
_diffrn_reflns_av_unetI/netI     0.0722
_diffrn_reflns_Laue_measured_fraction_full 0.999
_diffrn_reflns_Laue_measured_fraction_max 0.995
_diffrn_reflns_limit_h_max       6
_diffrn_reflns_limit_h_min       -4
_diffrn_reflns_limit_k_max       18
_diffrn_reflns_limit_k_min       -15
_diffrn_reflns_limit_l_max       19
_diffrn_reflns_limit_l_min       -20
_diffrn_reflns_number            5024
_diffrn_reflns_point_group_measured_fraction_full 0.999
_diffrn_reflns_point_group_measured_fraction_max 0.996
_diffrn_reflns_theta_full        25.242
_diffrn_reflns_theta_max         30.562
_diffrn_reflns_theta_min         2.885
_diffrn_source                   'fine-focus sealed tube'
_diffrn_source_current           35
_diffrn_source_voltage           45
_diffrn_standards_number         0
_exptl_absorpt_coefficient_mu    13.184
_exptl_absorpt_correction_T_max  0.3686
_exptl_absorpt_correction_T_min  0.0769
_exptl_absorpt_correction_type   numerical
_exptl_absorpt_process_details
;
SADABS-2014/5 (Bruker,2014/5) was used for absorption correction.
wR2(int) was 0.1206 before and 0.0641 after correction.
The Ratio of minimum to maximum transmission is 0.2086.
The \l/2 correction factor is Not present.
;
_exptl_crystal_colour            colourless
_exptl_crystal_colour_primary    colourless
_exptl_crystal_density_diffrn    3.495
_exptl_crystal_description       plate
_exptl_crystal_F_000             728
_exptl_crystal_recrystallization_method
'The material was recrystallised from DCM by slow evaporation'
_exptl_crystal_size_max          0.316
_exptl_crystal_size_mid          0.209
_exptl_crystal_size_min          0.095
_refine_diff_density_max         2.531
_refine_diff_density_min         -1.507
_refine_diff_density_rms         0.312
_refine_ls_abs_structure_details
;
 Refined as an inversion twin.
;
_refine_ls_abs_structure_Flack   0.05(3)
_refine_ls_extinction_method     none
_refine_ls_goodness_of_fit_ref   0.995
_refine_ls_hydrogen_treatment    undef
_refine_ls_matrix_type           full
_refine_ls_number_parameters     74
_refine_ls_number_reflns         2336
_refine_ls_number_restraints     0
_refine_ls_restrained_S_all      0.995
_refine_ls_R_factor_all          0.0472
_refine_ls_R_factor_gt           0.0393
_refine_ls_shift/su_max          0.000
_refine_ls_shift/su_mean         0.000
_refine_ls_structure_factor_coef Fsqd
_refine_ls_weighting_details
'w=1/[\s^2^(Fo^2^)+(0.0215P)^2^] where P=(Fo^2^+2Fc^2^)/3'
_refine_ls_weighting_scheme      calc
_refine_ls_wR_factor_gt          0.0757
_refine_ls_wR_factor_ref         0.0793
_reflns_Friedel_coverage         0.680
_reflns_Friedel_fraction_full    1.000
_reflns_Friedel_fraction_max     0.997
_reflns_number_gt                2075
_reflns_number_total             2336
_reflns_threshold_expression     'I > 2\s(I)'
_cod_data_source_file            ja5b12259_si_003.cif
_cod_data_source_block           a257_0m
_cod_original_cell_volume        790.23(11)
_cod_database_code               4129974
_shelx_space_group_comment
;
The symmetry employed for this shelxl refinement is uniquely defined
by the following loop, which should always be used as a source of
symmetry information in preference to the above space-group names.
They are only intended as comments.
;
_shelx_estimated_absorpt_t_max   0.367
_shelx_estimated_absorpt_t_min   0.103
_olex2_refinement_description
;
1. Twinned data refinement
 Scales: 0.95(3) 0.05(3)
;
_shelx_res_file
;
    a257_0m.res created by SHELXL-2014/7

TITL a257_0m_a.res in P2(1)2(1)2(1)
REM Old TITL A257_0m in P212121 #19
REM SHELXT solution in P2(1)2(1)2(1)
REM R1 0.110, Rweak 0.020, Alpha 0.001, Orientation as input
REM Flack x = -0.019 ( 0.076 ) from Parsons' quotients
REM Formula found by SHELXT: C2 N F S I3
rem RIGU 0.002 0.002 C1 C2
rem RIGU 0.002 0.002 C2 N1
rem RIGU 0.002 0.002 N1 C3 C2
rem ISOR 0.002 0.004 C2
rem RIGU 0.002 0.002 C2 I2
CELL 0.71073 4.21 13.2907 14.1228 90 90 90
ZERR 4 0.0004 0.001 0.0011 0 0 0
LATT -1
SYMM 0.5-X,-Y,0.5+Z
SYMM -X,0.5+Y,0.5-Z
SYMM 0.5+X,0.5-Y,-Z
SFAC Br C I N S
UNIT 4 12 8 4 4

L.S. 4 0 0
PLAN  20
SIZE 0.095 0.209 0.316
TEMP -173
BOND $H
LIST 4
MORE -1
CONF
fmap 2 53
acta
TWIN -1 0 0 0 -1 0 0 0 -1 2
OMIT 0 1 1
REM <olex2.extras>
REM <HklSrc "%.\\sad.hkl">
REM </olex2.extras>

WGHT    0.021500
BASF   0.05028
FVAR       0.32703
I1    3    0.321215    0.478900    0.656927    11.00000    0.01441    0.02091 =
         0.01376    0.00478    0.00034    0.00030
I2    3    0.030176    0.361095    0.419089    11.00000    0.01564    0.01583 =
         0.02301   -0.00121    0.00217   -0.00271
BR1   1    0.614028    0.735385    0.297757    11.00000    0.02569    0.01771 =
         0.01332    0.00243    0.00111   -0.00495
S1    5    0.577561    0.644089    0.501850    11.00000    0.01749    0.01649 =
         0.01079    0.00085   -0.00041   -0.00118
N1    4    0.324293    0.555102    0.358421    11.00000    0.01731    0.01558 =
         0.01314   -0.00122    0.00244   -0.00063
C1    2    0.381632    0.531077    0.520331    11.00000    0.01734    0.01485 =
         0.01045    0.00513    0.00041    0.00085
C3    2    0.488120    0.634138    0.384094    11.00000    0.01250    0.01624 =
         0.00802    0.00085    0.00119    0.00279
C2    2    0.266755    0.497166    0.437047    11.00000    0.00947    0.01682 =
         0.01284    0.00252    0.00295    0.00232
HKLF 4

REM  a257_0m_a.res in P2(1)2(1)2(1)
REM R1 =  0.0393 for    2075 Fo > 4sig(Fo)  and  0.0472 for all    2336 data
REM     74 parameters refined using      0 restraints

END

WGHT      0.0215      0.0000

REM Highest difference peak  2.531,  deepest hole -1.507,  1-sigma level  0.312
Q1    1   0.3033  0.4925  0.6011  11.00000  0.05    2.53
Q2    1   0.0487  0.3661  0.3623  11.00000  0.05    2.30
Q3    1   0.3177  0.4842  0.7114  11.00000  0.05    2.16
Q4    1  -0.1626  0.3610  0.4166  11.00000  0.05    1.99
Q5    1   0.5017  0.4752  0.6566  11.00000  0.05    1.94
Q6    1   0.2137  0.3592  0.4196  11.00000  0.05    1.84
Q7    1   0.0270  0.3582  0.4730  11.00000  0.05    1.82
Q8    1   0.1189  0.4804  0.6561  11.00000  0.05    1.74
Q9    1   0.5994  0.7266  0.2445  11.00000  0.05    1.69
Q10   1   0.4443  0.7405  0.2998  11.00000  0.05    1.66
Q11   1   0.6006  0.7385  0.3535  11.00000  0.05    1.23
Q12   1   0.4530  0.4945  0.5879  11.00000  0.05    1.20
Q13   1   0.1551  0.3765  0.4945  11.00000  0.05    1.13
Q14   1   0.7793  0.7458  0.2964  11.00000  0.05    1.10
Q15   1  -0.1356  0.3578  0.4941  11.00000  0.05    1.03
Q16   1  -0.3629  0.3594  0.4189  11.00000  0.05    0.98
Q17   1   0.0183  0.3547  0.5384  11.00000  0.05    0.97
Q18   1   0.1738  0.5317  0.2794  11.00000  0.05    0.94
Q19   1   0.8491  0.8626  0.2444  11.00000  0.05    0.91
Q20   1   0.2922  0.5839  0.4159  11.00000  0.05    0.91
;
_shelx_res_checksum              63449
_shelx_hkl_file
;
   1   0   0 15.4704 3.66196   1
   2   0   0 563.201 37.9113   1
   3   0   0 0.67227 5.11682   1
   3   0   0 -1.7052 5.89400   2
   4   0   0 17.7917 9.96491   1
   5   0   0 7.52687 10.9446   1
   6   0   0 217.122 34.5588   1
   0   1   0 8.12341 1.56376   2
   1  -1   0 5146.15 293.125   1
   1   1   0 5085.13 292.163   2
   1  -1   0 5211.69 292.030   2
   1   1   0 5363.89 292.720   1
   2   1   0 721.173 47.2501   1
   2  -1   0 732.610 47.9882   1
   2   1   0 748.711 46.6373   2
   2  -1   0 737.440 46.1631   2
   3   1   0 19.7173 12.3509   2
   3  -1   0 23.0501 8.03286   2
   3  -1   0 20.8116 9.36060   1
   3   1   0 23.5236 8.92812   1
   4  -1   0 80.1218 15.2703   1
   4   1   0 78.8415 16.2181   1
   5  -1   0 4.91823 11.4329   1
   5   1   0 13.1802 11.6276   1
   6  -1   0 242.239 34.7131   1
   6   1   0 222.854 32.6955   1
   0  -2   0 546.471 31.5391   1
   1  -2   0 6527.49 382.641   1
   1   2   0 7029.06 381.930   2
   1   2   0 6860.55 381.737   1
   2   2   0 2455.80 138.910   2
   2  -2   0 2317.57 140.160   1
   2   2   0 2378.98 139.003   1
   3   2   0 1482.07 90.4324   2
   3   2   0 1463.30 90.8032   1
   3  -2   0 1415.24 92.2495   1
   4   2   0 33.9236 12.8855   1
   4  -2   0 32.0594 13.9090   1
   5  -2   0 37.0228 18.1527   1
   5   2   0 23.1096 13.1216   1
   0   3   0 2.68894 3.48879   2
   0  -3   0 4.71163 2.08728   1
   1  -3   0 3999.80 232.793   1
   1   3   0 4167.73 231.296   1
   1   3   0 4146.67 231.914   2
   2  -3   0 532.702 38.0510   1
   2   3   0 554.125 36.3909   1
   2   3   0 558.627 36.8306   2
   3   3   0 168.738 17.9781   1
   3  -3   0 182.515 20.3588   1
   3   3   0 182.586 19.1621   2
   4   3   0 392.087 35.3318   2
   4   3   0 427.969 36.0100   1
   4  -3   0 374.230 36.8935   1
   5  -3   0 653.648 57.3761   1
   5   3   0 697.264 54.9738   1
   0  -4   0 523.416 30.7746   1
   0   4   0 485.342 33.9933   2
   1  -4   0 1700.08 101.026   1
   1   4   0 1675.77 98.9433   1
   1   4   0 1817.58 100.357   2
   2   4   0 5221.03 290.575   1
   2   4   0 5333.10 291.819   2
   2  -4   0 4789.68 292.784   1
   3   4   0 43.4448 10.6714   2
   3   4   0 47.6937 9.95572   1
   3  -4   0 75.0560 13.6291   1
   4  -4   0 1335.87 90.2168   1
   4   4   0 1341.53 86.3828   1
   4   4   0 1263.31 86.7544   2
   5  -4   0 62.7287 21.0320   1
   5   4   0 47.9975 16.8128   1
   0   5   0 1.20412 5.54526   2
   0  -5   0 0.66438 2.07806   1
   1   5   0 841.032 50.3305   2
   1   5   0 821.899 48.5990   1
   1  -5   0 807.897 50.9829   1
   2   5   0 2011.27 118.483   2
   2  -5   0 1967.25 120.004   1
   2   5   0 2014.80 116.723   1
   3   5   0 323.179 26.2347   1
   3   5   0 317.145 27.8523   2
   3  -5   0 310.874 29.3112   1
   4   5   0 6.26742 9.90040   2
   4  -5   0 7.88157 9.73454   1
   4   5   0 2.50697 7.99235   1
   5  -5   0 86.4596 23.4697   1
   5   5   0 122.672 21.1587   1
   0   6   0 1897.37 123.064   2
   0  -6   0 2111.96 116.359   1
   1   6   0 2471.06 144.978   2
   1   6   0 2583.81 142.833   1
   1  -6   0 2480.17 145.681   1
   2   6   0 1.32738 4.45257   2
   2   6   0 6.37920 3.67683   1
   2  -6   0 3.24765 4.47518   1
   3   6   0 195.717 20.3302   2
   3   6   0 164.875 17.5073   1
   3  -6   0 170.021 21.1196   1
   4   6   0 215.443 25.9327   2
   4  -6   0 260.511 29.4911   1
   4   6   0 203.910 23.8397   1
   5  -6   0 601.807 55.1830   1
   0  -7   0 3.99695 3.31905   1
   0   7   0 11.4623 9.67146   2
   1   7   0 1563.18 88.2696   1
   1   7   0 1487.16 91.0787   2
   1  -7   0 1538.60 91.7016   1
   2   7   0 16.5487 5.27830   1
   2   7   0 10.5162 5.96635   2
   2  -7   0 10.3242 5.73085   1
   3  -7   0 160.848 20.2313   1
   3   7   0 136.035 17.8899   2
   3   7   0 142.602 15.5771   1
   4   7   0 356.065 34.7593   2
   4  -7   0 378.218 37.5898   1
   5  -7   0 12.0773 14.1563   1
   0   8   0 5627.81 363.753   2
   0  -8   0 6893.72 356.476   1
   1   8   0 79.8660 7.45945   1
   1   8   0 79.3182 10.7106   2
   1  -8   0 83.5516 10.4182   1
   2  -8   0 449.671 36.8068   1
   2   8   0 495.601 36.4060   2
   2   8   0 548.440 34.2349   1
   3  -8   0 2194.06 131.025   1
   3   8   0 1976.58 127.540   2
   4  -8   0 12.2909 11.6221   1
   4   8   0 11.6547 12.5479   2
   5  -8   0 21.9754 15.7352   1
   0  -9   0 15.8515 7.40636   1
   0   9   0 8.33678 10.2180   2
   1  -9   0 3.86868 4.54342   1
   1   9   0 6.41855 5.94595   2
   2  -9   0 796.829 54.9260   1
   2   9   0 801.629 54.0217   2
   3  -9   0 151.141 20.4385   1
   3   9   0 133.942 19.3406   2
   4   9   0 685.200 56.4020   2
   4  -9   0 771.238 59.9308   1
   5  -9   0 0.65698 13.7898   1
   0  10   0 2049.44 130.374   2
  -1  10   0 791.839 52.5430   2
   1  10   0 673.195 48.4656   2
   1 -10   0 702.632 48.2236   1
   2 -10   0 1154.22 75.6617   1
   2  10   0 1164.81 74.9364   2
   3  10   0 937.454 67.0561   2
   3 -10   0 1005.58 69.3652   1
   4  10   0 5.88914 13.5334   2
   4 -10   0 13.4241 12.0952   1
   5  10   0 133.691 33.0566   2
   5 -10   0 111.453 27.0684   1
   0  11   0 -1.0530 10.0452   2
   1  11   0 129.402 16.2967   2
   1 -11   0 119.650 15.1123   1
  -1  11   0 120.868 19.5902   2
   2 -11   0 112.721 17.1335   1
   2  11   0 134.210 17.7051   2
   3  11   0 8.21787 10.5273   2
   3 -11   0 3.63554 8.07093   1
   4 -11   0 413.581 40.8210   1
   4  11   0 363.766 38.1699   2
   0  12   0 88.8735 20.1441   2
   1  12   0 3154.33 189.034   2
  -1  12   0 3242.00 196.277   2
   2 -12   0 164.831 20.2606   1
   2  12   0 143.504 19.8242   2
   3  12   0 87.5656 18.9641   2
   3 -12   0 100.674 19.1479   1
   4 -12   0 55.3196 19.8137   1
   4  12   0 100.423 23.1045   2
   0  13   0 -2.7601 11.8218   2
   1  13   0 171.414 21.1761   2
  -1  13   0 159.684 27.6037   2
  -2  13   0 777.173 58.9368   2
   2  13   0 766.581 56.1666   2
   3  13   0 77.5321 19.6597   2
   3 -13   0 52.8425 17.9728   1
   4 -13   0 27.9058 15.4361   1
   4  13   0 31.3195 18.6901   2
   0  14   0 376.692 39.2908   2
   1  14   0 46.4677 14.8871   2
  -1  14   0 45.9256 22.3950   2
   2  14   0 559.317 46.6453   2
  -2  14   0 643.079 52.5102   2
   3  14   0 28.0981 15.4343   2
   4  14   0 209.050 30.5474   2
   4 -14   0 125.694 25.9607   1
   0  15   0 -11.906 12.1958   2
   1  15   0 20.7943 13.2494   2
  -1  15   0 30.3897 18.9619   2
   2  15   0 139.281 22.3335   2
  -2  15   0 101.822 26.4592   2
  -3  15   0 168.461 28.5099   2
   3  15   0 167.486 26.1165   2
   0  16   0 18.8285 15.7265   2
   1  16   0 92.5361 19.7748   2
  -1  16   0 102.171 26.3535   2
   2  16   0 69.9721 19.6099   2
  -2  16   0 52.1065 23.6253   2
  -3  16   0 992.990 77.1965   2
   3  16   0 987.935 74.0212   2
   0  17   0 -4.6936 13.4180   2
   1  17   0 237.724 28.8140   2
  -1  17   0 231.651 33.7961   2
  -2  17   0 25.1429 21.7940   2
   2  17   0 33.4438 15.9901   2
   0  18   0 777.483 59.7637   2
   1  18   0 1.05363 13.5349   2
  -1  18   0 14.9839 16.6665   2
   1   0  -1 240.541 16.6499   2
   1   0   1 259.121 17.1834   1
   1   0  -1 256.179 17.8624   1
   2   0  -1 47.5271 7.56083   2
   2   0   1 46.1062 7.68354   1
   2   0  -1 41.9457 7.35763   1
   2   0   1 35.1287 6.68644   2
   3   0   1 18.1276 8.49443   1
   3   0  -1 22.9727 9.39223   1
   3   0   1 18.0587 8.63728   2
   4   0   1 1815.52 117.699   1
   4   0  -1 1906.24 119.203   1
   5   0  -1 789.270 62.8375   1
   5   0   1 777.990 61.6912   1
   6   0  -1 29.7512 16.6079   1
   6   0   1 15.6059 14.8466   1
   1  -1   1 503.301 30.4356   1
   1  -1   1 480.452 30.1211   2
   1   1  -1 497.444 29.4549   2
   1   1  -1 515.647 30.7537   1
   1   1   1 458.892 29.5933   2
   1   1   1 462.361 29.3929   1
   1  -1  -1 440.698 30.4336   1
   2  -1   1 1636.95 99.3277   1
   2   1  -1 1644.65 97.9627   2
   2  -1   1 1681.09 97.6667   2
   2   1  -1 1660.96 99.5666   1
   2  -1  -1 1618.17 99.3613   2
   2   1   1 1691.29 98.7086   1
   2  -1  -1 1686.04 100.253   1
   3   1  -1 2231.59 137.758   1
   3   1  -1 2240.83 135.997   2
   3  -1   1 2165.96 135.059   2
   3  -1   1 2170.47 137.521   1
   3   1   1 2383.33 137.465   1
   3  -1  -1 2411.44 139.379   1
   3  -1  -1 2391.96 136.052   2
   4   1  -1 665.552 51.1503   1
   4  -1   1 655.425 51.1151   1
   4   1   1 673.715 50.3580   1
   4  -1  -1 650.676 51.6685   1
   5  -1   1 9.25618 11.6100   1
   5   1  -1 4.89747 10.8953   1
   5   1   1 14.3378 11.7309   1
   5  -1  -1 7.75227 11.6975   1
   6   1  -1 99.0189 25.6900   1
   6  -1   1 146.071 28.1788   1
   6  -1  -1 118.353 27.9310   1
   6   1   1 110.196 25.5600   1
   0   2   1 9.05546 5.50982   2
   0  -2   1 5.73729 2.47170   1
   0  -2  -1 5.27309 1.19336   1
   1   2  -1 2314.29 136.801   1
   1   2  -1 2376.95 135.809   2
   1  -2   1 2332.45 137.004   1
   1  -2  -1 2402.04 137.349   1
   1   2   1 2459.75 135.489   1
   1   2   1 2448.53 136.467   2
   2   2  -1 2315.79 131.690   2
   2   2  -1 2218.36 132.463   1
   2  -2   1 2188.44 132.907   1
   2  -2   1 2247.87 130.697   2
   2  -2  -1 2161.62 133.419   1
   2   2   1 2301.61 131.610   1
   2   2   1 2366.15 132.136   2
   3   2  -1 2365.50 135.395   2
   3   2  -1 2265.30 136.162   1
   3  -2   1 2293.83 137.219   1
   3  -2  -1 2155.32 137.076   1
   3   2   1 2270.11 135.191   2
   3   2   1 2188.59 134.833   1
   4  -2   1 279.208 29.3154   1
   4   2  -1 241.626 27.4130   2
   4   2  -1 281.300 28.3489   1
   4  -2  -1 277.666 29.8129   1
   4   2   1 272.029 27.1939   1
   5  -2   1 284.423 33.4974   1
   5   2  -1 306.762 33.2873   1
   5   2   1 249.006 30.6238   1
   5  -2  -1 286.844 34.7336   1
   0   3   1 1235.49 75.7723   2
   0  -3  -1 1197.00 69.1225   1
   0  -3   1 1244.06 71.4096   1
   1  -3   1 3254.71 197.485   1
   1   3  -1 3513.35 196.258   2
   1   3  -1 3424.32 197.225   1
   1   3   1 3538.69 195.285   1
   1  -3  -1 3534.22 197.801   1
  -1   3  -1 3517.03 195.912   2
   1   3   1 3504.78 197.053   2
   2   3  -1 243.937 19.5591   2
   2  -3   1 243.270 20.8886   1
   2   3  -1 218.466 19.4200   1
   2  -3  -1 248.140 21.3497   1
   2   3   1 266.811 19.2502   1
   2   3   1 272.828 20.4385   2
   3  -3   1 81.0431 14.2004   1
   3   3  -1 88.3056 13.6151   2
   3   3  -1 103.231 13.8989   1
   3  -3  -1 90.7533 14.8826   1
   3   3   1 84.8728 12.8181   1
   3   3   1 84.9230 13.6666   2
   4   3  -1 842.333 59.9777   1
   4   3  -1 776.085 58.9917   2
   4  -3   1 834.760 61.9666   1
   4  -3  -1 859.432 63.1475   1
   4   3   1 853.187 59.2573   1
   5  -3   1 595.759 53.1066   1
   5   3  -1 626.480 51.5405   1
   5  -3  -1 624.291 54.6132   1
   5   3   1 579.975 49.5755   1
   0   4  -1 706.490 38.2260   2
   0  -4  -1 611.881 36.8897   1
   0  -4   1 592.530 39.0679   1
   0   4   1 633.755 44.8448   2
   1  -4   1 795.512 51.8884   1
   1   4  -1 866.886 51.6327   1
   1   4  -1 835.526 50.4362   2
   1   4   1 834.673 51.5044   2
   1   4   1 881.019 48.9687   1
   1  -4  -1 852.964 51.8917   1
   2  -4   1 1127.33 72.8591   1
   2   4  -1 1165.67 71.3656   2
   2   4  -1 1126.55 71.0955   1
   2   4   1 1205.83 72.0978   2
   2   4   1 1260.03 70.3539   1
   2  -4  -1 1097.40 72.8941   1
   3  -4   1 928.860 64.3891   1
   3   4  -1 928.341 62.1478   1
   3   4  -1 984.465 62.8202   2
   3   4   1 927.530 60.8681   1
   3   4   1 975.735 63.0480   2
   3  -4  -1 916.529 64.7743   1
   4   4  -1 68.8621 15.1060   1
   4   4  -1 58.4233 14.8177   2
   4  -4   1 73.2825 17.1973   1
   4   4   1 49.0130 15.4966   2
   4   4   1 46.8497 13.0726   1
   4  -4  -1 71.6598 17.3954   1
   5   4  -1 261.740 30.9362   1
   5  -4   1 289.902 33.0205   1
   5   4   1 248.493 29.3992   1
   5  -4  -1 268.797 34.7580   1
   0   5  -1 722.711 43.9839   2
   0  -5  -1 694.987 40.9413   1
   0  -5   1 673.578 43.3704   1
   0   5   1 700.694 50.6846   2
   1   5  -1 901.937 50.4531   1
   1   5  -1 863.735 49.0403   2
   1  -5   1 868.973 51.0818   1
   1   5   1 741.419 46.4401   1
   1  -5  -1 757.903 49.8165   1
   1   5   1 740.891 49.9571   2
   2   5  -1 2197.48 124.385   2
   2   5  -1 2102.68 123.535   1
   2  -5   1 1948.81 125.436   1
   2  -5  -1 2109.28 126.226   1
   2   5   1 2108.43 124.836   2
   2   5   1 2159.39 122.071   1
   3   5  -1 189.135 19.2753   1
   3  -5   1 179.080 21.5194   1
   3   5  -1 187.368 20.5989   2
   3   5   1 206.120 18.9385   1
   3  -5  -1 188.976 22.1253   1
   3   5   1 235.413 22.1709   2
   4   5  -1 488.514 40.4465   1
   4  -5   1 601.104 46.4220   1
   4   5  -1 478.775 42.0836   2
   4  -5  -1 532.035 45.6014   1
   4   5   1 475.844 39.2679   1
   4   5   1 503.997 42.9812   2
   5   5  -1 124.996 22.1478   1
   5  -5   1 112.997 25.1675   1
   5  -5  -1 129.271 26.1647   1
   0   6   1 4772.02 274.856   2
   0  -6   1 4528.00 265.067   1
   0  -6  -1 4866.78 262.453   1
   0   6  -1 4486.66 267.270   2
   1   6  -1 1882.50 107.026   1
   1   6  -1 1880.93 105.807   2
   1  -6   1 1813.67 107.729   1
   1   6   1 1755.76 102.598   1
   1  -6  -1 1749.30 106.751   1
   1   6   1 1856.50 107.931   2
   2   6  -1 40.1790 7.46617   1
   2  -6   1 35.8235 8.68441   1
   2   6  -1 33.4936 8.00228   2
   2   6   1 35.6947 8.79865   2
   2   6   1 46.6430 6.46911   1
   2  -6  -1 42.7589 9.03595   1
  -2   6  -1 27.3138 6.56546   2
   3  -6   1 852.817 61.0864   1
   3   6  -1 865.885 59.0245   2
   3   6  -1 822.873 56.9865   1
   3   6   1 875.182 56.1935   1
   3  -6  -1 967.945 63.0078   1
   3   6   1 844.900 59.2907   2
   4   6  -1 462.751 36.3183   1
   4  -6   1 420.108 39.6061   1
   4   6  -1 398.134 37.3690   2
   4   6   1 361.897 36.9763   2
   4  -6  -1 438.403 40.7957   1
   4   6   1 421.587 38.0554   1
   5  -6   1 347.041 40.2530   1
   5  -6  -1 359.377 41.0730   1
   0  -7  -1 258.271 17.5934   1
   0   7   1 247.843 27.9812   2
   0   7  -1 219.953 23.7285   2
   0  -7   1 259.923 20.3546   1
   1   7  -1 2194.56 130.119   2
   1  -7   1 2194.32 132.254   1
   1   7  -1 2310.76 131.460   1
   1   7   1 2413.52 133.393   2
   1  -7  -1 2215.63 131.308   1
   1   7   1 2198.41 126.654   1
   2   7  -1 312.517 23.5409   2
   2   7  -1 297.243 21.6815   1
   2  -7   1 310.083 25.2371   1
   2   7   1 266.831 19.4600   1
   2  -7  -1 248.431 23.6870   1
   2   7   1 259.370 23.5462   2
   3  -7   1 813.176 58.2110   1
   3   7  -1 858.906 54.3889   1
   3   7  -1 825.310 56.3928   2
   3   7   1 773.347 56.4324   2
   3  -7  -1 775.539 58.2074   1
   4  -7   1 101.854 20.1374   1
   4   7  -1 79.3010 18.2345   2
   4   7   1 73.4123 18.4211   2
   4  -7  -1 83.1983 19.9912   1
   5  -7   1 97.1936 24.7727   1
   5  -7  -1 120.783 26.7578   1
   0   8   1 13.0319 10.8366   2
   0   8  -1 -4.7931 8.08102   2
   0  -8  -1 1.42965 2.81728   1
   1  -8   1 456.090 32.9660   1
   1   8  -1 467.055 31.2852   2
   1   8  -1 514.172 32.4416   1
   1   8   1 421.567 33.4206   2
   1  -8  -1 436.762 31.7281   1
   2  -8   1 802.548 54.8390   1
   2   8  -1 783.832 52.6182   2
   2   8  -1 798.170 50.4919   1
   2   8   1 798.852 54.1334   2
   2  -8  -1 832.413 54.8202   1
   3   8  -1 60.7858 13.0022   2
   3  -8   1 48.1770 13.7739   1
   3   8   1 77.6320 15.4895   2
   3  -8  -1 66.2815 14.8093   1
   4   8  -1 291.558 32.7818   2
   4  -8   1 384.661 37.5977   1
   4  -8  -1 404.332 38.2367   1
   4   8   1 325.933 34.1462   2
   5  -8   1 323.415 39.2728   1
   5  -8  -1 301.095 39.0760   1
   0  -9  -1 1292.91 71.2723   1
   0  -9   1 1172.56 74.3910   1
   0   9  -1 1063.73 77.9013   2
   0   9   1 1116.08 81.5577   2
  -1   9   1 215.702 20.6084   2
   1  -9   1 160.264 16.1413   1
   1   9  -1 171.625 15.1227   1
   1   9  -1 145.100 14.5534   2
   1   9   1 125.343 16.4625   2
   1  -9  -1 130.634 14.4915   1
   2  -9   1 615.352 43.8409   1
   2   9  -1 607.397 41.7648   2
   2  -9  -1 585.753 43.1566   1
   2   9   1 557.854 42.6190   2
   3  -9   1 473.804 39.9392   1
   3   9  -1 444.655 37.5764   2
   3  -9  -1 517.565 40.8455   1
   3   9   1 442.878 38.6273   2
   4   9  -1 312.936 33.6373   2
   4  -9   1 308.808 34.4996   1
   4   9   1 254.817 32.1014   2
   4  -9  -1 359.559 36.3693   1
   5   9  -1 157.580 29.2853   2
   5  -9   1 179.564 30.5532   1
   5  -9  -1 152.652 29.8870   1
   0  10  -1 1020.98 74.9356   2
   0 -10   1 1160.94 72.4663   1
   0  10   1 1123.23 79.0126   2
   1 -10   1 522.344 39.1580   1
  -1  10   1 595.892 44.9313   2
   1  10  -1 528.202 37.6383   2
   1  10   1 579.065 41.6001   2
   1 -10  -1 535.246 38.0266   1
   2  10  -1 782.722 53.2160   2
   2 -10   1 769.012 55.1237   1
   2  10   1 779.634 55.1743   2
   2 -10  -1 826.023 55.2305   1
   3  10  -1 316.829 30.3197   2
   3 -10   1 343.145 32.3890   1
   3  10   1 304.927 30.9808   2
   3 -10  -1 329.356 31.9208   1
   4 -10   1 441.304 41.9273   1
   4  10  -1 405.538 39.3923   2
   4  10   1 400.362 39.6117   2
   4 -10  -1 400.838 40.8480   1
   5  10  -1 25.4261 18.2381   2
   5 -10   1 11.5284 15.3188   1
   5 -10  -1 -7.9375 12.5873   1
   0  11  -1 326.065 32.7648   2
   0  11   1 330.841 35.1018   2
   1  11  -1 1018.67 67.3006   2
   1 -11   1 1007.40 68.9371   1
  -1  11   1 1069.14 76.1374   2
   1  11   1 941.865 70.1269   2
  -1  11  -1 1222.89 73.1442   2
   1 -11  -1 1196.32 80.6926   1
   2  11  -1 363.365 30.1003   2
   2 -11   1 377.594 31.9862   1
   2  11   1 343.641 31.6960   2
   2 -11  -1 365.507 31.2830   1
   3  11  -1 268.441 29.1998   2
   3 -11   1 308.817 31.5794   1
   3  11   1 325.119 32.0445   2
   3 -11  -1 338.661 32.7119   1
   4 -11   1 117.716 23.5133   1
   4  11  -1 113.246 23.5751   2
   4 -11  -1 117.763 23.4156   1
   4  11   1 119.681 24.5011   2
   0  12   1 269.692 31.8321   2
   0  12  -1 252.910 29.1265   2
  -1  12   1 133.035 24.7769   2
   1  12  -1 159.083 17.6452   2
  -1  12  -1 188.684 24.1802   2
   1  12   1 144.289 20.3909   2
   2 -12   1 17.3327 9.57651   1
   2  12  -1 10.5608 8.46761   2
  -2  12   1 25.5852 13.0292   2
   2 -12  -1 14.5776 8.78819   1
   2  12   1 20.0416 11.6110   2
   3 -12   1 484.790 43.1986   1
   3  12  -1 468.065 40.6664   2
   3  12   1 460.796 42.1166   2
   3 -12  -1 498.942 42.0781   1
   4  12  -1 113.455 23.8328   2
   4 -12   1 119.998 23.8276   1
   4  12   1 129.583 25.9788   2
   4 -12  -1 96.1740 22.2193   1
   0  13  -1 7.94235 12.1315   2
   0  13   1 18.1925 15.2649   2
   1  13  -1 246.641 23.2103   2
  -1  13   1 183.692 31.1786   2
  -1  13  -1 252.611 30.8035   2
   1  13   1 212.286 25.8053   2
   2  13  -1 719.312 53.4700   2
  -2  13   1 711.947 58.9348   2
   2  13   1 845.380 58.1127   2
   3 -13   1 12.4916 10.5869   1
   3  13  -1 29.4694 14.5325   2
   3 -13  -1 10.4527 9.59610   1
   3  13   1 28.9962 16.1811   2
   4  13  -1 154.597 26.8852   2
   4 -13   1 159.254 27.1186   1
   4  13   1 145.609 28.5227   2
   4 -13  -1 158.565 26.9597   1
   0  14  -1 1133.58 78.3357   2
   0  14   1 1131.55 82.9175   2
   1  14  -1 291.517 26.7110   2
  -1  14   1 271.371 38.3847   2
  -1  14  -1 221.744 33.7895   2
   1  14   1 292.168 30.6768   2
  -2  14   1 201.281 31.5517   2
   2  14  -1 205.625 24.4434   2
  -2  14  -1 253.910 29.7313   2
   2  14   1 224.176 27.6848   2
   3  14  -1 107.556 21.5896   2
   3  14   1 92.3347 22.5568   2
   4 -14   1 182.858 30.9289   1
   4  14  -1 193.855 29.6473   2
   4  14   1 160.154 30.0666   2
   0  15  -1 248.700 28.6014   2
   0  15   1 280.890 34.3302   2
   1  15  -1 466.371 37.0291   2
  -1  15   1 411.665 47.9128   2
  -1  15  -1 375.192 44.6298   2
   1  15   1 480.200 41.6546   2
   2  15  -1 200.888 24.1739   2
  -2  15   1 175.110 32.6727   2
   2  15   1 171.048 26.7460   2
  -2  15  -1 174.705 29.0424   2
  -3  15   1 38.7540 18.8331   2
   3  15  -1 36.6246 17.9622   2
   3  15   1 44.3034 20.7555   2
   0  16   1 93.8032 24.1845   2
   0  16  -1 62.1621 18.0690   2
   1  16  -1 142.513 20.6550   2
  -1  16   1 148.546 30.2662   2
  -1  16  -1 115.222 26.0983   2
   1  16   1 133.644 24.5087   2
   2  16  -1 281.807 28.5693   2
  -2  16   1 201.573 37.0760   2
  -2  16  -1 193.949 34.3506   2
   2  16   1 278.376 31.9789   2
  -3  16   1 80.3073 26.1385   2
   3  16  -1 86.0297 20.8497   2
   3  16   1 91.4557 24.9542   2
  -3  16  -1 86.5192 24.0893   2
   0  17  -1 241.502 28.4344   2
   0  17   1 321.782 36.3130   2
  -1  17   1 111.319 27.4412   2
   1  17  -1 85.4530 18.6003   2
  -1  17  -1 83.8386 23.6712   2
   1  17   1 98.2774 22.9038   2
   2  17  -1 27.2124 14.4722   2
  -2  17   1 22.2360 23.1965   2
   2  17   1 15.2494 16.1507   2
  -2  17  -1 15.6608 19.1432   2
   0  18  -1 305.279 31.0113   2
   0  18   1 323.548 36.8053   2
  -1  18   1 143.582 28.4013   2
   1  18  -1 153.546 22.3575   2
  -1  18  -1 162.089 26.4115   2
   1  18   1 137.713 26.2156   2
   0   0  -2 12.1536 4.91335   1
   0   0   2 22.6647 5.43291   1
   1   0   2 2064.98 116.137   1
   1   0   2 1990.70 115.464   2
   1   0  -2 2011.31 117.561   1
   2   0  -2 1305.82 82.6891   1
   2   0   2 1341.00 80.3475   2
   2   0   2 1390.20 81.4600   1
   2   0  -2 1334.45 80.4368   2
   3   0  -2 135.350 17.7042   1
   3   0   2 141.706 16.2007   2
   3   0  -2 143.464 16.4092   2
   3   0   2 159.013 17.2644   1
   4   0  -2 547.857 45.2711   1
   4   0   2 530.096 43.2606   1
   5   0  -2 947.949 72.9457   1
   5   0   2 959.372 71.0224   1
   0  -1   2 37.9387 6.26058   1
   0   1   2 33.3177 6.62710   1
   0  -1  -2 44.5786 7.04705   1
   0   1  -2 37.3357 4.29090   2
   1   1  -2 4225.87 239.454   1
   1  -1   2 4222.47 238.122   1
   1   1  -2 4294.20 237.043   2
   1  -1  -2 4104.79 238.901   1
   1   1   2 4181.32 237.078   1
   2   1  -2 3137.24 175.208   2
   2  -1   2 3124.31 174.695   2
   2   1  -2 3021.89 177.260   1
   2  -1   2 3142.32 176.508   1
   2   1   2 2942.04 175.195   1
   2  -1  -2 2874.61 177.257   1
   3  -1   2 118.174 16.2108   2
   3   1  -2 117.706 16.5109   1
   3   1  -2 123.691 15.5228   2
   3  -1   2 116.910 15.8436   1
   3   1   2 133.818 15.7678   1
   3  -1  -2 164.106 18.8018   1
   3   1   2 141.501 16.0759   2
   4   1  -2 357.844 34.7787   1
   4  -1   2 414.777 35.2782   1
   4  -1  -2 362.228 35.4432   1
   4   1   2 351.385 32.8412   1
   5   1  -2 111.875 23.8989   1
   5  -1   2 129.326 23.4306   1
   5  -1  -2 190.321 27.7234   1
   5   1   2 123.790 22.4314   1
   0  -2   2 104.316 10.1348   1
   0  -2  -2 99.4115 7.95954   1
   0   2   2 79.5840 13.8840   2
   1   2  -2 2699.03 151.613   1
   1  -2   2 2634.30 150.237   1
   1   2  -2 2571.86 148.408   2
   1  -2  -2 2584.38 150.533   1
   1   2   2 2565.38 149.466   2
   1   2   2 2647.17 148.189   1
   2  -2   2 563.877 38.8847   1
   2  -2   2 592.746 36.9619   2
   2   2  -2 619.375 39.8498   1
   2   2  -2 574.072 37.5705   2
   2   2   2 556.758 37.9342   2
   2   2   2 565.111 37.2640   1
   2  -2  -2 526.911 39.5005   1
   3   2  -2 375.751 31.0626   1
   3  -2   2 367.410 30.3713   1
   3   2  -2 405.190 30.2193   2
   3   2   2 350.767 28.8069   1
   3  -2  -2 338.703 31.3922   1
   4   2  -2 211.450 24.4109   1
   4  -2   2 180.885 23.3586   1
   4   2  -2 161.960 21.3408   2
   4   2   2 198.169 22.4051   1
   4  -2  -2 189.089 24.9953   1
   5   2  -2 55.8581 19.2698   1
   5  -2   2 67.5421 20.1886   1
   5   2   2 66.1241 18.0822   1
   5  -2  -2 78.8903 21.8871   1
   0   3   2 9999.99 551.804   2
   0  -3   2 9497.17 545.249   1
   0  -3  -2 9627.90 542.361   1
   1  -3   2 806.721 46.6351   1
   1   3  -2 833.874 44.4278   2
   1   3  -2 788.935 47.8864   1
  -1   3  -2 693.015 43.5361   2
   1   3   2 665.322 45.2783   2
   1   3   2 694.875 43.0937   1
   1  -3  -2 713.206 45.9788   1
   2  -3   2 409.883 30.4772   1
   2   3  -2 468.211 31.2788   1
   2   3  -2 449.375 29.7133   2
   2   3   2 401.176 29.7620   2
   2  -3  -2 378.033 30.9534   1
   2   3   2 410.441 28.3615   1
   3   3  -2 38.0936 9.81699   2
   3   3  -2 34.1995 10.2959   1
   3  -3   2 37.1807 9.36870   1
   3  -3  -2 35.2576 11.3281   1
   3   3   2 38.2301 10.7323   2
   3   3   2 35.7368 8.69439   1
   4  -3   2 78.8167 17.0084   1
   4   3  -2 64.6218 16.1211   1
   4   3  -2 73.4135 16.2925   2
   4  -3  -2 79.9844 18.3197   1
   4   3   2 62.5090 14.0138   1
   5  -3   2 336.564 36.9752   1
   5   3  -2 316.332 35.1979   1
   5  -3  -2 329.440 38.4542   1
   5   3   2 317.437 33.4161   1
   0   4   2 7193.69 405.034   2
   0  -4   2 6743.21 396.989   1
   0  -4  -2 7163.98 392.813   1
   1   4  -2 3029.00 167.545   2
   1   4  -2 3009.02 171.868   1
   1  -4   2 2942.78 170.119   1
   1   4   2 2896.65 169.778   2
   1   4   2 2910.80 165.883   1
  -1   4  -2 2953.96 167.013   2
   1  -4  -2 2929.26 169.538   1
   2  -4   2 820.751 53.5956   1
   2   4  -2 821.194 52.7871   1
   2   4  -2 831.555 51.6558   2
   2   4   2 813.514 52.5896   2
   2  -4  -2 787.542 53.8403   1
   2   4   2 802.305 49.9696   1
   3   4  -2 662.140 47.5605   1
   3   4  -2 677.638 46.8479   2
   3  -4   2 677.259 48.8209   1
   3   4   2 662.689 47.3164   2
   3  -4  -2 666.807 49.7005   1
   3   4   2 645.462 44.8657   1
   4  -4   2 370.432 36.6985   1
   4   4  -2 362.828 35.2640   2
   4   4  -2 389.794 35.4434   1
   4   4   2 427.263 34.7121   1
   4  -4  -2 453.314 40.0381   1
   5   4  -2 2.49033 10.6636   1
   5  -4   2 -10.050 10.9217   1
   5  -4  -2 11.5503 14.4286   1
   5   4   2 -1.5825 8.72120   1
   0  -5  -2 2133.67 117.095   1
   0   5   2 2119.88 131.232   2
   0  -5   2 1967.22 121.696   1
   1   5  -2 257.560 17.5521   2
   1  -5   2 276.863 20.5118   1
   1   5  -2 271.082 22.0145   1
   1   5   2 247.627 15.1017   1
   1   5   2 221.925 19.7641   2
   1  -5  -2 258.558 19.2131   1
   2   5  -2 857.984 53.9304   2
   2  -5   2 780.886 55.4833   1
   2   5  -2 815.261 54.4695   1
  -2   5  -2 874.507 56.7765   2
   2   5   2 874.935 55.4649   2
   2  -5  -2 861.924 56.4881   1
   2   5   2 879.403 51.7883   1
   3   5  -2 2561.90 152.220   1
   3   5  -2 2605.96 152.342   2
   3  -5   2 2638.70 154.825   1
   3   5   2 2487.58 149.352   1
   3  -5  -2 2425.27 154.841   1
   3   5   2 2547.78 153.020   2
   4   5  -2 48.8559 15.6197   1
   4  -5   2 42.1775 15.4916   1
   4   5  -2 31.6385 15.1214   2
   4   5   2 47.2426 14.6402   2
   4  -5  -2 52.3432 16.7654   1
   4   5   2 57.8767 12.8285   1
   5   5  -2 11.4769 11.8756   1
   5  -5   2 40.8269 19.1404   1
   5  -5  -2 8.99487 14.1525   1
   0  -6  -2 1349.11 75.8083   1
   0   6  -2 1326.45 78.3137   2
   0   6   2 1360.99 90.6619   2
   0  -6   2 1264.27 80.8263   1
   1   6  -2 1153.56 73.0523   1
   1   6  -2 1141.60 67.6400   2
   1  -6   2 1083.27 70.6277   1
   1  -6  -2 1169.43 69.6275   1
   1   6   2 1197.05 72.1788   2
   2   6  -2 502.758 32.8433   1
   2   6  -2 471.647 31.8233   2
   2  -6   2 449.641 33.7525   1
   2  -6  -2 402.857 33.0496   1
  -2   6  -2 422.377 29.9773   2
   2   6   2 419.897 32.9000   2
   2   6   2 444.171 28.6070   1
   3   6  -2 559.268 44.2834   1
   3   6  -2 652.980 46.2046   2
   3  -6   2 589.813 46.9642   1
   3   6   2 735.097 48.3892   2
   3  -6  -2 680.465 49.1205   1
   3   6   2 628.400 42.6099   1
   4   6  -2 998.791 68.5933   1
   4   6  -2 955.431 69.1865   2
   4  -6   2 1146.27 73.6829   1
   4  -6  -2 936.648 72.1529   1
   4   6   2 883.303 68.8307   2
   5  -6   2 201.966 28.7054   1
   5  -6  -2 230.100 33.3571   1
   0  -7   2 37.3453 8.88848   1
   0   7  -2 35.2827 9.52717   2
   0  -7  -2 36.1152 4.64664   1
   0   7   2 40.4659 15.0004   2
   1   7  -2 280.956 19.9130   2
   1   7  -2 295.691 25.2303   1
   1  -7   2 336.704 24.0782   1
   1   7   2 250.180 23.7061   2
   1  -7  -2 265.148 21.1681   1
   2   7  -2 1722.38 110.253   1
   2   7  -2 1834.18 110.424   2
   2  -7   2 1709.87 112.643   1
   2  -7  -2 1879.97 113.267   1
   2   7   2 2004.33 106.709   1
   2   7   2 1949.47 113.346   2
   3   7  -2 596.089 42.1851   1
   3   7  -2 549.868 42.5740   2
   3  -7   2 566.864 44.9684   1
   3  -7  -2 578.890 45.7244   1
   3   7   2 588.487 44.5465   2
   4  -7   2 746.917 56.0531   1
   4   7  -2 669.829 53.2032   2
   4   7  -2 628.587 51.5635   1
   4  -7  -2 719.140 57.0254   1
   4   7   2 676.626 54.2243   2
   5  -7   2 281.842 35.6364   1
   5  -7  -2 223.955 34.1638   1
   0  -8   2 2.02054 4.89347   1
   0   8   2 2.97599 9.34559   2
   0  -8  -2 5.92235 2.92263   1
   0   8  -2 1.24688 7.01644   2
   1   8  -2 1926.21 117.560   1
   1  -8   2 1845.55 115.148   1
  -1   8   2 2152.55 119.478   2
   1   8  -2 1821.74 111.250   2
   1   8   2 1961.49 117.681   2
   1  -8  -2 1847.53 112.853   1
   2   8  -2 1639.91 98.3353   1
   2   8  -2 1618.40 98.3863   2
   2  -8   2 1624.01 101.551   1
   2  -8  -2 1676.95 101.244   1
   2   8   2 1584.21 101.044   2
   3   8  -2 83.4174 15.1134   2
   3  -8   2 91.4945 16.2387   1
   3   8  -2 81.9370 13.3605   1
   3   8   2 85.0310 16.3381   2
   3  -8  -2 73.4598 15.6933   1
   4  -8   2 260.085 30.6344   1
   4   8  -2 224.863 28.2145   2
   4  -8  -2 273.902 32.0491   1
   4   8   2 238.367 29.4627   2
   5   8  -2 233.682 33.8687   2
   5  -8   2 282.015 36.4522   1
   5  -8  -2 256.397 35.7885   1
   0   9   2 15.0196 11.6476   2
   0   9  -2 4.04495 8.88470   2
   0  -9   2 18.1706 8.06801   1
   1  -9   2 2881.83 176.299   1
   1   9  -2 2836.18 172.050   2
   1   9  -2 3136.10 178.703   1
  -1   9   2 3301.53 182.170   2
   1   9   2 3067.90 179.421   2
   1  -9  -2 2841.93 173.420   1
   2   9  -2 619.214 42.7600   1
   2  -9   2 533.650 40.2813   1
   2   9  -2 518.160 37.0667   2
   2  -9  -2 489.450 38.6257   1
   2   9   2 469.709 39.5739   2
   3  -9   2 63.5532 15.5236   1
   3   9  -2 82.1796 15.4741   2
   3  -9  -2 89.4421 16.6869   1
   3   9   2 61.8223 15.0991   2
   4  -9   2 1.82199 7.69184   1
   4   9  -2 -6.4046 10.3478   2
   4  -9  -2 8.69583 11.3643   1
   4   9   2 2.96420 10.8815   2
   5  -9   2 333.346 39.6750   1
   5   9  -2 295.407 37.1173   2
   5  -9  -2 267.475 37.9514   1
   0  10   2 183.467 25.4057   2
   0  10  -2 143.342 19.9333   2
   1 -10   2 146.478 17.8455   1
  -1  10   2 159.881 23.0224   2
   1  10  -2 155.470 14.5628   2
   1 -10  -2 152.143 15.2261   1
   1  10   2 152.875 20.3320   2
   2 -10   2 406.580 34.6077   1
   2  10  -2 436.963 32.0858   2
   2 -10  -2 422.630 33.6884   1
   2  10   2 408.337 35.3052   2
   3  10  -2 27.5113 12.3614   2
   3 -10   2 27.2790 13.0158   1
   3  10   2 24.1461 13.0347   2
   3 -10  -2 38.8769 13.4105   1
   4 -10   2 167.789 26.2097   1
   4  10  -2 144.948 24.3664   2
   4  10   2 138.998 25.2569   2
   4 -10  -2 151.936 25.0920   1
   5  10  -2 137.916 28.2384   2
   5 -10   2 132.677 28.5702   1
   5 -10  -2 100.163 26.7195   1
   0  11  -2 1565.97 103.861   2
   0  11   2 1783.70 113.133   2
  -1  11   2 132.891 23.0881   2
   1 -11   2 110.094 15.6613   1
   1  11  -2 122.025 13.3163   2
   1  11   2 88.1007 17.6406   2
  -1  11  -2 117.365 16.1361   2
   2  11  -2 526.941 38.4060   2
   2 -11   2 574.967 42.4605   1
   2 -11  -2 507.454 39.9442   1
   2  11   2 489.436 42.1327   2
   3  11  -2 434.105 38.2112   2
   3 -11   2 468.196 41.3951   1
   3  11   2 509.699 42.8805   2
   3 -11  -2 480.956 41.1176   1
   4  11  -2 108.517 23.0208   2
   4 -11   2 110.618 23.3518   1
   4 -11  -2 105.046 22.5067   1
   4  11   2 144.514 26.1876   2
   0  12   2 207.754 29.2342   2
   0  12  -2 212.569 23.1820   2
   1 -12   2 36.9486 12.5190   1
  -1  12   2 34.5824 17.4577   2
   1  12  -2 29.6225 9.16706   2
   1  12   2 16.0558 11.7638   2
  -1  12  -2 23.8181 11.6049   2
   2  12  -2 343.498 29.4703   2
   2 -12   2 386.764 33.7282   1
  -2  12   2 362.241 36.4200   2
   2  12   2 353.617 34.5061   2
   3  12  -2 632.503 48.3120   2
   3 -12   2 587.442 50.0312   1
   3 -12  -2 676.442 51.2823   1
   3  12   2 585.298 51.0874   2
   4 -12   2 509.152 48.8166   1
   4  12  -2 532.806 47.6286   2
   4 -12  -2 523.033 49.6112   1
   4  12   2 562.960 50.8029   2
   0  13   2 554.265 47.7973   2
   0  13  -2 437.403 37.6206   2
   1  13  -2 209.176 19.4900   2
  -1  13   2 199.043 32.9615   2
  -1  13  -2 155.177 25.0540   2
   1  13   2 182.192 25.8273   2
  -2  13   2 129.304 25.3317   2
   2  13  -2 112.352 16.5958   2
   2 -13   2 95.3408 17.9343   1
   2  13   2 117.766 22.2752   2
   3 -13   2 1103.53 76.2852   1
   3  13  -2 1026.56 72.2710   2
   3  13   2 1004.81 76.4413   2
   4  13  -2 40.1847 18.1074   2
   4 -13   2 52.2122 20.4866   1
   4 -13  -2 67.1044 20.6193   1
   4  13   2 75.1955 23.9282   2
   0  14  -2 548.920 43.0345   2
   0  14   2 595.524 52.4015   2
   1  14  -2 232.858 21.3941   2
  -1  14   2 168.025 34.6557   2
   1  14   2 190.049 27.2852   2
  -1  14  -2 179.661 28.5536   2
   2  14  -2 206.274 22.0341   2
  -2  14   2 169.501 31.4132   2
  -2  14  -2 174.917 24.4480   2
   2  14   2 151.482 26.1147   2
   3 -14   2 99.5809 20.5116   1
  -3  14   2 91.5010 23.7848   2
   3  14  -2 77.1465 18.8651   2
   3  14   2 91.9758 23.8591   2
   4 -14   2 223.092 32.1338   1
   4  14  -2 214.900 31.4022   2
   4  14   2 234.448 35.7375   2
   0  15  -2 390.420 34.0124   2
   0  15   2 444.379 44.4148   2
  -1  15   2 161.296 33.7277   2
   1  15  -2 240.336 22.3766   2
  -1  15  -2 172.798 29.2127   2
   1  15   2 189.771 28.7366   2
  -2  15   2 80.5947 28.2132   2
   2  15  -2 95.3484 17.0100   2
  -2  15  -2 66.6922 21.5558   2
   2  15   2 82.2443 22.5266   2
  -3  15   2 93.3566 25.3878   2
   3  15  -2 71.4854 18.9736   2
   3  15   2 75.9928 24.0805   2
   0  16   2 4.32597 16.1256   2
   0  16  -2 3.65782 9.86885   2
  -1  16   2 595.235 60.5362   2
   1  16  -2 729.582 48.6076   2
  -1  16  -2 604.763 54.5352   2
   1  16   2 727.164 58.0216   2
   2  16  -2 477.287 37.2505   2
   2  16   2 463.673 44.8114   2
  -2  16  -2 320.063 41.1707   2
  -3  16   2 9.83559 20.8346   2
   3  16  -2 9.14047 13.2184   2
   3  16   2 11.2716 18.0888   2
  -3  16  -2 22.7512 16.6342   2
   0  17  -2 59.3912 15.1378   2
   0  17   2 48.5186 22.2478   2
   1  17  -2 384.766 32.4610   2
  -1  17   2 395.483 45.0447   2
  -1  17  -2 355.433 37.9635   2
   1  17   2 419.039 42.4816   2
   2  17  -2 192.839 23.5392   2
  -2  17   2 122.250 34.9994   2
  -2  17  -2 153.672 31.0146   2
   2  17   2 205.795 32.0856   2
   0  18  -2 87.8634 16.4861   2
   0  18   2 103.746 24.8544   2
   1  18  -2 93.7575 16.9853   2
  -1  18   2 118.607 27.5330   2
   1  18   2 83.6979 24.6533   2
  -1  18  -2 70.0728 19.7000   2
   0   0   3 2.75255 4.40367   1
   0   0  -3 6.20522 5.84549   1
   1   0  -3 5717.60 317.872   1
   1   0   3 5720.61 315.169   1
   1   0   3 5326.19 314.081   2
   2   0   3 607.241 38.6548   2
   2   0   3 567.248 38.9499   1
   2   0  -3 587.943 41.3065   1
   3   0  -3 238.281 24.7730   1
   3   0   3 263.731 23.3200   1
   3   0   3 243.798 22.5916   2
   4   0   3 570.453 45.1476   1
   4   0  -3 571.811 47.8279   1
   5   0  -3 52.2426 20.3915   1
   5   0   3 43.1660 17.5652   1
   0  -1  -3 241.358 20.8446   1
   0   1   3 224.983 20.5140   1
   1  -1   3 510.525 32.0989   1
   1   1  -3 510.240 34.6235   1
   1  -1  -3 466.004 33.0959   1
   1   1   3 487.061 30.9441   1
   1   1   3 480.804 32.3163   2
   2  -1   3 206.359 17.9503   1
   2   1  -3 188.879 19.0924   1
   2   1  -3 196.415 17.1472   2
   2  -1   3 193.291 16.3715   2
   2   1   3 220.039 17.4558   1
   2   1   3 225.178 17.8355   2
   2  -1  -3 227.082 20.1489   1
   3   1  -3 1222.97 79.1526   2
   3  -1   3 1197.45 80.2194   1
   3   1  -3 1232.94 82.3411   1
   3  -1  -3 1333.38 83.6064   1
   3   1   3 1258.93 79.6667   1
   3   1   3 1326.82 79.9619   2
   4   1  -3 144.796 21.7993   1
   4  -1   3 130.169 19.5774   1
   4  -1  -3 103.425 18.4614   1
   4   1   3 118.687 18.1283   1
   5   1  -3 667.909 58.1968   1
   5  -1   3 709.552 57.0022   1
   5  -1  -3 743.818 60.7978   1
   5   1   3 677.931 55.4044   1
   0  -2  -3 3005.71 167.076   1
   0   2  -3 2568.18 163.084   2
   0   2   3 2802.50 171.286   2
   0  -2   3 3231.23 169.528   1
   1  -2   3 535.608 34.9191   1
   1   2  -3 551.464 38.1931   1
   1   2  -3 576.219 33.0892   2
   1  -2  -3 483.367 35.0637   1
   1   2   3 549.143 36.5782   2
   1   2   3 545.287 32.9007   1
  -1   2  -3 500.963 32.2521   2
   2   2  -3 4417.27 246.939   2
   2  -2   3 4123.35 248.132   1
   2   2  -3 4291.98 249.928   1
   2   2   3 4461.57 246.618   1
   2  -2  -3 4324.95 250.259   1
   3   2  -3 85.2391 12.7761   2
   3  -2   3 81.8702 13.7261   1
   3   2  -3 79.9970 14.4053   1
   3   2   3 92.9059 12.5605   1
   3  -2  -3 83.1395 15.2083   1
   4   2  -3 812.058 63.2381   2
   4  -2   3 953.771 66.5424   1
   4   2  -3 897.130 66.6923   1
   4   2   3 972.318 64.6023   1
   4  -2  -3 998.237 69.2226   1
   5  -2   3 104.516 22.5868   1
   5   2  -3 83.3751 22.1752   1
   5   2   3 107.203 20.5280   1
   5  -2  -3 97.6768 24.4592   1
   0   3   3 2482.46 160.426   2
   0  -3   3 2735.93 156.488   1
   0   3  -3 2631.57 149.258   2
   0  -3  -3 2805.03 152.189   1
   1   3  -3 575.230 37.8454   2
   1   3  -3 572.775 43.7858   1
   1  -3   3 586.610 40.4241   1
   1   3   3 677.604 37.8776   1
  -1   3  -3 656.835 37.7261   2
   1  -3  -3 660.863 41.0143   1
   1   3   3 664.609 40.7970   2
   2   3  -3 36.2845 7.06918   2
   2   3  -3 40.4126 9.03404   1
   2  -3   3 38.4023 8.22491   1
   2  -3  -3 37.3935 8.78808   1
   2   3   3 30.5054 6.21248   1
   2   3   3 29.7811 7.38404   2
   3   3  -3 1318.80 83.0502   1
   3  -3   3 1332.27 82.7721   1
   3   3  -3 1295.08 80.5072   2
   3   3   3 1254.94 81.2613   2
   3   3   3 1215.00 78.9348   1
   3  -3  -3 1207.48 83.6395   1
   4  -3   3 597.023 47.2426   1
   4   3  -3 566.871 45.2904   2
   4   3  -3 558.489 46.5710   1
   4   3   3 559.840 43.4399   1
   4  -3  -3 570.171 48.6183   1
   5  -3   3 226.564 29.9953   1
   5   3  -3 214.319 31.1315   1
   5   3   3 197.708 25.8891   1
   5  -3  -3 175.118 30.0381   1
   0  -4   3 1035.57 66.8323   1
   0  -4  -3 1085.69 61.5290   1
   0   4   3 1048.34 73.0454   2
   1   4  -3 916.116 62.4568   1
   1  -4   3 895.796 57.9496   1
   1   4  -3 947.237 54.8013   2
   1   4   3 937.481 53.8412   1
  -1   4  -3 939.206 54.2648   2
   1  -4  -3 938.582 57.5593   1
   1   4   3 912.750 58.2391   2
   2  -4   3 73.5331 11.3891   1
   2   4  -3 71.6444 11.7217   1
   2   4  -3 97.6481 11.1303   2
   2   4   3 103.489 12.2477   2
   2  -4  -3 96.8892 12.9747   1
   3  -4   3 1213.46 83.8634   1
   3   4  -3 1240.50 83.7064   1
   3   4  -3 1233.48 82.0153   2
   3   4   3 1333.97 80.7416   1
   3  -4  -3 1407.51 87.0302   1
   3   4   3 1393.80 84.1717   2
   4  -4   3 1036.64 74.3624   1
   4   4  -3 1055.03 73.7317   1
   4   4  -3 973.599 71.8538   2
   4   4   3 1087.42 70.7404   1
   4  -4  -3 1100.52 76.8035   1
   5   4  -3 199.738 28.1377   1
   5  -4   3 198.693 29.2491   1
   5  -4  -3 172.988 30.0366   1
   5   4   3 200.075 25.3963   1
   0  -5   3 15.4101 6.82707   1
   0   5   3 10.2015 9.84858   2
   0  -5  -3 18.1488 3.00812   1
   1   5  -3 1167.12 67.4591   2
   1  -5   3 1095.59 71.1130   1
   1   5  -3 1161.01 76.6690   1
   1   5   3 1131.49 65.8800   1
   1  -5  -3 1169.88 70.1730   1
  -1   5  -3 1168.10 66.8964   2
   1   5   3 1189.04 72.6195   2
   2   5  -3 369.197 27.4279   2
   2   5  -3 348.503 29.3671   1
   2  -5   3 344.709 29.3091   1
   2   5   3 415.740 30.2399   2
  -2   5  -3 390.679 26.4079   2
   2   5   3 402.967 25.5924   1
   2  -5  -3 389.031 30.4667   1
   3   5  -3 1309.12 86.3339   1
   3  -5   3 1311.70 87.3647   1
   3   5  -3 1298.10 84.8154   2
   3  -5  -3 1439.00 89.8618   1
   3   5   3 1355.29 86.5482   2
   3   5   3 1367.81 82.6273   1
   4   5  -3 137.764 20.9428   2
   4   5  -3 148.176 22.4809   1
   4  -5   3 158.516 21.7485   1
   4   5   3 167.990 20.0261   1
   4  -5  -3 171.913 23.5331   1
   5  -5   3 182.498 28.7975   1
   5   5  -3 181.360 26.7402   1
   5  -5  -3 161.313 29.3708   1
   0  -6  -3 1257.15 69.8909   1
   0  -6   3 1184.05 77.0065   1
   0   6   3 1189.46 84.4258   2
   1   6  -3 1742.98 101.319   2
   1  -6   3 1657.34 105.537   1
  -1   6   3 1836.14 107.891   2
   1   6  -3 1641.81 111.042   1
   1  -6  -3 1811.08 104.112   1
   1   6   3 1802.97 108.033   2
  -1   6  -3 1807.30 100.767   2
   2   6  -3 2302.08 132.766   1
   2  -6   3 2182.25 132.787   1
   2   6  -3 2264.54 129.707   2
   2   6   3 2202.43 132.489   2
   2   6   3 2255.31 126.435   1
   2  -6  -3 2016.77 132.001   1
  -2   6  -3 2197.64 128.122   2
   3  -6   3 267.454 26.3823   1
   3   6  -3 236.964 24.0960   1
   3   6  -3 273.156 24.7209   2
   3  -6  -3 267.450 26.5208   1
   3   6   3 239.784 24.8337   2
   3   6   3 244.542 20.8749   1
   4   6  -3 445.287 38.4031   1
   4  -6   3 455.435 41.0048   1
   4   6  -3 406.323 37.7386   2
   4  -6  -3 475.226 43.1697   1
   4   6   3 386.348 51.3308   2
   5  -6   3 160.020 28.1045   1
   5   6  -3 155.773 24.8479   1
   5  -6  -3 135.822 28.0804   1
   0  -7  -3 3067.96 164.572   1
   0  -7   3 2799.78 172.683   1
   0   7   3 2832.71 180.324   2
   1   7  -3 39.1227 6.01403   2
   1  -7   3 42.8183 9.61465   1
   1   7  -3 34.5874 12.9251   1
  -1   7   3 64.3016 11.9990   2
   1  -7  -3 37.0966 7.19501   1
   1   7   3 47.6533 11.3192   2
   2   7  -3 791.745 50.2877   2
   2   7  -3 772.589 52.5415   1
   2  -7   3 771.514 53.5581   1
   2  -7  -3 789.758 53.2882   1
   2   7   3 745.300 53.2800   2
   3   7  -3 112.673 16.1064   1
   3  -7   3 126.594 18.5218   1
   3   7  -3 133.241 17.2273   2
   3  -7  -3 110.554 18.1492   1
   3   7   3 112.798 17.5492   2
   4  -7   3 369.982 35.9721   1
   4   7  -3 330.821 33.3431   2
   4   7  -3 325.807 32.4610   1
   4  -7  -3 321.681 35.7724   1
   4   7   3 301.368 32.9890   2
   5  -7   3 254.822 34.5813   1
   5   7  -3 261.523 33.7933   2
   5  -7  -3 240.414 35.7275   1
   0  -8   3 45.7939 10.8476   1
   0   8  -3 36.4002 9.88484   2
   0  -8  -3 66.3527 6.05281   1
   0   8   3 52.4222 15.5977   2
  -1   8   3 2033.43 115.534   2
   1  -8   3 1732.06 109.873   1
   1   8  -3 1786.63 104.497   2
   1   8  -3 1839.62 116.850   1
   1   8   3 1798.62 113.439   2
   1  -8  -3 1692.10 106.427   1
   2   8  -3 559.206 36.3472   2
   2  -8   3 497.232 39.1470   1
   2   8  -3 535.633 38.3836   1
   2   8   3 512.234 40.0743   2
   2  -8  -3 453.934 37.5635   1
   3   8  -3 413.716 34.6928   1
   3  -8   3 434.941 38.0637   1
   3   8  -3 444.271 35.5710   2
   3   8   3 439.803 38.2173   2
   3  -8  -3 477.997 39.2650   1
   4  -8   3 265.187 31.8837   1
   4   8  -3 301.160 31.0501   2
   4  -8  -3 322.671 34.5072   1
   4   8   3 221.472 30.2540   2
   5   8  -3 128.953 24.8783   2
   5  -8   3 125.711 26.7636   1
   5  -8  -3 121.750 27.9970   1
   0   9   3 799.826 58.3903   2
   0   9  -3 614.902 44.8786   2
   0  -9   3 685.506 50.5372   1
   1   9  -3 299.110 31.1641   1
   1  -9   3 291.479 25.9269   1
  -1   9   3 303.582 31.0674   2
   1   9  -3 297.597 20.9985   2
   1  -9  -3 284.819 22.4511   1
   1   9   3 280.727 29.2712   2
   2   9  -3 384.358 29.0004   2
   2  -9   3 378.972 32.5425   1
   2   9  -3 368.992 30.4637   1
   2   9   3 372.740 33.3835   2
   2  -9  -3 417.892 32.3719   1
   3  -9   3 248.202 27.4858   1
   3   9  -3 224.657 24.3030   2
   3   9   3 247.918 27.8439   2
   3  -9  -3 269.292 28.6824   1
   4  -9   3 -0.2434 10.5021   1
   4   9  -3 15.2852 12.9627   2
   4  -9  -3 14.6583 12.2842   1
   4   9   3 20.1697 14.0477   2
   5  -9   3 239.956 35.0731   1
   5   9  -3 226.753 33.4823   2
   5  -9  -3 268.369 36.7168   1
   0  10   3 723.449 58.1494   2
   0 -10   3 782.626 54.4016   1
   0  10  -3 628.869 46.0470   2
   1 -10   3 2247.11 135.944   1
   1  10  -3 2235.00 129.208   2
   1 -10  -3 2169.40 130.947   1
   1  10   3 2275.40 140.177   2
   2 -10   3 429.962 37.5512   1
   2  10  -3 443.829 33.8226   2
   2  10   3 515.579 40.9798   2
   2 -10  -3 506.720 37.2665   1
   3 -10   3 171.863 23.0812   1
   3  10  -3 189.582 21.6569   2
   3  10   3 154.913 23.9667   2
   3 -10  -3 144.058 21.3695   1
   4  10  -3 56.4719 18.8248   2
   4 -10   3 66.0389 19.6207   1
   4 -10  -3 79.6037 20.7049   1
   4  10   3 61.3887 21.3385   2
   5  10  -3 197.874 31.2730   2
   5 -10   3 175.239 31.1782   1
   5 -10  -3 146.457 30.4671   1
   0  11   3 1331.17 93.2522   2
   0  11  -3 1308.03 80.7156   2
   0 -11   3 1277.04 88.8971   1
   1 -11   3 26.0147 10.5368   1
   1  11  -3 30.1487 7.43412   2
  -1  11   3 27.5566 16.3363   2
   1  11   3 9.99589 11.7914   2
  -2  11   3 268.667 30.7080   2
   2 -11   3 289.866 27.6748   1
   2  11  -3 257.656 22.7905   2
   2 -11  -3 239.810 24.5950   1
   2  11   3 252.215 28.9241   2
   3 -11   3 3.88809 8.39824   1
   3  11  -3 -0.4990 8.81518   2
   3 -11  -3 1.26511 8.06009   1
   3  11   3 23.1882 14.0246   2
   4 -11   3 207.642 29.0538   1
   4  11  -3 167.768 25.9703   2
   4 -11  -3 181.034 27.6198   1
   4  11   3 135.738 27.4478   2
   0  12   3 1481.99 99.5816   2
   0  12  -3 1341.64 85.6287   2
  -1  12   3 470.376 51.2987   2
   1 -12   3 551.017 43.7483   1
   1  12  -3 512.482 36.3236   2
  -1  12  -3 611.078 42.2230   2
   1  12   3 566.285 47.9459   2
   2 -12   3 342.636 32.7125   1
   2  12  -3 326.840 27.9719   2
  -2  12   3 390.643 38.8642   2
   2  12   3 351.152 35.7724   2
   3 -12   3 96.5635 19.7785   1
   3  12  -3 60.6940 16.0813   2
   3  12   3 115.395 23.4248   2
   3 -12  -3 111.755 19.0963   1
   4  12  -3 17.3391 14.2117   2
   4 -12   3 14.2495 13.6947   1
   4  12   3 35.0453 19.1805   2
   4 -12  -3 14.5925 12.5622   1
   0  13  -3 319.142 26.1561   2
   0  13   3 324.304 37.7421   2
   1  13  -3 78.5776 11.4196   2
  -1  13   3 26.0552 19.2218   2
   1  13   3 94.9090 22.0727   2
  -1  13  -3 87.7230 18.7590   2
   2  13  -3 296.197 26.1840   2
   2 -13   3 285.428 30.9306   1
  -2  13   3 292.405 37.1530   2
   2  13   3 315.037 34.8039   2
   3  13  -3 125.020 20.5521   2
  -3  13   3 149.277 26.6399   2
   3 -13   3 164.874 24.3991   1
   3  13   3 130.956 26.4267   2
   4  13  -3 31.7514 16.6091   2
   4 -13   3 14.2169 13.5070   1
   4  13   3 8.24231 17.3117   2
   4 -13  -3 11.2974 13.0510   1
   0  14   3 7.81792 15.1996   2
   0  14  -3 -4.2338 6.61754   2
   1  14  -3 1049.95 62.4439   2
  -1  14   3 854.960 80.0688   2
   1  14   3 1149.33 77.1484   2
  -1  14  -3 827.800 69.6955   2
   2  14  -3 42.0037 12.6766   2
  -2  14   3 40.9328 22.5536   2
   2  14   3 48.7968 20.9110   2
  -3  14   3 253.091 35.1417   2
   3 -14   3 231.644 30.2759   1
   3  14  -3 252.829 27.8660   2
   3  14   3 296.567 36.8982   2
   0  15   3 680.910 58.6213   2
   0  15  -3 617.307 43.6495   2
   1  15  -3 127.154 15.4128   2
  -1  15   3 99.3956 28.5086   2
   1  15   3 109.461 25.3960   2
  -1  15  -3 97.6456 22.3768   2
   2  15  -3 172.982 20.0679   2
  -2  15   3 130.354 33.4855   2
  -2  15  -3 146.349 24.5649   2
   2  15   3 154.115 28.4192   2
   3  15  -3 156.015 22.5400   2
  -3  15   3 205.569 33.7586   2
   3  15   3 127.523 29.3387   2
   0  16   3 136.050 27.9518   2
   0  16  -3 93.6293 14.5531   2
   1  16  -3 38.0481 11.5675   2
  -1  16   3 29.2234 20.1881   2
   1  16   3 34.4467 20.6796   2
  -1  16  -3 25.8711 15.2181   2
  -2  16   3 181.834 39.5011   2
   2  16  -3 267.752 25.6958   2
  -2  16  -3 291.679 34.1791   2
   2  16   3 243.830 35.8061   2
   3  16  -3 165.727 23.4031   2
  -3  16   3 118.889 32.0531   2
   3  16   3 186.198 32.7990   2
   0  17   3 157.178 28.9553   2
   0  17  -3 152.984 17.4786   2
  -1  17   3 93.0117 27.8504   2
   1  17  -3 38.9619 12.0868   2
   1  17   3 48.8938 22.7636   2
  -1  17  -3 26.9434 14.8977   2
   2  17  -3 200.395 23.9564   2
  -2  17   3 151.847 36.3320   2
   2  17   3 219.483 34.4816   2
  -2  17  -3 169.529 30.2235   2
   0  18  -3 26.0278 10.7368   2
   0  18   3 21.6552 18.6115   2
   1  18  -3 467.687 32.6207   2
  -1  18   3 412.141 46.0165   2
  -1  18  -3 357.690 34.6157   2
   1  18   3 382.822 44.5304   2
   0   0   4 1898.28 108.296   1
   0   0  -4 1591.34 108.455   1
   1   0  -4 4671.90 267.670   1
   1   0   4 4471.11 261.932   2
   1   0   4 4779.59 263.486   1
   2   0   4 69.9921 9.36975   2
   2   0  -4 64.5255 11.6578   1
   2   0   4 71.0389 9.69713   1
   3   0  -4 601.452 47.7590   1
   3   0   4 646.019 44.8850   1
   4   0   4 270.423 27.3971   1
   4   0  -4 237.703 29.5821   1
   5   0   4 2.83520 10.2127   1
   5   0  -4 18.4220 14.6613   1
   0   1   4 4739.16 288.339   1
   0   1   4 5301.00 288.329   2
   0  -1   4 5286.57 288.908   1
   0  -1  -4 4711.67 288.763   1
   0   1  -4 4938.29 291.562   1
   1  -1   4 2092.13 117.453   1
   1   1  -4 2144.96 122.949   1
   1   1   4 1942.71 115.981   1
   1  -1  -4 1943.88 119.562   1
   1   1   4 1918.48 115.925   2
   2  -1   4 407.609 27.9589   2
   2  -1   4 408.167 29.6709   1
   2   1  -4 404.825 32.3938   1
   2   1   4 406.464 28.8799   2
   2  -1  -4 367.072 31.0732   1
   2   1   4 413.234 28.7826   1
   3  -1   4 1207.74 79.0935   1
   3   1  -4 1184.68 81.8381   1
   3   1   4 1327.18 82.5714   2
   3  -1  -4 1294.31 83.0313   1
   3   1   4 1173.95 77.8060   1
   4  -1   4 341.870 32.3977   1
   4   1  -4 355.614 35.3566   1
   4   1   4 333.946 31.2896   1
   4  -1  -4 338.526 35.5647   1
   5  -1   4 201.858 28.1670   1
   5   1  -4 234.463 32.3083   1
   5  -1  -4 242.599 33.4016   1
   5   1   4 218.901 28.0015   1
   0  -2   4 2753.80 160.664   1
   0  -2  -4 2648.61 158.421   1
   1   2  -4 243.052 23.3720   1
   1  -2   4 242.795 18.2960   1
   1   2   4 222.929 16.0459   1
   1  -2  -4 201.465 18.4363   1
  -1   2  -4 193.903 14.8304   2
   2  -2   4 519.996 37.7791   1
   2   2  -4 540.229 36.6159   2
   2   2  -4 547.370 40.8864   1
   2  -2  -4 562.444 40.3146   1
   2   2   4 586.277 36.6709   1
   2   2   4 518.160 40.1151   2
   3  -2   4 1147.04 75.5369   1
   3   2  -4 1195.52 74.4169   2
   3   2  -4 1187.99 78.2396   1
   3   2   4 1186.92 74.7747   2
   3  -2  -4 1155.49 78.5654   1
   3   2   4 1088.76 73.0231   1
   4  -2   4 658.126 48.9455   1
   4   2  -4 646.913 50.8225   1
   4   2   4 550.839 44.9888   1
   4  -2  -4 560.674 50.2704   1
   5  -2   4 122.303 23.0745   1
   5   2  -4 126.501 25.2097   1
   5   2   4 123.765 21.4189   1
   5  -2  -4 102.547 22.5236   1
   0  -3   4 28.1499 8.63127   1
   0   3  -4 16.8609 4.65876   2
   0  -3  -4 24.3081 6.76945   1
   0   3   4 30.0110 12.3090   2
   1  -3   4 1707.05 104.554   1
   1   3  -4 1759.07 101.294   2
   1   3  -4 1616.25 110.875   1
   1   3   4 1820.68 104.809   2
  -1   3  -4 1789.74 100.788   2
   1   3   4 1842.98 101.729   1
   1  -3  -4 1733.93 104.789   1
   2   3  -4 2630.57 160.187   1
   2  -3   4 2466.87 157.212   1
   2   3  -4 2694.11 155.524   2
   2   3   4 2801.20 154.862   1
   2   3   4 2910.77 163.375   2
   2  -3  -4 2580.38 159.208   1
   3   3  -4 711.872 48.8308   2
   3  -3   4 676.417 49.9794   1
   3   3  -4 677.512 51.4473   1
   3   3   4 703.606 47.2896   1
   3  -3  -4 721.394 53.1629   1
   4  -3   4 510.434 43.6628   1
   4   3  -4 531.647 45.2909   1
   4  -3  -4 550.112 47.5131   1
   4   3   4 506.446 40.5670   1
   5  -3   4 296.900 35.2693   1
   5   3  -4 292.609 35.9678   1
   5   3   4 361.674 33.7377   1
   5  -3  -4 308.351 38.8487   1
   0   4   4 22.1996 11.6279   2
   0  -4  -4 16.1220 4.49986   1
   0   4  -4 13.3694 2.93955   2
   0  -4   4 16.0460 7.15830   1
   1   4  -4 1679.35 110.429   1
   1  -4   4 1663.09 101.948   1
   1   4  -4 1785.75 97.9110   2
  -1   4   4 1729.02 102.891   2
   1   4   4 1694.32 102.594   2
  -1   4  -4 1652.35 97.0896   2
   1   4   4 1722.94 98.0163   1
   1  -4  -4 1642.12 101.009   1
   2  -4   4 1598.22 103.617   1
   2   4  -4 1735.49 101.315   2
   2   4  -4 1824.73 107.070   1
   2  -4  -4 1655.04 105.024   1
  -2   4  -4 1637.72 99.7260   2
   2   4   4 1743.96 103.717   2
   2   4   4 1733.53 99.8983   1
   3   4  -4 75.9494 13.0093   2
   3  -4   4 74.3929 14.2729   1
   3   4  -4 73.0702 14.8282   1
   3   4   4 95.8204 14.5134   2
   3   4   4 102.383 12.7915   1
   3  -4  -4 86.2939 14.9494   1
   4  -4   4 75.7084 17.5770   1
   4   4  -4 85.2911 18.3946   1
   4   4  -4 80.8567 16.6138   2
   4  -4  -4 104.927 21.0593   1
   4   4   4 102.317 16.7163   1
   5   4  -4 596.011 53.8263   1
   5  -4   4 672.042 55.3665   1
   5  -4  -4 599.307 57.1703   1
   0   5   4 5.28186 9.87656   2
   0  -5  -4 10.0725 3.26791   1
   0  -5   4 13.6231 6.80966   1
  -1   5   4 5564.81 295.128   2
   1  -5   4 4836.87 292.454   1
   1   5  -4 4682.65 301.406   1
   1   5  -4 5127.90 287.637   2
   1   5   4 4988.65 287.939   1
   1  -5  -4 5193.24 291.255   1
   1   5   4 5362.84 294.919   2
  -1   5  -4 5112.86 287.007   2
   2   5  -4 1288.74 79.2121   1
   2  -5   4 1203.74 76.5810   1
   2   5  -4 1283.18 73.5142   2
  -2   5  -4 1104.60 71.3681   2
   2   5   4 1175.93 75.9756   2
   2  -5  -4 1132.66 76.5185   1
   2   5   4 1198.88 71.0643   1
   3  -5   4 39.2952 12.1475   1
   3   5  -4 32.7321 11.3184   2
   3   5  -4 25.3625 10.9981   1
   3  -5  -4 23.3747 10.6710   1
   3   5   4 24.1704 10.3303   2
   3   5   4 28.0322 8.22562   1
   4   5  -4 18.6619 11.5688   1
   4  -5   4 25.9399 11.7834   1
   4   5  -4 12.0758 10.3066   2
   4   5   4 8.56188 8.76627   1
   4  -5  -4 4.31343 10.8701   1
   5   5  -4 160.468 28.0824   1
   5  -5   4 167.219 27.7753   1
   5  -5  -4 134.367 28.4969   1
   0   6   4 879.952 67.6362   2
   0  -6   4 903.826 62.7176   1
   0  -6  -4 955.263 54.2238   1
  -1   6   4 848.772 57.6158   2
   1   6  -4 689.170 62.4429   1
   1  -6   4 764.684 54.6334   1
   1   6  -4 775.560 49.4916   2
   1   6   4 906.174 58.7093   2
  -1   6  -4 890.462 49.2003   2
   1  -6  -4 925.282 53.6203   1
   2  -6   4 232.034 23.0411   1
   2   6  -4 238.723 20.3083   2
   2   6  -4 245.291 24.4496   1
  -2   6  -4 274.455 24.2689   2
   2   6   4 266.451 24.1032   2
   2   6   4 252.611 17.9069   1
   2  -6  -4 248.248 23.3791   1
   3   6  -4 113.723 16.9841   1
   3  -6   4 108.485 17.2467   1
   3   6  -4 108.957 15.7658   2
   3   6   4 88.3581 15.9250   2
   3  -6  -4 118.142 18.3326   1
   4  -6   4 8.91788 10.0311   1
   4   6  -4 4.58451 10.0327   2
   4   6  -4 -2.3339 9.52315   1
   4  -6  -4 0.26737 10.5202   1
   5   6  -4 189.777 29.8710   1
   5  -6   4 183.157 29.4731   1
   5   6  -4 169.925 31.7447   2
   5  -6  -4 171.674 31.2843   1
   0  -7   4 5626.06 336.848   1
   0   7   4 5764.77 343.209   2
   0  -7  -4 6050.73 326.705   1
   1  -7   4 226.089 21.9141   1
   1   7  -4 222.373 16.7812   2
  -1   7   4 219.317 24.6953   2
   1   7  -4 173.104 28.2368   1
  -1   7  -4 279.393 16.5746   2
   1  -7  -4 257.424 19.9930   1
   1   7   4 271.444 26.6619   2
   2   7  -4 783.207 51.1928   2
   2   7  -4 830.960 57.0769   1
   2  -7   4 796.759 55.5996   1
   2   7   4 772.092 55.8715   2
   2  -7  -4 812.480 54.9892   1
   3   7  -4 101.920 17.0449   1
   3  -7   4 100.390 17.0705   1
   3   7  -4 99.5082 15.2819   2
   3   7   4 100.431 17.2329   2
   3  -7  -4 84.4053 16.8071   1
   4   7  -4 140.647 21.9038   2
   4   7  -4 124.210 21.7432   1
   4  -7   4 121.540 22.3563   1
   4  -7  -4 124.353 21.4678   1
   5   7  -4 348.085 38.2589   2
   5  -7   4 376.692 40.7507   1
   5  -7  -4 270.839 39.2067   1
   0   8   4 167.938 25.2234   2
   0  -8   4 145.461 19.8344   1
   0  -8  -4 181.907 12.6885   1
   1  -8   4 1020.82 65.0467   1
   1   8  -4 1038.41 57.8405   2
  -1   8   4 1070.02 70.6691   2
   1   8  -4 805.799 72.4909   1
   1  -8  -4 923.696 60.2394   1
  -1   8  -4 926.891 56.6380   2
   1   8   4 976.045 69.1036   2
   2   8  -4 502.398 39.3392   1
   2   8  -4 432.406 33.2536   2
   2  -8   4 432.933 37.3871   1
   2   8   4 541.678 40.8978   2
   2  -8  -4 528.624 37.8377   1
   3  -8   4 660.988 50.8737   1
   3   8  -4 580.885 46.1249   2
   3  -8  -4 689.430 51.7070   1
   3   8   4 695.179 51.6398   2
   4  -8   4 543.342 49.3662   1
   4   8  -4 601.365 47.9033   2
   4  -8  -4 572.755 51.0894   1
   5   8  -4 47.6193 20.4794   2
   5  -8   4 11.8881 14.6021   1
   5  -8  -4 24.5278 16.5491   1
   0  -9   4 9.33313 7.54907   1
   0   9   4 52.3308 17.7524   2
   0   9  -4 2.52931 3.77384   2
   1   9  -4 180.041 12.8207   2
   1   9  -4 123.706 24.8611   1
   1  -9   4 155.312 18.4432   1
  -1   9   4 172.362 23.8017   2
   1  -9  -4 127.354 13.8034   1
   1   9   4 129.488 21.1087   2
  -1   9  -4 130.479 10.9668   2
   2  -9   4 61.3059 13.8039   1
   2   9  -4 78.7958 15.0613   1
   2   9  -4 70.3224 10.9863   2
   2  -9  -4 68.1221 12.5776   1
   2   9   4 65.9822 15.6490   2
   3   9  -4 1670.82 104.988   2
   3  -9   4 1679.34 109.504   1
   3  -9  -4 1770.82 110.164   1
   3   9   4 1607.45 109.763   2
   4  -9   4 743.930 58.0858   1
   4   9  -4 735.536 54.6202   2
   4  -9  -4 696.092 57.7785   1
   4   9   4 552.988 54.2264   2
   5   9  -4 27.4887 17.7821   2
   5  -9   4 11.0696 15.3469   1
   5  -9  -4 22.1072 17.5945   1
   0 -10   4 5.81295 8.75951   1
   0  10   4 11.3925 12.7986   2
   0  10  -4 8.39511 4.58826   2
   1  10  -4 49.9548 7.29941   2
  -1  10   4 63.1516 19.5758   2
   1 -10   4 41.0030 12.9299   1
   1  10  -4 24.8627 14.9190   1
   1  10   4 66.8105 18.4364   2
   2  10  -4 29.8603 9.20952   2
  -2  10   4 42.8181 16.9636   2
   2 -10   4 40.2024 12.7517   1
   2 -10  -4 50.9388 12.3560   1
   2  10   4 67.9232 17.7444   2
   3 -10   4 1179.08 79.8169   1
   3  10  -4 1109.80 74.2597   2
   3 -10  -4 1167.12 79.2575   1
   3  10   4 1053.70 79.7206   2
   4 -10   4 566.791 49.7069   1
   4  10  -4 568.904 46.4427   2
   4 -10  -4 469.447 47.5482   1
   4  10   4 515.825 49.8017   2
   0  11   4 60.8100 19.5571   2
   0 -11   4 7.68798 10.5228   1
   0  11  -4 25.6438 6.23492   2
   1  11  -4 118.158 11.6345   2
   1 -11   4 119.799 19.1640   1
  -1  11   4 126.647 26.1694   2
   1  11   4 123.685 23.4108   2
  -2  11   4 1107.92 80.5127   2
   2  11  -4 1018.19 69.0438   2
   2 -11   4 1146.32 76.9399   1
   2 -11  -4 1134.40 73.2801   1
   2  11   4 1154.25 79.9990   2
   3  11  -4 254.622 26.7551   2
   3 -11   4 331.929 32.6551   1
   3  11   4 244.460 31.6989   2
   3 -11  -4 290.833 31.0986   1
   4  11  -4 400.354 39.8159   2
   4 -11   4 443.105 43.5755   1
   4  11   4 396.778 44.3771   2
   4 -11  -4 459.645 43.8999   1
   0  12  -4 32.6275 22.8678   1
   0  12   4 120.271 24.2070   2
   0  12  -4 103.752 10.5544   2
  -1  12   4 103.815 27.6421   2
   1  12  -4 120.440 12.3514   2
   1 -12   4 137.005 19.8041   1
   1  12   4 97.0057 23.1564   2
  -1  12  -4 142.521 16.5513   2
   2  12  -4 1163.53 75.1232   2
   2 -12   4 1269.86 83.1443   1
  -2  12   4 1192.18 88.7798   2
   2  12   4 1191.79 86.1270   2
   3 -12   4 35.0833 15.0617   1
  -3  12   4 29.6387 17.8222   2
   3  12  -4 29.2325 12.5868   2
   3  12   4 40.4420 18.8820   2
   3 -12  -4 27.2837 13.1462   1
   4 -12   4 6.74764 13.7370   1
   4  12  -4 22.4275 15.4001   2
   4  12   4 4.11176 15.7222   2
   4 -12  -4 11.5136 13.0582   1
   0  13  -4 37.7090 7.93366   2
   0  13   4 67.7394 21.8553   2
   1  13  -4 1132.67 67.7163   2
   1  13   4 1079.93 82.8597   2
  -1  13  -4 1107.17 73.9278   2
   2  13  -4 346.770 28.1519   2
  -2  13   4 325.292 41.8735   2
   2 -13   4 344.287 34.0453   1
   2  13   4 353.320 39.0298   2
   3 -13   4 96.1805 21.1335   1
  -3  13   4 86.8987 24.4163   2
   3  13  -4 76.4051 17.0127   2
   3  13   4 56.3380 23.5674   2
   4  13  -4 104.773 22.4470   2
  -4  13   4 91.8047 24.2660   2
   4 -13   4 128.115 25.3791   1
   4  13   4 124.481 29.6061   2
   0  14   4 0.70386 15.4778   2
   0  14  -4 6.37559 5.71286   2
  -1  14   4 174.672 35.2035   2
   1  14  -4 230.431 18.7089   2
  -1  14  -4 202.178 26.3537   2
   1  14   4 226.495 33.9841   2
  -2  14   4 76.1246 28.9348   2
   2  14   4 48.0692 22.6128   2
   3 -14   4 127.681 23.9507   1
   3  14  -4 131.902 20.2471   2
  -3  14   4 102.873 27.7939   2
   3  14   4 124.587 28.4589   2
   0  15   4 684.961 60.3693   2
   0  15  -4 669.541 43.2459   2
  -1  15   4 74.2661 28.8634   2
   1  15  -4 45.5242 9.86976   2
  -1  15  -4 59.0358 17.4627   2
   1  15   4 42.2126 21.9036   2
  -2  15   4 234.711 42.3904   2
   2  15  -4 322.800 28.0566   2
  -2  15  -4 309.822 31.7421   2
   2  15   4 354.899 41.4734   2
   3  15  -4 235.556 26.6695   2
  -3  15   4 222.555 38.1958   2
   3  15   4 284.802 39.3862   2
   0  16   4 28.3804 19.9721   2
   1  16  -4 27.5985 9.21704   2
  -1  16   4 55.1672 25.2063   2
   1  16   4 9.61976 20.0623   2
  -1  16  -4 15.0832 12.4961   2
  -2  16   4 130.970 34.8986   2
   2  16  -4 139.318 17.6768   2
   2  16   4 146.846 32.0117   2
  -2  16  -4 112.962 23.7176   2
   3  16  -4 139.674 22.6452   2
   3  16   4 180.467 34.9901   2
   0  17   4 683.327 59.5190   2
   0  17  -4 623.807 41.3885   2
   1  17  -4 68.0462 11.5718   2
  -1  17   4 135.254 30.3924   2
  -1  17  -4 36.3631 13.6495   2
   1  17   4 55.0983 25.0320   2
  -2  17   4 67.5109 31.5487   2
   2  17  -4 37.2013 13.4555   2
  -2  17  -4 68.0727 21.2047   2
   2  17   4 35.2064 23.1266   2
   0  18  -4 97.7826 12.2130   2
   0  18   4 150.148 28.3779   2
  -1  18   4 99.3132 28.0969   2
   1  18  -4 52.5675 10.6727   2
  -1  18  -4 48.1618 11.9702   2
   1  18   4 17.8854 22.4259   2
   0   0  -5 4.25368 7.14050   1
   0   0   5 -0.6674 3.98382   1
   1   0   5 121.691 11.4547   2
   1   0  -5 112.353 16.3504   1
   1   0   5 140.134 12.3622   1
  -1   0   5 104.090 11.5537   2
   2   0   5 216.609 19.2062   1
   2   0   5 225.997 18.5693   2
   2   0  -5 219.733 22.3585   1
   3   0  -5 2346.39 143.642   1
   3   0   5 2248.36 137.987   1
   4   0   5 11.2370 8.58664   1
   4   0  -5 11.4725 9.45368   1
   5   0   5 58.5527 18.3062   1
   5   0  -5 52.3639 21.9705   1
   0   1   5 6403.85 341.670   2
   0   1   5 5704.20 343.066   1
   0  -1   5 6103.57 343.619   1
   0   1  -5 5885.85 346.957   1
   0  -1  -5 5585.53 343.560   1
   1  -1   5 1713.99 103.293   1
   1   1  -5 1692.84 110.731   1
  -1   1   5 1666.26 103.028   2
   1   1   5 1841.03 102.739   1
   1  -1  -5 1830.30 108.045   1
   1   1   5 1675.75 101.819   2
   2  -1   5 1439.46 87.5346   2
   2  -1   5 1438.73 89.7961   1
   2   1  -5 1510.90 94.8790   1
   2   1   5 1467.18 88.8353   1
   2   1   5 1510.07 88.9808   2
   2  -1  -5 1444.47 93.5568   1
   3  -1   5 113.011 15.5490   1
   3   1  -5 114.455 18.8415   1
   3  -1  -5 104.939 16.9064   1
   3   1   5 117.089 14.8611   1
   4  -1   5 1033.89 71.8103   1
   4   1  -5 976.768 75.2942   1
   4   1   5 1062.71 70.9138   1
   4  -1  -5 1045.85 76.8310   1
   5  -1   5 58.2430 18.6289   1
   5   1  -5 26.3908 16.5058   1
   5   1   5 45.5315 16.7927   1
   5  -1  -5 39.9290 17.4942   1
   0  -2  -5 2429.87 150.314   1
   0   2  -5 2507.73 157.759   1
   0   2   5 2677.50 152.922   2
   0   2   5 2419.34 150.660   1
   0  -2   5 2559.62 153.060   1
  -1   2   5 446.974 33.1796   2
   1  -2   5 447.002 31.5948   1
   1   2  -5 428.647 39.3651   1
  -1   2  -5 438.867 28.3681   2
   1   2   5 450.906 30.1422   1
   1  -2  -5 450.175 33.5576   1
   1   2   5 442.011 31.0712   2
   2  -2   5 1323.37 83.0839   1
   2   2  -5 1440.03 88.5237   1
   2   2   5 1316.28 80.8769   1
   2  -2  -5 1254.18 85.4036   1
   2   2   5 1357.19 82.2788   2
   3   2  -5 654.947 50.9148   1
   3  -2   5 637.350 47.3341   1
   3  -2  -5 666.829 51.4478   1
   3   2   5 656.299 45.4375   1
   4   2  -5 60.7061 18.1563   1
   4  -2   5 84.0348 17.1897   1
   4   2   5 88.0958 16.9658   1
   4  -2  -5 54.2530 18.4177   1
   5   2  -5 426.136 45.0397   1
   5  -2   5 400.399 40.9148   1
   5  -2  -5 413.278 45.7260   1
   5   2   5 452.024 40.0537   1
   0  -3  -5 121.866 14.2550   1
   0  -3   5 123.694 16.9745   1
  -1   3   5 2075.14 136.528   2
   1   3  -5 1969.21 136.423   1
   1  -3   5 2104.58 126.467   1
   1   3   5 2299.98 124.367   1
   1  -3  -5 2123.45 127.263   1
  -1   3  -5 2147.13 121.977   2
   2   3  -5 1475.77 92.8166   1
   2  -3   5 1392.02 87.9156   1
   2  -3  -5 1359.67 89.8249   1
   2   3   5 1428.40 84.8142   1
   3   3  -5 551.305 43.0075   1
   3  -3   5 490.195 39.0810   1
   3   3   5 458.070 37.7614   2
   3   3   5 502.411 36.4141   1
   3  -3  -5 491.163 41.9785   1
   4   3  -5 645.105 51.3428   1
   4  -3   5 613.442 48.0257   1
   4   3   5 532.178 43.6936   1
   4  -3  -5 550.185 50.4690   1
   5  -3   5 -0.4957 10.4812   1
   5   3  -5 -0.0847 13.3008   1
   5  -3  -5 10.3262 15.2400   1
   5   3   5 5.45187 10.8759   1
   0  -4  -5 519.861 35.1658   1
   0  -4   5 487.262 39.8596   1
   0   4   5 516.682 42.4739   2
   1  -4   5 1779.24 108.143   1
   1   4  -5 1426.94 116.689   1
  -1   4   5 1805.86 109.516   2
   1   4   5 1919.18 109.714   2
   1   4   5 1861.63 105.153   1
  -1   4  -5 1870.84 102.684   2
   1  -4  -5 1750.74 107.337   1
   2   4  -5 899.249 58.0547   1
   2   4  -5 866.161 49.7239   2
   2  -4   5 826.754 52.8102   1
   2   4   5 682.037 50.7515   2
   2  -4  -5 667.230 52.1745   1
   2   4   5 746.129 47.7050   1
  -2   4  -5 682.103 47.0423   2
   3  -4   5 168.736 20.3075   1
   3   4  -5 140.063 20.9228   1
   3   4  -5 158.102 18.5588   2
   3  -4  -5 188.449 22.1134   1
   3   4   5 160.927 16.7847   1
   4   4  -5 307.532 33.1678   1
   4  -4   5 286.699 30.8613   1
   4   4   5 264.764 26.1758   1
   4  -4  -5 283.667 33.4100   1
   5  -4   5 400.615 41.4508   1
   5   4  -5 375.838 41.8293   1
   5  -4  -5 412.323 45.6981   1
   0  -5   5 381.139 34.4358   1
   0  -5  -5 431.808 28.1443   1
   0   5   5 426.567 38.6184   2
   1   5  -5 644.777 38.2545   2
  -1  -5  -5 576.082 40.6087   1
   1  -5   5 572.684 43.0030   1
   1   5  -5 466.844 52.1778   1
  -1   5   5 643.505 45.9442   2
  -1   5  -5 649.236 37.5550   2
   1   5   5 715.401 46.9707   2
   1   5   5 625.187 40.3003   1
   1  -5  -5 640.196 42.2082   1
   2   5  -5 1159.71 78.9023   1
   2  -5   5 1141.02 74.5202   1
   2   5  -5 1137.36 70.7344   2
   2   5   5 1198.76 69.3445   1
   2   5   5 1115.66 74.3769   2
   2  -5  -5 1144.32 75.3011   1
   3   5  -5 458.538 35.5901   2
   3  -5   5 513.791 39.3282   1
   3   5  -5 442.572 39.4035   1
   3   5   5 448.549 37.5418   2
   3   5   5 434.932 32.9029   1
   3  -5  -5 490.514 40.9230   1
   4   5  -5 762.945 58.5910   1
   4   5  -5 646.844 53.3673   2
   4  -5   5 703.297 56.5249   1
   4  -5  -5 809.449 60.8315   1
   5  -5   5 246.889 33.4511   1
   5   5  -5 280.255 34.7958   1
   5  -5  -5 259.929 37.2125   1
   0   6  -5 77.3830 8.66508   2
   0  -6   5 109.184 16.7379   1
   0  -6  -5 141.037 10.4800   1
   0   6   5 175.297 23.1900   2
  -1  -6  -5 220.202 15.3183   1
   1  -6   5 209.211 20.6970   1
   1   6  -5 115.886 27.0752   1
  -1   6   5 213.009 23.1954   2
   1   6  -5 206.491 15.1075   2
  -1   6  -5 214.152 14.4007   2
   1  -6  -5 210.397 18.2775   1
   1   6   5 234.140 24.7321   2
   2  -6   5 1707.17 113.079   1
   2   6  -5 1743.04 117.082   1
   2   6  -5 1744.48 108.773   2
   2   6   5 1930.36 106.944   1
   2   6   5 1946.89 115.054   2
   2  -6  -5 1945.83 114.448   1
   3   6  -5 826.164 58.6412   2
   3   6  -5 949.503 64.6012   1
   3  -6   5 968.838 63.6743   1
   3  -6  -5 843.924 63.6242   1
   3   6   5 797.240 61.4293   2
   4  -6   5 151.869 23.7325   1
   4   6  -5 147.072 23.4869   1
   4   6  -5 142.044 21.0473   2
   4  -6  -5 145.908 25.2285   1
   5  -6   5 112.385 24.8939   1
   5   6  -5 89.4260 23.1642   1
   5  -6  -5 72.0282 25.2742   1
   0   7   5 872.048 67.6000   2
   0  -7  -5 963.122 53.9585   1
   0  -7   5 834.566 63.8499   1
   1   7  -5 1784.71 99.8570   2
   1  -7   5 1640.14 106.943   1
  -1   7   5 1755.05 112.070   2
  -1   7  -5 1658.31 98.8439   2
   1   7   5 1952.44 114.495   2
   1  -7  -5 1659.63 103.384   1
   2   7  -5 125.237 19.5930   1
   2   7  -5 133.581 13.8825   2
   2  -7   5 134.024 17.5387   1
   2   7   5 125.156 18.4315   2
   2  -7  -5 121.301 16.3928   1
   3  -7   5 427.537 38.2381   1
   3   7  -5 474.255 39.6085   1
   3   7  -5 450.001 35.3708   2
   3   7   5 401.850 37.9246   2
   3  -7  -5 464.844 39.7613   1
   4   7  -5 612.108 50.6293   1
   4  -7   5 610.534 50.6987   1
   4   7  -5 573.609 47.1104   2
   4  -7  -5 524.872 50.7591   1
   5  -7   5 228.227 32.5534   1
   5  -7  -5 169.082 32.2686   1
   0  -8   5 2542.40 163.358   1
   0   8   5 2768.41 168.360   2
   1   8  -5 24.7692 18.1229   1
  -1   8   5 89.4370 19.5197   2
   1   8  -5 78.4154 8.42532   2
   1  -8   5 77.2342 14.0175   1
   1   8   5 92.7663 20.4227   2
  -1   8  -5 103.255 7.92797   2
   1  -8  -5 100.622 11.6436   1
   2  -8   5 87.0298 15.6653   1
  -2   8   5 135.065 20.1773   2
   2   8  -5 91.3007 12.0902   2
   2   8  -5 122.562 20.1759   1
   2   8   5 98.5466 18.9183   2
   2  -8  -5 92.7995 15.1389   1
   3   8  -5 716.581 56.6372   1
   3   8  -5 678.066 51.8292   2
   3  -8   5 747.828 56.8783   1
   3  -8  -5 881.014 59.3538   1
   3   8   5 768.350 58.1912   2
   4  -8   5 1.72425 10.1246   1
   4   8  -5 1.12401 11.2230   2
   4   8  -5 -3.4517 10.1796   1
   4  -8  -5 23.1063 13.9419   1
   5  -8   5 21.0686 14.8173   1
   5  -8  -5 -0.7529 14.0220   1
   0  -9   5 2088.85 138.120   1
   0   9   5 2268.65 142.257   2
  -1   9   5 1099.73 83.2616   2
   1   9  -5 1088.31 67.1387   2
   1  -9   5 1145.16 76.8014   1
   1  -9  -5 1186.01 71.0838   1
  -1   9  -5 1180.39 66.4571   2
   2   9  -5 1006.32 66.3614   2
   2  -9   5 1038.44 72.9707   1
  -2   9   5 1097.33 76.8214   2
   2   9  -5 1138.81 76.8169   1
   2   9   5 1086.86 76.3346   2
   2  -9  -5 1083.61 71.1359   1
   3   9  -5 102.321 16.5312   2
   3  -9   5 110.412 19.6859   1
   3   9  -5 113.368 20.4888   1
   3   9   5 94.7788 21.3053   2
   3  -9  -5 107.532 18.8999   1
   4   9  -5 90.7542 19.5659   2
   4  -9   5 85.9885 18.4449   1
   4  -9  -5 59.8941 19.9408   1
   5  -9   5 -10.884 11.8739   1
   5   9  -5 11.4402 15.3378   2
   0  10   5 1616.00 115.066   2
   0  10  -5 1726.49 96.3711   2
   0 -10   5 1757.10 114.732   1
   1  10  -5 474.541 31.1426   2
   1 -10   5 484.327 40.6809   1
  -1  10   5 431.393 47.2976   2
   1  10  -5 338.082 46.8776   1
  -1  10  -5 540.850 30.4980   2
   1  10   5 622.622 50.5502   2
   2  10  -5 133.077 15.2776   2
  -2  10   5 157.875 24.3666   2
   2  10  -5 138.385 22.2002   1
   2 -10   5 139.300 20.4594   1
   2 -10  -5 160.403 19.2056   1
   2  10   5 166.612 24.6299   2
   3  10  -5 13.4107 9.89472   2
   3 -10   5 5.18947 9.88286   1
   3 -10  -5 2.52114 7.94522   1
   3  10   5 11.2571 14.6469   2
   4  10  -5 25.9605 15.2962   2
   4 -10   5 14.4660 13.3632   1
   4 -10  -5 12.7176 12.2547   1
   0 -11   5 561.009 49.9135   1
   0  11  -5 511.221 31.6082   2
   0  11   5 595.573 51.6545   2
   1  11  -5 1952.61 113.799   2
   1 -11   5 2045.69 126.082   1
   1  11  -5 1829.42 136.238   1
  -1  11  -5 1859.72 112.595   2
   1  11   5 2257.09 134.826   2
  -2  11   5 144.489 27.3183   2
   2 -11   5 161.102 21.5564   1
   2  11  -5 105.781 14.3171   2
   2  11   5 115.548 24.3279   2
   3  11  -5 101.779 17.4433   2
   3 -11   5 111.013 20.9491   1
  -3  11   5 141.611 25.8706   2
   3 -11  -5 99.3582 19.1333   1
   3  11   5 118.107 24.0114   2
   4 -11   5 16.2263 14.0101   1
   4  11  -5 52.1785 18.8729   2
   4 -11  -5 29.3803 14.7466   1
   0  12   5 137.255 25.7670   2
   0  12  -5 56.1631 25.9990   1
   0 -12   5 106.889 24.0112   1
   0  12  -5 121.163 9.20232   2
   1  12  -5 99.6612 10.5501   2
  -1  12   5 102.643 29.1167   2
   1 -12   5 147.239 22.6169   1
   1  12   5 108.098 26.1689   2
   2 -12   5 693.412 53.3221   1
  -2  12   5 615.793 58.5088   2
   2  12  -5 664.935 44.1281   2
   2  12   5 580.549 55.2989   2
   3  12  -5 86.4320 15.8525   2
   3 -12   5 73.2541 19.5375   1
  -3  12   5 50.1554 20.6693   2
   3  12   5 53.1177 21.1475   2
   4 -12   5 140.248 28.6276   1
   4  12  -5 141.596 24.4982   2
   4  12   5 138.600 31.5165   2
   4 -12  -5 124.328 26.7487   1
   0  13   5 415.482 44.3661   2
   0  13  -5 414.902 25.9639   2
   1 -13   5 668.262 55.5076   1
  -1  13   5 602.331 64.0238   2
   1  13  -5 646.682 42.1180   2
  -1  13  -5 725.640 48.0265   2
   1  13   5 731.170 61.7403   2
   2  13  -5 166.262 17.7433   2
  -2  13   5 166.056 33.4432   2
   2 -13   5 178.964 24.9194   1
   2  13   5 152.578 29.5588   2
   3  13  -5 65.3115 15.9494   2
  -3  13   5 71.5735 25.7139   2
   3 -13   5 65.4564 19.8702   1
   3  13   5 69.4740 23.8720   2
   4 -13   5 65.3949 23.0456   1
  -4  13   5 86.7239 26.4435   2
   4  13  -5 86.0158 23.3083   2
   4  13   5 103.040 28.0416   2
   0  14  -5 162.390 12.5657   2
   0  14   5 180.997 31.0072   2
   1  14  -5 373.846 24.3665   2
  -1  14   5 334.907 45.1202   2
  -1  14  -5 269.412 29.8599   2
   1  14   5 366.600 43.0406   2
  -2  14   5 260.895 40.4703   2
   2 -14   5 232.500 28.9345   1
   2  14  -5 201.519 20.4435   2
   2  14   5 216.061 35.5658   2
   3  14  -5 104.519 18.8272   2
   3 -14   5 96.4942 24.3847   1
  -3  14   5 106.522 29.3346   2
   3  14   5 70.8109 27.8370   2
   0  15  -5 45.7204 6.89243   2
   0  15   5 89.7408 25.3467   2
  -1  15   5 309.102 42.3636   2
   1  15  -5 280.368 20.0008   2
  -1  15  -5 179.846 23.2677   2
   1  15   5 258.937 38.7326   2
   2  15  -5 136.412 17.5349   2
  -2  15   5 149.307 36.4901   2
   2  15   5 139.925 31.8978   2
  -3  15   5 200.065 38.5001   2
   3  15  -5 250.172 27.3438   2
   3  15   5 204.772 38.1928   2
   0  16  -5 626.674 39.4826   2
   0  16   5 734.121 62.1757   2
  -1  16   5 83.7388 29.5742   2
   1  16  -5 43.1483 8.76250   2
   1  16   5 39.2730 23.5613   2
  -1  16  -5 33.3483 11.5390   2
   2  16  -5 0.39024 8.26340   2
  -2  16   5 32.9155 27.1031   2
   2  16   5 2.17371 21.0052   2
  -2  16  -5 7.62394 13.0889   2
   0  17  -5 66.9497 7.74642   2
   0  17   5 92.5681 26.9486   2
  -1  17   5 184.241 33.4445   2
   1  17  -5 128.483 13.5404   2
   1  17   5 132.527 32.2304   2
  -1  17  -5 130.294 14.3818   2
   2  17  -5 149.090 17.6675   2
  -2  17   5 150.829 37.4215   2
  -2  17  -5 116.983 22.6123   2
   2  17   5 121.628 33.7404   2
   0  18   5 68.3550 24.5523   2
   0  18  -5 59.7708 7.08302   2
   1  18  -5 74.4024 10.6768   2
  -1  18   5 119.287 30.3455   2
  -1  18  -5 73.6632 9.80372   2
   1  18   5 77.7799 30.1333   2
   0   0   6 436.317 37.6802   1
   0   0  -6 435.774 39.7295   1
   1   0  -6 33.2349 12.3763   1
  -1   0   6 30.8035 8.17095   2
   1   0   6 35.9321 7.72293   1
   2   0  -6 3004.71 179.144   1
   2   0   6 2886.84 172.172   1
   3   0   6 334.676 29.2351   1
   3   0  -6 361.933 35.2078   1
   4   0   6 1048.80 73.8267   1
   4   0  -6 1117.76 81.4052   1
   5   0  -6 -0.8400 13.8196   1
   5   0   6 20.3242 12.6318   1
   0   1  -6 249.949 29.7159   1
   0   1   6 310.388 25.6448   2
   0  -1  -6 236.901 27.1137   1
   0   1   6 244.406 26.5199   1
   0  -1   6 283.265 27.4211   1
   1  -1   6 1528.63 85.8902   1
  -1   1   6 1435.51 85.6924   2
   1   1  -6 1325.30 94.8539   1
   1   1   6 1290.29 82.8401   2
   1  -1  -6 1296.86 90.1836   1
   1   1   6 1403.81 84.4690   1
   2   1  -6 803.249 58.7401   1
   2  -1   6 790.863 52.5606   1
   2   1   6 790.243 51.3077   2
   2   1   6 768.823 51.2926   1
   2  -1  -6 770.388 56.9711   1
   3   1  -6 516.408 43.0706   1
   3  -1   6 503.282 37.3776   1
   3   1   6 415.222 34.8573   1
   3  -1  -6 440.388 41.0244   1
   4   1  -6 245.402 32.2060   1
   4  -1   6 250.097 27.5521   1
   4  -1  -6 258.297 32.8335   1
   4   1   6 256.213 26.7741   1
   5   1  -6 789.803 65.7512   1
   5  -1   6 748.789 58.7754   1
   5   1   6 656.615 55.8225   1
   5  -1  -6 691.035 63.8592   1
   0  -2  -6 2064.28 125.588   1
   0   2  -6 2013.30 132.716   1
   0  -2   6 2038.67 127.746   1
   0   2   6 1965.23 125.296   1
   0   2   6 2035.85 124.648   2
   1   2  -6 2010.70 146.496   1
  -1   2   6 2199.31 135.993   2
   1  -2   6 2230.08 135.427   1
  -1   2  -6 2301.41 131.428   2
   1  -2  -6 2342.88 139.567   1
   1   2   6 2445.83 134.838   1
   1   2   6 2368.80 134.839   2
   2   2  -6 314.149 32.4251   1
   2  -2   6 336.529 27.7466   1
   2   2   6 338.219 25.8429   1
   2  -2  -6 348.600 31.2852   1
   2   2   6 352.773 27.2214   2
   3  -2   6 478.976 38.2058   1
   3   2  -6 427.372 41.5745   1
   3   2   6 501.914 36.7243   1
   3  -2  -6 511.536 43.1409   1
   4  -2   6 25.5722 11.8505   1
   4   2  -6 17.5669 13.4133   1
   4   2   6 9.79181 8.86089   1
   4  -2  -6 20.5904 13.5186   1
   5   2  -6 493.176 47.3746   1
   5  -2   6 381.485 39.6345   1
   5  -2  -6 319.530 42.9839   1
   5   2   6 362.579 36.4865   1
   0  -3   6 25.8123 11.3430   1
   0   3  -6 32.6328 15.1546   1
   0   3  -6 29.8387 9.94499   2
   0  -3  -6 34.5442 9.20282   1
   1  -3   6 2900.05 177.655   1
   1   3  -6 2544.52 190.085   1
   1  -3  -6 3090.22 179.808   1
   1   3   6 3314.94 176.767   1
  -1   3  -6 3031.61 172.688   2
   1   3   6 3219.03 183.991   2
   2  -3   6 262.279 23.8338   1
   2   3  -6 249.988 28.5928   1
   2   3   6 284.502 23.9234   2
   2  -3  -6 258.561 25.8109   1
   2   3   6 249.777 20.7281   1
   3  -3   6 630.727 45.4808   1
   3   3  -6 641.816 50.2440   1
   3   3   6 522.097 40.6959   1
   3  -3  -6 578.544 47.8169   1
   4  -3   6 30.4877 14.4015   1
   4   3  -6 40.9320 17.7698   1
   4   3   6 15.6825 9.44177   1
   4  -3  -6 7.01071 12.1365   1
   5   3  -6 45.8196 21.7357   1
   5  -3   6 51.6757 19.5655   1
   5  -3  -6 23.0934 17.3537   1
   0  -4   6 5595.21 338.178   1
   0   4  -6 5935.10 347.686   1
   0   4   6 5878.19 338.360   2
   0  -4  -6 5817.87 331.809   1
   1   4  -6 -2.5538 11.9347   1
   1  -4   6 28.7719 8.50066   1
  -1   4   6 28.9150 10.5161   2
  -1   4  -6 34.6258 5.24686   2
   1   4   6 17.8178 12.3975   2
   1  -4  -6 35.8367 8.76468   1
   1   4   6 44.8988 8.30030   1
   2   4  -6 105.063 19.5717   1
   2  -4   6 85.7411 13.2600   1
   2   4   6 133.472 12.8216   1
   2  -4  -6 137.185 17.5466   1
   3   4  -6 865.201 64.1814   1
   3  -4   6 798.955 59.1113   1
   3   4   6 834.899 55.1646   1
   3  -4  -6 852.625 63.2166   1
   4  -4   6 104.891 20.3827   1
   4   4  -6 141.531 24.4014   1
   4   4   6 120.061 17.1146   1
   4  -4  -6 116.206 24.0627   1
   5   4  -6 5.92941 13.3331   1
   5  -4   6 22.3512 14.9313   1
   5  -4  -6 16.8146 17.0879   1
   0   5   6 723.334 54.5014   2
   0  -5   6 670.104 52.8819   1
   0  -5  -6 687.545 45.5163   1
  -1   5   6 806.130 58.8966   2
   1  -5   6 920.097 57.2903   1
   1   5  -6 700.453 71.0925   1
  -1  -5  -6 864.490 54.7647   1
   1  -5  -6 789.237 54.3988   1
  -1   5  -6 816.139 49.2118   2
   1   5   6 824.522 53.6879   1
   1   5   6 821.892 58.5891   2
   2   5  -6 47.0603 15.4125   1
   2  -5   6 63.4647 12.2467   1
   2   5   6 37.6964 11.2157   2
   2  -5  -6 42.1948 11.2371   1
   2   5   6 35.7221 7.42090   1
   3  -5   6 2.85248 7.19893   1
   3   5  -6 5.18867 9.66195   1
   3   5   6 6.96649 9.89102   2
   3   5   6 8.88372 5.56055   1
   3  -5  -6 15.7978 8.78636   1
   4   5  -6 1109.98 81.1099   1
   4  -5   6 1169.20 79.3175   1
   4  -5  -6 1007.35 80.8962   1
   5  -5   6 120.972 25.4438   1
   5   5  -6 127.450 26.7583   1
   5  -5  -6 84.1053 26.9164   1
   0   6  -6 10.3144 6.46634   2
   0  -6   6 14.3372 9.27516   1
   0  -6  -6 31.0115 6.19018   1
   0   6   6 34.1632 14.3848   2
  -1  -6  -6 1031.52 61.6586   1
  -1   6   6 980.144 70.6241   2
   1  -6   6 962.979 66.9968   1
   1   6   6 1127.78 72.6612   2
   1  -6  -6 963.288 63.9629   1
  -1   6  -6 990.723 58.9729   2
   2  -6   6 1112.19 76.1589   1
  -2   6   6 1172.56 77.9038   2
   2   6  -6 1160.97 83.5031   1
   2   6  -6 1146.86 71.4682   2
   2   6   6 1155.14 72.9546   1
   2  -6  -6 1174.46 77.0120   1
   2   6   6 1191.20 78.1589   2
   3   6  -6 1429.75 88.9232   2
   3  -6   6 1460.89 93.1852   1
   3   6  -6 1551.65 97.5156   1
   3  -6  -6 1339.42 94.0716   1
   3   6   6 1235.67 91.3519   2
   4  -6   6 133.412 23.3580   1
   4   6  -6 151.582 25.3762   1
   4  -6  -6 159.032 26.5694   1
   5  -6   6 -2.8407 12.0646   1
   5   6  -6 9.27451 13.3013   1
   5  -6  -6 5.75360 15.7438   1
   0  -7   6 14.2934 9.04391   1
   0   7   6 19.1451 11.9678   2
   0  -7  -6 23.3737 5.18171   1
   0   7  -6 14.3541 5.18893   2
  -1   7   6 431.256 40.1948   2
   1   7  -6 276.562 46.9575   1
   1  -7   6 491.793 36.9963   1
   1   7   6 554.523 44.3064   2
   1  -7  -6 426.874 32.2832   1
  -1   7  -6 443.280 27.5189   2
   2  -7   6 163.778 20.6897   1
   2   7  -6 185.970 16.8042   2
   2   7  -6 176.540 25.7279   1
  -2   7   6 208.739 23.8672   2
   2   7   6 158.465 22.7150   2
   2  -7  -6 156.892 19.5401   1
   3   7  -6 762.115 58.3553   1
   3   7  -6 728.032 51.0043   2
   3  -7   6 714.937 55.0683   1
   3  -7  -6 742.859 56.6473   1
   3   7   6 662.610 55.0283   2
   4   7  -6 359.380 38.5975   1
   4  -7   6 392.108 38.6558   1
   4  -7  -6 344.250 39.4530   1
   5  -7   6 455.232 47.4770   1
   5  -7  -6 609.750 57.1551   1
   0  -8   6 37.5060 15.2871   1
   0   8   6 39.4067 16.7979   2
   0   8  -6 10.0730 13.1997   1
   1   8  -6 809.449 45.5391   2
  -1   8   6 782.791 61.3667   2
   1  -8   6 809.221 55.7586   1
   1   8  -6 537.046 68.0977   1
  -1   8  -6 738.105 44.3291   2
   1  -8  -6 710.275 49.1587   1
   2   8  -6 686.492 46.0568   2
  -2   8   6 757.936 56.3561   2
   2  -8   6 782.071 53.9597   1
   2   8  -6 742.803 59.2433   1
   2   8   6 669.638 55.1133   2
   2  -8  -6 621.071 49.7471   1
   3  -8   6 173.654 23.4483   1
   3   8  -6 142.805 23.7720   1
   3   8  -6 156.870 19.4911   2
   3   8   6 182.561 26.6072   2
   3  -8  -6 197.707 24.6749   1
   4  -8   6 495.365 44.6993   1
   4   8  -6 427.517 39.9961   2
   4   8  -6 494.921 44.8824   1
   4  -8  -6 399.742 43.6721   1
   5  -8   6 318.271 39.1346   1
   5  -8  -6 276.567 39.9695   1
   0   9  -6 382.066 48.5869   1
   0   9   6 428.008 41.8451   2
   0  -9   6 430.850 41.0217   1
  -1   9   6 73.1559 20.9863   2
   1   9  -6 45.3189 24.5998   1
   1  -9   6 98.9198 16.8603   1
   1   9  -6 81.8482 8.21504   2
   1   9   6 63.7470 22.8878   2
   1  -9  -6 49.4421 10.0363   1
  -1   9  -6 69.1459 6.69557   2
   2  -9   6 1345.99 93.1863   1
   2   9  -6 1330.32 85.6899   2
   2   9  -6 1476.66 100.500   1
  -2   9   6 1420.31 98.1525   2
   2  -9  -6 1399.49 90.9499   1
   2   9   6 1614.43 100.445   2
   3   9  -6 25.3333 11.5573   2
   3   9  -6 26.0812 12.9699   1
   3  -9   6 26.9629 12.3519   1
   3  -9  -6 8.33881 10.8217   1
   3   9   6 6.83898 13.1335   2
   4  -9   6 53.0068 19.5087   1
   4   9  -6 91.3501 20.0731   2
   4  -9  -6 47.1757 19.8031   1
   0  10  -6 210.281 39.9883   1
   0 -10   6 301.688 34.8976   1
   0  10   6 308.498 35.7675   2
   1 -10   6 737.642 53.9310   1
   1  10  -6 489.860 63.5065   1
   1  10  -6 680.196 41.1538   2
  -1  10  -6 688.647 40.0829   2
   2  10  -6 628.955 52.6649   1
   2 -10   6 550.609 45.9040   1
  -2  10   6 570.132 51.9767   2
   2  10  -6 543.587 38.0874   2
   2  10   6 567.705 51.5538   2
   2 -10  -6 519.407 42.3294   1
   3 -10   6 62.1130 17.5159   1
  -3  10   6 56.4532 20.1645   2
   3  10  -6 47.5019 13.9231   2
   3 -10  -6 35.2893 16.2168   1
   3  10   6 42.9876 20.6853   2
   4  10  -6 132.513 22.5188   2
   4 -10   6 147.021 26.4889   1
   4 -10  -6 96.6500 23.3867   1
   0  11  -6 130.266 34.5290   1
   0  11   6 172.259 28.6876   2
   0 -11   6 230.794 30.4209   1
   1  11  -6 248.284 17.9845   2
   1 -11   6 263.996 29.4821   1
  -1  11   6 183.843 35.0603   2
   1  11  -6 166.481 35.1601   1
  -1  11  -6 272.265 16.9637   2
   1  11   6 299.810 35.2955   2
  -2  11   6 80.4601 23.0487   2
   2  11  -6 64.7392 11.7190   2
   2 -11   6 93.6789 18.5544   1
   2  11   6 97.9656 24.7566   2
   3  11  -6 399.596 33.0307   2
  -3  11   6 353.932 40.1118   2
   3 -11   6 414.350 39.4812   1
   3 -11  -6 331.131 36.0289   1
   3  11   6 397.259 43.8392   2
   4 -11   6 446.614 46.8202   1
   4  11  -6 543.594 43.9495   2
  -4  11   6 365.125 60.4964   2
   4 -11  -6 534.019 48.9177   1
   0  12  -6 98.2329 32.9847   1
   0  12   6 120.686 24.4428   2
   0 -12   6 177.453 28.1394   1
   1 -12   6 13.0388 11.3460   1
   1  12  -6 14.4443 5.76816   2
  -1  12   6 20.1017 22.7152   2
  -1  12  -6 27.6141 4.66966   2
   1  12   6 40.1016 21.0169   2
  -2  12   6 166.741 32.8007   2
   2 -12   6 153.123 23.7913   1
   2  12  -6 153.883 16.5853   2
   2  12   6 204.447 32.8136   2
   3  12  -6 1103.41 73.0288   2
  -3  12   6 989.752 83.4756   2
   3 -12   6 1171.27 81.7493   1
   3  12   6 1147.20 87.3592   2
   4 -12   6 31.7321 17.1536   1
  -4  12   6 44.6723 22.3575   2
   4  12  -6 74.4384 19.8853   2
   4 -12  -6 72.7986 24.2014   1
   0  13   6 188.991 30.4910   2
  -1  13   6 90.8014 29.0670   2
   1  13  -6 88.7155 9.52860   2
   1 -13   6 78.6398 19.7235   1
   1  13   6 125.554 27.2698   2
  -1  13  -6 90.6080 13.3426   2
   2  13  -6 33.2664 10.2168   2
  -2  13   6 47.2800 24.6126   2
   2 -13   6 47.8413 16.9108   1
   2  13   6 10.9424 19.7882   2
  -3  13   6 92.3907 29.0072   2
   3 -13   6 83.6675 21.4712   1
   3  13  -6 76.1359 16.3785   2
   3  13   6 88.0533 28.8256   2
   0  14   6 634.821 58.4329   2
  -1  14   6 11.3804 18.3381   2
   1  14  -6 5.35940 4.91142   2
   1  14   6 14.1377 19.7983   2
  -1  14  -6 5.85315 8.61431   2
   2 -14   6 305.754 36.5381   1
   2  14  -6 310.879 26.3206   2
  -2  14   6 271.159 45.4074   2
   2  14   6 374.791 45.1520   2
  -3  14   6 316.084 45.9324   2
   3  14  -6 385.195 34.0611   2
   3 -14   6 362.169 39.6043   1
   3  14   6 345.365 46.9172   2
   0  15   6 278.820 38.2789   2
   1  15  -6 93.3409 9.80177   2
  -1  15   6 110.540 30.4599   2
   1  15   6 91.1759 28.3281   2
  -1  15  -6 59.1886 11.1506   2
   2  15  -6 309.548 25.4831   2
  -2  15   6 265.241 46.0959   2
   2  15   6 351.512 45.7389   2
  -3  15   6 36.4935 25.9885   2
   3 -15   6 44.8502 20.4067   1
   3  15  -6 51.4713 17.3869   2
   3  15   6 30.0489 23.9886   2
   0  16   6 205.646 34.8070   2
   1  16  -6 423.406 27.0819   2
  -1  16   6 406.438 49.1411   2
  -1  16  -6 363.720 25.6993   2
   1  16   6 445.269 49.7094   2
  -2  16   6 88.4656 33.0352   2
   2  16  -6 54.6631 12.9650   2
  -2  16  -6 43.3514 16.2486   2
   2  16   6 69.3216 30.3378   2
   0  17   6 26.5653 19.6141   2
  -1  17   6 68.5799 28.2461   2
   1  17  -6 25.8209 6.99205   2
   1  17   6 9.00140 20.8558   2
   0  18   6 14.2061 19.3717   2
   0   0   7 -3.3862 6.02306   1
   0   0  -7 -3.5650 6.94268   1
   1   0   7 132.218 14.8821   1
   1   0  -7 97.4774 19.3974   1
  -1   0   7 116.837 16.4860   2
   2   0   7 2809.02 164.077   1
   2   0  -7 2731.74 172.039   1
   3   0  -7 539.846 46.7319   1
   3   0   7 484.733 38.8512   1
   4   0  -7 55.9594 21.0420   1
   4   0   7 71.0884 16.1414   1
   5   0  -7 73.5398 22.1812   1
   5   0   7 56.0853 18.8622   1
   0  -1  -7 136.647 20.7750   1
   0   1  -7 151.395 22.6196   1
   0   1   7 135.248 19.9005   1
   0   1   7 165.493 18.0457   2
   0  -1   7 121.854 18.8821   1
   1  -1   7 2378.52 135.236   1
   1   1  -7 2117.64 144.921   1
  -1   1   7 2127.28 134.821   2
   1  -1  -7 2252.15 142.393   1
   1   1   7 2303.38 134.578   1
   1   1   7 2251.61 132.135   2
   2  -1   7 1047.15 68.3572   1
   2   1  -7 985.557 75.5522   1
   2   1   7 1021.42 67.1440   1
   2  -1  -7 1085.21 75.1484   1
   2   1   7 1104.70 67.5370   2
   3  -1   7 112.427 16.8452   1
   3   1  -7 114.358 21.6164   1
   3  -1  -7 121.157 20.0582   1
   3   1   7 142.944 17.1112   1
   4  -1   7 754.726 58.4365   1
   4   1  -7 753.451 65.3222   1
   4  -1  -7 852.965 67.4507   1
   4   1   7 814.489 58.0644   1
   5  -1   7 296.203 34.1434   1
   5   1  -7 286.572 40.3887   1
   5   1   7 312.409 33.4902   1
   5  -1  -7 290.623 40.8424   1
   0   2   7 487.130 39.8641   1
   0   2  -7 424.322 43.4332   1
   0  -2  -7 467.531 39.0738   1
   0   2   7 484.454 37.5139   2
   0  -2   7 442.306 40.8022   1
   1  -2   7 600.807 43.1106   1
   1   2  -7 535.290 52.4335   1
  -1   2   7 544.192 43.3543   2
   1  -2  -7 608.166 47.8227   1
   1   2   7 614.188 42.5214   1
   1   2   7 643.892 42.1586   2
  -1   2  -7 599.977 38.7157   2
   2  -2   7 110.088 14.2217   1
   2   2  -7 124.165 21.0139   1
   2   2   7 61.4053 10.8601   1
   2   2   7 68.5923 11.9230   2
   2  -2  -7 63.3347 13.4739   1
   3  -2   7 633.818 46.2799   1
   3   2  -7 602.687 52.2829   1
   3   2   7 566.079 43.3766   1
   3  -2  -7 625.162 51.8007   1
   4  -2   7 583.534 49.1612   1
   4   2  -7 692.862 57.8109   1
   4  -2  -7 628.089 56.2598   1
   4   2   7 601.643 47.6135   1
   5   2  -7 135.248 29.6434   1
   5  -2   7 142.502 25.2303   1
   5  -2  -7 142.279 31.0817   1
   5   2   7 152.326 25.0306   1
   0   3   7 1642.69 107.636   2
   0  -3  -7 1768.80 107.532   1
   0  -3   7 1696.25 112.177   1
   0   3  -7 1692.61 118.244   1
   1   3  -7 669.951 60.6021   1
  -1   3   7 666.723 50.3266   2
   1  -3   7 749.916 49.7281   1
   1  -3  -7 701.333 51.3773   1
   1   3   7 726.473 49.0994   2
  -1   3  -7 676.066 43.2496   2
   1   3   7 652.718 47.4025   1
  -2   3   7 1050.11 68.0643   2
   2   3  -7 1025.11 77.1599   1
   2  -3   7 1095.54 68.8653   1
   2  -3  -7 987.215 71.2183   1
   2   3   7 990.093 66.9739   2
   2   3   7 1003.26 64.7777   1
   3   3  -7 2356.05 144.769   1
   3  -3   7 2249.04 136.568   1
   3   3   7 2127.50 132.384   1
   3  -3  -7 2116.63 141.029   1
   4   3  -7 47.3328 20.3166   1
   4  -3   7 70.4541 15.2937   1
   4  -3  -7 33.5547 16.1354   1
   4   3   7 60.2002 13.8597   1
   5   3  -7 20.8282 16.2705   1
   5  -3   7 12.8178 13.5289   1
   5  -3  -7 15.3861 16.8488   1
   0  -4  -7 5.17946 5.73151   1
   0  -4   7 2.98885 7.57710   1
   0   4  -7 2.12602 6.28531   2
   0   4  -7 7.26907 11.1808   1
   1  -4   7 451.981 34.7577   1
  -1  -4  -7 463.062 36.1067   1
   1   4  -7 381.605 45.1492   1
   1   4   7 407.739 32.9294   1
   1  -4  -7 440.027 35.0574   1
  -1   4  -7 426.743 28.3233   2
   2   4  -7 1121.12 85.2476   1
   2  -4   7 1157.02 76.2993   1
   2  -4  -7 1173.48 78.6950   1
   2   4   7 1139.58 78.8003   2
   2   4   7 1179.42 72.0510   1
   3  -4   7 27.6639 11.8346   1
   3   4  -7 38.3349 17.0301   1
   3  -4  -7 18.3390 9.69035   1
   3   4   7 28.9551 8.90295   1
   4  -4   7 481.647 42.7561   1
   4   4  -7 492.810 47.8537   1
   4  -4  -7 441.471 46.5510   1
   5  -4   7 143.207 27.1855   1
   5   4  -7 199.176 33.2041   1
   5  -4  -7 217.347 35.3742   1
   0  -5  -7 6683.21 390.764   1
   0  -5   7 6573.90 399.931   1
   0   5   7 7218.69 399.492   2
   0   5  -7 7014.87 411.465   1
  -1  -5  -7 80.6993 13.6948   1
   1  -5   7 106.933 15.5389   1
  -1   5   7 86.6532 17.3473   2
   1   5  -7 74.6359 25.4515   1
   1  -5  -7 101.985 13.9033   1
   1   5   7 133.914 18.6604   2
  -1   5  -7 96.4503 9.31772   2
   1   5   7 105.520 14.1765   1
   2  -5   7 1029.98 66.8978   1
  -2   5   7 984.756 67.2172   2
   2   5  -7 938.218 75.2466   1
   2  -5  -7 972.155 67.4035   1
   2   5   7 915.928 60.5538   1
   3   5  -7 633.941 54.8149   1
   3  -5   7 617.098 48.9383   1
   3  -5  -7 641.405 52.3998   1
   4   5  -7 60.9632 21.6364   1
   4  -5   7 44.3316 17.0704   1
   4  -5  -7 54.2745 20.4869   1
   5  -5   7 86.9292 23.6216   1
   5   5  -7 105.085 29.0193   1
   5  -5  -7 96.2413 27.7697   1
   0   6   7 82.2612 17.6806   2
   0  -6  -7 70.4585 9.67981   1
   0  -6   7 48.6952 15.2188   1
   0   6  -7 30.5220 10.2364   2
   0   6  -7 58.6691 21.4174   1
  -1   6   7 179.193 25.0265   2
   1  -6   7 227.880 23.6837   1
  -1  -6  -7 204.648 18.7163   1
   1   6  -7 117.538 32.4427   1
   1  -6  -7 222.726 20.9540   1
  -1   6  -7 225.624 15.6429   2
   1   6   7 243.071 27.3810   2
   2   6  -7 218.128 32.2686   1
   2  -6   7 258.485 26.4418   1
  -2   6   7 224.835 26.5461   2
   2  -6  -7 293.668 27.4987   1
   2   6   7 317.703 29.9861   2
   3  -6   7 393.950 35.5828   1
   3   6  -7 332.308 38.8566   1
   3  -6  -7 407.854 38.0155   1
   4  -6   7 186.055 26.4604   1
   4   6  -7 172.371 29.1733   1
   4  -6  -7 160.510 28.1852   1
   5  -6   7 53.1148 21.0320   1
   5   6  -7 61.6974 26.3412   1
   5  -6  -7 32.9365 19.7045   1
   0  -7  -7 87.3597 10.1025   1
   0   7  -7 63.9200 10.3011   2
   0  -7   7 87.9414 18.7311   1
   0   7   7 101.296 19.2425   2
   0   7  -7 72.4185 23.5985   1
   1  -7   7 3096.17 186.938   1
  -1   7   7 2943.38 191.753   2
   1   7  -7 2726.53 211.107   1
   1  -7  -7 3210.09 182.096   1
  -1   7  -7 3312.63 175.876   2
  -2   7   7 78.2778 17.7003   2
   2  -7   7 99.3624 16.6920   1
   2   7  -7 94.6525 23.2556   1
   2  -7  -7 87.3702 15.4441   1
   2   7   7 75.9760 17.5158   2
   3   7  -7 16.9557 13.1132   1
   3  -7   7 13.0708 10.0924   1
   3  -7  -7 25.4598 12.3647   1
   4  -7   7 267.200 31.6515   1
   4   7  -7 245.294 33.6586   1
   4  -7  -7 210.709 31.6508   1
   5   7  -7 81.8098 28.2440   1
   5  -7   7 76.4653 24.1291   1
   5  -7  -7 89.8335 27.7113   1
   0  -8   7 162.988 25.1608   1
   0   8  -7 147.145 31.1612   1
   0   8   7 214.123 27.0444   2
   1   8  -7 620.380 79.6973   1
   1  -8   7 870.240 60.6427   1
  -1   8   7 837.825 66.9041   2
   1  -8  -7 790.699 53.4518   1
  -1   8  -7 811.398 47.8423   2
   2   8  -7 452.314 47.6953   1
  -2   8   7 449.006 42.6094   2
   2  -8   7 433.855 38.8273   1
   2  -8  -7 428.553 37.1829   1
   2   8   7 513.340 44.8979   2
   3   8  -7 81.8954 21.6147   1
  -3   8   7 61.1074 18.6659   2
   3  -8   7 93.7205 18.9459   1
   3  -8  -7 90.7189 18.8018   1
   3   8   7 69.1607 23.0062   2
   4   8  -7 18.4880 14.5040   1
   4  -8   7 49.3056 19.0383   1
   4  -8  -7 40.9720 19.5433   1
   5  -8   7 166.637 31.3342   1
   5  -8  -7 238.797 36.8278   1
   0   9   7 6.96072 12.8566   2
   0   9  -7 -7.9733 12.0521   1
   0  -9   7 13.9548 12.0323   1
  -1   9   7 176.961 31.4576   2
   1  -9   7 183.214 24.7130   1
   1   9   7 284.855 35.0927   2
  -1   9  -7 209.317 14.5450   2
  -2   9   7 1527.65 108.796   2
   2   9  -7 1472.84 95.1259   2
   2   9  -7 1569.16 114.153   1
   2  -9   7 1566.08 104.269   1
   2  -9  -7 1703.59 102.245   1
   2   9   7 1724.44 111.609   2
   3  -9   7 17.8575 11.8176   1
  -3   9   7 10.7148 13.7555   2
   3   9  -7 15.2203 10.4401   2
   3   9  -7 15.0153 13.5578   1
   3  -9  -7 7.04154 9.78299   1
   3   9   7 11.7495 14.9478   2
   4  -9   7 341.036 38.5714   1
   4  -9  -7 361.263 41.4846   1
   0  10   7 819.775 65.1679   2
   0  10  -7 669.010 75.4031   1
   0 -10   7 873.922 67.8148   1
  -1  10   7 228.698 37.0599   2
   1 -10   7 230.563 29.0875   1
  -1  10  -7 268.661 17.1794   2
   2  10  -7 81.6580 12.0763   2
   2  10  -7 63.1600 24.7347   1
   2 -10   7 70.5876 17.6873   1
  -2  10   7 88.6393 24.6256   2
   2 -10  -7 95.0753 16.2403   1
   2  10   7 80.1053 23.4905   2
   3  10  -7 249.761 24.6478   2
   3 -10   7 226.275 29.2790   1
  -3  10   7 210.663 32.5070   2
   3  10   7 180.688 31.2181   2
   3 -10  -7 253.232 28.9947   1
   4 -10   7 59.8655 21.3390   1
   4 -10  -7 67.7111 21.3335   1
   0  11   7 503.379 47.5652   2
   0 -11   7 513.354 49.0036   1
   0  11  -7 340.434 52.8365   1
  -1  11   7 534.410 58.2289   2
   1 -11   7 705.121 52.9337   1
   1  11   7 643.510 54.8052   2
  -1  11  -7 524.893 34.1359   2
  -2  11   7 77.9178 26.2593   2
   2 -11   7 67.5006 18.0471   1
   2  11  -7 76.5129 11.9045   2
   2  11  -7 65.2854 30.7009   1
   2  11   7 66.9433 23.9781   2
   3  11  -7 424.786 34.7306   2
   3 -11   7 442.642 42.1130   1
  -3  11   7 426.246 47.0140   2
   3 -11  -7 414.536 39.5989   1
   3  11   7 376.858 46.1283   2
   4 -11   7 11.0004 13.6570   1
   4 -11  -7 0.80439 12.0770   1
   0 -12   7 -8.4874 10.7880   1
   0  12  -7 -2.1633 15.3523   1
   0  12   7 16.9104 16.3811   2
   1  12  -7 412.947 62.0396   1
   1 -12   7 777.411 57.1409   1
  -1  12   7 532.805 59.8026   2
  -1  12  -7 601.817 36.2895   2
   1  12   7 738.531 59.4419   2
   2 -12   7 208.415 28.1458   1
  -2  12   7 203.977 36.5195   2
   2  12  -7 208.194 19.0395   2
   2  12   7 168.337 32.6349   2
   3 -12   7 84.9971 21.7256   1
  -3  12   7 45.7456 23.8009   2
   3  12  -7 73.5312 16.3702   2
   3  12   7 30.8509 21.6569   2
   4 -12   7 5.41852 13.7275   1
   0  13   7 2434.26 159.859   2
  -1  13   7 59.7502 27.0126   2
   1 -13   7 68.6441 19.8006   1
   1  13   7 65.3520 23.8815   2
  -1  13  -7 58.5748 6.51052   2
  -1  13  -7 38.4439 8.91784   2
   2 -13   7 128.312 23.5353   1
  -2  13   7 88.7237 30.2973   2
   2  13  -7 102.173 13.9504   2
   2  13   7 98.3343 30.0527   2
  -3  13   7 193.977 37.8785   2
   3 -13   7 234.740 31.6835   1
   3  13  -7 232.160 25.5501   2
   3  13   7 219.952 39.3281   2
   0  14   7 281.556 38.4085   2
   1 -14   7 133.213 33.7025   1
  -1  14   7 93.4330 30.3005   2
   1  14   7 80.1730 27.1484   2
   2 -14   7 88.2494 22.0904   1
   2  14  -7 80.4188 12.9324   2
  -2  14   7 111.090 35.0147   2
   2  14   7 61.6410 28.4458   2
  -3  14   7 51.0537 27.8471   2
   3  14  -7 38.4243 15.7243   2
   3 -14   7 66.0707 24.1700   1
   3  14   7 39.9450 24.7560   2
   0  15   7 29.2200 20.1163   2
  -1  15   7 465.231 53.6950   2
   1  15   7 482.444 51.4211   2
  -2  15   7 357.342 54.8145   2
   2  15  -7 463.834 33.0480   2
   2  15   7 389.615 51.8073   2
   3  15  -7 131.530 20.6583   2
   3 -15   7 136.525 29.6842   1
  -3  15   7 173.278 38.5431   2
   3  15   7 113.361 36.0081   2
   0  16   7 148.401 30.8049   2
  -1  16   7 227.301 37.8506   2
   1  16   7 208.282 36.8904   2
  -2  16   7 37.5855 26.1032   2
   2  16   7 10.5902 24.3530   2
  -2  16  -7 5.14102 10.3960   2
   0  17   7 84.7393 26.9450   2
  -1  17   7 563.813 59.2434   2
   1  17   7 596.590 59.7547   2
   0   0   8 999.322 74.2676   1
   0   0  -8 1023.11 77.2170   1
   1   0   8 898.133 60.2771   1
   1   0  -8 844.870 67.5443   1
   2   0  -8 108.943 21.8185   1
   2   0   8 152.786 17.0634   1
   3   0  -8 13.7949 11.7413   1
   3   0   8 24.9097 10.8935   1
   4   0   8 20.4261 11.0395   1
   4   0  -8 13.3037 14.3656   1
   5   0  -8 4.74431 13.6344   1
   5   0   8 0.84051 10.8891   1
   0  -1   8 4690.13 280.596   1
   0   1  -8 4509.69 284.107   1
   0  -1  -8 4558.37 279.761   1
   0   1   8 4958.29 273.095   2
   0   1   8 4698.76 278.962   1
   1   1  -8 1317.87 92.4588   1
   1  -1   8 1256.46 81.4781   1
  -1   1   8 1112.70 80.8761   2
   1   1   8 1342.02 82.0651   1
   1  -1  -8 1216.21 87.6625   1
   1   1   8 1287.31 78.1327   2
   2   1  -8 24.9307 13.8490   1
   2  -1   8 50.1419 11.0531   1
   2   1   8 32.1048 10.0812   1
   2  -1  -8 41.2407 13.0798   1
   3  -1   8 214.999 23.9707   1
   3   1  -8 228.644 31.7002   1
   3   1   8 232.460 23.5663   1
   3  -1  -8 253.258 31.2394   1
   4   1  -8 92.6873 25.1939   1
   4  -1   8 98.7577 18.7058   1
   4  -1  -8 81.0808 21.0853   1
   4   1   8 83.9118 16.9527   1
   5  -1   8 72.6711 20.4187   1
   5   1  -8 85.5336 28.6958   1
   5  -1  -8 65.1471 26.8647   1
   5   1   8 98.9627 20.6842   1
   0   2  -8 386.172 43.0452   1
   0  -2  -8 379.750 37.5733   1
   0  -2   8 488.290 42.9307   1
   0   2   8 501.698 37.1875   2
   0   2   8 455.559 39.3499   1
   1   2  -8 2108.91 142.253   1
   1  -2   8 2071.85 129.756   1
  -1   2   8 1926.22 130.251   2
  -1   2  -8 2070.67 124.869   2
   1   2   8 2275.53 130.375   1
   1  -2  -8 2073.92 134.605   1
   1   2   8 2268.82 128.229   2
   2  -2   8 45.7787 11.3469   1
   2   2  -8 22.8826 14.4114   1
   2   2   8 47.4229 10.5431   1
   2  -2  -8 29.2950 13.7534   1
   3   2  -8 110.792 24.0107   1
   3  -2   8 145.345 18.9668   1
   3   2   8 107.183 15.6979   1
   3  -2  -8 93.9789 19.1428   1
   4  -2   8 460.081 39.6731   1
   4   2  -8 490.434 48.6429   1
   4  -2  -8 359.084 42.3277   1
   4   2   8 387.154 35.7173   1
   5   2  -8 285.679 40.9896   1
   5  -2   8 260.407 33.0419   1
   5  -2  -8 319.311 43.1934   1
   5   2   8 232.959 32.1534   1
   0   3  -8 17.1174 11.7528   1
   0   3   8 24.7972 11.7225   2
   0  -3  -8 27.8684 11.5837   1
   0   3  -8 3.92027 7.59577   2
   0  -3   8 13.6688 9.32102   1
   1  -3   8 23.4130 9.64976   1
   1   3  -8 9.03505 12.8390   1
  -1   3   8 26.6673 12.1079   2
  -1  -3  -8 23.3734 10.8533   1
   1   3   8 13.8212 7.53898   1
  -1   3  -8 18.1489 5.90664   2
   1  -3  -8 4.64033 7.36430   1
   1   3   8 23.2507 10.4580   2
  -2   3   8 1974.02 127.598   2
   2  -3   8 2132.73 128.471   1
   2   3  -8 1933.65 139.407   1
   2   3   8 2168.96 125.471   1
   2  -3  -8 2150.55 133.725   1
   3   3  -8 990.995 76.3011   1
   3  -3   8 989.593 67.9466   1
   3  -3  -8 1004.10 74.1188   1
   3   3   8 901.591 63.5828   1
   4   3  -8 291.340 39.1229   1
   4  -3   8 299.523 32.4445   1
   4  -3  -8 322.031 37.2797   1
   4   3   8 296.350 29.6707   1
   5   3  -8 82.2881 27.6950   1
   5  -3   8 80.5378 22.7736   1
   5  -3  -8 109.770 30.1932   1
   0   4   8 132.783 18.8140   2
   0  -4  -8 140.130 17.6662   1
   0  -4   8 127.899 21.8985   1
   0   4  -8 112.999 25.2999   1
  -1  -4  -8 297.490 29.2449   1
   1   4  -8 297.532 38.9397   1
   1  -4   8 333.221 29.4236   1
  -1   4   8 319.437 31.3293   2
  -1   4  -8 293.696 22.1711   2
   1   4   8 279.718 27.2494   1
   1   4   8 323.245 30.0200   2
   1  -4  -8 289.419 28.8719   1
   2  -4   8 231.214 24.3484   1
   2   4  -8 224.805 34.0183   1
  -2   4   8 250.907 26.1514   2
   2   4   8 241.937 21.7473   1
   2   4   8 245.075 24.7494   2
   2  -4  -8 205.911 25.9478   1
   3  -4   8 602.049 45.0725   1
   3   4  -8 527.028 52.0637   1
   3   4   8 514.065 39.5539   1
   3  -4  -8 550.841 49.0978   1
   4   4  -8 300.321 40.4985   1
   4  -4   8 368.275 36.7099   1
   4  -4  -8 394.960 42.8834   1
   5  -4   8 316.806 37.4706   1
   5   4  -8 296.121 42.2486   1
   5  -4  -8 308.744 43.1703   1
   0   5  -8 866.694 74.6786   1
   0  -5  -8 839.070 57.0276   1
   0  -5   8 830.474 65.1288   1
  -1  -5  -8 613.238 47.5479   1
   1  -5   8 577.338 48.1494   1
   1   5  -8 587.163 63.5982   1
  -1   5  -8 665.429 41.0150   2
   1   5   8 683.898 47.9800   1
   1  -5  -8 697.120 49.0224   1
   2  -5   8 1532.22 92.1984   1
   2   5  -8 1329.40 103.669   1
   2  -5  -8 1346.46 92.4825   1
   2   5   8 1346.62 86.0823   1
   3   5  -8 119.890 25.9466   1
   3  -5   8 112.059 19.2827   1
   3  -5  -8 117.940 22.3277   1
   4   5  -8 391.390 45.2048   1
   4  -5   8 394.278 39.2418   1
   4  -5  -8 393.690 44.2118   1
   5  -5   8 450.946 46.4680   1
   5   5  -8 521.986 55.4753   1
   5  -5  -8 423.288 51.6047   1
   0  -6   8 36.7053 15.5571   1
   0  -6  -8 40.6169 9.01814   1
   0   6  -8 33.3578 16.9918   1
   0   6   8 42.8464 15.3447   2
  -1   6   8 1077.21 83.0296   2
  -1  -6  -8 1258.93 82.2105   1
   1  -6   8 1120.12 79.2933   1
   1   6  -8 1053.88 97.3154   1
   1   6   8 1403.44 86.0453   2
   1  -6  -8 1146.45 76.2857   1
  -1   6  -8 1123.94 69.3046   2
   2  -6   8 917.549 64.9844   1
  -2   6   8 850.508 66.0737   2
   2   6  -8 794.504 75.6227   1
   2   6   8 994.664 68.6944   2
   2  -6  -8 964.385 65.9469   1
   3   6  -8 214.651 32.8569   1
   3  -6   8 192.132 25.1252   1
   3  -6  -8 227.377 28.5271   1
   4   6  -8 218.560 34.1795   1
   4  -6   8 225.888 29.0884   1
   4  -6  -8 157.088 29.8215   1
   5   6  -8 79.3307 29.9022   1
   5  -6   8 99.8632 25.1109   1
   5  -6  -8 62.5112 26.3046   1
   0  -7  -8 1520.12 93.3635   1
   0   7   8 1703.44 105.691   2
   0   7  -8 1654.85 120.622   1
   0   7  -8 1371.43 93.3470   2
   0  -7   8 1582.72 107.676   1
   1  -7   8 908.440 67.2585   1
   1   7  -8 796.727 85.7110   1
  -1   7   8 772.409 69.9009   2
  -1   7  -8 934.808 56.0827   2
   1  -7  -8 979.018 62.9275   1
   1   7   8 1169.67 74.8892   2
   2   7  -8 122.420 29.7144   1
   2  -7   8 163.714 21.6439   1
  -2   7   8 179.731 24.8346   2
   2   7   8 146.890 24.6440   2
   2  -7  -8 139.449 19.8727   1
   3   7  -8 739.569 63.6524   1
   3  -7   8 651.517 54.2997   1
   3  -7  -8 701.280 56.8212   1
   4  -7   8 211.148 29.3526   1
   4   7  -8 173.400 34.3531   1
   5   7  -8 165.391 35.6362   1
   5  -7   8 154.986 29.5352   1
   5  -7  -8 149.884 33.2924   1
   0   8   8 638.322 53.4593   2
   0   8  -8 585.335 64.8388   1
   0  -8   8 666.845 56.9363   1
   1  -8   8 134.986 19.7908   1
   1   8  -8 117.153 36.5162   1
  -1   8   8 117.523 24.8332   2
  -1   8  -8 124.483 11.0027   2
   1   8   8 135.813 24.8935   2
   1  -8  -8 129.428 15.9531   1
   2   8  -8 21.2038 19.9530   1
  -2   8   8 53.0480 18.2115   2
   2  -8   8 43.3311 14.9002   1
   2   8   8 57.2624 19.4664   2
   2  -8  -8 69.9064 15.2575   1
   3  -8   8 121.090 19.8948   1
   3   8  -8 120.579 28.8907   1
   3  -8  -8 111.270 21.1613   1
   4   8  -8 675.436 60.2041   1
   4  -8   8 547.344 51.6143   1
   4  -8  -8 549.174 53.7885   1
   0  -9   8 567.347 51.8552   1
   0   9  -8 526.201 61.2438   1
   0   9   8 482.005 47.4598   2
  -1   9   8 340.515 43.3771   2
   1   9  -8 246.863 50.7170   1
   1  -9   8 398.977 37.8905   1
  -1   9  -8 363.593 23.8902   2
   1   9   8 441.928 43.0136   2
   2   9  -8 2.25056 17.3841   1
   2  -9   8 45.2023 15.5489   1
  -2   9   8 50.6978 21.7102   2
   2  -9  -8 31.9206 11.6635   1
   2   9   8 21.3291 17.7098   2
   3   9  -8 1287.81 93.4256   1
   3  -9   8 1111.27 83.3436   1
   3  -9  -8 1157.86 83.5989   1
   4  -9   8 180.553 28.8010   1
   4  -9  -8 114.987 25.8689   1
   0  10  -8 64.5164 28.4556   1
   0 -10   8 44.7475 19.6929   1
   0  10   8 91.9740 20.9039   2
   1 -10   8 213.956 28.3176   1
  -1  10   8 197.930 35.1832   2
  -1  10  -8 205.802 14.9743   2
   1  10   8 250.756 32.4780   2
   2  10  -8 436.689 56.2638   1
   2 -10   8 625.795 49.5310   1
  -2  10   8 489.098 52.8715   2
   2  10   8 600.157 57.7157   2
  -3  10   8 10.8921 16.9383   2
   3  10  -8 23.0160 15.8293   1
   3 -10   8 50.1260 18.1467   1
   3 -10  -8 0.92453 9.30123   1
   4 -10   8 408.311 43.1563   1
   4 -10  -8 345.815 41.1137   1
   0  11   8 911.345 68.9926   2
   0  11  -8 647.599 78.1764   1
   0 -11   8 844.396 71.1231   1
   1  11  -8 141.547 40.1783   1
  -1  11   8 252.481 38.9818   2
   1 -11   8 339.705 36.5326   1
   1  11   8 350.855 37.3604   2
  -1  11  -8 241.674 16.9173   2
   2 -11   8 398.418 40.7390   1
  -2  11   8 393.720 47.1953   2
   2  11  -8 405.152 50.4868   1
   2  11   8 465.148 51.5931   2
  -3  11   8 235.200 36.3158   2
   3 -11   8 268.662 33.1565   1
   4 -11   8 5.10773 15.1189   1
   4 -11  -8 4.03323 13.3366   1
   0  12   8 63.3031 20.8580   2
   0  12  -8 34.5552 23.0238   1
   0 -12   8 20.4531 17.2896   1
   1  12  -8 71.8570 36.5178   1
  -1  12   8 148.494 32.3457   2
   1 -12   8 235.979 30.5752   1
   1  12   8 215.158 31.8961   2
  -1  12  -8 154.287 11.2955   2
   2 -12   8 173.767 27.3173   1
  -2  12   8 174.472 34.6279   2
   2  12   8 149.883 34.9996   2
   3 -12   8 56.9808 20.5273   1
  -3  12   8 38.1836 25.3180   2
   4 -12   8 100.421 26.3906   1
   0  13  -8 128.880 39.8483   1
   0  13   8 136.965 28.4560   2
   0 -13   8 178.708 33.1633   1
   1 -13   8 400.971 44.9972   1
  -1  13   8 379.374 49.3948   2
   1  13   8 512.169 48.2565   2
  -2  13   8 139.763 36.5445   2
   2 -13   8 166.809 28.0661   1
   2  13   8 178.175 35.8831   2
  -3  13   8 19.7914 23.7408   2
   3 -13   8 13.6483 14.2945   1
   0  14   8 67.7235 25.6981   2
   1 -14   8 23.0549 16.1984   1
   1  14   8 15.5345 20.0909   2
  -2  14   8 354.862 53.1978   2
   2  14   8 412.303 52.6200   2
   3 -14   8 95.5450 25.0558   1
  -3  14   8 94.4359 34.0200   2
   0  15   8 34.8007 21.7159   2
  -1  15   8 91.6799 30.4354   2
   1  15   8 127.547 30.3224   2
  -2  15   8 218.449 44.0353   2
   2 -15   8 277.678 37.5892   1
   2  15   8 281.798 46.0333   2
   0  16   8 83.1340 26.7933   2
  -1  16   8 123.466 31.1533   2
   1  16   8 64.7086 28.0390   2
  -2  16   8 41.0731 26.2773   2
   2  16   8 -8.7764 22.2607   2
  -2  16  -8 2.94620 8.75493   2
   0  17   8 241.600 37.2629   2
  -1  17   8 110.699 30.1898   2
   1  17   8 69.7863 29.5815   2
   0   0  -9 -1.4007 9.10761   1
   0   0   9 2.69639 7.58692   1
   1   0   9 83.0339 14.9063   1
   1   0  -9 94.3143 20.2544   1
   2   0   9 1344.35 84.3257   1
   2   0  -9 1221.90 94.7863   1
   3   0  -9 2030.90 137.203   1
   3   0   9 1985.45 124.820   1
   4   0   9 258.381 29.0739   1
   4   0  -9 271.898 38.9191   1
   5   0   9 84.7705 21.3145   1
   5   0  -9 103.388 31.0519   1
   0  -1  -9 839.652 67.1656   1
   0   1   9 870.820 66.5880   1
   0   1   9 903.678 60.3799   2
   0   1  -9 927.157 72.9254   1
   0  -1   9 856.354 68.2371   1
   1   1  -9 525.034 49.5415   1
   1  -1   9 494.076 41.7545   1
   1  -1  -9 578.703 48.6893   1
   1   1   9 540.776 42.7651   1
   2   1  -9 20.6134 15.5098   1
   2  -1   9 55.9933 12.5311   1
   2  -1  -9 51.0381 18.4389   1
   2   1   9 58.1868 12.0015   1
   3  -1   9 1256.57 82.9204   1
   3   1  -9 1147.76 92.8417   1
   3  -1  -9 1256.13 93.0751   1
   3   1   9 1280.48 82.0162   1
   4   1  -9 375.628 46.9586   1
   4  -1   9 451.442 39.3004   1
   4   1   9 377.173 36.4008   1
   4  -1  -9 430.696 48.2463   1
   5   1  -9 205.265 39.0098   1
   5  -1   9 203.347 29.5011   1
   5   1   9 234.318 29.7247   1
   5  -1  -9 277.573 42.5539   1
   0  -2  -9 1527.44 105.057   1
   0   2   9 1522.97 104.826   1
   0   2   9 1621.47 100.751   2
   0   2  -9 1626.10 114.791   1
   0  -2   9 1634.33 109.774   1
   1  -2   9 16.4471 8.55047   1
  -1  -2  -9 15.3001 10.2213   1
   1   2  -9 18.1287 13.4140   1
  -1   2   9 14.1562 10.0137   2
   1   2   9 27.9529 11.8327   1
   1  -2  -9 15.8606 10.4076   1
   1   2   9 10.7846 7.50640   2
   2   2  -9 526.381 57.6840   1
   2  -2   9 652.383 47.7080   1
   2   2   9 655.173 46.3438   1
   2  -2  -9 674.015 56.0308   1
   3   2  -9 26.3406 16.3422   1
   3  -2   9 29.5271 12.8722   1
   3  -2  -9 42.6362 18.0445   1
   3   2   9 42.1601 11.7380   1
   4  -2   9 791.232 59.7659   1
   4   2  -9 809.525 70.7141   1
   4   2   9 670.307 55.7530   1
   4  -2  -9 852.406 69.6476   1
   5   2  -9 210.817 37.8483   1
   5  -2   9 145.414 26.5440   1
   5  -2  -9 154.452 35.4225   1
   0   3   9 111.138 17.1552   2
   0  -3   9 110.052 19.9819   1
   0   3  -9 84.3587 23.4524   1
   0  -3  -9 101.373 18.3364   1
  -1   3   9 647.188 57.4490   2
  -1  -3  -9 715.633 59.4574   1
   1  -3   9 730.363 57.0722   1
   1   3  -9 798.649 70.1258   1
   1  -3  -9 855.240 60.9800   1
   1   3   9 865.807 58.5933   1
   1   3   9 905.215 57.6193   2
   2   3  -9 637.017 66.8162   1
   2  -3   9 812.967 56.5988   1
   2   3   9 799.195 54.0031   1
   2  -3  -9 768.670 61.6295   1
   3   3  -9 442.723 45.6123   1
   3  -3   9 439.438 36.4656   1
   3  -3  -9 331.460 39.5330   1
   3   3   9 326.852 31.0006   1
   4   3  -9 0.49773 14.9990   1
   4  -3   9 34.1264 16.0045   1
   4   3   9 19.5776 9.96335   1
   4  -3  -9 8.42181 12.3602   1
   5  -3   9 182.813 28.2392   1
   5   3  -9 128.187 33.0954   1
   5  -3  -9 83.2179 30.1768   1
   0   4   9 68.4381 14.7267   2
   0  -4   9 60.5437 18.0654   1
   0  -4  -9 75.9424 14.7422   1
   0   4  -9 68.9263 23.1099   1
  -1  -4  -9 2982.79 187.029   1
  -1   4   9 2743.77 187.641   2
   1   4  -9 3236.32 204.090   1
   1  -4   9 3151.63 186.940   1
   1   4   9 3100.57 185.520   1
   1   4   9 3309.78 187.093   2
   1  -4  -9 3012.08 186.515   1
   2  -4   9 761.054 54.7985   1
   2   4  -9 547.773 64.2572   1
   2  -4  -9 803.830 59.6018   1
   2   4   9 745.399 51.3944   1
   3  -4   9 -2.0017 7.84495   1
   3   4  -9 3.36240 14.8947   1
   3   4   9 7.26561 6.63920   1
   3  -4  -9 4.89781 11.2161   1
   4  -4   9 375.039 37.8336   1
   4   4  -9 328.065 44.6064   1
   4  -4  -9 386.127 44.5689   1
   5  -4   9 107.272 25.2074   1
   5   4  -9 100.630 31.7409   1
   5  -4  -9 107.920 31.8102   1
   0  -5   9 167.270 24.6699   1
   0   5  -9 139.141 30.0011   1
   0  -5  -9 153.999 18.8647   1
  -1  -5  -9 405.556 35.2146   1
   1  -5   9 428.476 37.0100   1
   1   5  -9 414.367 51.5123   1
   1   5   9 438.447 39.0402   2
   1   5   9 383.694 34.3643   1
   1  -5  -9 365.126 34.2974   1
   2  -5   9 303.761 30.1321   1
   2   5  -9 207.755 39.7584   1
   2  -5  -9 368.476 34.4355   1
   2   5   9 345.747 28.4282   1
   3   5  -9 159.587 32.4829   1
   3  -5   9 225.242 26.8684   1
   3  -5  -9 248.217 31.1534   1
   4   5  -9 60.4565 25.9377   1
   4  -5   9 44.8123 18.6961   1
   4  -5  -9 74.5504 23.5369   1
   5  -5   9 491.054 47.6161   1
   5   5  -9 408.508 52.1527   1
   5  -5  -9 427.749 52.6549   1
   0   6  -9 605.673 60.8143   1
   0  -6   9 565.884 51.8555   1
   0  -6  -9 538.839 40.8470   1
   0   6   9 579.112 64.3538   2
   1  -6   9 638.544 52.3006   1
   1   6  -9 694.200 71.5160   1
  -1   6   9 636.851 63.6807   2
   1  -6  -9 705.799 50.3086   1
   2  -6   9 1139.84 77.5638   1
   2   6  -9 1021.15 92.6927   1
   2  -6  -9 1113.98 77.8674   1
   3   6  -9 152.568 31.9637   1
   3  -6   9 183.417 24.8955   1
   3  -6  -9 172.247 26.7885   1
   4   6  -9 218.720 37.0860   1
   4  -6   9 234.442 30.6621   1
   4  -6  -9 197.161 33.0075   1
   5  -6   9 45.8932 22.6025   1
   5   6  -9 24.7901 23.2518   1
   5  -6  -9 58.4113 27.5193   1
   0   7   9 233.155 27.6144   2
   0  -7   9 192.589 29.4592   1
   0   7  -9 172.709 19.9785   2
   0   7  -9 187.519 33.9964   1
  -1   7   9 14.2299 13.4815   2
   1  -7   9 6.63970 8.92717   1
   1   7  -9 1.89608 17.2474   1
  -1   7  -9 11.9213 7.87240   2
   1   7   9 32.7150 14.9421   2
   1  -7  -9 21.0722 9.16452   1
   2  -7   9 253.838 27.7133   1
   2   7  -9 121.615 34.9672   1
  -2   7   9 218.712 30.1456   2
   2  -7  -9 199.383 24.7350   1
   3   7  -9 647.965 62.1661   1
   3  -7   9 610.519 50.6946   1
   3  -7  -9 555.259 51.4092   1
   4   7  -9 331.842 45.8285   1
   4  -7   9 320.476 37.0403   1
   4  -7  -9 288.867 38.7744   1
   0   8  -9 2055.35 153.340   1
   0  -8   9 1957.13 139.146   1
   0   8   9 2199.58 135.673   2
   1   8  -9 494.741 63.7227   1
  -1   8   9 387.213 46.7061   2
   1  -8   9 513.010 45.2427   1
   1   8   9 579.366 47.7194   2
  -1   8  -9 510.651 37.1906   2
   1  -8  -9 432.429 37.0535   1
   2   8  -9 228.575 43.4009   1
  -2   8   9 245.911 34.6585   2
   2  -8   9 319.173 32.7909   1
   2  -8  -9 306.833 29.9389   1
   2   8   9 242.482 39.9910   2
   3  -8   9 694.649 55.4045   1
   3   8  -9 702.915 65.9292   1
   3  -8  -9 586.171 53.9433   1
   4   8  -9 36.4792 21.2908   1
   4  -8   9 40.0555 19.7533   1
   4  -8  -9 51.2266 21.9863   1
   0  -9   9 1685.55 119.414   1
   0   9  -9 1791.44 135.402   1
   0   9   9 1607.63 112.838   2
   1  -9   9 547.066 47.3598   1
  -1   9   9 457.095 49.8692   2
   1   9  -9 420.943 61.7529   1
  -1   9  -9 507.839 35.9315   2
   1   9   9 591.061 49.9903   2
  -2   9   9 36.1982 18.7179   2
   2  -9   9 42.3989 16.7870   1
   2   9  -9 2.66483 19.0108   1
   2  -9  -9 64.2232 15.4177   1
   2   9   9 51.8424 24.2064   2
   3   9  -9 251.020 39.4864   1
   3  -9   9 240.988 31.4414   1
   3  -9  -9 266.280 32.7200   1
   4  -9   9 46.6905 21.3953   1
   4   9  -9 31.0223 21.3899   1
   4  -9  -9 30.4125 17.1021   1
   0  10   9 266.391 33.8478   2
   0  10  -9 212.532 43.0510   1
   0 -10   9 247.873 36.1301   1
  -1  10   9 232.006 37.6473   2
   1  10  -9 253.944 50.9030   1
   1 -10   9 274.708 34.8964   1
  -1  10  -9 330.495 25.4601   2
   1  10   9 382.703 39.0027   2
  -2  10   9 51.2898 24.7842   2
   2  10  -9 6.58901 19.7684   1
   2 -10   9 40.2449 17.6523   1
   2  10   9 17.3010 22.2208   2
   3  10  -9 216.639 37.4487   1
   3 -10   9 226.820 31.1243   1
   3 -10  -9 253.714 31.3937   1
   4 -10   9 264.779 35.4272   1
   4 -10  -9 193.219 32.1998   1
   0 -11   9 241.661 35.7823   1
   0  11   9 185.320 28.8585   2
   0  11  -9 183.444 42.0393   1
   1  11  -9 97.0839 38.9213   1
  -1  11   9 178.762 33.8180   2
   1 -11   9 271.672 33.7522   1
  -1  11  -9 212.174 18.4145   2
   1  11   9 239.835 33.0117   2
   2 -11   9 602.789 51.0367   1
   2  11  -9 452.264 60.7998   1
  -2  11   9 462.493 55.5034   2
   2  11   9 518.438 59.0612   2
   3 -11   9 119.158 24.9870   1
   4 -11   9 90.4745 25.5094   1
   0  12  -9 8.65937 20.8385   1
   0  12   9 20.4708 16.3915   2
   0 -12   9 -1.2480 14.0537   1
   1  12  -9 439.372 68.0304   1
  -1  12   9 586.463 59.1698   2
   1  12   9 742.891 58.5577   2
  -1  12  -9 561.778 36.9907   2
  -2  12   9 299.943 47.7473   2
   2 -12   9 417.674 44.3064   1
   2  12   9 425.711 53.7631   2
   3 -12   9 60.1347 22.2702   1
   0  13   9 162.689 29.8829   2
   0 -13   9 122.864 30.0212   1
   0  13  -9 76.2166 33.5442   1
  -1  13   9 149.373 32.3693   2
   1 -13   9 106.355 29.0931   1
   1  13   9 127.832 26.7989   2
   2 -13   9 399.972 44.3560   1
  -2  13   9 316.003 51.5433   2
   2  13   9 514.722 56.8017   2
   3 -13   9 67.3519 23.5443   1
   0  14   9 152.909 30.1858   2
  -1  14   9 545.159 60.5249   2
   1 -14   9 685.754 64.0600   1
   1  14   9 671.910 60.7195   2
  -2  14   9 121.213 37.2022   2
   2 -14   9 121.606 29.5562   1
   2  14   9 102.627 31.7440   2
   3 -14   9 109.055 26.5197   1
   0  15   9 398.846 45.3191   2
  -1  15   9 66.9469 28.4425   2
   1  15   9 53.7498 26.3736   2
  -2  15   9 27.1587 26.8017   2
   2 -15   9 35.6624 20.0330   1
   2  15   9 7.11397 25.1077   2
   0  16   9 960.271 79.0026   2
  -1  16   9 202.978 37.1845   2
   1  16   9 160.244 34.5060   2
   0   0  10 107.060 20.9233   1
   0   0 -10 97.3783 20.2375   1
   1   0 -10 34.3289 16.1298   1
   1   0  10 15.3101 9.24278   1
   2   0  10 1558.09 98.7332   1
   2   0 -10 1465.44 110.870   1
   3   0  10 265.577 27.6649   1
   3   0 -10 247.665 37.3518   1
   4   0  10 15.6094 11.6043   1
   4   0 -10 6.79030 16.7224   1
   5   0  10 219.917 30.2262   1
   5   0 -10 231.327 42.0239   1
   0   1 -10 87.6143 22.6288   1
   0  -1  10 60.2965 18.5122   1
   0   1  10 34.3364 15.1908   1
   0  -1 -10 38.0487 16.1583   1
   1  -1  10 1622.59 108.615   1
   1   1 -10 1741.98 118.443   1
  -1  -1 -10 1698.27 115.405   1
   1  -1 -10 1585.45 113.057   1
   1   1  10 1698.40 109.393   1
   2  -1  10 963.404 63.7917   1
   2   1 -10 899.822 76.0183   1
   2   1  10 840.503 61.3503   1
   2  -1 -10 792.609 71.2081   1
   3  -1  10 201.812 24.0396   1
   3   1 -10 165.628 32.5769   1
   3   1  10 197.208 23.6141   1
   3  -1 -10 170.894 31.2305   1
   4  -1  10 158.796 25.0653   1
   4   1 -10 129.193 32.2924   1
   4  -1 -10 136.231 31.7886   1
   4   1  10 128.123 21.1676   1
   5   1 -10 141.949 36.2086   1
   5  -1  10 138.954 25.7761   1
   5   1  10 152.348 25.5248   1
   5  -1 -10 143.985 35.3439   1
   0  -2  10 4260.89 259.428   1
   0  -2 -10 4205.55 254.809   1
   0   2 -10 4215.22 265.351   1
   1  -2  10 880.654 64.6877   1
   1   2 -10 860.806 73.6335   1
  -1  -2 -10 944.244 69.9689   1
   1   2  10 797.144 63.3091   1
   1  -2 -10 919.375 68.5160   1
   2  -2  10 352.171 32.2475   1
   2   2 -10 283.552 40.6270   1
   2  -2 -10 309.503 38.0037   1
   2   2  10 354.865 31.5448   1
   3   2 -10 -5.3680 10.1649   1
   3  -2  10 9.97876 9.90631   1
   3  -2 -10 -0.3171 8.83824   1
   3   2  10 11.6042 8.39880   1
   4  -2  10 235.411 30.1337   1
   4   2 -10 286.654 40.1578   1
   4  -2 -10 255.924 39.7099   1
   4   2  10 273.117 29.6721   1
   5   2 -10 26.6790 21.6959   1
   5  -2  10 23.3066 14.8207   1
   5  -2 -10 23.2254 21.4459   1
   0  -3 -10 1415.91 96.8780   1
   0  -3  10 1429.94 103.004   1
   0   3 -10 1495.22 110.940   1
  -1  -3 -10 756.061 61.1975   1
   1  -3  10 796.571 59.1363   1
   1   3 -10 898.568 72.4299   1
   1  -3 -10 782.084 60.5184   1
   1   3  10 697.189 57.3701   1
   2  -3  10 766.467 54.4483   1
   2   3 -10 636.522 68.0006   1
   2  -3 -10 645.246 58.3679   1
   2   3  10 697.317 51.5736   1
   3  -3  10 201.972 22.9472   1
   3   3 -10 111.231 30.8454   1
   3   3  10 139.708 20.0831   1
   3  -3 -10 137.172 27.7039   1
   4   3 -10 67.8215 28.0143   1
   4  -3  10 90.3105 20.6276   1
   4  -3 -10 53.4830 25.3271   1
   5   3 -10 17.6525 22.4423   1
   5  -3  10 17.1040 15.3146   1
   5  -3 -10 25.5356 22.4815   1
   0   4 -10 752.940 71.9185   1
   0   4  10 898.324 72.8007   2
   0  -4  10 754.345 64.9429   1
   0  -4 -10 746.900 57.4288   1
   1   4 -10 141.249 31.7736   1
  -1  -4 -10 170.723 24.4744   1
   1  -4  10 200.443 24.9056   1
   1   4  10 156.922 22.8284   1
   1  -4 -10 181.275 23.6371   1
   2  -4  10 21.7789 10.7295   1
   2   4 -10 4.65900 18.6310   1
   2  -4 -10 7.27119 18.1826   1
   2   4  10 26.4499 10.6767   1
   3  -4  10 132.646 21.5420   1
   3   4 -10 97.7731 29.9768   1
   3  -4 -10 147.457 27.2293   1
   4  -4  10 206.502 28.3453   1
   4   4 -10 184.851 33.6424   1
   4  -4 -10 195.254 34.7815   1
   5  -4  10 77.0124 23.6769   1
   5   4 -10 43.4883 25.4341   1
   5  -4 -10 71.0042 31.2462   1
   0  -5 -10 424.484 34.8005   1
   0  -5  10 379.604 41.2429   1
   0   5  10 386.841 36.2847   2
   0   5 -10 398.576 50.2201   1
   1   5 -10 1333.43 103.223   1
  -1  -5 -10 1169.09 81.3645   1
   1  -5  10 1213.51 84.8624   1
   1  -5 -10 1212.82 82.0895   1
   1   5  10 1138.78 80.3848   1
   2  -5  10 -4.9127 5.10681   1
   2   5 -10 -17.014 15.4158   1
   2  -5 -10 11.3013 12.0183   1
   3   5 -10 376.644 50.5914   1
   3  -5  10 438.595 40.4856   1
   3  -5 -10 451.637 45.6264   1
   4  -5  10 189.199 27.6103   1
   4   5 -10 126.495 33.6021   1
   4  -5 -10 172.898 32.4644   1
   0   6 -10 726.878 71.3567   1
   0  -6 -10 722.113 51.6762   1
   0  -6  10 727.606 63.2921   1
   1   6 -10 0.61751 16.9174   1
   1  -6  10 37.0554 15.1311   1
   1  -6 -10 49.2768 12.7375   1
   2  -6  10 238.774 28.7138   1
   2  -6 -10 284.321 31.6379   1
   3  -6  10 733.680 58.3450   1
   3   6 -10 658.592 69.9411   1
   3  -6 -10 768.049 62.7799   1
   4   6 -10 312.629 45.3623   1
   4  -6  10 294.978 35.2023   1
   4  -6 -10 250.855 37.6875   1
   0   7 -10 447.001 54.3026   1
   0   7  10 440.742 41.6814   2
   0  -7  10 420.995 46.1196   1
   1  -7  10 63.6038 17.9740   1
   1   7 -10 83.5111 31.5360   1
  -1   7  10 72.3709 20.0742   2
   1  -7 -10 55.4422 13.9146   1
   2  -7  10 1242.52 91.3975   1
   2  -7 -10 1416.13 92.4091   1
   3  -7  10 122.261 20.9639   1
   3   7 -10 61.5522 28.8947   1
   3  -7 -10 167.050 26.8607   1
   4   7 -10 217.822 40.0319   1
   4  -7  10 263.071 33.4734   1
   4  -7 -10 220.498 35.3549   1
   0   8 -10 258.133 44.2937   1
   0   8  10 297.267 32.6597   2
   0  -8  10 253.005 36.5045   1
  -1   8  10 140.997 26.8725   2
   1  -8  10 147.604 23.1281   1
   1   8 -10 79.7965 33.2219   1
   1   8  10 200.560 27.4162   2
   2  -8  10 434.228 42.0138   1
   2  -8 -10 428.789 39.3698   1
   3   8 -10 49.3272 25.4165   1
   3  -8  10 134.556 24.2255   1
   3  -8 -10 82.5367 23.0949   1
   4   8 -10 -7.5635 15.3284   1
   4  -8  10 2.85476 13.2718   1
   4  -8 -10 -4.5773 13.6164   1
   0   9  10 54.8409 17.4207   2
   0  -9  10 58.4733 22.3921   1
   0   9 -10 67.3247 29.3273   1
   1   9 -10 839.547 88.8491   1
   1  -9  10 823.311 70.3712   1
   1   9  10 1013.56 71.9808   2
   2   9 -10 -7.8415 21.3637   1
   2  -9  10 25.4942 14.4482   1
   2  -9 -10 19.0575 12.5332   1
   3  -9  10 23.8925 13.2028   1
   3   9 -10 22.8294 22.3396   1
   3  -9 -10 68.9403 21.5917   1
   4  -9  10 282.810 36.7478   1
   4   9 -10 264.330 43.4473   1
   4  -9 -10 301.609 40.9150   1
   0  10  10 690.534 60.2470   2
   0 -10  10 791.227 69.2316   1
   0  10 -10 723.295 80.1368   1
   1  10 -10 687.089 80.1538   1
   1 -10  10 816.887 65.3407   1
  -1  10  10 649.274 62.9745   2
   1  10  10 756.854 62.3138   2
   2 -10  10 299.716 36.2710   1
   3 -10  10 400.500 42.4157   1
   3  10 -10 340.768 50.1353   1
   4 -10  10 -13.555 13.9963   1
   4 -10 -10 -2.2857 12.9385   1
   0 -11  10 360.776 46.4339   1
   0  11 -10 440.298 60.8721   1
   0  11  10 394.888 42.1721   2
  -1  11  10 113.635 27.3093   2
   1  11 -10 37.6362 28.2611   1
   1 -11  10 50.0448 21.9807   1
   1  11  10 106.247 25.1853   2
   2  11 -10 605.389 75.2342   1
   2 -11  10 846.872 66.0733   1
   3 -11  10 170.417 29.7905   1
   0  12  10 23.4295 17.1840   2
   0  12 -10 25.5980 24.5833   1
   0 -12  10 7.20226 15.8452   1
   1  12 -10 40.6967 32.4289   1
   1 -12  10 142.102 28.8555   1
  -1  12  10 145.306 30.7409   2
   1  12  10 106.171 24.9237   2
   2 -12  10 19.1183 15.8512   1
   3 -12  10 200.172 32.3247   1
   0  13 -10 18.6155 22.6116   1
   0  13  10 54.3985 20.7136   2
   0 -13  10 17.6511 18.4486   1
   1 -13  10 174.051 35.2800   1
  -1  13  10 167.625 33.1263   2
   1  13 -10 64.4802 35.8890   1
   1  13  10 142.859 29.8699   2
  -1  13 -10 165.328 41.2329   1
   2 -13  10 108.102 26.4761   1
   3 -13  10 414.143 48.2413   1
   0  14  10 191.868 32.9051   2
   0  14 -10 129.587 53.7925   1
  -1  14  10 177.629 32.7102   2
   1 -14  10 130.936 31.9833   1
  -1  14 -10 148.517 43.8856   1
   1  14  10 166.739 32.0773   2
   2 -14  10 79.0124 25.3295   1
   0  15  10 217.100 35.8919   2
  -1  15  10 243.173 37.8130   2
   1  15  10 236.668 38.2643   2
   2 -15  10 165.057 34.7712   1
   0  16  10 114.805 28.9645   2
   1  16  10 55.2033 25.1532   2
   0   0  11 0.82447 10.2502   1
   0   0 -11 0.09378 10.3658   1
  -1   0 -11 2597.25 165.239   1
   1   0 -11 2448.53 161.963   1
   1   0  11 2383.02 155.991   1
   2   0 -11 357.073 45.4643   1
   2   0  11 464.246 38.9108   1
   3   0  11 310.783 30.7529   1
   3   0 -11 215.703 38.6991   1
   4   0 -11 73.5251 30.6019   1
   4   0  11 105.003 20.4293   1
   5   0 -11 106.052 35.0782   1
   5   0  11 86.0780 22.2516   1
   0  -1 -11 33.2005 16.7967   1
   0   1 -11 35.0728 17.1084   1
   0  -1  11 70.8160 20.2177   1
   0   1  11 60.9466 17.9469   1
  -1  -1 -11 379.116 42.2030   1
   1  -1  11 376.537 37.7435   1
   1   1 -11 362.740 41.6724   1
   1   1  11 402.941 38.7960   1
   1  -1 -11 402.496 41.5135   1
   2  -1  11 715.212 53.4477   1
   2   1 -11 536.603 60.5652   1
   2   1  11 694.749 52.7999   1
   2  -1 -11 693.465 62.0206   1
   3  -1  11 34.1864 14.3994   1
   3   1 -11 19.0295 18.8032   1
   3   1  11 37.6571 14.1373   1
   3  -1 -11 25.5056 17.7884   1
   4   1 -11 289.506 42.0358   1
   4  -1  11 220.032 30.4323   1
   4  -1 -11 259.415 42.7217   1
   4   1  11 247.144 29.2553   1
   5  -1  11 212.745 29.7090   1
   5   1 -11 212.671 43.1295   1
   5  -1 -11 86.2048 34.6632   1
   0  -2  11 186.019 30.0080   1
   0   2 -11 235.766 35.9240   1
   0  -2 -11 184.752 26.8392   1
   1   2 -11 108.509 23.1933   1
  -1  -2 -11 130.675 23.8850   1
   1  -2  11 91.2091 17.8618   1
   1   2  11 111.438 20.1028   1
   1  -2 -11 127.197 22.9830   1
   2   2 -11 333.701 47.4576   1
   2  -2  11 428.790 38.7683   1
   2   2  11 486.773 39.4939   1
   2  -2 -11 386.290 44.0184   1
   3   2 -11 469.665 56.6299   1
   3  -2  11 539.959 43.2933   1
   3   2  11 464.312 40.1913   1
   3  -2 -11 362.499 48.6239   1
   4  -2  11 101.259 21.9471   1
   4   2 -11 101.431 33.9716   1
   4   2  11 139.747 21.4038   1
   4  -2 -11 120.825 32.3774   1
   5  -2  11 409.664 42.7862   1
   5   2 -11 316.874 52.4325   1
   5  -2 -11 311.644 50.1810   1
   0  -3  11 98.6551 21.8903   1
   0  -3 -11 135.819 21.7462   1
   0   3 -11 117.174 26.1296   1
   1   3 -11 103.052 26.8514   1
   1  -3  11 86.1065 19.5352   1
  -1  -3 -11 122.415 23.9162   1
   1  -3 -11 125.665 21.6690   1
   1   3  11 106.264 20.6733   1
   2  -3  11 342.492 33.4810   1
   2   3 -11 271.832 43.6014   1
   2  -3 -11 310.288 36.9552   1
   2   3  11 289.167 30.1425   1
   3   3 -11 492.357 60.3160   1
   3  -3  11 546.009 46.1654   1
   3  -3 -11 540.449 55.7264   1
   3   3  11 582.116 45.3298   1
   4  -3  11 694.295 56.0378   1
   4   3 -11 619.065 68.3124   1
   4  -3 -11 635.350 65.8555   1
   0   4 -11 1159.23 95.9368   1
   0  -4  11 1125.55 87.5587   1
   0  -4 -11 1126.99 79.3603   1
   1   4 -11 81.2467 27.4566   1
   1  -4  11 49.8354 16.9304   1
  -1  -4 -11 80.7951 19.4043   1
   1  -4 -11 98.0418 18.5797   1
   1   4  11 82.8954 18.1175   1
   2  -4  11 46.3891 16.0654   1
   2   4 -11 20.7149 20.7959   1
   2  -4 -11 47.4715 18.0036   1
   2   4  11 52.0439 14.8874   1
   3  -4  11 1518.52 95.9349   1
   3   4 -11 1201.93 109.503   1
   3  -4 -11 1348.91 102.818   1
   4  -4  11 233.185 30.5805   1
   4   4 -11 205.034 41.3477   1
   4  -4 -11 185.997 36.6399   1
   0  -5 -11 365.669 33.2121   1
   0  -5  11 349.108 40.1892   1
   0   5 -11 356.281 49.2084   1
   1  -5  11 1004.86 81.0995   1
  -1  -5 -11 1135.00 79.6421   1
   1   5 -11 1323.56 100.650   1
   1  -5 -11 1209.41 80.9863   1
   1   5  11 1124.67 78.6808   1
   2   5 -11 71.2944 33.3692   1
   2  -5  11 164.713 24.2469   1
   2  -5 -11 141.966 24.2544   1
   3   5 -11 291.531 47.2404   1
   3  -5  11 336.770 34.9456   1
   3  -5 -11 251.507 37.0027   1
   4  -5  11 432.336 42.1818   1
   4   5 -11 351.507 54.3050   1
   4  -5 -11 339.312 46.2202   1
   0   6 -11 909.531 81.6459   1
   0  -6 -11 808.533 58.5259   1
   0  -6  11 796.322 70.0023   1
   1  -6  11 75.7833 17.1932   1
   1   6 -11 94.4516 31.5793   1
   1  -6 -11 57.7792 14.7146   1
   2   6 -11 8.03852 23.4488   1
   2  -6  11 20.9358 12.5191   1
   2  -6 -11 30.5842 15.0501   1
   3   6 -11 62.1769 28.3804   1
   3  -6  11 106.664 22.5019   1
   3  -6 -11 72.4740 22.3207   1
   4   6 -11 111.051 34.5653   1
   4  -6  11 112.825 24.8200   1
   4  -6 -11 80.4765 26.6770   1
   0   7 -11 51.5941 25.7666   1
   0  -7  11 30.9690 16.8130   1
   1   7 -11 329.632 49.8454   1
   1  -7  11 285.873 34.5888   1
   1  -7 -11 245.166 27.4597   1
   2   7 -11 525.748 77.5033   1
   2  -7  11 778.384 61.0131   1
   2  -7 -11 776.819 58.7778   1
   3   7 -11 177.243 41.7822   1
   3  -7  11 289.016 32.9444   1
   3  -7 -11 174.296 30.1109   1
   4  -7  11 15.9074 15.4035   1
   4   7 -11 -2.1678 18.2721   1
   4  -7 -11 -5.4542 13.8484   1
   0  -8  11 662.747 65.2931   1
   0   8 -11 853.548 80.7104   1
   1   8 -11 993.474 89.0581   1
   1  -8  11 688.928 63.9790   1
   2  -8  11 460.854 45.0499   1
   2  -8 -11 417.585 39.7795   1
   3  -8  11 115.070 24.5199   1
   3   8 -11 76.3914 34.0570   1
   3  -8 -11 109.381 23.7135   1
   4  -8  11 303.824 37.4850   1
   4   8 -11 268.257 47.0598   1
   4  -8 -11 250.372 38.5102   1
   0  -9  11 18.6255 14.7845   1
   0   9 -11 38.3795 25.4129   1
   1   9 -11 567.605 69.1862   1
   1  -9  11 537.651 53.2291   1
   2   9 -11 71.8824 37.6529   1
   3  -9  11 14.5613 14.8192   1
   3   9 -11 -1.7504 22.7813   1
   3  -9 -11 19.8313 14.7326   1
   4  -9  11 178.131 31.4933   1
   4   9 -11 169.961 39.8572   1
   4  -9 -11 147.968 30.7617   1
   0 -10  11 -6.3425 12.8924   1
   0  10 -11 -4.3455 18.9891   1
   1  10 -11 184.375 43.6158   1
   1 -10  11 178.703 31.3422   1
   2 -10  11 551.807 53.1971   1
   3 -10  11 108.805 26.2347   1
   3  10 -11 124.348 37.0850   1
   0 -11  11 22.4492 18.7710   1
   0  11 -11 15.0025 22.1200   1
   1  11 -11 277.921 56.3692   1
   1 -11  11 323.438 41.9561   1
   2  11 -11 -5.9178 23.0007   1
   2 -11  11 47.7425 20.2257   1
   3 -11  11 70.8899 24.3956   1
   0  12 -11 1981.48 161.746   1
   1  12 -11 48.0078 31.4142   1
   1 -12  11 57.1145 25.4878   1
  -1  12 -11 91.5696 36.5084   1
   2 -12  11 12.2276 16.0973   1
   2  12 -11 2.95369 23.0541   1
   3 -12  11 106.988 27.5892   1
   0 -13  11 314.074 46.5570   1
   0  13 -11 198.307 50.9915   1
   1  13 -11 244.897 59.4145   1
   1 -13  11 404.903 51.0605   1
  -1  13 -11 403.814 60.5447   1
   2 -13  11 100.696 28.5252   1
   0 -14  11 122.352 32.7000   1
   0  14 -11 94.7788 41.4720   1
   1 -14  11 60.0129 27.8756   1
  -1  14 -11 119.792 41.2435   1
   2 -14  11 67.4428 25.9646   1
  -1  15 -11 165.734 50.0873   1
   0   0 -12 1687.48 119.379   1
   0   0  12 1668.38 116.132   1
   1   0  12 61.2243 19.1048   1
  -1   0 -12 52.3205 21.9788   1
   1   0 -12 58.0259 20.5894   1
   2   0  12 116.825 20.4187   1
   2   0 -12 61.5595 23.6999   1
   3   0 -12 73.9773 30.0623   1
   3   0  12 113.799 20.7357   1
   4   0  12 201.877 27.3620   1
   4   0 -12 101.075 35.6579   1
   0   1 -12 153.160 30.3844   1
   0  -1  12 170.407 28.7923   1
   0  -1 -12 171.277 27.7182   1
   0   1  12 166.972 26.8530   1
   1  -1  12 529.945 48.2388   1
  -1  -1 -12 516.601 52.3365   1
   1   1 -12 576.953 54.4822   1
   1   1  12 453.649 45.9110   1
  -1   1 -12 483.281 53.6013   1
   1  -1 -12 501.630 49.2656   1
   2   1 -12 272.356 41.4926   1
   2  -1  12 306.990 33.7360   1
   2  -1 -12 357.258 42.5359   1
   2   1  12 357.589 34.8954   1
   3  -1  12 33.5371 15.9982   1
   3   1 -12 -15.909 15.2879   1
   3  -1 -12 -5.3168 15.7729   1
   3   1  12 -8.0892 8.65578   1
   4   1 -12 69.0361 32.9323   1
   4  -1  12 88.4969 23.6295   1
   4   1  12 103.746 21.1057   1
   4  -1 -12 75.6363 30.0961   1
   0  -2 -12 1312.83 94.4463   1
   0  -2  12 1205.43 96.2897   1
   0   2 -12 1456.61 105.807   1
  -1  -2 -12 1186.14 86.7686   1
   1  -2  12 1077.58 81.4719   1
   1   2 -12 1217.53 91.5403   1
   1  -2 -12 976.362 81.2712   1
  -1   2 -12 1130.00 91.4794   1
   1   2  12 1051.87 80.3719   1
   2  -2  12 280.644 31.2522   1
   2   2 -12 201.422 37.8790   1
   2   2  12 245.131 29.9667   1
   2  -2 -12 253.556 35.2054   1
   3   2 -12 395.509 53.7809   1
   3  -2  12 507.470 43.2799   1
   3  -2 -12 404.563 50.9957   1
   3   2  12 426.458 39.6641   1
   4  -2  12 186.478 27.2942   1
   4   2 -12 89.8973 34.6346   1
   4  -2 -12 104.498 34.5028   1
   0   3 -12 312.850 42.5065   1
   0  -3  12 290.690 38.8200   1
   0  -3 -12 318.828 34.5543   1
   1   3 -12 451.642 50.6945   1
  -1  -3 -12 392.794 42.4522   1
   1  -3  12 353.148 38.7607   1
   1  -3 -12 435.087 41.4624   1
   1   3  12 375.835 39.1269   1
  -1   3 -12 409.322 49.8966   1
   2   3 -12 314.727 48.0147   1
   2  -3  12 387.034 38.1839   1
   2  -3 -12 390.008 42.2584   1
   2   3  12 335.563 35.2064   1
   3  -3  12 219.166 28.1636   1
   3   3 -12 132.679 38.2448   1
   3  -3 -12 119.907 30.0987   1
   3   3  12 194.145 24.5546   1
   4   3 -12 11.8837 22.0810   1
   4  -3  12 28.2694 15.9248   1
   4  -3 -12 15.8849 20.9658   1
   0   4 -12 683.627 71.8471   1
   0  -4  12 710.501 65.7345   1
   0  -4 -12 800.987 59.2568   1
   1  -4  12 130.088 25.2920   1
   1   4 -12 176.882 35.1343   1
  -1  -4 -12 181.401 27.2727   1
   1   4  12 195.303 26.3583   1
   1  -4 -12 187.447 25.7108   1
  -2  -4 -12 1093.74 108.794   1
   2  -4  12 1266.68 87.5724   1
   2   4 -12 1286.79 105.601   1
   2   4  12 1142.35 83.7818   1
   2  -4 -12 1227.06 89.7560   1
   3   4 -12 -4.1649 18.9002   1
   3  -4  12 18.1149 12.8246   1
   3  -4 -12 56.9299 23.2653   1
   4  -4  12 91.9667 23.0818   1
   4   4 -12 65.9971 33.2371   1
   4  -4 -12 37.5174 22.9983   1
   0   5 -12 282.008 45.6084   1
   0  -5  12 345.296 39.8030   1
   0  -5 -12 280.459 30.0033   1
  -1  -5 -12 414.313 47.8295   1
   1   5 -12 561.940 59.3087   1
   1  -5  12 409.873 42.7208   1
   1  -5 -12 357.930 36.9022   1
   1   5  12 358.337 35.7308   1
   2   5 -12 -3.8117 19.2885   1
   2  -5  12 43.3824 18.2220   1
   2  -5 -12 47.0020 18.3630   1
   3   5 -12 55.6549 29.4143   1
   3  -5  12 106.539 23.1047   1
   3  -5 -12 98.1857 25.6253   1
   4  -5  12 61.8717 21.8435   1
   4   5 -12 -11.132 20.4757   1
   4  -5 -12 22.0310 20.2849   1
   0  -6 -12 2178.99 141.812   1
   0  -6  12 2201.05 155.154   1
   0   6 -12 2604.01 171.855   1
   1   6 -12 1850.84 129.849   1
   1  -6  12 1372.23 107.545   1
   1  -6 -12 1544.30 102.728   1
   2   6 -12 139.037 42.1227   1
   2  -6  12 197.506 29.5433   1
   2  -6 -12 221.660 28.9594   1
   3   6 -12 -16.266 19.7796   1
   3  -6  12 18.6069 14.3042   1
   3  -6 -12 4.24137 13.5924   1
   4   6 -12 109.404 38.5207   1
   4  -6  12 181.804 29.4800   1
   4  -6 -12 128.200 32.1595   1
   0  -7  12 0.69851 14.2166   1
   0   7 -12 -10.317 14.3067   1
   1  -7  12 188.111 31.0566   1
   1   7 -12 175.766 40.4157   1
   1  -7 -12 215.589 24.5916   1
   2   7 -12 309.846 60.1062   1
   2  -7  12 495.933 47.3995   1
   2  -7 -12 504.904 44.2214   1
   3  -7  12 205.752 30.5457   1
   3   7 -12 123.784 41.0627   1
   3  -7 -12 169.071 29.1728   1
   4   7 -12 -10.102 21.3058   1
   4  -7  12 35.9504 18.0762   1
   4  -7 -12 8.59112 16.8035   1
   0   8 -12 545.849 65.9453   1
   0  -8  12 467.845 53.5554   1
   1   8 -12 290.452 50.4456   1
   1  -8  12 344.675 41.1397   1
   2  -8  12 122.925 23.3469   1
   2   8 -12 58.2001 35.9795   1
   2  -8 -12 130.390 21.8491   1
   3  -8  12 232.945 33.3991   1
   3   8 -12 127.761 42.1321   1
   3  -8 -12 269.366 34.0333   1
   4  -8  12 196.858 32.1084   1
   4   8 -12 123.816 44.4048   1
   4  -8 -12 143.266 33.5104   1
   0  -9  12 103.618 29.4290   1
   0   9 -12 136.242 38.7343   1
   1   9 -12 370.768 55.5210   1
   1  -9  12 285.572 38.1087   1
  -1   9 -12 313.985 52.3824   1
   2  -9  12 1.81068 13.8503   1
   2   9 -12 -47.450 19.7364   1
   3  -9  12 131.927 27.4773   1
   3   9 -12 41.9873 29.1722   1
   3  -9 -12 99.7920 22.7919   1
   0 -10  12 60.4290 26.6207   1
   0  10 -12 1.41430 20.5471   1
   1 -10  12 14.5038 17.8290   1
   1  10 -12 40.3169 27.9029   1
  -1  10 -12 12.2278 22.7943   1
   2 -10  12 527.644 53.6343   1
   3  10 -12 457.769 66.1758   1
   3 -10  12 560.022 54.3961   1
   0  11 -12 -0.3801 21.4585   1
   0 -11  12 4.27566 17.5279   1
   1  11 -12 13.9681 25.3183   1
   1 -11  12 64.8005 26.0762   1
  -1  11 -12 66.3952 34.8332   1
   2 -11  12 217.398 33.9881   1
   2  11 -12 45.5853 32.6440   1
   3 -11  12 254.039 37.3834   1
   3  11 -12 187.729 51.0909   1
   0 -12  12 166.808 38.3995   1
   0  12 -12 169.766 45.4421   1
   1 -12  12 286.513 43.1917   1
   1  12 -12 250.312 52.7051   1
  -1  12 -12 294.368 54.2186   1
   2 -12  12 96.1680 30.7432   1
   2  12 -12 61.0960 33.2271   1
   0  13 -12 -0.3249 22.5029   1
   0 -13  12 22.1535 20.7936   1
   1  13 -12 13.6895 27.2403   1
   1 -13  12 47.8487 23.6672   1
  -1  13 -12 72.5495 35.0253   1
   2 -13  12 76.7901 28.0757   1
   0  14 -12 450.556 67.4296   1
   1 -14  12 274.725 45.0340   1
  -1  14 -12 271.230 55.4809   1
   0   0 -13 1.57534 11.8971   1
   0   0  13 -8.0480 9.35379   1
   1   0  13 647.999 57.5220   1
   1   0 -13 616.130 58.9203   1
  -1   0 -13 633.874 62.5259   1
   2   0  13 250.846 31.5437   1
   2   0 -13 277.567 40.0777   1
   3   0  13 43.0247 17.9966   1
   3   0 -13 62.0551 29.0429   1
   4   0 -13 807.536 87.7008   1
   4   0  13 980.351 71.6753   1
   0  -1 -13 1134.92 85.9482   1
   0   1 -13 1126.71 90.0290   1
   0  -1  13 1047.91 84.5055   1
  -1  -1 -13 50.0612 21.9304   1
   1  -1  13 58.3620 20.6409   1
   1   1 -13 85.1724 24.2278   1
   1  -1 -13 80.9105 22.0855   1
   1   1  13 64.4420 20.4861   1
  -1   1 -13 32.4667 19.3640   1
   2   1 -13 230.958 38.0390   1
   2  -1  13 227.954 29.4820   1
   2   1  13 176.454 27.1167   1
   2  -1 -13 179.321 32.9262   1
   3   1 -13 933.477 87.8186   1
   3  -1  13 1030.18 72.6446   1
   3  -1 -13 948.885 84.5653   1
   3   1  13 817.826 68.2972   1
   4   1 -13 -14.437 19.9642   1
   4   1  13 23.2526 14.1061   1
   4  -1 -13 16.2350 24.3943   1
   0  -2 -13 163.620 28.6513   1
   0  -2  13 183.203 31.0831   1
   0   2 -13 175.612 33.4168   1
   1  -2  13 190.648 28.0671   1
   1   2 -13 201.830 34.2205   1
  -1  -2 -13 221.087 35.0933   1
   1   2  13 165.630 29.6250   1
   1  -2 -13 192.220 29.6228   1
  -1   2 -13 207.613 36.6579   1
   2   2 -13 161.670 34.4202   1
   2  -2  13 150.126 25.7889   1
   2  -2 -13 207.082 32.1681   1
   2   2  13 149.126 25.1403   1
   3   2 -13 127.342 37.7403   1
   3  -2  13 176.489 28.0820   1
   3  -2 -13 211.434 38.2923   1
   3   2  13 204.867 27.0018   1
   4  -2  13 253.930 32.3591   1
   4   2 -13 111.914 40.5563   1
   4  -2 -13 165.505 41.9461   1
   0  -3 -13 66.6697 19.1256   1
   0   3 -13 43.8202 20.0250   1
   0  -3  13 42.9902 21.3334   1
  -1  -3 -13 913.683 74.4925   1
   1  -3  13 873.781 73.7129   1
   1   3 -13 1057.28 85.0696   1
   1   3  13 888.631 71.1763   1
   1  -3 -13 991.023 73.7312   1
  -1   3 -13 865.418 82.6601   1
  -2  -3 -13 107.118 25.7538   1
   2   3 -13 112.284 32.6277   1
   2  -3  13 90.4200 22.2970   1
   2  -3 -13 115.269 25.4112   1
   2   3  13 66.7187 21.1267   1
   3   3 -13 78.2996 30.1693   1
   3  -3  13 125.749 24.4304   1
   3  -3 -13 123.539 30.4546   1
   4   3 -13 83.0822 37.8887   1
   4  -3  13 155.899 27.7114   1
   4  -3 -13 97.8690 34.7153   1
   0  -4  13 58.8576 22.8255   1
   0   4 -13 99.0192 30.7515   1
   0  -4 -13 53.7697 16.6850   1
  -1  -4 -13 166.478 25.9338   1
   1   4 -13 172.567 35.7209   1
   1  -4  13 119.003 26.3235   1
  -1   4 -13 179.827 36.8743   1
   1  -4 -13 159.722 25.0952   1
   1   4  13 148.463 23.8857   1
   2  -4  13 1475.79 105.641   1
   2   4 -13 1555.90 122.659   1
   2  -4 -13 1514.04 107.897   1
   3  -4  13 292.491 35.5050   1
   3  -4 -13 265.697 39.0637   1
   4  -4  13 -9.3540 12.0713   1
   4   4 -13 -8.0661 22.9818   1
   4  -4 -13 -20.039 15.4784   1
   0  -5  13 128.362 26.1000   1
   0   5 -13 108.499 32.7856   1
   0  -5 -13 154.677 22.9789   1
   1  -5  13 204.025 31.8770   1
   1   5 -13 228.360 41.3323   1
   1  -5 -13 194.720 26.6687   1
  -1   5 -13 208.622 37.7717   1
   2   5 -13 422.439 59.7731   1
   2  -5  13 533.574 47.8092   1
   2  -5 -13 444.073 46.7557   1
   3   5 -13 51.7965 32.3080   1
   3  -5  13 94.0560 23.5009   1
   3  -5 -13 55.1506 23.3264   1
   4  -5  13 366.889 40.8513   1
   4   5 -13 228.273 51.4659   1
   4  -5 -13 326.361 47.5121   1
   0   6 -13 4.27451 18.6926   1
   0  -6  13 19.0158 16.4453   1
   1   6 -13 33.9361 22.9330   1
   1  -6  13 21.1081 15.7023   1
   1  -6 -13 33.4325 14.1227   1
  -1   6 -13 27.2368 21.7149   1
   2   6 -13 24.5223 25.4473   1
   2  -6  13 28.1970 16.1527   1
   2  -6 -13 29.0624 14.3338   1
   3  -6  13 324.390 37.7796   1
   3   6 -13 132.979 46.4479   1
   3  -6 -13 298.246 38.6173   1
   4  -6  13 405.847 44.0196   1
   4   6 -13 246.935 54.4580   1
   4  -6 -13 376.706 47.9492   1
   0   7 -13 31.6494 22.7402   1
   0  -7  13 46.3963 21.7472   1
   1  -7  13 38.8652 19.5992   1
   1   7 -13 37.6023 25.5899   1
  -1   7 -13 73.0859 28.1751   1
   2  -7  13 336.709 40.4050   1
   2   7 -13 279.335 55.1858   1
   2  -7 -13 368.720 37.3224   1
   3  -7  13 629.545 60.3704   1
   3  -7 -13 772.120 63.8044   1
   4  -7  13 1.91570 15.3330   1
   4   7 -13 -22.472 23.5275   1
   4  -7 -13 23.0972 19.8017   1
   0  -8  13 15.7838 17.7736   1
   0   8 -13 31.0162 25.9944   1
   1   8 -13 1042.88 97.7773   1
   1  -8  13 963.266 81.2868   1
  -1   8 -13 1020.55 97.1508   1
   2   8 -13 6.16464 25.4051   1
   2  -8  13 51.8097 22.5365   1
   3   8 -13 13.7599 29.1408   1
   3  -8  13 88.3513 25.4040   1
   3  -8 -13 82.0535 22.9441   1
   0  -9  13 1936.42 145.269   1
   0   9 -13 2196.07 164.231   1
   1   9 -13 85.9143 35.8944   1
   1  -9  13 46.6445 22.9557   1
  -1   9 -13 88.9419 35.7931   1
   2  -9  13 47.5543 22.9616   1
   2   9 -13 -0.7451 29.9447   1
   3  -9  13 27.1759 18.7241   1
   3   9 -13 -36.274 21.2714   1
   0 -10  13 68.8842 27.4568   1
   0  10 -13 94.1644 37.7417   1
   1  10 -13 407.894 60.6444   1
   1 -10  13 299.374 44.6572   1
  -1  10 -13 362.690 58.1431   1
   2 -10  13 59.9807 24.6605   1
   2  10 -13 47.1355 36.1287   1
   3 -10  13 9.24082 18.0114   1
   3  10 -13 -23.859 21.5268   1
   0 -11  13 180.822 37.6802   1
   0  11 -13 209.858 49.0880   1
   1 -11  13 382.289 49.6680   1
   1  11 -13 373.114 60.5301   1
  -1  11 -13 431.752 63.2518   1
   2 -11  13 149.600 32.0219   1
   2  11 -13 47.6798 33.2232   1
   3 -11  13 52.7367 26.3883   1
   3  11 -13 8.06087 30.1874   1
   0 -12  13 361.646 49.4428   1
   0  12 -13 312.497 59.2700   1
   1  12 -13 305.526 54.1050   1
   1 -12  13 173.673 38.0695   1
  -1  12 -13 297.204 54.2670   1
   2 -12  13 20.6032 19.6429   1
   2  12 -13 -21.856 22.0508   1
   0  13 -13 75.6756 36.7684   1
   0 -13  13 130.241 34.9086   1
   1  13 -13 79.6425 39.4534   1
   1 -13  13 105.546 33.1570   1
  -1  13 -13 153.166 43.2699   1
   2 -13  13 336.782 49.6475   1
   0  14 -13 35.7270 28.1642   1
   0 -14  13 3.58689 20.2345   1
   1 -14  13 88.8592 33.5638   1
  -1  14 -13 123.737 45.1729   1
   0   0 -14 2146.78 147.981   1
  -1   0 -14 156.257 32.5616   1
   1   0  14 162.641 29.3643   1
   1   0 -14 123.541 28.0327   1
   2   0 -14 67.9748 26.4943   1
   2   0  14 86.4617 22.5595   1
   3   0  14 369.543 39.9024   1
   3   0 -14 358.137 48.4345   1
   4   0 -14 -3.9297 20.7915   1
   4   0  14 -4.2293 12.3072   1
   0   1 -14 468.444 52.3744   1
   0  -1  14 464.372 48.9026   1
   0  -1 -14 453.395 48.6274   1
  -1  -1 -14 87.4705 29.8617   1
   1   1 -14 98.6677 26.6084   1
   1  -1  14 83.8635 21.3506   1
  -1   1 -14 124.343 31.0222   1
   1   1  14 97.0356 24.8801   1
   1  -1 -14 116.815 23.0940   1
   2   1 -14 636.523 63.0218   1
   2  -1  14 553.071 52.5652   1
  -2  -1 -14 542.364 59.9509   1
   2  -1 -14 599.293 59.0393   1
   2   1  14 546.751 52.2121   1
   3   1 -14 38.3547 24.9554   1
   3  -1  14 127.835 25.1583   1
   3   1  14 137.457 24.8961   1
   3  -1 -14 123.827 32.1936   1
   4  -1  14 66.3766 22.3704   1
   4   1 -14 45.1068 29.4491   1
   4  -1 -14 70.8699 32.2386   1
   0   2 -14 9.94277 16.1293   1
   0  -2 -14 4.06682 12.2353   1
   0  -2  14 -7.4618 12.6169   1
   1   2 -14 1828.53 127.561   1
   1  -2  14 1601.70 119.908   1
  -1  -2 -14 1684.85 123.290   1
   1  -2 -14 1855.15 121.735   1
  -1   2 -14 1798.53 132.226   1
   1   2  14 1574.45 117.376   1
   2  -2  14 229.692 32.9587   1
  -2  -2 -14 260.943 39.3211   1
   2   2 -14 242.815 41.5904   1
   2   2  14 219.630 31.6877   1
   2  -2 -14 244.478 36.5770   1
   3   2 -14 54.2875 28.8117   1
   3  -2  14 100.377 24.5428   1
   3  -2 -14 126.472 31.5370   1
   3   2  14 136.393 23.9707   1
   4  -2  14 0.82290 14.2507   1
   4   2 -14 -13.242 18.2826   1
   4  -2 -14 14.0174 23.1070   1
   0  -3 -14 1363.16 99.1755   1
   0   3 -14 1511.91 113.756   1
   0  -3  14 1339.31 104.157   1
   1   3 -14 648.149 63.7995   1
  -1  -3 -14 529.106 53.7057   1
   1  -3  14 576.248 56.6306   1
   1   3  14 554.964 51.6945   1
  -1   3 -14 600.804 65.5735   1
   1  -3 -14 590.624 53.6853   1
  -2  -3 -14 54.6781 25.5417   1
   2  -3  14 31.6127 16.3136   1
   2   3 -14 37.4472 23.3462   1
   2  -3 -14 60.5712 22.3895   1
   2   3  14 34.1685 16.8814   1
   3   3 -14 32.0913 26.7689   1
   3  -3  14 56.0454 21.6607   1
   3  -3 -14 25.2682 19.5072   1
   4   3 -14 -7.8056 26.1183   1
   4  -3  14 40.4527 19.4962   1
   4  -3 -14 25.4424 23.4709   1
   0  -4 -14 37.2277 18.2592   1
   0   4 -14 36.6747 21.8356   1
   0  -4  14 18.7134 16.9392   1
  -1  -4 -14 341.491 38.4968   1
   1   4 -14 421.547 51.6472   1
   1  -4  14 291.980 40.6149   1
  -1   4 -14 372.770 52.4080   1
   1   4  14 319.414 36.1312   1
   1  -4 -14 368.228 38.8692   1
   2  -4  14 251.486 36.2000   1
   2   4 -14 248.096 45.8692   1
   2  -4 -14 377.903 40.6629   1
   3   4 -14 3.20958 24.5298   1
   3  -4  14 30.4169 17.1982   1
   3  -4 -14 49.7890 24.2411   1
   4   4 -14 42.0998 32.4418   1
   4  -4  14 178.762 30.0092   1
   4  -4 -14 94.6600 33.2615   1
   0  -5  14 1124.28 91.2168   1
   0  -5 -14 1110.06 81.3280   1
   0   5 -14 1194.55 100.418   1
   1   5 -14 331.549 49.7151   1
   1  -5  14 281.693 40.4990   1
   1  -5 -14 335.978 35.9814   1
  -1   5 -14 393.686 54.0603   1
   2  -5  14 83.4051 25.0949   1
   2   5 -14 136.710 38.0011   1
   2  -5 -14 151.542 26.3821   1
   3   5 -14 119.399 42.6689   1
   3  -5  14 209.892 32.8730   1
   3  -5 -14 204.409 34.3409   1
   4   5 -14 -26.298 24.1777   1
   4  -5  14 8.88921 15.3099   1
   4  -5 -14 -10.434 16.7921   1
   0   6 -14 133.047 36.8476   1
   0  -6  14 79.8720 27.6533   1
   1  -6  14 739.887 67.2466   1
   1   6 -14 869.314 78.9774   1
  -1   6 -14 690.672 76.9856   1
   1  -6 -14 673.015 57.1787   1
   2  -6  14 100.467 26.7686   1
   2   6 -14 164.475 42.2947   1
   2  -6 -14 144.885 25.6835   1
   3   6 -14 -12.164 26.2866   1
   3  -6  14 10.4590 16.3253   1
   3  -6 -14 19.0255 17.6343   1
   0   7 -14 27.6131 24.2432   1
   0  -7  14 22.2455 18.6793   1
   1   7 -14 237.617 44.6068   1
   1  -7  14 142.845 32.1419   1
  -1   7 -14 233.186 46.2957   1
   2  -7  14 345.090 42.9757   1
   2   7 -14 332.401 57.9192   1
   2  -7 -14 362.309 38.2932   1
   3  -7  14 319.088 40.3271   1
   3   7 -14 150.090 53.9926   1
   3  -7 -14 269.220 36.8604   1
   0   8 -14 439.064 59.8378   1
   0  -8  14 263.676 42.7674   1
   1  -8  14 30.8205 20.4702   1
   1   8 -14 24.1656 23.3111   1
  -1   8 -14 45.5641 26.8036   1
   2  -8  14 137.745 30.0585   1
   2   8 -14 84.3635 40.3960   1
   3  -8  14 283.360 39.5901   1
   3  -8 -14 256.633 36.0497   1
   0  -9  14 280.152 43.9412   1
   0   9 -14 388.278 58.1943   1
   1   9 -14 199.014 44.4049   1
   1  -9  14 115.713 31.5224   1
  -1   9 -14 112.164 39.5124   1
   2   9 -14 63.9093 33.3300   1
   2  -9  14 41.6048 21.9142   1
   3   9 -14 -51.567 21.9279   1
   3  -9  14 -10.482 15.3000   1
   0  10 -14 442.936 63.7636   1
   0 -10  14 370.093 50.2723   1
   1 -10  14 176.959 37.4369   1
   1  10 -14 292.648 54.6138   1
  -1  10 -14 193.866 47.5380   1
   2  10 -14 388.289 66.7186   1
   2 -10  14 505.599 55.0100   1
   0 -11  14 51.9210 24.7604   1
   0  11 -14 44.7431 29.3620   1
   1 -11  14 63.4070 29.3198   1
   1  11 -14 74.3688 36.5830   1
  -1  11 -14 111.161 40.2309   1
   2  11 -14 5.15534 27.6965   1
   2 -11  14 17.9494 23.8727   1
   0  12 -14 36.7860 28.9036   1
   0 -12  14 63.3069 30.4140   1
   1 -12  14 352.031 51.7063   1
   1  12 -14 375.427 60.6523   1
  -1  12 -14 410.805 63.9106   1
   2  12 -14 -21.862 24.0280   1
   2 -12  14 -10.377 18.4413   1
   0  13 -14 5.80098 25.1761   1
   0 -13  14 9.16132 18.9081   1
   1 -13  14 65.3947 31.6394   1
   1  13 -14 43.9937 32.1168   1
  -1  13 -14 107.533 39.3491   1
   0   0 -15 21.8509 16.8579   1
   1   0  15 862.196 76.2096   1
  -1   0 -15 965.314 84.9538   1
   1   0 -15 974.335 79.9650   1
  -2   0 -15 1071.86 91.8410   1
   2   0 -15 1101.38 88.3770   1
   2   0  15 882.224 77.9802   1
   3   0  15 -4.7354 13.2166   1
   3   0 -15 10.3643 20.1957   1
   4   0  15 -11.294 14.4444   1
   4   0 -15 -9.1313 19.7622   1
   0   1 -15 458.723 52.5513   1
   0  -1 -15 436.513 48.8636   1
  -1  -1 -15 -0.0431 15.7987   1
   1   1 -15 18.6410 17.8110   1
   1  -1  15 5.25674 15.9768   1
   1  -1 -15 33.3219 18.3440   1
  -1   1 -15 5.19442 19.2379   1
   1   1  15 31.4872 17.0492   1
   2  -1  15 284.417 39.8636   1
   2   1 -15 391.049 49.3029   1
  -2  -1 -15 384.554 49.3695   1
   2  -1 -15 357.658 45.8062   1
   2   1  15 317.696 42.1129   1
  -2   1 -15 358.717 51.4044   1
   3   1 -15 103.584 34.9617   1
   3  -1  15 120.813 26.6398   1
   3  -1 -15 121.282 33.7479   1
   3   1  15 144.155 28.8710   1
   4   1 -15 65.1670 33.1427   1
   4  -1  15 105.864 26.1663   1
   4  -1 -15 78.9230 35.2869   1
   0   2 -15 272.169 42.5735   1
   0  -2  15 287.219 39.5531   1
   0  -2 -15 261.447 36.5922   1
   1  -2  15 57.4241 24.4565   1
  -1  -2 -15 51.8457 23.2867   1
   1   2 -15 79.8075 27.0557   1
  -1   2 -15 49.5703 25.3352   1
   1   2  15 84.8718 23.1090   1
   1  -2 -15 60.7317 22.4698   1
  -2  -2 -15 572.091 58.1759   1
   2   2 -15 547.637 59.9880   1
   2  -2  15 550.545 52.5586   1
   2  -2 -15 463.106 51.8707   1
  -2   2 -15 439.804 59.2299   1
   2   2  15 387.029 47.5324   1
   3   2 -15 317.624 53.2120   1
   3  -2  15 378.601 43.4138   1
   3  -2 -15 441.612 52.3166   1
   0   3 -15 91.7104 30.4519   1
   0  -3 -15 125.012 26.5275   1
   0  -3  15 91.3861 26.9895   1
  -1  -3 -15 186.099 32.6674   1
   1   3 -15 164.959 35.2316   1
   1  -3  15 178.494 33.3582   1
  -1   3 -15 189.719 39.7546   1
   1   3  15 131.498 26.0160   1
   1  -3 -15 189.697 31.7296   1
   2  -3  15 53.4277 23.3906   1
   2   3 -15 78.8378 26.2080   1
   2   3  15 62.6077 21.0613   1
   2  -3 -15 92.7390 25.6288   1
   3  -3  15 202.341 32.7121   1
   3   3 -15 209.583 45.4103   1
   3  -3 -15 196.372 37.0992   1
   0  -4 -15 277.458 34.4934   1
   0  -4  15 348.609 43.6786   1
   0   4 -15 300.912 47.2353   1
   1   4 -15 505.671 56.9200   1
   1  -4  15 337.254 45.5124   1
  -1  -4 -15 399.917 51.2949   1
  -1   4 -15 347.184 53.5604   1
   1  -4 -15 387.371 41.6118   1
   2  -4  15 209.304 34.3135   1
   2   4 -15 221.663 43.9561   1
   2  -4 -15 235.474 36.4427   1
   3  -4  15 676.241 61.3504   1
   3   4 -15 544.023 73.4568   1
   3  -4 -15 697.887 66.2965   1
   0  -5  15 371.059 47.8388   1
   0  -5 -15 396.544 42.0638   1
   0   5 -15 467.398 56.1400   1
   1  -5  15 150.969 33.0146   1
   1   5 -15 177.065 38.6739   1
   1  -5 -15 163.293 26.4065   1
  -1   5 -15 143.897 38.6757   1
   2  -5  15 76.1579 25.8023   1
   2   5 -15 133.165 33.2942   1
   2  -5 -15 110.777 25.3215   1
   3   5 -15 37.2131 28.6436   1
   3  -5  15 56.2861 24.0484   1
   3  -5 -15 31.0739 18.7607   1
   0   6 -15 1369.79 112.026   1
   0  -6  15 1144.99 97.1936   1
   1  -6  15 358.439 46.0829   1
   1   6 -15 408.928 54.8702   1
  -1   6 -15 319.544 53.3450   1
   1  -6 -15 311.282 37.5984   1
   2  -6  15 38.6606 19.2918   1
   2   6 -15 31.8610 26.5104   1
   2  -6 -15 81.8939 22.3729   1
   3  -6  15 22.2497 18.9809   1
   3   6 -15 2.98677 26.5569   1
   3  -6 -15 32.0546 17.9953   1
   0   7 -15 1.10074 20.3051   1
   0  -7  15 4.85115 18.1627   1
   1  -7  15 221.744 39.7524   1
   1   7 -15 392.887 54.9876   1
  -1   7 -15 300.875 53.0185   1
   2   7 -15 177.340 45.2732   1
   2  -7  15 127.213 31.6485   1
   2  -7 -15 187.794 40.3650   1
   3  -7  15 64.7319 25.5246   1
   3   7 -15 37.4273 34.4687   1
   3  -7 -15 86.7625 25.1803   1
   0  -8  15 7.92734 18.9828   1
   0   8 -15 18.1583 23.0995   1
   1  -8  15 358.379 49.7383   1
   1   8 -15 442.516 61.3202   1
  -1   8 -15 515.663 67.2286   1
   2   8 -15 654.242 78.6634   1
   2  -8  15 573.711 61.3122   1
   3   8 -15 -20.820 27.3904   1
   3  -8  15 7.53243 17.7932   1
   0   9 -15 471.465 64.6886   1
   0  -9  15 372.372 50.8275   1
   1   9 -15 154.529 41.4396   1
   1  -9  15 87.5216 32.2955   1
  -1   9 -15 88.2191 37.0075   1
   2   9 -15 53.9271 31.2839   1
   2  -9  15 62.2709 28.4080   1
   0 -10  15 2.61061 18.2158   1
   0  10 -15 7.57118 23.5408   1
   1  10 -15 137.479 40.3991   1
   1 -10  15 100.752 33.5593   1
  -1  10 -15 183.758 45.9175   1
   2 -10  15 219.220 41.8746   1
   2  10 -15 333.804 58.7209   1
   0 -11  15 12.0131 18.9774   1
   0  11 -15 25.1770 26.3153   1
   1  11 -15 236.655 49.9919   1
   1 -11  15 223.069 42.5566   1
  -1  11 -15 224.660 51.4920   1
   2 -11  15 39.3130 23.9127   1
   2  11 -15 102.047 43.0622   1
  -2  11 -15 88.7260 40.3449   1
   0 -12  15 553.817 64.7255   1
   0  12 -15 674.307 81.0168   1
   1  12 -15 390.718 60.5958   1
   1 -12  15 295.549 48.9063   1
  -1  12 -15 287.672 57.1949   1
   0   0 -16 440.275 51.0523   1
  -1   0 -16 4.31128 18.0379   1
   1   0 -16 15.2725 17.2313   1
   1   0  16 26.8134 19.5552   1
  -2   0 -16 109.406 34.2479   1
   2   0 -16 150.065 33.3336   1
   2   0  16 121.548 28.8433   1
   3   0 -16 6.22818 20.5365   1
   3   0  16 7.09865 16.1033   1
   0  -1 -16 186.649 34.3150   1
   0   1 -16 293.174 41.4372   1
   1   1 -16 1091.82 89.3957   1
   1  -1  16 953.191 85.3506   1
  -1  -1 -16 970.482 87.6100   1
   1  -1 -16 1082.96 86.1069   1
  -1   1 -16 1168.74 97.2888   1
   1   1  16 1059.19 84.3824   1
   2  -1  16 58.0730 27.9142   1
   2   1 -16 24.2345 20.8255   1
  -2  -1 -16 115.459 32.6804   1
  -2   1 -16 64.2013 31.9554   1
   2   1  16 54.6835 23.9859   1
   2  -1 -16 104.694 28.3819   1
   3   1 -16 -20.080 16.9378   1
   3  -1  16 1.70077 14.5975   1
   3  -1 -16 27.4339 22.2648   1
   3   1  16 12.7576 17.6403   1
   0   2 -16 854.871 76.8351   1
   0  -2 -16 703.699 65.9840   1
   1  -2  16 112.811 30.0340   1
   1   2 -16 129.233 28.3501   1
  -1  -2 -16 107.503 28.6508   1
   1  -2 -16 136.121 28.4294   1
  -1   2 -16 129.143 32.1139   1
   1   2  16 99.2256 25.2440   1
   2  -2  16 129.199 30.8864   1
  -2  -2 -16 168.602 35.6180   1
   2   2 -16 205.381 38.5245   1
   2   2  16 136.421 28.8336   1
   2  -2 -16 154.823 32.0208   1
  -2   2 -16 131.489 39.3919   1
   3   2 -16 89.3765 34.9584   1
   3  -2  16 63.5414 24.5581   1
   3  -2 -16 96.0026 31.2392   1
   0  -3 -16 295.217 37.1027   1
   0  -3  16 270.459 39.9966   1
   0   3 -16 259.058 44.1584   1
  -1  -3 -16 239.679 37.5443   1
   1   3 -16 288.598 43.9721   1
   1  -3  16 258.766 39.8743   1
   1  -3 -16 226.742 34.3463   1
  -1   3 -16 265.752 47.0424   1
   2   3 -16 213.712 41.8848   1
   2  -3  16 194.399 35.1880   1
  -2   3 -16 197.684 44.0342   1
   2  -3 -16 227.097 35.6475   1
   3  -3  16 125.529 29.8289   1
   3   3 -16 96.0661 37.3164   1
   3  -3 -16 169.643 35.2399   1
   0  -4  16 453.606 50.6784   1
   0  -4 -16 399.878 43.8580   1
   0   4 -16 395.880 54.7187   1
   1   4 -16 148.576 35.3258   1
   1  -4  16 90.5429 24.9680   1
  -1   4 -16 102.290 35.4972   1
   1  -4 -16 170.196 27.8859   1
   2  -4  16 80.8643 27.6289   1
   2   4 -16 128.117 36.7298   1
  -2   4 -16 81.3774 36.2250   1
   2  -4 -16 116.269 29.6459   1
   3   4 -16 266.732 52.1303   1
   3  -4  16 287.415 40.5461   1
   3  -4 -16 305.750 42.8000   1
   0   5 -16 36.2405 24.5848   1
   0  -5  16 14.0447 18.4235   1
   1  -5  16 208.659 38.1312   1
   1   5 -16 290.392 46.9912   1
  -1   5 -16 235.153 47.2671   1
   1  -5 -16 231.587 31.6654   1
   2   5 -16 186.002 42.9595   1
   2  -5  16 121.385 32.2879   1
   2  -5 -16 200.906 31.7425   1
  -2   5 -16 192.723 46.9290   1
   3   5 -16 138.912 43.5177   1
   3  -5  16 191.799 34.8297   1
   3  -5 -16 250.513 37.5115   1
   0   6 -16 150.944 40.5846   1
   0  -6  16 217.630 38.2831   1
   1   6 -16 170.449 39.6005   1
   1  -6  16 120.932 33.0203   1
  -1   6 -16 140.023 41.0660   1
   2  -6  16 145.022 34.0615   1
   2   6 -16 210.682 45.0112   1
   2  -6 -16 185.666 32.0786   1
  -2   6 -16 159.901 45.5290   1
   3  -6  16 156.508 33.3084   1
   3   6 -16 110.363 43.0606   1
   3  -6 -16 144.641 30.7829   1
   0  -7  16 67.6953 28.5472   1
   0   7 -16 16.2247 24.8142   1
   1   7 -16 324.083 48.5919   1
   1  -7  16 219.102 41.2156   1
  -1   7 -16 338.671 56.6141   1
   2  -7  16 178.233 36.7267   1
   2   7 -16 198.614 46.3318   1
  -2   7 -16 253.674 52.5507   1
   0  -8  16 16.4536 21.4546   1
   0   8 -16 74.9308 36.0144   1
   1  -8  16 57.7920 28.9901   1
   1   8 -16 102.235 36.5241   1
  -1   8 -16 47.6730 30.1376   1
   2  -8  16 42.5951 23.7556   1
   2   8 -16 126.296 42.0782   1
  -2   8 -16 127.745 43.1273   1
   0   9 -16 175.822 44.0779   1
   0  -9  16 117.816 33.7837   1
   1   9 -16 358.287 56.0945   1
   1  -9  16 262.799 45.6419   1
  -1   9 -16 372.096 60.7600   1
   2  -9  16 18.6517 22.4004   1
   2   9 -16 39.9901 29.9478   1
  -2   9 -16 50.3150 33.1804   1
   0 -10  16 59.5953 29.5768   1
   0  10 -16 139.366 42.5980   1
   1  10 -16 111.543 37.6569   1
   1 -10  16 23.4099 23.9566   1
  -1  10 -16 127.963 42.6426   1
   0  11 -16 338.078 58.2401   1
   0 -11  16 285.312 46.4162   1
   1 -11  16 34.5720 24.7319   1
   1  11 -16 108.943 39.4597   1
  -1  11 -16 80.5513 39.4008   1
   0   0 -17 2.62684 17.5016   1
   1   0  17 5.08174 16.4552   1
   1   0 -17 -8.6717 15.1100   1
  -1   0 -17 -10.364 16.7426   1
   2   0 -17 -1.0875 16.5543   1
  -2   0 -17 8.40082 20.4464   1
   2   0  17 -0.8353 14.2720   1
   3   0  17 499.765 55.5325   1
  -3   0 -17 615.543 72.7352   1
   3   0 -17 586.385 65.7578   1
   0   1 -17 10.1768 18.7975   1
   0  -1 -17 16.2782 17.4084   1
  -1  -1 -17 100.435 30.4098   1
   1   1 -17 113.719 30.1697   1
   1  -1  17 48.5077 23.4121   1
  -1   1 -17 81.1490 32.4095   1
   1  -1 -17 104.614 28.9079   1
   1   1  17 91.4739 25.7090   1
  -2  -1 -17 203.833 43.2883   1
   2  -1  17 165.948 34.0983   1
   2   1 -17 257.270 41.8947   1
   2   1  17 182.357 35.8538   1
  -2   1 -17 132.348 39.1004   1
   2  -1 -17 193.861 35.9816   1
   3   1 -17 282.614 47.8794   1
   3  -1  17 260.029 39.3481   1
   3  -1 -17 244.301 43.7734   1
  -3   1 -17 290.356 51.9320   1
   0  -2 -17 352.458 44.7697   1
   0   2 -17 319.592 47.5251   1
   1  -2  17 52.0096 25.6863   1
  -1  -2 -17 70.3235 26.2339   1
   1   2 -17 108.617 30.4647   1
   1   2  17 24.9103 17.0270   1
   1  -2 -17 72.5521 25.2816   1
  -1   2 -17 35.6661 24.9774   1
   2   2 -17 466.678 56.3368   1
   2  -2  17 410.169 50.0973   1
   2  -2 -17 437.978 50.0084   1
  -2   2 -17 360.891 59.5257   1
   2   2  17 341.072 46.7097   1
   3   2 -17 106.791 36.6623   1
   3  -2  17 118.176 30.0650   1
   3  -2 -17 154.620 36.1212   1
   0  -3 -17 697.160 63.4327   1
   0   3 -17 766.811 75.5580   1
  -1  -3 -17 350.276 47.2420   1
   1  -3  17 326.707 46.7327   1
   1   3 -17 417.995 49.8252   1
  -1   3 -17 357.194 55.6098   1
   1  -3 -17 354.399 42.6156   1
   2   3 -17 308.401 49.5700   1
   2  -3  17 283.341 43.5126   1
  -2   3 -17 256.030 50.6079   1
   2  -3 -17 330.527 42.4672   1
   3  -3  17 7.34660 17.8161   1
   3   3 -17 2.40605 23.1258   1
   3  -3 -17 13.4043 18.5136   1
   0  -4 -17 65.1535 21.3398   1
   0   4 -17 74.6539 31.0926   1
   1   4 -17 553.930 63.4417   1
   1  -4  17 507.471 58.3657   1
   1  -4 -17 514.626 53.0967   1
  -1   4 -17 586.447 70.8939   1
   2   4 -17 67.5450 26.8962   1
   2  -4  17 38.4361 23.4723   1
   2  -4 -17 116.958 30.5497   1
  -2   4 -17 85.0017 37.6133   1
   3   4 -17 81.9735 36.9947   1
   3  -4 -17 83.9828 28.6598   1
   0   5 -17 634.732 70.2225   1
   0  -5  17 558.302 60.4153   1
   1   5 -17 286.526 46.6917   1
   1  -5  17 217.908 40.5310   1
   1  -5 -17 241.674 32.9583   1
  -1   5 -17 242.475 45.2540   1
   2   5 -17 487.912 62.1131   1
   2  -5  17 387.661 51.1873   1
   2  -5 -17 378.500 45.3694   1
  -2   5 -17 448.374 64.3791   1
   0   6 -17 -14.763 19.2484   1
   0  -6  17 14.8410 18.1525   1
   1   6 -17 174.759 39.8944   1
   1  -6  17 106.857 32.5843   1
  -1   6 -17 111.391 41.3451   1
   2   6 -17 383.664 57.1181   1
   2  -6  17 301.637 45.9872   1
   2  -6 -17 322.542 47.4249   1
  -2   6 -17 257.192 53.9255   1
   0   7 -17 173.194 43.1808   1
   0  -7  17 176.583 36.9612   1
   1  -7  17 394.805 53.7913   1
   1   7 -17 449.484 60.8049   1
  -1   7 -17 486.897 67.8084   1
   2  -7  17 43.7549 25.2864   1
   2   7 -17 53.3416 30.0139   1
  -2   7 -17 49.2605 31.0927   1
   0   8 -17 763.350 83.0321   1
   0  -8  17 661.178 69.1920   1
   1  -8  17 -3.8042 19.5543   1
   1   8 -17 21.1555 24.7255   1
  -1   8 -17 8.05577 25.8118   1
   2   8 -17 18.1554 24.1697   1
   2  -8  17 40.8309 25.3384   1
  -2   8 -17 31.5185 29.2374   1
   0   9 -17 327.895 56.8973   1
   0  -9  17 311.632 47.7571   1
   1  -9  17 320.113 50.2757   1
   1   9 -17 360.516 57.2431   1
  -1   9 -17 373.913 62.4006   1
   0 -10  17 364.425 51.5450   1
   0  10 -17 415.904 62.9552   1
   0   0 -18 106.050 31.1746   1
  -1   0 -18 525.238 62.4253   1
   1   0 -18 542.000 59.1056   1
   1   0  18 621.031 59.6022   1
   2   0 -18 217.951 39.3204   1
  -2   0 -18 256.790 47.3739   1
   2   0  18 164.894 35.6037   1
   0  -1 -18 364.988 48.0081   1
   0   1 -18 466.837 54.8815   1
   1   1 -18 58.0677 27.0201   1
   1  -1  18 66.0949 29.6599   1
  -1  -1 -18 63.2777 28.1727   1
   1  -1 -18 62.6466 26.6629   1
  -1   1 -18 90.7654 37.0258   1
  -2  -1 -18 114.663 36.2176   1
   2  -1  18 82.5185 29.3163   1
   2   1 -18 119.000 33.5335   1
  -2   1 -18 118.367 42.9674   1
   2   1  18 97.8098 29.7207   1
   2  -1 -18 103.713 30.1826   1
   0  -2 -18 321.535 42.4871   1
   0   2 -18 331.585 49.2582   1
   1   2 -18 288.628 44.2012   1
  -1  -2 -18 263.636 39.9717   1
   1  -2  18 185.494 37.3780   1
   1  -2 -18 238.523 37.6652   1
  -1   2 -18 193.711 43.8089   1
   2   2 -18 14.1517 21.6409   1
   2  -2  18 6.90861 18.8616   1
  -2   2 -18 38.1772 26.8868   1
   2  -2 -18 53.9612 25.7600   1
   0   3 -18 341.026 51.0158   1
   0  -3 -18 290.830 40.6976   1
   1  -3  18 181.593 36.2951   1
   1   3 -18 208.598 39.8449   1
   1  -3 -18 135.865 32.7674   1
  -1   3 -18 138.147 40.9531   1
   2   3 -18 431.164 55.3382   1
   2  -3  18 341.304 48.4542   1
  -2   3 -18 331.693 60.5371   1
   2  -3 -18 370.770 48.4601   1
   0   4 -18 133.432 37.0237   1
   1  -4  18 276.413 44.5604   1
   1   4 -18 382.513 51.8396   1
  -1   4 -18 316.441 54.8513   1
   1  -4 -18 331.104 40.9186   1
   2   4 -18 140.102 38.8158   1
   2  -4  18 117.113 34.4893   1
   2  -4 -18 154.390 31.4540   1
  -2   4 -18 114.979 42.1515   1
   0   5 -18 108.004 36.3049   1
   1  -5  18 337.577 49.2278   1
   1   5 -18 427.544 56.7551   1
  -1   5 -18 386.621 61.3188   1
   2   5 -18 177.990 38.2813   1
   2  -5  18 123.684 35.0612   1
   2  -5 -18 217.883 33.7296   1
  -2   5 -18 213.590 50.0942   1
   0   6 -18 154.372 41.5960   1
   1  -6  18 46.9151 25.6593   1
   1   6 -18 48.7019 28.8519   1
  -1   6 -18 53.6296 32.1970   1
   0   7 -18 406.324 60.3911   1
   1  -7  18 -1.4611 19.1337   1
   1   7 -18 19.5402 23.7281   1
  -1   7 -18 1.75245 25.2512   1
   0   8 -18 47.8506 29.2899   1
   1   8 -18 149.689 41.7228   1
  -1   8 -18 223.363 51.5899   1
   0   0 -19 25.0262 22.3482   1
   1   0 -19 80.6950 29.9236   1
  -1   0 -19 28.8869 25.7352   1
  -2   0 -19 71.3236 33.9134   1
   2   0 -19 61.5276 30.1635   1
   2   0  19 115.472 34.4462   1
   0   1 -19 341.886 49.4294   1
   0  -1 -19 321.661 45.3920   1
   1   1 -19 396.988 51.6574   1
  -1  -1 -19 457.776 56.6603   1
   1  -1  19 300.945 45.3040   1
  -1   1 -19 431.344 56.9589   1
   1  -1 -19 428.854 51.0233   1
   2   1 -19 227.679 41.7563   1
  -2   1 -19 128.187 43.1318   1
   2  -1 -19 229.692 39.3305   1
   0   2 -19 15.5562 21.1588   1
   0  -2 -19 26.8142 18.8093   1
   1   2 -19 101.081 32.8155   1
  -1  -2 -19 138.952 43.9463   1
   1  -2 -19 65.0968 26.9700   1
  -1   2 -19 101.791 37.2915   1
   0   3 -19 32.7701 25.2762   1
   0  -3 -19 25.4961 18.4673   1
   1  -3  19 164.716 39.2259   1
   1   3 -19 179.181 39.6056   1
  -1   3 -19 167.041 43.0959   1
   1  -3 -19 195.706 34.5045   1
   0   4 -19 8.81412 18.8017   1
   1   4 -19 178.656 39.8178   1
   1  -4  19 108.619 33.5550   1
   1  -4 -19 214.667 34.0548   1
  -1   4 -19 247.781 49.5087   1
   0   5 -19 656.939 74.6348   1
   1  -5  19 4.08968 19.7673   1
   1   5 -19 21.3913 23.9616   1
  -1   5 -19 39.6316 30.8729   1
   0   6 -19 162.988 44.3311   1
   0   0 -20 333.782 47.8057   1
   0   1 -20 409.552 54.5530   1
   0  -1 -20 401.768 50.7128   1
   0   2 -20 31.4621 24.4123   1
   0  -2 -20 13.2078 18.9196   1
   0   0   0    0.00    0.00   0

 _exptl_absorpt_process_details 'SADABS 2014/5'
 _exptl_absorpt_correction_type   numerical
 _exptl_absorpt_correction_T_max  0.3686
 _exptl_absorpt_correction_T_min  0.0769
 _exptl_special_details
)
 The following wavelength and cell were deduced by SADABS from the
 direction cosines etc. They are given here for emergency use only:
 CELL 0.71073    4.215   13.277   14.147   90.041   90.083   90.051
)
;
_shelx_hkl_checksum              21417
_shelx_shelxl_version_number     2014/7
_olex2_diffrn_ambient_temperature_device 'Oxford Cryosystems'
_olex2_exptl_crystal_mounting_method
'The crystal was mounted on a loop with paratone oil'
_olex2_submission_original_sample_id QS-II-223-4A
_olex2_submission_special_instructions 'No special instructions were received'
loop_
_space_group_symop_operation_xyz
'x, y, z'
'-x+1/2, -y, z+1/2'
'-x, y+1/2, -z+1/2'
'x+1/2, -y+1/2, -z'
loop_
_atom_site_label
_atom_site_type_symbol
_atom_site_fract_x
_atom_site_fract_y
_atom_site_fract_z
_atom_site_U_iso_or_equiv
_atom_site_adp_type
_atom_site_occupancy
_atom_site_site_symmetry_order
_atom_site_calc_flag
I1 I 0.32122(14) 0.47890(5) 0.65693(5) 0.01636(15) Uani 1 1 d
I2 I 0.03018(15) 0.36109(5) 0.41909(5) 0.01816(16) Uani 1 1 d
Br1 Br 0.6140(3) 0.73539(7) 0.29776(7) 0.0189(2) Uani 1 1 d
S1 S 0.5776(6) 0.64409(18) 0.50185(17) 0.0149(5) Uani 1 1 d
N1 N 0.3243(19) 0.5551(6) 0.3584(6) 0.0153(16) Uani 1 1 d
C1 C 0.382(2) 0.5311(7) 0.5203(7) 0.0142(19) Uani 1 1 d
C3 C 0.488(2) 0.6341(7) 0.3841(6) 0.0123(17) Uani 1 1 d
C2 C 0.267(2) 0.4972(7) 0.4370(7) 0.0130(19) Uani 1 1 d
loop_
_atom_site_aniso_label
_atom_site_aniso_U_11
_atom_site_aniso_U_22
_atom_site_aniso_U_33
_atom_site_aniso_U_23
_atom_site_aniso_U_13
_atom_site_aniso_U_12
I1 0.0144(3) 0.0209(3) 0.0138(3) 0.0048(3) 0.0003(3) 0.0003(2)
I2 0.0156(3) 0.0158(3) 0.0230(4) -0.0012(3) 0.0022(3) -0.0027(2)
Br1 0.0257(5) 0.0177(4) 0.0133(5) 0.0024(4) 0.0011(4) -0.0049(4)
S1 0.0175(11) 0.0165(10) 0.0108(11) 0.0008(10) -0.0004(9) -0.0012(9)
N1 0.017(4) 0.016(4) 0.013(4) -0.001(3) 0.002(4) -0.001(3)
C1 0.017(5) 0.015(4) 0.010(4) 0.005(4) 0.000(4) 0.001(4)
C3 0.012(4) 0.016(4) 0.008(4) 0.001(4) 0.001(4) 0.003(4)
C2 0.009(4) 0.017(4) 0.013(5) 0.003(4) 0.003(3) 0.002(3)
loop_
_atom_type_symbol
_atom_type_description
_atom_type_scat_dispersion_real
_atom_type_scat_dispersion_imag
_atom_type_scat_source
Br Br -0.2901 2.4595 'International Tables Vol C Tables 4.2.6.8 and 6.1.1.4'
C C 0.0033 0.0016 'International Tables Vol C Tables 4.2.6.8 and 6.1.1.4'
I I -0.4742 1.8119 'International Tables Vol C Tables 4.2.6.8 and 6.1.1.4'
N N 0.0061 0.0033 'International Tables Vol C Tables 4.2.6.8 and 6.1.1.4'
S S 0.1246 0.1234 'International Tables Vol C Tables 4.2.6.8 and 6.1.1.4'
loop_
_geom_angle_atom_site_label_1
_geom_angle_atom_site_label_2
_geom_angle_atom_site_label_3
_geom_angle
C3 S1 C1 88.5(5)
C3 N1 C2 108.6(8)
S1 C1 I1 119.3(5)
C2 C1 I1 131.1(7)
C2 C1 S1 109.2(7)
S1 C3 Br1 120.7(5)
N1 C3 Br1 122.7(7)
N1 C3 S1 116.6(7)
N1 C2 I2 118.3(7)
C1 C2 I2 124.6(7)
C1 C2 N1 117.0(8)
loop_
_geom_bond_atom_site_label_1
_geom_bond_atom_site_label_2
_geom_bond_distance
I1 C1 2.066(9)
I2 C2 2.080(9)
Br1 C3 1.892(9)
S1 C1 1.733(10)
S1 C3 1.710(9)
N1 C3 1.308(12)
N1 C2 1.373(12)
C1 C2 1.349(13)
loop_
_geom_torsion_atom_site_label_1
_geom_torsion_atom_site_label_2
_geom_torsion_atom_site_label_3
_geom_torsion_atom_site_label_4
_geom_torsion
I1 C1 C2 I2 -9.7(13)
I1 C1 C2 N1 173.4(7)
S1 C1 C2 I2 177.0(5)
S1 C1 C2 N1 0.1(11)
C1 S1 C3 Br1 179.1(6)
C1 S1 C3 N1 0.6(8)
C3 S1 C1 I1 -174.6(6)
C3 S1 C1 C2 -0.4(7)
C3 N1 C2 I2 -176.8(6)
C3 N1 C2 C1 0.3(12)
C2 N1 C3 Br1 -179.0(6)
C2 N1 C3 S1 -0.6(10)
loop_
_twin_individual_id
_twin_individual_mass_fraction_refined
1 0.95(3)
2 0.05(3)
