#------------------------------------------------------------------------------
#$Date: 2019-11-25 05:04:34 +0200 (Mon, 25 Nov 2019) $
#$Revision: 240070 $
#$URL: file:///home/coder/svn-repositories/cod/cif/4/12/93/4129335.cif $
#------------------------------------------------------------------------------
#
# This file is available in the Crystallography Open Database (COD),
# http://www.crystallography.net/
#
# All data on this site have been placed in the public domain by the
# contributors.
#
data_4129335
loop_
_publ_author_name
'Noda, Hidetoshi'
'Bode, Jeffrey W.'
_publ_section_title
;
 Synthesis of chemically and configurationally stable monofluoro
 acylboronates: effect of ligand structure on their formation, properties,
 and reactivities.
;
_journal_issue                   11
_journal_name_full               'Journal of the American Chemical Society'
_journal_page_first              3958
_journal_page_last               3966
_journal_paper_doi               10.1021/jacs.5b00822
_journal_volume                  137
_journal_year                    2015
_chemical_formula_moiety         'C16 H10 B Cl F N O3'
_chemical_formula_sum            'C16 H10 B Cl F N O3'
_chemical_formula_weight         329.51
_space_group_crystal_system      triclinic
_space_group_IT_number           2
_space_group_name_Hall           '-P 1'
_space_group_name_H-M_alt        'P -1'
_atom_sites_solution_hydrogens   geom
_atom_sites_solution_primary     iterative
_audit_creation_date             2014-12-18
_audit_creation_method
;
Olex2 1.2
(compiled 2014.11.28 svn.r3106 for OlexSys, GUI svn.r4959)
;
_cell_angle_alpha                75.314(4)
_cell_angle_beta                 82.752(3)
_cell_angle_gamma                63.733(4)
_cell_formula_units_Z            2
_cell_length_a                   7.4065(15)
_cell_length_b                   8.0566(17)
_cell_length_c                   13.665(3)
_cell_measurement_reflns_used    1107
_cell_measurement_temperature    100.0(2)
_cell_measurement_theta_max      26.90
_cell_measurement_theta_min      2.96
_cell_volume                     707.2(3)
_computing_cell_refinement       'Bruker SAINT'
_computing_data_collection       'Bruker APEX2'
_computing_data_reduction        'Bruker SAINT'
_computing_molecular_graphics    'Olex2 (Dolomanov et al., 2009)'
_computing_publication_material  'Olex2 (Dolomanov et al., 2009)'
_computing_structure_refinement  'XL (Sheldrick, 2008)'
_computing_structure_solution    'olex2.solve (Bourhis et al., 2015)'
_diffrn_ambient_temperature      100.0(2)
_diffrn_detector                 'Bruker APEX2 area detector'
_diffrn_detector_area_resol_mean 8.33
_diffrn_detector_type            'CCD area detector'
_diffrn_measured_fraction_theta_full 0.988
_diffrn_measured_fraction_theta_max 0.984
_diffrn_measurement_device       'kappa-stage diffractometer'
_diffrn_measurement_device_type  ETH_LOC_ApexIID8_Mo
_diffrn_measurement_method       '\w and \f scans'
_diffrn_radiation_monochromator  'focusing graphite'
_diffrn_radiation_probe          x-ray
_diffrn_radiation_type           MoK\a
_diffrn_radiation_wavelength     0.71073
_diffrn_reflns_av_R_equivalents  0.0389
_diffrn_reflns_av_unetI/netI     0.0719
_diffrn_reflns_Laue_measured_fraction_full 0.988
_diffrn_reflns_Laue_measured_fraction_max 0.984
_diffrn_reflns_limit_h_max       9
_diffrn_reflns_limit_h_min       -9
_diffrn_reflns_limit_k_max       10
_diffrn_reflns_limit_k_min       -10
_diffrn_reflns_limit_l_max       17
_diffrn_reflns_limit_l_min       -17
_diffrn_reflns_number            5608
_diffrn_reflns_point_group_measured_fraction_full 0.988
_diffrn_reflns_point_group_measured_fraction_max 0.984
_diffrn_reflns_theta_full        25.242
_diffrn_reflns_theta_max         27.405
_diffrn_reflns_theta_min         2.892
_diffrn_source                   'sealed tube'
_diffrn_standards_number         0
_exptl_absorpt_coefficient_mu    0.295
_exptl_absorpt_correction_T_max  0.7456
_exptl_absorpt_correction_T_min  0.6086
_exptl_absorpt_correction_type   multi-scan
_exptl_absorpt_process_details
;
SADABS-2012/1 (Bruker,2012) was used for absorption correction.
wR2(int) was 0.0505 before and 0.0380 after correction.
The Ratio of minimum to maximum transmission is 0.8163.
The \l/2 correction factor is 0.0015.
;
_exptl_crystal_colour            'clear light yellow'
_exptl_crystal_colour_lustre     clear
_exptl_crystal_colour_modifier   light
_exptl_crystal_colour_primary    yellow
_exptl_crystal_density_diffrn    1.547
_exptl_crystal_description       needle
_exptl_crystal_F_000             336
_exptl_crystal_size_max          0.23
_exptl_crystal_size_mid          0.09
_exptl_crystal_size_min          0.01
_refine_diff_density_max         0.994
_refine_diff_density_min         -0.354
_refine_diff_density_rms         0.077
_refine_ls_extinction_method     none
_refine_ls_goodness_of_fit_ref   1.031
_refine_ls_hydrogen_treatment    constr
_refine_ls_matrix_type           full
_refine_ls_number_parameters     208
_refine_ls_number_reflns         3180
_refine_ls_number_restraints     260
_refine_ls_restrained_S_all      0.996
_refine_ls_R_factor_all          0.1035
_refine_ls_R_factor_gt           0.0598
_refine_ls_shift/su_max          0.001
_refine_ls_shift/su_mean         0.000
_refine_ls_structure_factor_coef Fsqd
_refine_ls_weighting_details
'w=1/[\s^2^(Fo^2^)+(0.0715P)^2^+0.5699P] where P=(Fo^2^+2Fc^2^)/3'
_refine_ls_weighting_scheme      calc
_refine_ls_wR_factor_gt          0.1443
_refine_ls_wR_factor_ref         0.1626
_reflns_Friedel_coverage         0.000
_reflns_number_gt                2031
_reflns_number_total             3180
_reflns_threshold_expression     'I > 2\s(I)'
_cod_data_source_file            ja5b00822_si_008.cif
_cod_data_source_block           mo_jb131214_1_1_0m
_cod_database_code               4129335
_shelxl_version_number           2014/6
_shelx_space_group_comment
;
The symmetry employed for this shelxl refinement is uniquely defined
by the following loop, which should always be used as a source of
symmetry information in preference to the above space-group names.
They are only intended as comments.
;
_olex2_refinement_description
;
1. Fixed Uiso
 At 1.2 times of:
  All C(H) groups
2. Rigid bond restraints
 All non-hydrogen atoms
 with sigma for 1-2 distances of 0.01 and sigma for 1-3 distances of 0.01
3. Rigid body (RIGU) restrains
 All non-hydrogen atoms
 with sigma for 1-2 distances of 0.004 and sigma for 1-3 distances of 0.004
4.a Aromatic/amide H refined with riding coordinates:
 C9(H9), C10(H10), C13(H13), C14(H14), C15(H15), C16(H16), C18(H18), C19(H19),
 C21(H21), C23(H23)
;
_shelx_res_file
;
TITL
CELL 0.71073 7.4065 8.0566 13.6648 75.314 82.752 63.733
ZERR 2 0.0015 0.0017 0.0027 0.004 0.003 0.004
LATT 1
SFAC C H B Cl F N O
UNIT 32 20 2 2 2 2 6
DELU
RIGU

L.S. 7
PLAN  20
TEMP -173.1(2)
fmap 2
acta
MORE -1
BOND $H
CONF
REM <olex2.extras>
REM <HklSrc "%.\\mo_jb131214_1_1_0m.hkl">
REM </olex2.extras>

WGHT    0.071500    0.569900
FVAR       0.21666
CL1   4    0.624274   -0.419649    1.138982    11.00000    0.04001    0.04737 =
         0.02259    0.00114   -0.00005   -0.02139
F1    5    1.174112   -0.014161    0.789550    11.00000    0.02326    0.04228 =
         0.03420    0.00244   -0.00907   -0.01454
O3    7    1.079983    0.108935    0.623690    11.00000    0.01505    0.01636 =
         0.02079   -0.00044   -0.00258   -0.00075
O4    7    0.919321    0.293393    0.751989    11.00000    0.02792    0.02692 =
         0.02156   -0.00564   -0.00508   -0.01200
N1    6    0.957631    0.252574    0.552005    11.00000    0.01499    0.01691 =
         0.02183   -0.00083   -0.00277   -0.00724
O5    7    0.716883    0.071739    0.678866    11.00000    0.02282    0.03269 =
         0.02523    0.00298   -0.00974   -0.01481
C7    1    0.817441    0.419400    0.578050    11.00000    0.00942    0.01272 =
         0.02235   -0.00539    0.00150   -0.00587
C8    1    0.800106    0.436324    0.678647    11.00000    0.01468    0.01692 =
         0.01849   -0.00302    0.00002   -0.01170
C9    1    0.984543    0.231308    0.456472    11.00000    0.01634    0.01965 =
         0.02281   -0.00968    0.00202   -0.00944
AFIX  43
H9    2    1.083724    0.116164    0.440946    11.00000   -1.20000
AFIX   0
C10   1    0.726175    0.545619    0.400456    11.00000    0.01837    0.02044 =
         0.02257    0.00026   -0.00556   -0.01102
AFIX  43
H10   2    0.647714    0.645006    0.347528    11.00000   -1.20000
AFIX   0
C11   1    0.775843   -0.077576    0.851099    11.00000    0.01641    0.01814 =
         0.02271   -0.00611   -0.00480   -0.00411
C12   1    0.696800    0.571478    0.500813    11.00000    0.01018    0.01434 =
         0.02537   -0.00189   -0.00336   -0.00590
C13   1    0.558383    0.740258    0.529279    11.00000    0.01312    0.01655 =
         0.03280   -0.00362   -0.00214   -0.00558
AFIX  43
H13   2    0.474588    0.844673    0.479994    11.00000   -1.20000
AFIX   0
C14   1    0.866837    0.378388    0.379427    11.00000    0.02258    0.02479 =
         0.01940   -0.00502   -0.00117   -0.01346
AFIX  43
H14   2    0.884993    0.361690    0.311930    11.00000   -1.20000
AFIX   0
C15   1    0.665257    0.602342    0.702820    11.00000    0.02443    0.02689 =
         0.02436   -0.00960    0.00544   -0.01398
AFIX  43
H15   2    0.652907    0.615536    0.770796    11.00000   -1.20000
AFIX   0
C16   1    0.544837    0.753536    0.628296    11.00000    0.01588    0.01976 =
         0.03585   -0.01079    0.00430   -0.00619
AFIX  43
H16   2    0.451443    0.868152    0.646662    11.00000   -1.20000
AFIX   0
C17   1    0.824764    0.028220    0.751465    11.00000    0.02044    0.01732 =
         0.02689   -0.00476   -0.00613   -0.00579
C18   1    0.905620   -0.158794    0.933610    11.00000    0.02253    0.03320 =
         0.02822   -0.00272   -0.00748   -0.01314
AFIX  43
H18   2    1.025996   -0.142257    0.928630    11.00000   -1.20000
AFIX   0
C19   1    0.548910   -0.201884    0.949895    11.00000    0.02234    0.02866 =
         0.02226   -0.00851   -0.00115   -0.01036
AFIX  43
H19   2    0.426620   -0.215421    0.956303    11.00000   -1.20000
AFIX   0
C20   1    0.683902   -0.286161    1.028655    11.00000    0.02827    0.02519 =
         0.01635   -0.00393   -0.00018   -0.00994
C21   1    0.595371   -0.097850    0.861910    11.00000    0.02066    0.02396 =
         0.01815   -0.00562   -0.00439   -0.00747
AFIX  43
H21   2    0.503310   -0.038875    0.807656    11.00000   -1.20000
AFIX   0
B22   3    1.004038    0.100645    0.732721    11.00000    0.01839    0.02601 =
         0.02479   -0.00497   -0.00487   -0.00625
C23   1    0.859650   -0.263774    1.023052    11.00000    0.02908    0.03810 =
         0.02389   -0.00148   -0.00751   -0.01456
AFIX  43
H23   2    0.947556   -0.318730    1.078962    11.00000   -1.20000
AFIX   0
HKLF 4

REM
REM R1 =  0.0598 for    2031 Fo > 4sig(Fo)  and  0.1035 for all    3180 data
REM    208 parameters refined using    260 restraints

END

WGHT      0.0715      0.5699

REM Highest difference peak  0.994,  deepest hole -0.354,  1-sigma level  0.077
Q1    1   1.1383  0.2376  0.7551  11.00000  0.05    0.99
Q2    1   0.9231  0.1040  0.8026  11.00000  0.05    0.80
Q3    1   0.8338  0.4338  0.6315  11.00000  0.05    0.44
Q4    1   0.9225  0.0592  0.7310  11.00000  0.05    0.42
Q5    1   1.0064  0.2146  0.7095  11.00000  0.05    0.42
Q6    1   0.7198 -0.1423  0.8525  11.00000  0.05    0.37
Q7    1   0.6417 -0.3366  1.0701  11.00000  0.05    0.37
Q8    1   0.9994 -0.0219  0.7800  11.00000  0.05    0.35
Q9    1   0.7715  0.5173  0.6788  11.00000  0.05    0.34
Q10   1   0.5178  0.7313  0.5814  11.00000  0.05    0.32
Q11   1   1.2254  0.1086  0.7308  11.00000  0.05    0.31
Q12   1   0.7468  0.4234  0.6560  11.00000  0.05    0.31
Q13   1   0.7969 -0.3379  1.0192  11.00000  0.05    0.31
Q14   1   0.8171  0.3863  0.7032  11.00000  0.05    0.29
Q15   1   0.5697 -0.4936  1.1410  11.00000  0.05    0.29
Q16   1   1.1756 -0.1589  0.8315  11.00000  0.05    0.29
Q17   1   0.7425 -0.2426  1.0405  11.00000  0.05    0.29
Q18   1   0.7822  0.0398  0.8037  11.00000  0.05    0.28
Q19   1   0.7450  0.5043  0.5427  11.00000  0.05    0.28
Q20   1   0.7313  0.5570  0.4528  11.00000  0.05    0.28
;
_shelx_res_checksum              12162
_shelx_hkl_file
;
  -1   0   0   24.18    0.54
  -1   0   0   25.17    0.68
  -2   0   0    0.17    0.31
  -2   0   0    0.32    0.20
  -3   0   0    0.49    0.27
  -3   0   0    0.80    0.40
  -4   0   0    9.12    0.54
  -4   0   0    9.41    0.69
  -5   0   0    1.26    0.34
  -5   0   0    1.57    0.53
  -6   0   0    0.76    0.40
  -7   0   0    0.02    0.45
  -8   0   0    3.65    0.62
  -8   1   0    3.64    0.66
  -7   1   0   -0.04    0.47
  -6   1   0    9.79    0.69
  -6   1   0   12.13    1.03
  -5   1   0   -0.18    0.37
  -5   1   0    0.39    0.57
  -4   1   0    1.70    0.35
  -4   1   0    2.23    0.52
  -3   1   0    1.00    0.44
  -3   1   0    0.84    0.29
  -2   1   0   29.19    0.95
  -2   1   0   29.83    0.77
  -1   1   0  191.49    4.61
  -1   1   0  200.50    3.69
   0  -1   0    0.15    0.11
   0   1   0    0.27    0.12
   0   1   0    0.58    0.18
  -1  -1   0   -1.14    0.12
   1   1   0   -1.30    0.14
   2   1   0  254.64    4.55
  -4  -1   0   33.93    0.90
  -5  -1   0    0.60    0.31
  -6  -1   0    2.88    0.44
  -7  -1   0    2.34    0.47
  -8  -1   0    1.44    0.48
  -7   2   0    2.21    0.98
  -6   2   0    2.88    0.56
  -6   2   0    3.65    0.88
  -5   2   0   17.33    1.14
  -5   2   0   17.03    0.92
  -4   2   0    9.61    0.85
  -4   2   0   10.15    0.69
  -3   2   0    5.14    0.41
  -3   2   0    5.34    0.55
  -2   2   0    0.39    0.40
  -1   2   0   10.98    0.62
   0  -2   0    1.29    0.21
   0   2   0    1.35    0.21
   0   2   0    1.79    0.34
  -1  -2   0    0.13    0.20
   1   2   0   -0.04    0.22
  -2  -2   0 1000.00   17.70
   2   2   0  989.97   17.72
  -3  -2   0   38.99    0.80
   3   2   0   36.08    0.82
   4   2   0    6.54    0.37
  -6  -2   0    2.48    0.40
  -7  -2   0    0.41    0.39
  -8  -2   0    3.40    0.54
  -9  -2   0    1.45    0.54
  -6   3   0   20.45    1.51
  -5   3   0    1.49    0.77
  -4   3   0   14.96    1.06
  -3   3   0    1.18    0.54
  -2   3   0   36.51    1.26
   1  -3   0    8.00    0.41
  -1   3   0    7.64    0.69
   0  -3   0    3.43    0.28
   0   3   0    3.85    0.48
   0   3   0    3.12    0.28
  -1  -3   0    0.10    0.24
   1   3   0    0.04    0.25
  -2  -3   0    1.99    0.27
   2   3   0    2.02    0.28
  -3  -3   0   65.42    1.33
   3   3   0   65.54    1.35
  -4  -3   0  137.37    2.55
   4   3   0  135.03    2.58
   5   3   0    0.24    0.25
   6   3   0   10.31    0.52
  -7  -3   0   10.39    0.74
   7   3   0   10.71    0.56
  -8  -3   0    0.70    0.45
  -9  -3   0    0.69    0.53
  -6   4   0    5.07    1.11
  -5   4   0    0.20    0.89
  -4   4   0    0.41    0.67
  -3   4   0   11.26    1.03
   2  -4   0   13.00    0.53
  -2   4   0   13.54    0.94
   1  -4   0    5.75    0.45
  -1   4   0    7.43    0.65
   0  -4   0    0.50    0.29
   0   4   0    0.36    0.44
   0   4   0    0.27    0.26
  -1  -4   0   19.88    0.64
   1   4   0   20.36    0.65
  -2  -4   0    6.52    0.47
   2   4   0    5.95    0.48
  -3  -4   0    1.74    0.29
   3   4   0    1.65    0.31
  -4  -4   0   63.25    1.33
   4   4   0   63.65    1.37
  -5  -4   0    0.70    0.25
   5   4   0    0.40    0.30
   6   4   0    0.38    0.32
   7   4   0    0.77    0.36
  -8  -4   0    1.72    0.49
   8   4   0    2.32    0.42
  -9  -4   0    0.33    0.49
  -5   5   0    2.87    1.14
  -4   5   0    3.41    0.89
  -3   5   0    2.04    0.78
   2  -5   0   26.01    0.81
  -2   5   0   26.87    1.33
   1  -5   0    2.37    0.37
  -1   5   0    2.87    0.63
   0  -5   0    1.93    0.36
   0   5   0    1.84    0.32
   0   5   0    1.97    0.54
  -1  -5   0   10.43    0.59
   1   5   0   10.08    0.55
  -2  -5   0   12.49    0.61
   2   5   0   12.85    0.61
  -3  -5   0    9.04    0.54
   3   5   0    9.15    0.57
  -4  -5   0    1.72    0.32
   4   5   0    1.68    0.35
  -5  -5   0   16.98    0.64
   5   5   0   17.43    0.70
  -6  -5   0   54.09    1.24
   6   5   0   53.10    1.32
   7   5   0    2.95    0.47
   8   5   0    0.15    0.42
  -9  -5   0    4.65    0.63
   9   5   0    5.50    0.59
  -4   6   0    1.40    1.00
   3  -6   0    2.44    0.44
  -3   6   0    2.92    0.94
   2  -6   0   -0.06    0.39
  -2   6   0    0.99    0.78
   1  -6   0    1.12    0.42
  -1   6   0    1.47    0.70
   0  -6   0   62.89    1.48
   0   6   0   62.84    2.08
   0   6   0   62.72    1.40
  -1  -6   0   17.54    0.79
   1   6   0   17.59    1.11
   1   6   0   16.82    0.73
  -2  -6   0   -0.32    0.37
   2   6   0    0.46    0.37
  -3  -6   0   15.44    0.73
   3   6   0   14.44    0.72
  -4  -6   0    0.59    0.37
   4   6   0    0.06    0.38
  -5  -6   0    8.63    0.60
   5   6   0    7.94    0.69
  -6  -6   0    2.92    0.42
   6   6   0    2.03    0.47
   7   6   0    0.37    0.45
   8   6   0    5.39    0.60
   9   6   0    0.63    0.52
   3  -7   0    1.23    0.48
  -3   7   0    2.61    1.13
   2  -7   0    0.05    0.45
  -2   7   0    0.46    0.95
   1  -7   0    1.45    0.48
  -1   7   0    1.88    0.85
   0  -7   0   10.04    0.80
   0   7   0    8.45    1.00
  -1  -7   0    3.99    0.53
   1   7   0    3.24    0.82
   1   7   0    3.12    0.48
  -2  -7   0    6.60    0.57
   2   7   0    5.73    0.54
  -3  -7   0    2.77    0.50
   3   7   0    2.95    0.51
  -4  -7   0   26.53    0.98
   4   7   0   26.95    1.01
  -5  -7   0    0.32    0.41
   5   7   0    0.91    0.49
  -6  -7   0    2.12    0.44
   6   7   0    2.70    0.54
   7   7   0    3.25    0.57
   8   7   0    8.12    0.70
   9   7   0    7.23    0.74
   2  -8   0    0.35    0.52
   1  -8   0    0.66    0.53
  -1   8   0    0.35    1.01
   0  -8   0   -0.76    0.51
   0   8   0    0.98    0.95
  -1  -8   0    3.40    0.59
   1   8   0    4.76    0.98
  -2  -8   0   32.97    1.20
   2   8   0   31.97    1.12
   2   8   0   33.02    1.76
  -3  -8   0    1.43    0.55
   3   8   0    2.22    0.55
  -4  -8   0    7.92    0.67
   4   8   0    8.38    0.70
  -5  -8   0    3.18    0.56
   5   8   0    1.49    0.58
  -6  -8   0    1.31    0.52
   6   8   0    1.06    0.57
   7   8   0    4.00    0.64
   8   8   0    0.47    0.60
   0  -9   0    0.55    0.58
   0   9   0    2.09    1.12
  -1  -9   0    0.81    0.59
   1   9   0    2.62    1.13
  -2  -9   0    0.34    0.60
   2   9   0    0.52    1.04
  -3  -9   0    1.55    0.62
   3   9   0    1.16    0.56
   3   9   0   -1.58    1.05
  -4  -9   0    3.60    0.67
   4   9   0    2.19    0.62
  -5  -9   0    0.77    0.60
   5   9   0    1.15    0.65
  -6  -9   0    4.87    0.66
   6   9   0    6.21    0.78
   7   9   0    0.87    0.69
  -3 -10   0    1.18    0.72
   3  10   0    0.04    1.18
  -4 -10   0   12.25    0.92
   4  10   0    9.48    0.82
   4  10   0    5.99    1.40
  -5 -10   0   -1.05    0.66
   5  10   0    1.85    0.71
   7   9  -1    0.22    0.69
   6   9  -1   -0.24    0.67
  -6  -9   1   -0.53    0.55
   5   9  -1    0.11    0.63
  -5  -9   1    0.84    0.63
   4   9  -1   23.52    1.21
  -4  -9   1   25.80    1.27
   3   9  -1   -0.67    1.07
   3   9  -1    0.85    0.58
  -3  -9   1   -0.18    0.60
   2   9  -1    1.81    1.09
  -2  -9   1    0.72    0.62
   1   9  -1    0.36    1.07
  -1  -9   1    0.61    0.62
   8   8  -1    0.25    0.59
   7   8  -1    4.51    0.67
   6   8  -1    1.16    0.58
  -6  -8   1    2.15    0.52
   5   8  -1    1.25    0.58
  -5  -8   1    0.37    0.51
   4   8  -1    2.14    0.58
  -4  -8   1    0.31    0.54
   3   8  -1    0.00    0.52
  -3  -8   1    0.80    0.53
   2   8  -1   32.71    1.14
   2   8  -1   31.89    1.77
  -2  -8   1   32.80    1.21
   1   8  -1    1.94    0.95
  -1  -8   1    1.07    0.54
   0   8  -1    3.92    1.05
   0  -8   1    2.04    0.58
  -1   8  -1    6.44    1.16
   1  -8   1    3.59    0.59
   8   7  -1   15.86    1.01
   7   7  -1   -0.28    0.51
   6   7  -1    2.75    0.55
  -6  -7   1    2.85    0.46
   5   7  -1    0.51    0.49
  -5  -7   1    0.45    0.43
   4   7  -1    0.86    0.48
  -4  -7   1    0.42    0.46
   3   7  -1    3.24    0.53
  -3  -7   1    4.14    0.53
   2   7  -1   22.33    0.94
   2   7  -1   21.97    1.39
  -2  -7   1   21.74    0.97
   1   7  -1    2.76    0.47
   1   7  -1    3.48    0.87
  -1  -7   1    2.93    0.52
   0   7  -1    0.05    0.82
   0  -7   1   -0.24    0.46
  -1   7  -1    3.32    0.93
   1  -7   1    2.71    0.52
  -2   7  -1    0.60    0.96
   2  -7   1    0.60    0.46
  -3   7  -1    2.54    1.16
   3  -7   1    2.35    0.51
   9   6  -1    2.62    0.59
   8   6  -1   11.32    0.88
   7   6  -1    2.09    0.49
   6   6  -1    5.76    0.55
  -6  -6   1    5.35    0.47
   5   6  -1   27.48    0.96
  -5  -6   1   26.82    0.89
   4   6  -1   10.16    0.70
  -4  -6   1   11.58    0.66
   3   6  -1    2.73    0.44
  -3  -6   1    2.84    0.44
   2   6  -1    0.19    0.39
  -2  -6   1    0.28    0.40
   1   6  -1    2.97    0.43
   1   6  -1    2.72    0.70
  -1  -6   1    2.70    0.45
   0   6  -1   36.23    1.54
   0   6  -1   35.70    0.98
   0  -6   1   35.67    1.07
  -1   6  -1   18.54    1.28
   1  -6   1   21.42    0.85
  -2   6  -1    4.06    0.91
   2  -6   1    4.10    0.48
  -3   6  -1    0.52    0.91
   3  -6   1    0.55    0.42
  -4   6  -1    1.50    1.04
   9   5  -1    0.17    0.48
  -9  -5   1   -0.40    0.48
   8   5  -1    3.13    0.51
   7   5  -1    0.02    0.40
   6   5  -1   43.65    1.19
  -6  -5   1   46.05    1.14
   5   5  -1    2.09    0.38
  -5  -5   1    2.01    0.34
   4   5  -1    0.10    0.32
  -4  -5   1   -0.08    0.29
   3   5  -1    5.13    0.42
  -3  -5   1    6.13    0.43
   2   5  -1   16.17    0.66
  -2  -5   1   16.53    0.66
   1   5  -1   22.52    1.05
   1   5  -1   22.24    0.73
  -1  -5   1   22.54    0.76
   0   5  -1    9.76    0.85
   0   5  -1    9.64    0.54
   0  -5   1    9.62    0.60
  -1   5  -1    0.10    0.55
   1  -5   1    1.44    0.37
  -2   5  -1   10.92    1.10
   2  -5   1   11.15    0.63
  -3   5  -1    0.05    0.74
  -4   5  -1    0.68    0.84
  -5   5  -1    1.23    1.08
   9   4  -1    0.21    0.42
  -9  -4   1    0.92    0.48
   8   4  -1    1.63    0.42
  -8  -4   1    1.12    0.46
   7   4  -1    3.79    0.43
   6   4  -1   19.84    0.74
   5   4  -1    8.10    0.53
  -5  -4   1    7.57    0.44
   4   4  -1   36.29    0.91
  -4  -4   1   34.04    0.86
   3   4  -1   18.80    0.64
  -3  -4   1   18.71    0.61
   2   4  -1   15.68    0.60
  -2  -4   1   15.54    0.59
   1   4  -1    8.31    0.50
  -1  -4   1    7.96    0.51
   0   4  -1    0.44    0.26
   0   4  -1    0.20    0.45
   0  -4   1    0.62    0.30
  -1   4  -1   -0.15    0.46
   1  -4   1    0.55    0.29
  -2   4  -1   32.32    1.32
   2  -4   1   31.90    0.84
  -3   4  -1   50.61    1.81
  -4   4  -1   -0.10    0.67
  -5   4  -1   -1.13    0.83
  -6   4  -1    0.29    1.02
  -9  -3   1   -0.62    0.46
  -8  -3   1   -0.14    0.40
   7   3  -1    1.19    0.33
  -7  -3   1    0.92    0.40
   6   3  -1   -0.01    0.28
   5   3  -1    1.61    0.29
   4   3  -1  112.99    2.20
  -4  -3   1  113.36    2.15
   3   3  -1    0.92    0.28
  -3  -3   1    0.96    0.24
   2   3  -1    1.69    0.28
  -2  -3   1    1.65    0.27
   1   3  -1    4.35    0.32
  -1  -3   1    4.19    0.31
   0   3  -1   15.98    0.53
   0   3  -1   16.18    0.78
   0  -3   1   15.38    0.54
  -1   3  -1   11.98    0.75
   1  -3   1   12.50    0.48
  -2   3  -1   13.59    0.83
  -3   3  -1   -0.38    0.53
  -4   3  -1   34.90    1.47
  -5   3  -1    5.51    0.89
  -6   3  -1    1.13    0.93
  -9  -2   1    0.64    0.50
  -8  -2   1    1.26    0.47
  -7  -2   1    5.60    0.52
  -6  -2   1    0.84    0.34
   4   2  -1    5.38    0.36
   3   2  -1   10.36    0.43
  -3  -2   1   10.68    0.38
   2   2  -1  132.31    2.36
  -2  -2   1  121.12    2.34
   1   2  -1   16.12    0.49
  -1  -2   1   16.36    0.47
   0   2  -1    7.27    0.51
   0   2  -1    7.22    0.36
   0  -2   1    7.48    0.36
  -1   2  -1   22.07    0.82
   1  -2   1   20.66    0.54
  -2   2  -1    6.69    0.65
  -2   2  -1    6.15    0.50
  -3   2  -1    2.27    0.48
  -3   2  -1    1.99    0.35
  -4   2  -1    1.45    0.59
  -4   2  -1   -0.14    0.36
  -5   2  -1   57.57    1.97
  -5   2  -1   58.59    1.59
  -6   2  -1    9.08    0.73
  -6   2  -1    8.65    1.02
  -7   2  -1    2.96    1.02
  -8  -1   1    2.08    0.53
  -7  -1   1    0.45    0.41
  -6  -1   1    0.86    0.37
  -5  -1   1    5.18    0.42
  -4  -1   1    5.33    0.44
  -2  -1   1  209.13    3.75
   1   1  -1   60.29    1.16
  -1  -1   1   62.36    1.16
   0   1  -1    1.17    0.16
   0   1  -1    1.56    0.24
   0  -1   1    1.36    0.16
  -1   1  -1    2.70    0.30
  -1   1  -1    2.64    0.23
  -2   1  -1   28.11    0.95
  -2   1  -1   29.16    0.76
  -3   1  -1   14.01    0.59
  -3   1  -1   14.01    0.73
  -4   1  -1    5.93    0.63
  -4   1  -1    4.91    0.43
  -5   1  -1    1.44    0.42
  -5   1  -1    1.34    0.61
  -6   1  -1    7.68    0.64
  -6   1  -1    8.40    0.92
  -7   1  -1   14.53    0.97
  -8   1  -1    0.19    0.57
  -8   0   1   -0.07    0.49
  -7   0   1    0.39    0.45
  -6   0   1    1.90    0.42
  -5   0   1   22.58    0.80
  -5   0   1   21.41    1.04
  -4   0   1   31.79    0.88
  -4   0   1   31.83    1.12
  -3   0   1   10.13    0.61
  -3   0   1   10.30    0.49
  -2   0   1    0.60    0.20
  -2   0   1    0.65    0.30
  -1   0   1    5.21    0.30
  -1   0   1    4.83    0.23
  -1   0  -1  135.82    3.20
  -1   0  -1  135.91    2.56
  -2   0  -1    4.57    0.41
  -2   0  -1    4.08    0.28
  -3   0  -1    2.80    0.46
  -3   0  -1    2.30    0.30
  -4   0  -1   23.84    0.98
  -4   0  -1   25.46    0.80
  -5   0  -1    3.43    0.59
  -5   0  -1    3.08    0.41
  -6   0  -1    0.02    0.38
  -7   0  -1    6.59    0.62
  -8   0  -1    6.99    0.72
  -8   1   1    0.23    0.55
  -7   1   1    1.93    0.54
  -6   1   1    0.95    0.70
  -6   1   1    1.57    0.46
  -5   1   1    1.45    0.40
  -5   1   1    1.68    0.60
  -4   1   1    4.86    0.58
  -4   1   1    4.97    0.41
  -3   1   1    0.94    0.29
  -3   1   1    0.51    0.43
  -2   1   1   66.28    1.76
  -2   1   1   67.66    1.41
  -1   1   1  312.29    7.33
   0  -1  -1   92.95    1.76
   0   1   1   98.14    1.76
  -1  -1  -1   14.32    0.36
   1   1   1   14.36    0.36
   2   1   1    6.42    0.28
  -4  -1  -1    1.08    0.29
  -5  -1  -1    0.41    0.30
  -6  -1  -1    1.25    0.40
  -7  -1  -1    6.72    0.60
  -8  -1  -1   10.31    0.76
  -7   2   1    0.22    0.93
  -6   2   1    0.65    0.80
  -5   2   1    1.99    0.48
  -5   2   1    3.33    0.72
  -4   2   1    4.55    0.46
  -4   2   1    4.14    0.66
  -3   2   1   15.14    0.82
  -2   2   1   13.13    0.72
  -1   2   1    5.77    0.48
   0  -2  -1   15.22    0.43
   0   2   1   15.46    0.44
   0   2   1   15.59    0.62
  -1  -2  -1   24.68    0.60
   1   2   1   24.90    0.60
  -2  -2  -1  170.07    3.08
   2   2   1  167.21    3.08
  -3  -2  -1  166.29    3.03
   3   2   1  166.22    3.05
   4   2   1    7.79    0.37
  -6  -2  -1   12.78    0.72
  -7  -2  -1    0.59    0.41
  -8  -2  -1   -0.36    0.45
  -9  -2  -1    4.01    0.64
  -7   3   1    1.09    1.03
  -6   3   1    3.76    0.95
  -5   3   1    1.53    0.78
  -4   3   1    1.61    0.64
  -3   3   1    6.42    0.68
  -2   3   1   25.76    1.05
   1  -3  -1    0.14    0.22
  -1   3   1   -0.12    0.43
   0  -3  -1   34.42    0.80
   0   3   1   34.80    0.79
   0   3   1   35.95    1.13
  -1  -3  -1    6.05    0.39
   1   3   1    6.35    0.41
  -2  -3  -1    5.08    0.39
   2   3   1    5.36    0.41
  -3  -3  -1    2.56    0.27
   3   3   1    3.02    0.30
  -4  -3  -1   55.12    1.15
   4   3   1   57.49    1.20
   5   3   1    2.63    0.29
   6   3   1    0.19    0.28
  -7  -3  -1    6.82    0.58
  -8  -3  -1    1.67    0.49
  -9  -3  -1    1.57    0.56
  -6   4   1    0.28    0.95
  -5   4   1    6.53    1.10
  -4   4   1    1.68    0.72
  -3   4   1    1.39    0.65
   2  -4  -1    1.52    0.28
  -2   4   1    2.17    0.58
   1  -4  -1   15.78    0.55
  -1   4   1   15.43    0.87
   0  -4  -1    0.58    0.28
   0   4   1    1.43    0.48
   0   4   1    1.42    0.27
  -1  -4  -1   24.95    0.72
   1   4   1   26.32    0.72
  -2  -4  -1    1.58    0.30
   2   4   1    1.63    0.31
  -3  -4  -1    0.30    0.27
   3   4   1    0.38    0.28
  -4  -4  -1   30.29    0.78
   4   4   1   31.08    0.83
  -5  -4  -1   99.74    1.96
   5   4   1  100.20    2.02
   6   4   1   11.88    0.60
   7   4   1    3.08    0.41
   8   4   1    3.42    0.45
  -9  -4  -1    0.47    0.52
  -5   5   1    1.90    1.11
  -4   5   1    0.93    0.80
  -3   5   1   -0.18    0.71
  -2   5   1    2.91    0.70
   1  -5  -1    0.87    0.33
  -1   5   1    0.75    0.54
   0  -5  -1    9.38    0.56
   0   5   1    8.75    0.83
   0   5   1    9.49    0.50
  -1  -5  -1    0.94    0.32
   1   5   1    1.01    0.31
  -2  -5  -1    2.27    0.35
   2   5   1    2.64    0.35
  -3  -5  -1    6.43    0.51
   3   5   1    6.44    0.52
  -4  -5  -1   13.07    0.56
   4   5   1   12.26    0.61
  -5  -5  -1    0.35    0.28
   5   5   1   -0.18    0.34
  -6  -5  -1   26.55    0.79
   6   5   1   27.45    0.90
   7   5   1   12.76    0.73
   8   5   1    1.32    0.45
  -9  -5  -1    6.81    0.70
   9   5   1    6.18    0.60
  -4   6   1    7.32    1.20
  -3   6   1    1.48    0.90
   2  -6  -1    0.68    0.40
  -2   6   1    0.81    0.74
   1  -6  -1    0.62    0.40
  -1   6   1    0.48    0.66
   0  -6  -1    0.34    0.39
   0   6   1   -0.46    0.58
   0   6   1    0.22    0.32
  -1  -6  -1    2.62    0.42
   1   6   1    2.53    0.65
   1   6   1    2.36    0.40
  -2  -6  -1    0.18    0.37
   2   6   1    0.58    0.37
  -3  -6  -1   11.63    0.66
   3   6   1   10.33    0.67
  -4  -6  -1    1.16    0.35
   4   6   1    0.78    0.38
  -5  -6  -1    1.64    0.37
   5   6   1    1.67    0.41
  -6  -6  -1    1.07    0.38
   6   6   1    1.60    0.43
   7   6   1   17.61    0.86
   8   6   1    7.84    0.64
   9   6   1    3.43    0.59
   3  -7  -1    1.60    0.47
  -3   7   1    0.63    1.05
   2  -7  -1    0.69    0.47
  -2   7   1    2.11    0.93
   1  -7  -1    3.71    0.52
  -1   7   1    3.10    0.83
   0  -7  -1    1.15    0.47
   0   7   1   -0.02    0.78
  -1  -7  -1    1.41    0.47
   1   7   1    1.37    0.42
   1   7   1    1.86    0.74
  -2  -7  -1    5.97    0.55
   2   7   1    6.72    0.54
  -3  -7  -1   -0.35    0.43
   3   7   1   -0.03    0.44
  -4  -7  -1    2.64    0.47
   4   7   1    2.95    0.50
  -5  -7  -1    4.02    0.50
   5   7   1    5.04    0.56
  -6  -7  -1    4.08    0.51
   6   7   1    3.50    0.54
   7   7   1    0.70    0.50
   8   7   1   22.99    1.08
   9   7   1    5.66    0.70
   2  -8  -1   11.26    0.89
  -2   8   1    9.75    1.34
   1  -8  -1    0.10    0.50
  -1   8   1    0.73    0.97
   0  -8  -1   -0.12    0.52
   0   8   1    2.71    0.96
  -1  -8  -1    0.87    0.53
   1   8   1    0.33    0.86
  -2  -8  -1    0.94    0.52
   2   8   1    0.96    0.89
   2   8   1    1.92    0.51
  -3  -8  -1    5.08    0.61
   3   8   1    5.87    0.61
  -4  -8  -1    4.17    0.57
   4   8   1    4.37    0.61
  -5  -8  -1    3.99    0.56
   5   8   1    3.73    0.61
  -6  -8  -1   -0.32    0.46
   6   8   1    0.01    0.54
   7   8   1    0.23    0.56
   8   8   1    1.13    0.59
   0  -9  -1    4.41    0.65
   0   9   1    7.55    1.26
  -1  -9  -1    0.23    0.58
   1   9   1    2.31    1.11
  -2  -9  -1    2.00    0.62
   2   9   1    3.61    1.10
  -3  -9  -1    0.56    0.57
   3   9   1   -0.89    1.06
   3   9   1    0.82    0.56
  -4  -9  -1    1.28    0.61
   4   9   1   -0.35    0.57
  -5  -9  -1    1.73    0.62
   5   9   1    2.29    0.66
  -6  -9  -1   -0.24    0.56
   6   9   1    0.72    0.64
   7   9   1   -0.17    0.65
  -3 -10  -1    0.76    0.67
   3  10   1   -1.15    1.17
  -4 -10  -1   -0.38    0.69
   4  10   1    0.68    0.62
  -5 -10  -1    3.64    0.75
   5  10   1    3.42    0.75
   6   9  -2    1.73    0.75
  -6  -9   2    1.32    0.63
   5   9  -2    1.82    0.69
  -5  -9   2    2.37    0.67
   4   9  -2    4.19    0.71
  -4  -9   2    6.51    0.77
   3   9  -2   10.16    0.78
   3   9  -2    9.48    1.28
  -3  -9   2    9.41    0.81
   2   9  -2    2.67    1.05
  -2  -9   2    0.61    0.63
   1   9  -2    1.22    1.08
  -1  -9   2   -0.56    0.60
   8   8  -2    0.18    0.64
   7   8  -2    2.05    0.68
   6   8  -2    0.76    0.61
  -6  -8   2    1.16    0.52
   5   8  -2    1.38    0.61
  -5  -8   2    1.05    0.56
   4   8  -2    2.26    0.61
  -4  -8   2    2.48    0.58
   3   8  -2   -0.42    0.95
   3   8  -2    3.12    0.59
  -3  -8   2    2.41    0.57
   2   8  -2    2.10    0.93
   2   8  -2    0.10    0.52
  -2  -8   2    0.16    0.55
   1   8  -2    4.11    1.05
  -1  -8   2    3.78    0.61
   0   8  -2    2.00    1.02
   0  -8   2    2.02    0.58
  -1   8  -2    3.99    1.13
   1  -8   2    3.19    0.59
   8   7  -2    0.14    0.58
   7   7  -2    0.34    0.53
   6   7  -2   10.37    0.87
  -6  -7   2   10.47    0.76
   5   7  -2    0.56    0.48
  -5  -7   2    0.61    0.46
   4   7  -2    3.27    0.56
  -4  -7   2    3.06    0.51
   3   7  -2    0.37    0.49
  -3  -7   2    0.05    0.47
   2   7  -2    5.65    0.57
   2   7  -2    5.19    0.90
  -2  -7   2    5.29    0.58
   1   7  -2   37.40    1.14
   1   7  -2   38.13    1.67
  -1  -7   2   37.57    1.22
   0   7  -2    2.43    0.86
   0  -7   2    2.03    0.52
  -1   7  -2    2.47    0.94
   1  -7   2    1.70    0.52
  -2   7  -2    0.58    0.98
   2  -7   2   -0.03    0.48
  -3   7  -2    1.76    1.15
   3  -7   2    0.56    0.48
   9   6  -2    0.91    0.57
   8   6  -2    0.35    0.51
   7   6  -2    1.19    0.52
   6   6  -2    0.81    0.47
  -6  -6   2    0.21    0.36
   5   6  -2    0.67    0.43
  -5  -6   2    0.81    0.39
   4   6  -2    7.66    0.57
  -4  -6   2    8.35    0.66
   3   6  -2   11.46    0.73
  -3  -6   2   11.88    0.73
   2   6  -2    7.36    0.55
  -2  -6   2    8.79    0.71
   1   6  -2   -0.25    0.38
   1   6  -2   -0.21    0.65
  -1  -6   2    0.47    0.42
   0   6  -2    9.62    0.93
   0  -6   2   11.38    0.75
  -1   6  -2   19.40    1.32
   1  -6   2   22.10    0.88
  -2   6  -2    2.07    0.89
   2  -6   2    1.51    0.46
  -3   6  -2    0.01    0.96
   3  -6   2    0.29    0.42
  -4   6  -2    0.75    1.05
   9   5  -2    2.13    0.54
  -9  -5   2    1.55    0.51
   8   5  -2    0.53    0.46
   7   5  -2    1.41    0.45
   6   5  -2   10.03    0.70
   5   5  -2    0.87    0.36
  -5  -5   2    1.21    0.35
   4   5  -2   48.54    1.21
  -4  -5   2   48.49    1.17
   3   5  -2    0.34    0.34
  -3  -5   2   -0.16    0.32
   2   5  -2    0.63    0.36
  -2  -5   2    0.73    0.34
   1   5  -2    7.24    0.81
   1   5  -2    7.28    0.56
  -1  -5   2    7.48    0.60
   0   5  -2    0.97    0.58
   0   5  -2    0.76    0.32
   0  -5   2    1.05    0.38
  -1   5  -2   53.37    1.83
   1  -5   2   55.39    1.31
  -2   5  -2    4.12    0.80
   2  -5   2    3.70    0.44
  -3   5  -2    0.67    0.81
  -4   5  -2    1.79    0.90
  -5   5  -2    0.00    1.07
   9   4  -2    1.35    0.47
  -9  -4   2    1.97    0.52
   8   4  -2    6.58    0.54
  -8  -4   2    6.58    0.58
   7   4  -2    0.33    0.37
   6   4  -2    0.09    0.35
   5   4  -2    2.12    0.36
  -5  -4   2    2.07    0.30
   4   4  -2    0.33    0.30
  -4  -4   2    0.90    0.27
   3   4  -2   12.25    0.58
  -3  -4   2   11.58    0.53
   2   4  -2    5.07    0.38
  -2  -4   2    4.75    0.38
   1   4  -2   60.34    1.31
  -1  -4   2   60.34    1.32
   0   4  -2   26.23    0.73
   0   4  -2   26.76    1.03
   0  -4   2   26.14    0.76
  -1   4  -2    0.41    0.47
   1  -4   2    0.35    0.30
  -2   4  -2   31.80    1.34
   2  -4   2   33.24    0.87
  -3   4  -2   61.33    2.06
  -4   4  -2    0.05    0.70
  -5   4  -2    2.20    0.96
  -6   4  -2   -1.29    1.00
  -9  -3   2    3.84    0.59
  -8  -3   2    8.82    0.79
   7   3  -2    0.65    0.34
  -7  -3   2    0.53    0.37
   6   3  -2    2.16    0.33
   5   3  -2    9.13    0.50
  -5  -3   2    9.12    0.40
   4   3  -2    9.91    0.50
  -4  -3   2   10.75    0.43
   3   3  -2    1.75    0.30
  -3  -3   2    1.70    0.25
   2   3  -2   26.62    0.72
  -2  -3   2   25.18    0.70
   1   3  -2    2.95    0.32
  -1  -3   2    2.17    0.29
   0   3  -2    0.21    0.25
   0   3  -2    0.10    0.42
   0  -3   2    0.51    0.27
  -1   3  -2    4.91    0.54
   1  -3   2    4.37    0.33
  -2   3  -2   -0.35    0.44
  -3   3  -2    5.39    0.71
  -4   3  -2   28.69    1.38
  -5   3  -2    2.07    0.81
  -6   3  -2    0.85    0.96
  -9  -2   2    1.24    0.51
  -8  -2   2    5.11    0.56
  -7  -2   2    5.15    0.50
  -6  -2   2   36.25    1.04
  -5  -2   2    1.15    0.28
   4   2  -2   14.43    0.50
   3   2  -2   23.81    0.64
  -3  -2   2   24.16    0.59
   2   2  -2    4.28    0.29
  -2  -2   2    5.17    0.35
   1   2  -2   28.26    0.69
  -1  -2   2   27.73    0.68
   0   2  -2    0.21    0.22
   0   2  -2    0.36    0.32
   0  -2   2    0.27    0.22
  -1   2  -2    1.02    0.40
  -1   2  -2    1.16    0.21
   1  -2   2    1.22    0.23
  -2   2  -2   -0.09    0.28
  -2   2  -2   -0.09    0.40
  -3   2  -2   16.61    0.71
  -3   2  -2   16.99    0.87
  -4   2  -2   24.00    1.15
  -4   2  -2   23.30    0.93
  -5   2  -2   31.11    1.44
  -5   2  -2   31.95    1.16
  -6   2  -2    5.00    0.94
  -6   2  -2    3.10    0.59
  -7   2  -2    0.82    0.59
  -7   2  -2    2.22    1.00
  -8  -1   2    0.97    0.48
  -7  -1   2    8.84    0.73
  -6  -1   2   13.66    0.71
  -5  -1   2    5.90    0.42
  -4  -1   2    1.16    0.25
   3   1  -2   22.78    0.56
  -3  -1   2   24.74    0.65
   2   1  -2    2.91    0.21
  -2  -1   2    2.96    0.21
   1   1  -2    4.09    0.31
  -1  -1   2    5.52    0.31
   0   1  -2   36.02    0.95
   0  -1   2   36.12    0.76
  -1   1  -2    9.98    0.50
  -1   1  -2    9.71    0.41
   1  -1   2    9.96    0.34
  -2   1  -2   52.86    1.17
  -2   1  -2   51.85    1.47
  -3   1  -2    4.84    0.38
  -3   1  -2    4.94    0.55
  -4   1  -2    1.02    0.34
  -4   1  -2    1.29    0.49
  -5   1  -2    0.04    0.58
  -5   1  -2   -0.28    0.38
  -6   1  -2   80.45    2.56
  -6   1  -2   85.84    2.08
  -7   1  -2    3.38    0.59
  -8   1  -2    0.42    0.58
  -8   0   2    1.26    0.53
  -7   0   2    0.03    0.43
  -6   0   2    7.90    0.70
  -5   0   2    0.75    0.33
  -4   0   2   13.86    0.75
  -4   0   2   14.69    0.58
  -3   0   2    9.01    0.45
  -3   0   2    7.80    0.56
  -2   0   2  171.55    4.04
  -2   0   2  168.70    3.22
   1   0  -2   60.98    1.16
  -1   0   2   60.73    1.15
  -1   0   2   61.43    1.48
  -1   0   2   62.46    1.18
   0   0  -2    0.32    0.14
   0   0   2    0.28    0.14
  -1   0  -2    5.08    0.26
  -1   0  -2    4.60    0.39
   1   0   2    4.55    0.27
  -2   0  -2    3.79    0.40
  -2   0  -2    3.33    0.28
  -3   0  -2    1.77    0.43
  -3   0  -2    1.81    0.30
  -4   0  -2    0.28    0.29
  -4   0  -2    1.06    0.45
  -5   0  -2   23.56    1.10
  -5   0  -2   23.23    0.87
  -6   0  -2    1.43    0.44
  -7   0  -2   16.31    0.95
  -8   0  -2   -0.78    0.51
  -7   1   2    2.31    0.54
  -6   1   2    0.60    0.68
  -6   1   2    0.30    0.43
  -5   1   2    0.55    0.37
  -5   1   2    0.48    0.57
  -4   1   2   21.03    0.97
  -4   1   2   22.93    0.78
  -3   1   2   77.02    2.07
  -3   1   2   76.57    1.65
  -2   1   2   19.94    0.60
  -2   1   2   20.93    0.76
   1  -1  -2   13.68    0.38
  -1   1   2   14.29    0.55
   0  -1  -2   72.43    1.35
   0   1   2   71.82    1.35
  -1  -1  -2  419.38    7.32
   1   1   2  403.61    7.32
  -2  -1  -2   80.95    1.49
   2   1   2   79.63    1.50
  -5  -1  -2    0.10    0.30
  -6  -1  -2    1.84    0.42
  -7  -1  -2    0.50    0.45
  -8  -1  -2   21.15    1.07
  -7   2   2   -0.09    0.92
  -6   2   2    1.87    0.84
  -5   2   2    0.49    0.65
  -4   2   2    8.32    0.86
  -3   2   2    0.10    0.41
  -2   2   2    5.75    0.61
   1  -2  -2    0.58    0.20
  -1   2   2   -0.24    0.34
   0  -2  -2  802.06   14.38
   0   2   2  818.35   14.37
  -1  -2  -2    1.48    0.23
   1   2   2    1.77    0.24
  -2  -2  -2    5.79    0.37
   2   2   2    6.93    0.37
  -3  -2  -2    7.33    0.37
   3   2   2    7.77    0.39
   4   2   2   18.30    0.53
  -6  -2  -2    1.68    0.40
  -7  -2  -2    1.33    0.45
  -8  -2  -2    0.30    0.48
  -9  -2  -2    0.52    0.55
  -6   3   2    2.28    0.92
  -5   3   2   -0.94    0.73
  -4   3   2    4.17    0.71
  -3   3   2    1.36    0.54
  -2   3   2   10.93    0.77
   1  -3  -2   44.71    0.96
  -1   3   2   44.80    1.39
   0  -3  -2  162.06    2.99
   0   3   2  161.17    3.94
   0   3   2  163.03    2.98
  -1  -3  -2    5.24    0.40
   1   3   2    5.27    0.40
  -2  -3  -2    0.87    0.26
   2   3   2    0.94    0.27
  -3  -3  -2  152.11    2.84
   3   3   2  152.36    2.85
  -4  -3  -2   31.67    0.76
   4   3   2   31.67    0.79
   5   3   2    1.36    0.28
   6   3   2    0.08    0.28
  -8  -3  -2    2.03    0.52
  -9  -3  -2    0.15    0.52
  -6   4   2    2.78    1.04
  -5   4   2    7.71    1.14
  -4   4   2    7.67    0.90
  -3   4   2    1.80    0.67
  -2   4   2    0.16    0.52
   1  -4  -2    0.53    0.27
  -1   4   2    1.29    0.49
   0  -4  -2   -0.10    0.27
   0   4   2   -0.26    0.43
   0   4   2    0.15    0.25
  -1  -4  -2    0.56    0.29
   1   4   2   -0.03    0.28
  -2  -4  -2   31.79    0.81
   2   4   2   30.03    0.81
  -3  -4  -2   13.27    0.54
   3   4   2   14.38    0.58
  -4  -4  -2    5.13    0.40
   4   4   2    4.83    0.37
  -5  -4  -2    4.62    0.34
   5   4   2    4.13    0.37
   6   4   2    2.31    0.36
   7   4   2    5.94    0.47
   8   4   2    4.61    0.48
  -9  -4  -2    3.12    0.63
  -5   5   2    0.54    1.10
  -4   5   2    0.48    0.82
  -3   5   2    0.63    0.70
   2  -5  -2   21.11    0.73
  -2   5   2   20.57    1.20
   1  -5  -2    1.17    0.35
  -1   5   2    1.48    0.56
   0  -5  -2   -0.12    0.31
   0   5   2   -0.46    0.46
   0   5   2    0.22    0.27
  -1  -5  -2    0.41    0.32
   1   5   2    0.31    0.29
  -2  -5  -2   43.02    1.06
   2   5   2   43.01    1.05
  -3  -5  -2   45.73    1.09
   3   5   2   44.90    1.11
  -4  -5  -2    0.02    0.28
   4   5   2    0.27    0.32
  -5  -5  -2    1.50    0.32
   5   5   2    0.92    0.36
  -6  -5  -2   15.09    0.63
   6   5   2   14.28    0.71
   7   5   2    4.14    0.49
   8   5   2    0.49    0.44
   9   5   2    3.11    0.52
  -4   6   2    5.85    1.19
  -3   6   2    2.01    0.82
   2  -6  -2    1.93    0.41
  -2   6   2    1.84    0.77
   1  -6  -2    1.54    0.41
  -1   6   2    1.09    0.66
   0  -6  -2   -0.46    0.38
   0   6   2    0.01    0.32
   0   6   2   -0.13    0.59
  -1  -6  -2    0.40    0.38
   1   6   2   -0.04    0.33
   1   6   2    0.46    0.58
  -2  -6  -2    4.36    0.44
   2   6   2    3.77    0.43
  -3  -6  -2    0.48    0.36
   3   6   2    0.66    0.38
  -4  -6  -2    7.20    0.58
   4   6   2    7.09    0.52
  -5  -6  -2    0.25    0.36
   5   6   2    0.12    0.40
  -6  -6  -2    8.82    0.62
   6   6   2    9.36    0.72
   7   6   2    5.05    0.56
   8   6   2    1.66    0.51
   9   6   2   -0.23    0.49
  -3   7   2    1.32    1.07
   2  -7  -2    0.05    0.45
  -2   7   2    0.32    0.84
   1  -7  -2    0.02    0.44
  -1   7   2    0.51    0.75
   0  -7  -2    1.07    0.47
   0   7   2    0.60    0.75
  -1  -7  -2    1.99    0.47
   1   7   2    1.53    0.42
   1   7   2    1.27    0.72
  -2  -7  -2    4.87    0.53
   2   7   2    6.20    0.54
  -3  -7  -2    7.07    0.56
   3   7   2    8.45    0.59
  -4  -7  -2    4.21    0.50
   4   7   2    5.82    0.55
  -5  -7  -2   10.74    0.73
   5   7   2   10.39    0.80
  -6  -7  -2    0.14    0.41
   6   7   2    0.16    0.47
   7   7   2    0.10    0.50
   8   7   2    2.95    0.58
   9   7   2   -0.08    0.55
   2  -8  -2    3.60    0.56
  -2   8   2    4.74    1.16
   1  -8  -2    1.47    0.53
  -1   8   2    1.22    0.92
   0  -8  -2    5.08    0.59
   0   8   2    5.51    1.01
  -1  -8  -2    4.75    0.58
   1   8   2    4.68    0.94
  -2  -8  -2    0.37    0.50
   2   8   2    1.65    0.49
   2   8   2    2.29    0.91
  -3  -8  -2   -0.10    0.49
   3   8   2    1.10    0.52
  -4  -8  -2    1.60    0.53
   4   8   2    1.96    0.54
  -5  -8  -2    5.56    0.59
   5   8   2    6.54    0.65
  -6  -8  -2   11.32    0.87
   6   8   2   10.94    0.94
   7   8   2   -0.42    0.53
   8   8   2   -0.06    0.56
   0  -9  -2    0.10    0.57
   0   9   2    0.52    1.04
  -1  -9  -2    0.42    0.57
   1   9   2    2.55    1.06
  -2  -9  -2   -0.20    0.56
   2   9   2    0.44    1.02
  -3  -9  -2    1.53    0.60
   3   9   2    1.32    0.54
  -4  -9  -2    5.73    0.69
   4   9   2    6.34    0.70
  -5  -9  -2   -0.22    0.57
   5   9   2   -0.30    0.59
  -6  -9  -2    0.21    0.57
   6   9   2    0.37    0.62
   7   9   2    1.51    0.66
  -2 -10  -2    1.33    0.68
   2  10   2    3.24    1.26
  -3 -10  -2    0.35    0.67
   3  10   2   -2.39    1.14
  -4 -10  -2    3.25    0.75
   4  10   2    2.95    0.65
  -5 -10  -2   -0.04    0.68
   5  10   2    0.81    0.68
  -6 -10  -2    1.00    0.70
   6  10   2    1.76    0.74
   6   9  -3    1.99    0.75
  -6  -9   3    2.73    0.68
   5   9  -3    0.11    0.69
  -5  -9   3    0.90    0.65
   4   9  -3    0.47    0.64
  -4  -9   3    0.93    0.67
   3   9  -3    2.69    1.08
  -3  -9   3    1.90    0.67
   2   9  -3    0.69    1.04
  -2  -9   3    0.33    0.63
  -1  -9   3    1.04    0.65
   7   8  -3    3.06    0.72
   6   8  -3   -0.02    0.64
  -6  -8   3    0.47    0.54
   5   8  -3    1.82    0.64
  -5  -8   3    1.64    0.57
   4   8  -3    1.78    0.63
  -4  -8   3    1.21    0.57
   3   8  -3   -1.42    0.90
   3   8  -3    1.64    0.60
  -3  -8   3    1.13    0.57
   2   8  -3    2.34    0.61
   2   8  -3    4.48    1.03
  -2  -8   3    2.56    0.61
   1   8  -3    0.84    0.97
  -1  -8   3    0.03    0.57
   0   8  -3   -0.34    0.98
   0  -8   3   -0.94    0.55
  -1   8  -3    0.42    1.05
   1  -8   3   -0.33    0.55
   8   7  -3    1.68    0.63
   7   7  -3    0.75    0.57
   6   7  -3   -0.01    0.55
  -6  -7   3    0.12    0.44
   5   7  -3    0.61    0.54
  -5  -7   3   -0.06    0.44
   4   7  -3   -0.62    0.49
  -4  -7   3    0.62    0.48
   3   7  -3    4.02    0.57
  -3  -7   3    2.82    0.55
   2   7  -3    5.86    0.93
   2   7  -3    6.86    0.61
  -2  -7   3    6.45    0.62
   1   7  -3    2.37    0.85
  -1  -7   3    2.99    0.56
   0   7  -3    0.48    0.84
   0  -7   3    0.57    0.52
  -1   7  -3    8.20    1.10
   1  -7   3    7.09    0.64
  -2   7  -3    4.74    1.15
   2  -7   3    3.91    0.57
   8   6  -3    0.69    0.55
   7   6  -3    4.80    0.59
   6   6  -3    3.95    0.53
  -6  -6   3    4.02    0.47
   5   6  -3   -0.37    0.44
  -5  -6   3    0.45    0.39
   4   6  -3    6.54    0.58
  -4  -6   3    6.50    0.52
   3   6  -3    4.64    0.53
  -3  -6   3    6.19    0.53
   2   6  -3    2.06    0.46
   2   6  -3    1.64    0.71
  -2  -6   3    1.79    0.46
   1   6  -3    0.93    0.70
   1   6  -3    1.39    0.43
  -1  -6   3    0.47    0.44
   0   6  -3    4.73    0.83
   0  -6   3    5.18    0.55
  -1   6  -3    3.96    0.89
   1  -6   3    4.08    0.53
  -2   6  -3    0.72    0.88
   2  -6   3    0.16    0.46
  -3   6  -3   -1.04    0.97
   3  -6   3    0.89    0.45
  -4   6  -3    5.29    1.23
   9   5  -3    0.03    0.50
   8   5  -3    7.03    0.62
  -8  -5   3    6.04    0.55
   7   5  -3   -0.02    0.42
   6   5  -3    1.71    0.45
   5   5  -3    5.24    0.50
  -5  -5   3    6.87    0.56
   4   5  -3    9.02    0.65
  -4  -5   3    7.73    0.57
   3   5  -3   12.33    0.68
  -3  -5   3   13.22    0.64
   2   5  -3    6.95    0.59
  -2  -5   3    6.28    0.48
   1   5  -3    1.86    0.38
   1   5  -3    1.53    0.57
  -1  -5   3    1.42    0.39
   0   5  -3   12.25    0.97
   0   5  -3   12.29    0.63
   0  -5   3   12.74    0.69
  -1   5  -3   13.32    1.08
   1  -5   3   13.81    0.73
  -2   5  -3    0.68    0.76
   2  -5   3    0.13    0.40
  -3   5  -3    4.80    0.97
   3  -5   3    4.14    0.48
  -4   5  -3    1.57    0.95
  -5   5  -3    2.29    1.18
   9   4  -3    0.41    0.47
  -9  -4   3    0.29    0.46
   8   4  -3    0.57    0.43
  -8  -4   3    0.65    0.41
   7   4  -3   -0.42    0.39
  -7  -4   3    0.12    0.35
   6   4  -3    7.21    0.61
   5   4  -3   23.41    0.78
  -5  -4   3   22.80    0.71
   4   4  -3    4.78    0.40
  -4  -4   3    5.49    0.45
   3   4  -3    4.01    0.38
  -3  -4   3    4.10    0.37
   2   4  -3   12.12    0.59
  -2  -4   3   12.02    0.57
   1   4  -3   27.16    0.79
   1   4  -3   27.64    1.01
  -1  -4   3   26.08    0.79
   0   4  -3    2.33    0.32
   0   4  -3    2.49    0.52
   0  -4   3    2.24    0.35
  -1   4  -3    8.35    0.47
  -1   4  -3    7.55    0.79
   1  -4   3    8.29    0.55
  -2   4  -3    6.28    0.74
   2  -4   3    5.77    0.43
  -3   4  -3    0.49    0.71
  -4   4  -3    0.81    0.80
  -5   4  -3    0.36    0.97
  -9  -3   3    0.67    0.47
   8   3  -3   10.64    0.67
  -8  -3   3   11.40    0.80
   7   3  -3    2.57    0.39
  -7  -3   3    2.24    0.40
   6   3  -3    8.06    0.56
  -6  -3   3    8.24    0.56
   5   3  -3    1.75    0.33
  -5  -3   3    2.17    0.26
   4   3  -3    0.27    0.28
  -4  -3   3    0.14    0.22
   3   3  -3   -0.10    0.28
  -3  -3   3    0.04    0.24
   2   3  -3   44.49    1.04
  -2  -3   3   44.19    1.01
   1   3  -3   78.37    1.61
  -1  -3   3   80.21    1.61
   0   3  -3   25.14    0.95
   0   3  -3   26.48    0.71
   0  -3   3   26.52    0.73
  -1   3  -3   19.79    0.57
  -1   3  -3   18.40    0.86
   1  -3   3   19.92    0.62
  -2   3  -3    5.22    0.60
   2  -3   3    5.12    0.35
  -3   3  -3   13.65    0.96
  -4   3  -3    2.47    0.75
  -5   3  -3   -0.64    0.76
  -6   3  -3    0.53    0.98
  -8  -2   3   -0.11    0.40
  -7  -2   3    1.09    0.39
   6   2  -3   -0.18    0.28
  -6  -2   3   -0.03    0.31
   5   2  -3    1.55    0.27
  -5  -2   3    2.45    0.31
   4   2  -3   19.88    0.60
  -4  -2   3   19.67    0.53
   3   2  -3    1.80    0.28
  -3  -2   3    1.38    0.23
   2   2  -3    7.13    0.44
  -2  -2   3    7.90    0.41
   1   2  -3    3.05    0.29
  -1  -2   3    3.41    0.29
   0   2  -3   10.49    0.45
   0   2  -3   10.23    0.55
   0  -2   3   10.25    0.45
  -1   2  -3    6.98    0.38
  -1   2  -3    6.90    0.59
   1  -2   3    6.81    0.43
  -2   2  -3    1.88    0.32
  -2   2  -3    1.75    0.46
  -3   2  -3   59.30    1.79
  -3   2  -3   60.86    1.45
  -4   2  -3    6.41    0.75
  -4   2  -3    6.09    0.52
  -5   2  -3    6.00    0.85
  -5   2  -3    5.21    0.59
  -6   2  -3    0.51    0.52
  -6   2  -3    0.09    0.81
  -7   2  -3    0.53    0.61
  -7   2  -3   -0.46    0.94
  -8  -1   3    2.01    0.51
  -7  -1   3    1.71    0.42
  -6  -1   3    1.91    0.38
  -5  -1   3   14.75    0.63
   4   1  -3    3.89    0.25
  -4  -1   3    4.03    0.32
   3   1  -3   10.98    0.40
  -3  -1   3   10.58    0.42
  -3  -1   3   11.05    0.37
   2   1  -3    0.09    0.20
  -2  -1   3    0.26    0.20
   1   1  -3   14.49    0.45
  -1  -1   3   14.29    0.46
   0   1  -3   23.91    0.68
   0   1  -3   23.41    0.58
   0  -1   3   23.38    0.58
  -1   1  -3   65.24    1.30
  -1   1  -3   63.57    1.63
  -1   1  -3   63.79    1.23
   1  -1   3   60.89    1.23
  -2   1  -3  166.34    3.26
  -2   1  -3  170.32    4.09
  -3   1  -3   13.67    0.62
  -3   1  -3   13.66    0.77
  -4   1  -3    2.77    0.39
  -4   1  -3    3.17    0.59
  -5   1  -3    1.62    0.64
  -5   1  -3    0.95    0.41
  -6   1  -3    6.51    0.89
  -6   1  -3    5.87    0.62
  -7   1  -3   12.91    1.00
  -8   1  -3   -0.34    0.57
  -8   0   3    0.00    0.49
  -7   0   3    5.01    0.55
  -6   0   3   -0.22    0.37
  -5   0   3    8.05    0.59
  -4   0   3   20.70    0.88
  -4   0   3   20.94    0.68
  -3   0   3    7.57    0.41
  -3   0   3    6.97    0.55
   2   0  -3    2.88    0.22
  -2   0   3    3.37    0.38
  -2   0   3    3.00    0.23
   1   0  -3    2.28    0.22
  -1   0   3    2.30    0.24
  -1   0   3    2.35    0.21
   0   0  -3    0.18    0.20
   0   0   3    0.52    0.21
  -1   0  -3   85.59    2.09
  -1   0  -3   86.50    1.61
   1   0   3   86.21    1.62
  -2   0  -3   11.73    0.61
  -2   0  -3   12.03    0.47
   2   0   3   10.30    0.38
  -3   0  -3    4.30    0.36
  -3   0  -3    5.34    0.53
  -4   0  -3   49.42    1.54
  -4   0  -3   49.33    1.24
  -5   0  -3   44.98    1.25
  -6   0  -3   -0.01    0.39
  -7   0  -3    1.04    0.49
  -8   0  -3   -0.85    0.53
  -7   1   3    0.07    0.49
  -6   1   3    0.42    0.43
  -6   1   3    0.64    0.72
  -5   1   3    2.79    0.65
  -5   1   3    2.15    0.42
  -4   1   3    0.19    0.30
  -4   1   3   -0.02    0.47
  -3   1   3  111.64    2.85
  -3   1   3  111.61    2.27
  -2   1   3    6.43    0.50
   1  -1  -3    0.02    0.19
  -1   1   3    0.20    0.17
  -1   1   3    0.04    0.27
   0  -1  -3   14.97    0.45
   0   1   3   15.99    0.45
  -1  -1  -3   80.98    1.55
   1   1   3   82.43    1.55
  -2  -1  -3   17.58    0.46
   2   1   3   17.00    0.48
  -5  -1  -3    3.58    0.41
  -6  -1  -3    0.05    0.38
  -7  -1  -3    1.91    0.49
  -8  -1  -3    1.10    0.51
  -7   2   3    0.95    0.93
  -6   2   3   -0.47    0.78
  -5   2   3   15.94    1.13
  -4   2   3    8.05    0.78
  -3   2   3    3.32    0.51
  -2   2   3   63.03    1.74
   1  -2  -3   48.91    0.99
  -1   2   3   47.13    1.35
   0  -2  -3  173.98    3.26
   0   2   3  183.37    3.26
  -1  -2  -3   64.00    1.31
   1   2   3   67.87    1.31
  -2  -2  -3   12.64    0.46
   2   2   3   12.60    0.46
  -3  -2  -3   24.13    0.60
   3   2   3   25.17    0.65
   4   2   3   14.81    0.50
  -6  -2  -3   21.24    0.89
  -7  -2  -3    0.36    0.41
  -8  -2  -3   -0.39    0.48
  -9  -2  -3    1.13    0.57
  -6   3   3    1.23    0.91
  -5   3   3    0.40    0.80
  -4   3   3    1.72    0.66
  -3   3   3    0.19    0.53
  -2   3   3    6.04    0.60
   1  -3  -3  162.03    3.01
  -1   3   3  163.16    4.01
   0  -3  -3   19.45    0.61
   0   3   3   21.89    0.84
   0   3   3   20.70    0.59
  -1  -3  -3   46.83    1.01
   1   3   3   46.05    1.01
  -2  -3  -3    4.23    0.31
   2   3   3    4.67    0.34
  -3  -3  -3   53.23    1.12
   3   3   3   50.58    1.14
  -4  -3  -3    2.29    0.27
   4   3   3    3.57    0.32
   5   3   3    4.87    0.35
   6   3   3   -0.01    0.28
  -8  -3  -3    0.60    0.48
  -9  -3  -3   -0.06    0.52
  -6   4   3   -0.68    0.97
  -5   4   3    4.80    1.08
  -4   4   3   -0.48    0.69
  -3   4   3    3.48    0.73
  -2   4   3   -0.39    0.53
   1  -4  -3    2.60    0.31
  -1   4   3    2.01    0.52
   0  -4  -3   28.40    0.77
   0   4   3   28.46    0.74
   0   4   3   29.65    1.08
  -1  -4  -3   49.24    1.11
   1   4   3   48.49    1.09
  -2  -4  -3    7.63    0.50
   2   4   3    8.18    0.50
  -3  -4  -3   30.86    0.82
   3   4   3   32.65    0.85
  -4  -4  -3   -0.21    0.25
   4   4   3    0.39    0.29
  -5  -4  -3    7.36    0.46
   5   4   3    7.27    0.52
   6   4   3    6.81    0.55
   7   4   3    1.59    0.38
   8   4   3    0.85    0.40
  -9  -4  -3    0.24    0.55
  -5   5   3    1.46    1.11
  -4   5   3    1.51    0.94
  -3   5   3   -0.25    0.68
   2  -5  -3   13.12    0.63
  -2   5   3   12.27    1.06
   1  -5  -3    1.00    0.34
  -1   5   3    0.87    0.57
   0  -5  -3    0.89    0.33
   0   5   3    1.44    0.30
   0   5   3    1.63    0.52
  -1  -5  -3    3.30    0.38
   1   5   3    4.59    0.37
  -2  -5  -3   49.42    1.16
   2   5   3   49.73    1.16
  -3  -5  -3   16.20    0.64
   3   5   3   15.76    0.66
  -4  -5  -3    1.26    0.31
   4   5   3    1.62    0.34
  -5  -5  -3    2.13    0.35
   5   5   3    1.72    0.37
  -6  -5  -3    1.15    0.34
   6   5   3    1.09    0.39
   7   5   3    6.41    0.54
   8   5   3   -0.20    0.42
   9   5   3    0.63    0.46
  -4   6   3   -0.01    1.03
   3  -6  -3    4.67    0.46
  -3   6   3    3.90    0.88
   2  -6  -3    0.46    0.39
  -2   6   3   -0.51    0.71
   1  -6  -3    0.30    0.40
  -1   6   3   -0.29    0.61
   0  -6  -3   -0.34    0.38
   0   6   3    0.05    0.33
   0   6   3   -0.41    0.57
  -1  -6  -3    3.95    0.44
   1   6   3    3.53    0.66
   1   6   3    4.10    0.41
  -2  -6  -3   20.04    0.79
   2   6   3   20.44    0.77
  -3  -6  -3    7.10    0.61
   3   6   3    7.02    0.50
  -4  -6  -3    2.69    0.40
   4   6   3    2.71    0.43
  -5  -6  -3   17.79    0.73
   5   6   3   17.03    0.78
  -6  -6  -3    7.65    0.51
   6   6   3    8.49    0.58
   7   6   3    3.93    0.53
   8   6   3    2.92    0.54
   9   6   3    1.04    0.54
   3  -7  -3    0.44    0.44
  -3   7   3    1.10    0.93
   2  -7  -3    0.44    0.45
  -2   7   3    0.77    0.83
   1  -7  -3   -0.31    0.44
  -1   7   3    0.32    0.72
   0  -7  -3    2.85    0.50
   0   7   3    1.98    0.76
  -1  -7  -3    0.12    0.45
   1   7   3    0.75    0.40
   1   7   3   -0.12    0.67
  -2  -7  -3    0.31    0.44
   2   7   3   -0.31    0.40
  -3  -7  -3   -0.45    0.42
   3   7   3    0.19    0.43
  -4  -7  -3   33.32    1.06
   4   7   3   33.04    1.10
  -5  -7  -3    5.79    0.53
   5   7   3    5.95    0.57
  -6  -7  -3   -0.07    0.42
   6   7   3    0.93    0.46
   7   7   3    2.95    0.53
   8   7   3    0.10    0.51
   9   7   3    7.44    0.74
   2  -8  -3    0.67    0.51
  -2   8   3    1.11    1.01
   1  -8  -3    0.84    0.52
  -1   8   3   -0.83    0.83
   0  -8  -3    0.88    0.51
   0   8   3    2.29    0.90
  -1  -8  -3    4.75    0.59
   1   8   3    3.74    0.87
  -2  -8  -3   -0.20    0.49
   2   8   3   -0.52    0.81
   2   8   3    0.66    0.46
  -3  -8  -3    5.95    0.61
   3   8   3    5.16    0.57
  -4  -8  -3    2.86    0.55
   4   8   3    2.06    0.55
  -5  -8  -3    1.61    0.52
   5   8   3    0.66    0.54
  -6  -8  -3    4.76    0.58
   6   8   3    4.30    0.62
   7   8   3    0.15    0.54
   8   8   3    1.16    0.61
   0  -9  -3    0.65    0.57
   0   9   3    1.37    1.02
  -1  -9  -3    0.78    0.57
   1   9   3    2.23    1.00
  -2  -9  -3    2.58    0.61
   2   9   3    1.65    0.99
  -3  -9  -3    0.52    0.58
   3   9   3    0.41    0.53
  -4  -9  -3    7.71    0.73
   4   9   3    7.47    0.70
  -5  -9  -3    1.45    0.62
   5   9   3    0.97    0.61
  -6  -9  -3   10.59    0.78
   6   9   3    9.96    0.84
   7   9   3    3.41    0.71
  -2 -10  -3   -0.32    0.64
   2  10   3    2.10    1.22
  -3 -10  -3    3.66    0.73
   3  10   3    1.67    1.22
  -4 -10  -3    2.70    0.74
   4  10   3    2.80    0.65
  -5 -10  -3    1.97    0.72
   5  10   3    2.01    0.68
  -6 -10  -3   -0.24    0.63
   6  10   3    0.57    0.68
   5   9  -4    1.80    0.75
  -5  -9   4   -0.26    0.65
   4   9  -4   -2.04    1.03
   4   9  -4    0.08    0.68
  -4  -9   4    0.51    0.67
   3   9  -4    1.77    1.04
  -3  -9   4    0.13    0.68
   2   9  -4    2.05    1.06
  -2  -9   4   -0.06    0.66
   7   8  -4    1.39    0.71
   6   8  -4    5.45    0.75
  -6  -8   4    4.72    0.65
   5   8  -4    1.13    0.65
  -5  -8   4   -0.45    0.55
   4   8  -4   -0.35    0.59
  -4  -8   4    0.86    0.59
   3   8  -4    1.69    0.94
   3   8  -4    2.12    0.62
  -3  -8   4    1.75    0.61
   2   8  -4    1.31    0.90
  -2  -8   4    0.68    0.60
   1   8  -4    1.32    0.95
  -1  -8   4    0.40    0.59
   0   8  -4    2.79    1.03
   0  -8   4    1.01    0.59
   8   7  -4    1.73    0.66
   7   7  -4    3.28    0.66
   6   7  -4    0.73    0.56
  -6  -7   4    0.38    0.47
   5   7  -4   20.60    1.07
  -5  -7   4   18.85    0.94
   4   7  -4   -0.17    0.54
  -4  -7   4    0.01    0.49
   3   7  -4    3.95    0.89
   3   7  -4    6.82    0.65
  -3  -7   4    6.17    0.63
   2   7  -4    1.80    0.54
   2   7  -4    2.90    0.84
  -2  -7   4    2.45    0.56
   1   7  -4    2.54    0.87
  -1  -7   4    1.74    0.56
   0   7  -4    1.80    0.89
   0  -7   4    1.27    0.54
  -1   7  -4    0.84    0.95
   1  -7   4   -0.07    0.53
  -2   7  -4    3.53    1.12
   2  -7   4    1.12    0.52
   8   6  -4   -0.05    0.54
   7   6  -4   -0.06    0.48
   6   6  -4    0.03    0.46
  -6  -6   4   -0.52    0.38
   5   6  -4    3.36    0.54
  -5  -6   4    4.00    0.48
   4   6  -4   32.41    1.10
  -4  -6   4   32.43    1.04
   3   6  -4    3.69    0.52
  -3  -6   4    4.13    0.52
   2   6  -4    1.89    0.72
   2   6  -4    1.04    0.47
  -2  -6   4    1.54    0.48
   1   6  -4    6.90    0.55
   1   6  -4    8.04    0.85
  -1  -6   4    6.19    0.59
   0   6  -4    5.87    0.86
   0  -6   4    5.65    0.58
  -1   6  -4    5.83    0.93
   1  -6   4    4.72    0.57
  -2   6  -4    2.19    0.97
   2  -6   4    1.90    0.51
  -3   6  -4    1.10    1.04
   3  -6   4   -0.34    0.47
   8   5  -4    4.41    0.59
   7   5  -4    0.16    0.45
   6   5  -4    3.13    0.50
   5   5  -4    0.50    0.41
  -5  -5   4    0.73    0.36
   4   5  -4   -0.09    0.40
  -4  -5   4   -0.42    0.35
   3   5  -4    6.25    0.51
  -3  -5   4    6.01    0.48
   2   5  -4    2.59    0.44
  -2  -5   4    1.60    0.41
   1   5  -4   11.53    0.68
   1   5  -4   11.62    0.94
  -1  -5   4   11.38    0.70
   0   5  -4    4.87    0.71
   0   5  -4    4.63    0.44
   0  -5   4    4.54    0.47
  -1   5  -4    8.22    0.86
   1  -5   4    8.90    0.71
  -2   5  -4   -0.12    0.77
   2  -5   4    0.46    0.44
  -3   5  -4    2.69    0.95
   3  -5   4    1.73    0.46
  -4   5  -4    3.39    1.06
   8   4  -4    0.18    0.45
  -8  -4   4   -0.23    0.37
   7   4  -4   -0.21    0.40
  -7  -4   4    0.13    0.34
   6   4  -4    0.11    0.38
   5   4  -4    8.57    0.62
  -5  -4   4    8.80    0.54
   4   4  -4   35.86    1.00
  -4  -4   4   35.62    0.93
   3   4  -4   17.74    0.70
  -3  -4   4   17.41    0.66
   2   4  -4   59.33    1.32
  -2  -4   4   55.64    1.30
   1   4  -4   21.71    0.74
   1   4  -4   22.30    0.93
  -1  -4   4   21.84    0.74
   0   4  -4    1.63    0.50
   0   4  -4    1.23    0.32
   0  -4   4    0.96    0.35
  -1   4  -4    8.97    0.85
  -1   4  -4   10.15    0.52
   1  -4   4    9.43    0.62
  -2   4  -4    7.59    0.83
   2  -4   4    7.58    0.64
  -3   4  -4   -0.12    0.71
   3  -4   4   -0.38    0.39
  -4   4  -4    0.16    0.87
  -5   4  -4    0.65    1.01
   8   3  -4    0.51    0.40
  -8  -3   4    0.49    0.40
   7   3  -4    6.56    0.49
  -7  -3   4    7.35    0.63
   6   3  -4   14.27    0.68
  -6  -3   4   13.75    0.64
   5   3  -4    9.48    0.58
  -5  -3   4    9.51    0.47
   4   3  -4   39.89    1.00
  -4  -3   4   38.21    0.92
   3   3  -4    3.42    0.35
  -3  -3   4    3.10    0.31
   2   3  -4   11.60    0.58
  -2  -3   4   12.12    0.54
   1   3  -4   11.19    0.56
   1   3  -4   11.63    0.63
  -1  -3   4   11.76    0.55
   0   3  -4   17.08    0.61
   0   3  -4   16.94    0.78
   0  -3   4   17.56    0.62
  -1   3  -4    6.14    0.63
  -1   3  -4    6.59    0.44
   1  -3   4    6.59    0.48
  -2   3  -4    1.61    0.55
   2  -3   4    2.19    0.34
  -3   3  -4    0.89    0.59
   3  -3   4    1.21    0.35
  -4   3  -4    1.29    0.76
  -5   3  -4    2.55    0.89
  -6   3  -4    2.46    1.05
  -8  -2   4    0.59    0.42
  -7  -2   4    3.93    0.46
   6   2  -4    0.58    0.31
  -6  -2   4    0.61    0.31
   5   2  -4    1.28    0.30
  -5  -2   4    1.63    0.27
  -4  -2   4    3.34    0.27
  -4  -2   4    4.18    0.27
  -3  -2   4   45.33    0.99
  -2  -2   4   45.95    1.02
  -1  -2   4   85.56    1.69
   0   2  -4   94.27    2.38
   0   2  -4   97.70    1.88
   0  -2   4   96.68    1.89
  -1   2  -4   48.25    1.38
  -1   2  -4   48.40    1.04
   1  -2   4   48.47    1.07
  -2   2  -4    4.91    0.39
  -2   2  -4    5.86    0.65
   2  -2   4    5.50    0.42
  -3   2  -4   11.69    0.67
  -3   2  -4   10.51    0.83
  -4   2  -4   -0.31    0.40
  -4   2  -4   -0.14    0.60
  -5   2  -4    0.22    0.72
  -5   2  -4    0.23    0.46
  -6   2  -4    1.84    0.58
  -6   2  -4    2.40    0.92
  -7   2  -4    1.25    1.02
  -7   2  -4    1.11    0.64
  -8  -1   4    0.38    0.45
  -7  -1   4    1.48    0.43
  -6  -1   4    6.55    0.48
  -5  -1   4   24.20    0.76
   4   1  -4    6.21    0.36
  -4  -1   4    7.14    0.41
   3   1  -4    3.96    0.28
  -3  -1   4    3.82    0.31
  -3  -1   4    4.06    0.31
   2   1  -4   26.68    0.66
  -2  -1   4   25.56    0.65
   1   1  -4    0.98    0.24
  -1  -1   4    0.46    0.23
   0   1  -4   16.59    0.53
   0   1  -4   16.13    0.50
   0  -1   4   16.61    0.51
  -1   1  -4    4.93    0.35
  -1   1  -4    3.28    0.26
  -1   1  -4    3.52    0.37
   1  -1   4    4.49    0.30
  -2   1  -4    4.48    0.49
  -2   1  -4    3.85    0.33
   2  -1   4    4.77    0.39
  -3   1  -4   25.98    0.80
  -3   1  -4   24.49    1.00
  -4   1  -4   13.30    0.70
  -4   1  -4   12.09    0.88
  -5   1  -4    0.72    0.43
  -5   1  -4    0.38    0.65
  -6   1  -4    0.11    0.50
  -6   1  -4    0.27    0.72
  -7   1  -4    0.17    0.53
  -8   0   4    3.58    0.60
  -7   0   4    2.04    0.48
  -6   0   4    6.32    0.53
  -5   0   4    5.64    0.44
  -4   0   4    8.42    0.49
  -4   0   4    7.93    0.65
   3   0  -4    3.81    0.26
  -3   0   4    4.22    0.42
  -3   0   4    4.50    0.37
   2   0  -4    1.05    0.23
  -2   0   4    1.27    0.19
  -2   0   4    1.03    0.27
  -2   0   4    1.07    0.20
   1   0  -4  132.43    2.43
  -1   0   4  128.72    2.42
   0   0  -4    4.00    0.28
   0   0   4    3.54    0.27
  -1   0  -4    0.84    0.23
  -1   0  -4    2.48    0.31
   1   0   4    1.71    0.24
  -2   0  -4    7.25    0.57
  -2   0  -4    6.52    0.43
   2   0   4    6.79    0.37
  -3   0  -4    1.68    0.46
  -3   0  -4    1.80    0.31
  -4   0  -4    5.71    0.44
  -4   0  -4    6.53    0.63
  -5   0  -4    0.73    0.39
  -6   0  -4   17.59    0.92
  -7   0  -4    4.07    0.58
  -8   0  -4    3.28    0.65
  -6   1   4    0.68    0.71
  -5   1   4    2.83    0.66
  -5   1   4    2.61    0.43
  -4   1   4    3.90    0.38
  -4   1   4    4.25    0.60
  -3   1   4   28.85    1.02
   2  -1  -4   -0.19    0.20
  -2   1   4   -0.19    0.31
   1  -1  -4   -0.07    0.21
  -1   1   4    0.12    0.25
  -1   1   4    0.15    0.20
   0  -1  -4   13.57    0.47
   0   1   4   14.50    0.47
  -1  -1  -4    0.36    0.22
   1   1   4    0.42    0.23
  -2  -1  -4   64.27    1.26
   2   1   4   64.51    1.28
   3   1   4   11.39    0.44
  -5  -1  -4   54.22    1.38
  -6  -1  -4   59.15    1.56
  -7  -1  -4    0.80    0.47
  -8  -1  -4    0.64    0.50
  -7   2   4    0.45    0.92
  -6   2   4   13.42    1.17
  -5   2   4   -0.10    0.69
  -4   2   4    6.02    0.73
  -3   2   4   -0.12    0.41
   2  -2  -4   54.47    1.15
  -2   2   4   59.38    1.61
   1  -2  -4    1.39    0.26
  -1   2   4    0.84    0.22
  -1   2   4    0.59    0.37
   0  -2  -4   11.79    0.48
   0   2   4   13.48    0.47
  -1  -2  -4   22.70    0.60
   1   2   4   20.59    0.60
  -2  -2  -4    0.22    0.22
   2   2   4    0.31    0.25
  -3  -2  -4   -0.01    0.21
   3   2   4   -0.03    0.25
   4   2   4    1.60    0.26
   5   2   4    5.59    0.34
  -6  -2  -4    3.33    0.48
  -7  -2  -4    1.10    0.46
  -8  -2  -4    3.97    0.60
  -9  -2  -4    4.38    0.68
  -6   3   4    5.94    1.07
  -5   3   4    0.19    0.81
  -4   3   4    2.63    0.71
  -3   3   4   17.59    1.01
  -2   3   4    2.54    0.50
   1  -3  -4    0.81    0.26
  -1   3   4    2.21    0.47
   0  -3  -4   26.92    0.71
   0   3   4   27.50    0.95
   0   3   4   25.88    0.69
  -1  -3  -4   63.03    1.33
   1   3   4   64.48    1.33
  -2  -3  -4   33.58    0.83
   2   3   4   32.23    0.82
  -3  -3  -4    3.19    0.31
   3   3   4    4.53    0.34
  -4  -3  -4    1.22    0.24
   4   3   4    0.78    0.27
   5   3   4    0.19    0.27
   6   3   4    0.13    0.29
   7   3   4   16.87    0.65
  -8  -3  -4    6.90    0.68
  -9  -3  -4    1.86    0.59
  -6   4   4   -0.02    0.98
  -5   4   4    0.80    1.01
  -4   4   4   13.32    1.26
  -3   4   4    2.52    0.71
   2  -4  -4   12.12    0.54
  -2   4   4   12.21    0.91
   1  -4  -4    0.50    0.29
  -1   4   4    0.46    0.49
   0  -4  -4  204.54    3.77
   0   4   4  201.82    4.94
   0   4   4  201.24    3.74
  -1  -4  -4    7.14    0.50
   1   4   4    7.01    0.49
  -2  -4  -4    4.09    0.36
   2   4   4    4.32    0.36
  -3  -4  -4    0.87    0.29
   3   4   4    0.13    0.30
  -4  -4  -4    6.08    0.46
   4   4   4    6.37    0.50
  -5  -4  -4    1.73    0.29
   5   4   4    1.87    0.35
   6   4   4    4.26    0.42
   7   4   4    3.99    0.44
   8   4   4    4.09    0.47
  -9  -4  -4   11.04    0.87
  -5   5   4    0.24    1.08
  -4   5   4    2.17    0.97
  -3   5   4    1.04    0.71
   2  -5  -4    3.53    0.39
  -2   5   4    1.79    0.70
   1  -5  -4    1.02    0.35
  -1   5   4    1.14    0.57
   0  -5  -4    3.15    0.38
   0   5   4    3.23    0.33
   0   5   4    3.03    0.56
  -1  -5  -4    0.45    0.33
   1   5   4    0.51    0.30
  -2  -5  -4    3.40    0.37
   2   5   4    3.35    0.37
  -3  -5  -4   17.36    0.66
   3   5   4   16.74    0.67
  -4  -5  -4    5.64    0.41
   4   5   4    4.97    0.43
  -5  -5  -4   -0.09    0.32
   5   5   4   -0.24    0.35
  -6  -5  -4    0.62    0.33
   6   5   4    0.77    0.40
   7   5   4   -0.28    0.40
   8   5   4    1.56    0.45
   9   5   4    3.89    0.54
  -4   6   4   -0.01    1.04
  -3   6   4    1.02    0.80
   2  -6  -4    2.26    0.42
  -2   6   4    2.39    0.77
   1  -6  -4    0.56    0.40
  -1   6   4    0.57    0.63
   0  -6  -4    6.24    0.51
   0   6   4    6.20    0.44
   0   6   4    5.50    0.75
  -1  -6  -4    1.30    0.39
   1   6   4    0.75    0.36
   1   6   4    1.13    0.61
  -2  -6  -4   25.38    0.86
   2   6   4   23.25    0.83
  -3  -6  -4   28.37    0.90
   3   6   4   27.81    0.90
  -4  -6  -4    2.81    0.42
   4   6   4    3.50    0.45
  -5  -6  -4   -0.27    0.36
   5   6   4    0.32    0.41
  -6  -6  -4    1.28    0.40
   6   6   4    2.16    0.46
   7   6   4    0.23    0.46
   8   6   4    3.94    0.57
   9   6   4    6.36    0.64
   3  -7  -4    0.13    0.43
  -3   7   4    1.03    0.92
   2  -7  -4    3.25    0.49
  -2   7   4    3.72    0.92
   1  -7  -4    0.24    0.45
  -1   7   4    1.11    0.75
   0  -7  -4    1.04    0.47
   0   7   4    0.82    0.68
  -1  -7  -4    3.10    0.49
   1   7   4    2.96    0.75
   1   7   4    2.96    0.45
  -2  -7  -4    1.24    0.46
   2   7   4    1.09    0.42
  -3  -7  -4    5.10    0.54
   3   7   4    6.54    0.55
  -4  -7  -4   -0.44    0.41
   4   7   4   -0.01    0.44
  -5  -7  -4    5.47    0.52
   5   7   4    6.13    0.58
  -6  -7  -4    5.29    0.52
   6   7   4    5.79    0.59
   7   7   4    0.85    0.51
   8   7   4    0.97    0.55
   9   7   4    0.10    0.55
   2  -8  -4    0.94    0.51
  -2   8   4    0.75    0.99
   1  -8  -4    0.85    0.51
  -1   8   4    0.21    0.81
   0  -8  -4    1.50    0.53
   0   8   4    1.33    0.88
  -1  -8  -4    0.82    0.51
   1   8   4    0.46    0.77
  -2  -8  -4    1.88    0.54
   2   8   4    0.07    0.81
   2   8   4    2.07    0.49
  -3  -8  -4    0.30    0.51
   3   8   4   -0.04    0.46
  -4  -8  -4   -0.18    0.49
   4   8   4   -0.22    0.49
  -5  -8  -4    4.61    0.58
   5   8   4    4.28    0.62
  -6  -8  -4    2.94    0.53
   6   8   4    2.29    0.58
   7   8   4    0.32    0.55
   8   8   4    0.39    0.59
   0  -9  -4    0.13    0.57
   0   9   4    1.08    0.99
  -1  -9  -4    0.12    0.56
   1   9   4    1.59    0.92
  -2  -9  -4   -0.36    0.57
   2   9   4   -0.24    0.92
  -3  -9  -4    5.80    0.69
   3   9   4    6.19    0.66
  -4  -9  -4    1.09    0.61
   4   9   4    0.62    0.56
  -5  -9  -4    1.67    0.61
   5   9   4    2.09    0.61
  -6  -9  -4    0.66    0.59
   6   9   4    0.39    0.62
   7   9   4    9.10    0.82
   8   9   4    1.04    0.66
  -2 -10  -4    0.82    0.67
   2  10   4    0.19    1.11
  -3 -10  -4    0.97    0.68
   3  10   4    0.15    1.18
  -4 -10  -4    1.31    0.70
   4  10   4    1.40    0.63
  -5 -10  -4    2.49    0.72
   5  10   4    1.32    0.67
  -6 -10  -4    1.39    0.70
   6  10   4    0.07    0.67
   6   8  -5    0.43    0.69
  -6  -8   5    0.74    0.58
   5   8  -5    2.46    0.73
  -5  -8   5    3.80    0.66
   4   8  -5   -0.27    0.64
  -4  -8   5    0.69    0.62
   3   8  -5    0.36    0.87
   3   8  -5    1.18    0.64
  -3  -8   5    1.67    0.63
   2   8  -5    1.34    0.90
  -2  -8   5    0.22    0.61
   1   8  -5    0.80    0.93
  -1  -8   5    0.13    0.62
   0   8  -5    1.66    1.01
   0  -8   5    0.92    0.63
   7   7  -5    0.55    0.64
   6   7  -5    4.59    0.71
  -6  -7   5    4.71    0.59
   5   7  -5   -0.12    0.59
  -5  -7   5   -0.22    0.48
   4   7  -5    3.07    0.66
  -4  -7   5    3.37    0.58
   3   7  -5    0.54    0.57
   3   7  -5   -0.57    0.79
  -3  -7   5    1.50    0.54
   2   7  -5    0.39    0.74
   2   7  -5    0.87    0.54
  -2  -7   5   -0.11    0.53
   1   7  -5    4.03    0.88
  -1  -7   5    4.07    0.63
   0   7  -5    1.43    0.89
   0  -7   5   -0.30    0.54
  -1   7  -5    0.81    0.96
   1  -7   5    0.38    0.56
  -2   7  -5    1.25    1.07
   2  -7   5    0.75    0.56
   8   6  -5   -0.22    0.56
   7   6  -5    1.80    0.56
   6   6  -5    1.76    0.55
   5   6  -5    1.32    0.52
  -5  -6   5    0.70    0.43
   4   6  -5   -0.12    0.49
  -4  -6   5    0.98    0.46
   3   6  -5    1.15    0.52
  -3  -6   5    1.49    0.49
   2   6  -5    5.11    0.77
   2   6  -5    4.51    0.57
  -2  -6   5    4.50    0.57
   1   6  -5   -0.15    0.45
   1   6  -5    0.10    0.70
  -1  -6   5   -0.03    0.48
   0   6  -5    6.29    0.88
   0  -6   5    4.68    0.59
  -1   6  -5    8.18    1.01
   1  -6   5    4.81    0.59
  -2   6  -5    4.39    1.04
   2  -6   5    2.79    0.55
  -3   6  -5   10.10    1.29
   3  -6   5   10.77    0.90
   8   5  -5    2.53    0.57
   7   5  -5    4.14    0.58
   6   5  -5    6.43    0.58
   5   5  -5    0.38    0.42
  -5  -5   5    0.18    0.36
   4   5  -5    2.69    0.47
  -4  -5   5    2.99    0.42
   3   5  -5   -0.18    0.40
  -3  -5   5    0.39    0.41
   2   5  -5   22.09    0.90
   2   5  -5   21.15    1.07
  -2  -5   5   22.09    0.86
   1   5  -5    0.03    0.41
   1   5  -5    0.02    0.56
  -1  -5   5   -0.25    0.41
   0   5  -5    0.57    0.62
   0   5  -5    0.92    0.40
   0  -5   5    0.64    0.43
  -1   5  -5   10.29    0.95
   1  -5   5    9.25    0.77
  -2   5  -5    5.31    0.92
   2  -5   5    6.66    0.57
  -3   5  -5    1.86    0.95
   3  -5   5    0.29    0.47
  -4   5  -5    4.91    1.13
   4  -5   5    2.88    0.51
   8   4  -5    0.17    0.47
   7   4  -5    5.26    0.54
   6   4  -5    9.07    0.70
   5   4  -5    3.21    0.45
  -5  -4   5    2.49    0.37
   4   4  -5    0.00    0.38
  -4  -4   5    0.60    0.33
   3   4  -5    5.45    0.46
  -3  -4   5    5.73    0.43
   2   4  -5    1.31    0.40
  -2  -4   5    2.57    0.38
   1   4  -5   14.60    0.82
   1   4  -5   14.57    0.68
  -1  -4   5   15.87    0.68
   0   4  -5   10.24    0.79
   0   4  -5    9.66    0.61
   0  -4   5   10.21    0.63
  -1   4  -5    4.87    0.68
  -1   4  -5    5.22    0.41
   1  -4   5    5.21    0.48
  -2   4  -5    6.84    0.84
   2  -4   5    5.65    0.51
  -3   4  -5    0.74    0.76
   3  -4   5   -0.50    0.42
  -4   4  -5    9.99    1.15
  -5   4  -5   10.73    1.31
   8   3  -5    0.27    0.41
   7   3  -5    0.46    0.40
  -7  -3   5    0.99    0.35
   6   3  -5    2.17    0.41
  -6  -3   5    2.42    0.33
   5   3  -5   21.89    0.79
  -5  -3   5   21.69    0.67
  -5  -3   5   22.12    0.67
   4   3  -5   27.44    0.85
  -4  -3   5   29.71    0.79
   3   3  -5    7.93    0.54
  -3  -3   5    7.02    0.48
   2   3  -5    1.88    0.34
  -2  -3   5    2.05    0.33
   1   3  -5    9.84    0.57
   1   3  -5    8.98    0.59
  -1  -3   5    9.01    0.54
   0   3  -5   34.14    1.12
   0   3  -5   36.21    0.92
   0  -3   5   34.88    0.91
  -1   3  -5    0.09    0.28
  -1   3  -5    0.22    0.44
   1  -3   5    0.49    0.32
  -2   3  -5    0.27    0.56
   2  -3   5   -0.02    0.33
  -3   3  -5   -0.19    0.63
   3  -3   5   -0.69    0.36
  -4   3  -5    4.22    0.88
  -5   3  -5    1.00    0.92
  -6   3  -5    0.97    1.02
  -8  -2   5    1.23    0.45
   7   2  -5    0.53    0.36
  -7  -2   5    0.53    0.36
   6   2  -5   -0.14    0.32
  -6  -2   5    0.20    0.30
  -5  -2   5   34.70    0.90
   4   2  -5    1.34    0.30
  -4  -2   5    2.10    0.26
  -4  -2   5    1.70    0.22
   3   2  -5   42.22    0.98
  -3  -2   5   40.63    0.95
   2   2  -5    0.19    0.28
  -2  -2   5    0.60    0.27
   1   2  -5   23.83    0.74
   1   2  -5   22.87    0.69
  -1  -2   5   24.13    0.70
   0   2  -5    1.35    0.34
   0   2  -5    0.92    0.30
   0  -2   5    0.81    0.30
  -1   2  -5   90.85    1.79
  -1   2  -5   89.17    2.33
   1  -2   5   92.97    1.82
  -2   2  -5    5.39    0.56
  -2   2  -5    5.28    0.41
   2  -2   5    5.14    0.36
  -3   2  -5    4.86    0.47
  -3   2  -5    4.82    0.66
  -4   2  -5    6.79    0.58
  -4   2  -5    7.36    0.83
  -5   2  -5    0.41    0.77
  -5   2  -5   -0.10    0.48
  -6   2  -5    0.86    0.60
  -6   2  -5    1.04    0.92
  -7   2  -5   -0.07    0.66
  -8  -1   5    1.03    0.46
  -7  -1   5    0.03    0.38
  -6  -1   5    0.44    0.34
   5   1  -5    4.69    0.33
  -5  -1   5    4.03    0.36
   4   1  -5    6.33    0.39
  -4  -1   5    6.90    0.40
   3   1  -5    1.60    0.26
  -3  -1   5    2.16    0.20
  -3  -1   5    2.12    0.25
   2   1  -5   21.76    0.64
  -2  -1   5   22.73    0.62
   1   1  -5   77.94    1.55
  -1  -1   5   76.99    1.55
   0   1  -5    2.13    0.28
   0   1  -5    2.06    0.27
   0  -1   5    2.15    0.29
  -1   1  -5   -0.04    0.24
  -1   1  -5    0.38    0.34
  -1   1  -5    0.24    0.23
   1  -1   5    0.11    0.27
  -2   1  -5    6.80    0.49
  -2   1  -5    6.63    0.62
   2  -1   5    6.68    0.44
  -3   1  -5    0.25    0.31
  -3   1  -5    0.21    0.47
   3  -1   5    0.00    0.27
  -4   1  -5    4.05    0.46
  -4   1  -5    5.07    0.67
  -5   1  -5    0.92    0.45
  -5   1  -5    1.97    0.71
  -6   1  -5    1.46    0.85
  -6   1  -5    0.97    0.53
  -7   1  -5    6.08    0.74
  -7   0   5   -0.33    0.40
  -6   0   5    1.48    0.41
  -5   0   5    0.96    0.33
  -4   0   5    0.41    0.25
   3   0  -5    5.61    0.38
  -3   0   5    5.49    0.37
   2   0  -5    1.65    0.26
  -2   0   5    1.71    0.24
   1   0  -5   58.69    1.22
  -1   0   5   58.98    1.21
   0   0  -5    0.18    0.25
   0   0   5    0.03    0.24
  -1   0  -5    4.94    0.32
   1   0   5    5.99    0.41
  -2   0  -5    3.58    0.28
  -2   0  -5    3.47    0.45
  -2   0  -5    3.09    0.32
   2   0   5    3.71    0.31
  -3   0  -5  230.48    5.57
  -3   0  -5  238.95    4.48
   3   0   5  224.11    4.22
  -4   0  -5    8.82    0.60
  -5   0  -5    0.50    0.40
  -6   0  -5    1.29    0.47
  -7   0  -5   -0.45    0.48
  -8   0  -5    0.51    0.58
  -6   1   5    0.56    0.74
  -5   1   5    3.44    0.68
  -4   1   5    0.57    0.49
   3  -1  -5    9.80    0.40
  -3   1   5    9.29    0.65
   2  -1  -5   22.50    0.61
  -2   1   5   24.06    0.79
   1  -1  -5    0.61    0.24
  -1   1   5    1.27    0.24
  -1   1   5    1.14    0.25
   0  -1  -5   13.37    0.49
   0   1   5   15.18    0.51
  -1  -1  -5   85.00    1.66
   1   1   5   86.35    1.67
  -2  -1  -5   59.18    1.22
   2   1   5   59.94    1.23
  -3  -1  -5    0.63    0.23
   3   1   5    0.16    0.24
   4   1   5   12.14    0.49
  -5  -1  -5    3.31    0.43
  -6  -1  -5   17.11    0.87
  -7  -1  -5   10.13    0.89
  -8  -1  -5    0.74    0.53
  -7   2   5   -1.38    0.89
  -6   2   5   -0.63    0.80
  -5   2   5    1.21    0.73
  -4   2   5    1.90    0.64
  -3   2   5    0.23    0.44
   2  -2  -5   11.72    0.46
  -2   2   5   11.35    0.66
   1  -2  -5   -0.18    0.25
  -1   2   5    0.04    0.23
  -1   2   5   -0.57    0.31
   0  -2  -5    1.43    0.28
   0   2   5    0.97    0.26
  -1  -2  -5   70.08    1.43
   1   2   5   71.60    1.44
  -2  -2  -5    8.88    0.45
   2   2   5    9.40    0.48
  -3  -2  -5    2.88    0.28
   3   2   5    2.56    0.31
  -4  -2  -5    4.68    0.28
   4   2   5    3.96    0.34
   5   2   5  149.78    2.85
  -6  -2  -5    2.02    0.45
   6   2   5    1.63    0.34
  -7  -2  -5    0.32    0.45
  -8  -2  -5    0.40    0.51
  -9  -2  -5    1.27    0.60
  -6   3   5    4.94    1.06
  -5   3   5   19.39    1.45
  -4   3   5    4.58    0.78
  -3   3   5   24.34    1.14
   2  -3  -5    4.19    0.33
  -2   3   5    4.00    0.55
   1  -3  -5    1.35    0.29
  -1   3   5    2.73    0.27
  -1   3   5    3.49    0.49
   0  -3  -5    3.59    0.34
   0   3   5    3.99    0.44
   0   3   5    3.05    0.31
  -1  -3  -5   16.47    0.61
   1   3   5   16.07    0.59
  -2  -3  -5    7.37    0.49
   2   3   5    8.04    0.50
  -3  -3  -5   24.38    0.67
   3   3   5   22.94    0.71
  -4  -3  -5    3.26    0.29
   4   3   5    4.11    0.35
   5   3   5    0.67    0.29
   6   3   5    4.50    0.40
   7   3   5   14.95    0.67
  -8  -3  -5   -0.18    0.48
  -9  -3  -5    4.19    0.67
  -6   4   5   -0.11    0.99
  -5   4   5    3.52    1.08
  -4   4   5    0.45    0.78
  -3   4   5    1.40    0.71
   2  -4  -5    3.81    0.37
  -2   4   5    5.71    0.69
   1  -4  -5    1.35    0.31
  -1   4   5    0.54    0.49
   0  -4  -5  110.32    2.15
   0   4   5  108.55    2.83
   0   4   5  108.80    2.13
  -1  -4  -5    6.53    0.52
   1   4   5    6.97    0.49
  -2  -4  -5    3.53    0.37
   2   4   5    3.92    0.36
  -3  -4  -5    7.35    0.51
   3   4   5    8.73    0.52
  -4  -4  -5   23.78    0.72
   4   4   5   23.61    0.74
  -5  -4  -5    2.34    0.31
   5   4   5    1.87    0.35
   6   4   5    2.00    0.38
   7   4   5    4.64    0.46
   8   4   5   -0.23    0.38
  -9  -4  -5    2.46    0.62
   9   4   5    1.58    0.46
  -5   5   5   -0.01    1.07
  -4   5   5    1.65    0.96
  -3   5   5   12.59    1.22
   2  -5  -5    4.30    0.42
  -2   5   5    4.91    0.77
   1  -5  -5   35.86    0.96
  -1   5   5   33.73    1.38
   0  -5  -5    0.43    0.34
   0   5   5   -0.50    0.48
   0   5   5    0.53    0.29
  -1  -5  -5    0.82    0.35
   1   5   5    1.21    0.33
  -2  -5  -5   12.14    0.61
   2   5   5   12.04    0.61
  -3  -5  -5   13.39    0.62
   3   5   5   12.17    0.62
  -4  -5  -5    8.36    0.58
   4   5   5    8.28    0.59
  -5  -5  -5    5.49    0.42
   5   5   5    4.10    0.43
   6   5   5    1.87    0.42
   7   5   5    4.59    0.51
   8   5   5    4.90    0.53
   9   5   5    5.59    0.58
  -4   6   5    2.67    1.12
   3  -6  -5    0.55    0.39
  -3   6   5    0.45    0.79
   2  -6  -5    2.97    0.43
  -2   6   5    3.39    0.82
   1  -6  -5    3.67    0.46
  -1   6   5    2.89    0.71
   0  -6  -5   -0.34    0.40
   0   6   5    0.72    0.62
   0   6   5    0.38    0.34
  -1  -6  -5    0.26    0.39
   1   6   5    0.57    0.37
  -2  -6  -5   10.55    0.67
   2   6   5    9.32    0.66
  -3  -6  -5    2.76    0.42
   3   6   5    3.61    0.44
  -4  -6  -5    0.02    0.37
   4   6   5    0.77    0.39
  -5  -6  -5    0.86    0.40
   5   6   5    1.21    0.42
  -6  -6  -5    9.97    0.67
   6   6   5   10.53    0.75
   7   6   5    0.07    0.45
   8   6   5   -0.15    0.45
   9   6   5   -1.09    0.48
   3  -7  -5    0.72    0.45
  -3   7   5    0.05    0.85
   2  -7  -5    2.59    0.48
  -2   7   5    2.81    0.91
   1  -7  -5    6.16    0.56
  -1   7   5    4.61    0.86
   0  -7  -5   -0.07    0.44
   0   7   5   -0.27    0.67
  -1  -7  -5    4.10    0.52
   1   7   5    4.10    0.48
   1   7   5    2.99    0.75
  -2  -7  -5    0.41    0.46
   2   7   5    0.48    0.44
  -3  -7  -5    0.00    0.44
   3   7   5    0.33    0.44
  -4  -7  -5    0.33    0.45
   4   7   5    0.16    0.45
  -5  -7  -5    0.15    0.43
   5   7   5   -0.11    0.44
  -6  -7  -5    3.60    0.51
   6   7   5    2.65    0.52
   7   7   5    2.02    0.53
   8   7   5    1.70    0.56
   9   7   5    2.17    0.60
   2  -8  -5   -0.47    0.47
  -2   8   5    0.12    0.94
   1  -8  -5    0.24    0.50
  -1   8   5    1.32    0.82
   0  -8  -5    2.29    0.55
   0   8   5    3.13    0.90
  -1  -8  -5   11.37    0.87
   1   8   5    8.05    0.98
  -2  -8  -5    2.03    0.53
   2   8   5    2.51    0.52
  -3  -8  -5   -0.05    0.50
   3   8   5    0.65    0.48
  -4  -8  -5    0.87    0.51
   4   8   5    0.67    0.51
  -5  -8  -5    9.04    0.67
   5   8   5    8.71    0.69
  -6  -8  -5    0.44    0.50
   6   8   5    1.03    0.54
   7   8   5    0.81    0.56
   8   8   5    5.14    0.69
   0  -9  -5    0.31    0.57
   0   9   5    1.74    0.99
  -1  -9  -5    1.96    0.60
   1   9   5    1.33    0.89
  -2  -9  -5    1.77    0.59
   2   9   5    1.18    0.94
  -3  -9  -5   -0.01    0.57
   3   9   5    0.02    0.55
  -4  -9  -5    2.12    0.63
   4   9   5    2.42    0.60
  -5  -9  -5   -0.82    0.56
   5   9   5    0.03    0.57
  -6  -9  -5    0.38    0.56
   6   9   5    0.89    0.62
   7   9   5    1.14    0.63
  -2 -10  -5    1.58    0.67
   2  10   5    1.68    1.11
   3  10   5    2.53    1.22
  -4 -10  -5   -0.19    0.67
   4  10   5    0.96    0.62
  -5 -10  -5    1.08    0.69
   5  10   5    0.60    0.66
  -6 -10  -5   -0.74    0.62
   6  10   5    0.09    0.67
   6   8  -6    1.56    0.75
  -6  -8   6    2.47    0.64
   5   8  -6    4.32    0.79
  -5  -8   6    3.99    0.69
   4   8  -6    2.07    0.73
  -4  -8   6    2.82    0.67
   3   8  -6    5.89    0.75
   3   8  -6    8.97    1.02
  -3  -8   6    6.68    0.77
   2   8  -6    1.88    0.91
  -2  -8   6    0.23    0.63
   1   8  -6    3.68    0.99
  -1  -8   6    3.10    0.69
   7   7  -6    6.28    0.80
   6   7  -6    3.43    0.70
   5   7  -6    0.78    0.62
  -5  -7   6   -0.82    0.51
   4   7  -6    1.13    0.63
  -4  -7   6    0.63    0.54
   3   7  -6    0.78    0.61
   3   7  -6    1.79    0.77
  -3  -7   6    1.48    0.59
   2   7  -6    3.02    0.60
   2   7  -6    2.83    0.81
  -2  -7   6    2.82    0.62
   1   7  -6    0.82    0.78
  -1  -7   6   -0.20    0.57
   0   7  -6    1.09    0.88
   0  -7   6   -0.08    0.59
  -1   7  -6    3.73    1.07
   1  -7   6    2.55    0.63
   7   6  -6    2.28    0.63
   6   6  -6    2.62    0.61
   5   6  -6    1.45    0.56
  -5  -6   6    0.53    0.45
   4   6  -6    5.84    0.67
  -4  -6   6    6.05    0.58
   3   6  -6   -0.66    0.66
   3   6  -6    0.60    0.56
  -3  -6   6    0.86    0.51
   2   6  -6    5.44    0.76
   2   6  -6    4.63    0.59
  -2  -6   6    5.15    0.59
   1   6  -6    2.09    0.53
   1   6  -6    3.33    0.74
  -1  -6   6    0.90    0.52
   0   6  -6    0.81    0.76
   0  -6   6   -0.14    0.51
  -1   6  -6    0.47    0.83
   1  -6   6    0.15    0.54
  -2   6  -6    1.05    0.97
   2  -6   6   -0.37    0.52
  -3   6  -6    5.25    1.15
   3  -6   6    2.43    0.57
   8   5  -6    0.06    0.55
   7   5  -6   16.05    0.95
   6   5  -6   -0.45    0.46
   5   5  -6    6.95    0.62
  -5  -5   6    9.36    0.68
   4   5  -6    0.29    0.46
  -4  -5   6   -0.25    0.40
   3   5  -6    8.64    0.61
  -3  -5   6    8.71    0.70
   2   5  -6    2.26    0.50
   2   5  -6    1.97    0.59
  -2  -5   6    1.68    0.45
   1   5  -6    0.16    0.43
   1   5  -6   -0.05    0.56
  -1  -5   6    0.41    0.45
   0   5  -6    0.19    0.42
   0   5  -6    0.82    0.64
   0  -5   6    0.44    0.47
  -1   5  -6   -0.02    0.70
   1  -5   6    0.51    0.48
  -2   5  -6   12.76    1.27
   2  -5   6   12.32    0.86
  -3   5  -6    3.14    1.00
   3  -5   6    2.58    0.53
  -4   5  -6    1.43    1.11
   4  -5   6    1.67    0.52
   8   4  -6    0.21    0.49
   7   4  -6    3.93    0.53
   6   4  -6   -0.28    0.43
   5   4  -6    3.18    0.48
  -5  -4   6    4.76    0.43
   4   4  -6   21.19    0.85
  -4  -4   6   19.44    0.76
   3   4  -6    0.39    0.40
  -3  -4   6    0.33    0.34
   2   4  -6    7.39    0.55
   2   4  -6    6.80    0.70
  -2  -4   6    8.72    0.61
   1   4  -6    2.13    0.43
   1   4  -6    2.59    0.51
  -1  -4   6    2.54    0.43
   0   4  -6   20.80    1.01
   0   4  -6   20.12    0.78
   0  -4   6   20.47    0.82
  -1   4  -6    9.85    0.63
  -1   4  -6    8.76    0.94
   1  -4   6    9.94    0.70
  -2   4  -6    6.44    0.85
   2  -4   6    5.38    0.53
  -3   4  -6    0.50    0.82
   3  -4   6   -0.51    0.45
  -4   4  -6    1.40    0.95
   4  -4   6    0.50    0.47
  -5   4  -6   -0.45    1.06
   8   3  -6    5.47    0.55
   7   3  -6    0.40    0.43
   6   3  -6    0.62    0.41
   5   3  -6   20.63    0.80
  -5  -3   6   20.51    0.69
  -5  -3   6   20.66    0.62
   4   3  -6    1.87    0.39
  -4  -3   6    2.14    0.33
   3   3  -6    0.69    0.34
  -3  -3   6    0.94    0.31
   2   3  -6   -0.18    0.33
  -2  -3   6   -0.16    0.30
   1   3  -6   18.31    0.70
   1   3  -6   16.40    0.71
  -1  -3   6   16.45    0.67
   0   3  -6    3.60    0.46
   0   3  -6    3.87    0.39
   0  -3   6    3.00    0.37
  -1   3  -6    0.94    0.49
  -1   3  -6    0.53    0.33
   1  -3   6    0.88    0.35
  -2   3  -6    5.34    0.70
   2  -3   6    4.72    0.47
  -3   3  -6    4.47    0.82
   3  -3   6    4.18    0.47
  -4   3  -6   10.62    1.08
   4  -3   6    9.77    0.73
  -5   3  -6    2.29    1.02
  -6   3  -6    3.43    1.11
   8   2  -6    0.63    0.41
   7   2  -6    0.33    0.38
  -6  -2   6    0.12    0.29
  -5  -2   6   19.57    0.63
   4   2  -6   50.08    1.16
  -4  -2   6   50.38    1.11
  -4  -2   6   48.84    1.07
   3   2  -6   35.89    0.91
  -3  -2   6   35.54    0.89
   2   2  -6   12.26    0.56
  -2  -2   6   12.76    0.54
   1   2  -6    1.40    0.32
   1   2  -6    2.08    0.29
  -1  -2   6    2.12    0.33
   0   2  -6    0.42    0.31
   0  -2   6    0.24    0.30
  -1   2  -6    2.90    0.33
  -1   2  -6    2.37    0.43
   1  -2   6    2.52    0.34
  -2   2  -6    7.20    0.47
  -2   2  -6    7.48    0.73
  -2   2  -6    7.24    0.59
   2  -2   6    7.87    0.52
  -3   2  -6    1.08    0.62
  -3   2  -6    1.67    0.42
   3  -2   6    1.55    0.36
  -4   2  -6    0.90    0.72
  -4   2  -6    0.43    0.47
  -5   2  -6    1.56    0.83
  -5   2  -6    0.50    0.55
  -6   2  -6   -0.88    0.58
  -6   2  -6    0.81    0.95
  -7  -1   6    0.43    0.39
   6   1  -6   17.85    0.65
  -6  -1   6   17.18    0.74
   5   1  -6    0.56    0.28
  -5  -1   6    0.46    0.28
   4   1  -6    5.54    0.42
  -4  -1   6    5.55    0.37
  -4  -1   6    5.08    0.38
   3   1  -6   43.44    1.00
  -3  -1   6   42.90    0.91
  -3  -1   6   43.11    0.97
   2   1  -6    3.02    0.33
  -2  -1   6    3.73    0.32
   1   1  -6   62.00    1.32
  -1  -1   6   61.68    1.32
   0   1  -6    0.30    0.25
   0   1  -6    1.18    0.28
   0  -1   6    0.95    0.30
  -1   1  -6   16.37    0.53
  -1   1  -6   15.84    0.67
  -1   1  -6   17.13    0.54
   1  -1   6   16.42    0.60
  -2   1  -6    1.02    0.43
  -2   1  -6    0.65    0.28
   2  -1   6    0.62    0.28
  -3   1  -6    5.91    0.45
  -3   1  -6    7.22    0.74
   3  -1   6    5.85    0.49
  -4   1  -6    1.79    0.43
  -4   1  -6    1.55    0.64
  -5   1  -6    1.44    0.48
  -5   1  -6    2.24    0.78
  -6   1  -6    0.98    0.56
  -7   1  -6   -0.58    0.59
   5   0  -6    0.13    0.27
   4   0  -6    1.71    0.28
   3   0  -6   14.33    0.52
  -3   0   6   14.72    0.47
   2   0  -6   94.12    1.85
  -2   0   6   93.33    1.83
   1   0  -6  242.43    4.37
  -1   0   6  233.17    4.36
   0   0  -6    3.23    0.32
   0   0   6    3.33    0.34
  -1   0  -6    0.02    0.28
   1   0   6    0.81    0.30
  -2   0  -6    2.20    0.30
  -2   0  -6    2.40    0.29
   2   0   6    3.11    0.32
  -3   0  -6    0.90    0.32
   3   0   6    0.50    0.28
  -4   0  -6    0.38    0.36
   4   0   6    0.22    0.29
  -5   0  -6    0.11    0.42
  -6   0  -6    1.52    0.51
  -7   0  -6    2.67    0.59
  -8   0  -6    1.79    0.65
  -5   1   6    2.88    0.67
   4  -1  -6    7.78    0.45
  -4   1   6    6.84    0.71
   3  -1  -6   -0.25    0.24
  -3   1   6   -0.17    0.37
   2  -1  -6    2.34    0.28
  -2   1   6    2.73    0.25
  -2   1   6    2.17    0.33
   1  -1  -6    1.97    0.29
  -1   1   6    2.67    0.29
  -1   1   6    1.80    0.25
   0  -1  -6    5.95    0.44
   0   1   6    5.95    0.46
  -1  -1  -6    3.84    0.33
   1   1   6    4.37    0.36
  -2  -1  -6   24.91    0.68
   2   1   6   24.88    0.70
  -3  -1  -6    0.61    0.24
   3   1   6    0.81    0.29
   4   1   6    0.77    0.28
  -5  -1  -6    5.15    0.50
  -6  -1  -6    0.29    0.44
  -7  -1  -6    0.63    0.50
  -8  -1  -6    0.79    0.56
  -6   2   6    2.57    0.86
  -5   2   6    0.58    0.72
  -4   2   6    8.94    0.82
   3  -2  -6    1.02    0.27
  -3   2   6    0.81    0.46
   2  -2  -6   -0.09    0.25
  -2   2   6    0.33    0.36
   1  -2  -6    9.33    0.49
  -1   2   6    8.08    0.55
  -1   2   6    8.55    0.45
   0  -2  -6   31.71    0.82
   0   2   6   32.01    0.81
  -1  -2  -6   52.33    1.16
   1   2   6   52.55    1.17
  -2  -2  -6    9.61    0.50
   2   2   6   10.53    0.52
  -3  -2  -6    8.26    0.44
   3   2   6    7.39    0.48
  -4  -2  -6   10.60    0.46
   4   2   6   10.86    0.53
   5   2   6    3.58    0.36
  -6  -2  -6   31.47    1.12
   6   2   6   30.91    0.89
  -7  -2  -6    3.86    0.56
  -8  -2  -6   -0.16    0.52
  -6   3   6    0.00    0.92
  -5   3   6    8.82    1.03
  -4   3   6    1.94    0.73
   3  -3  -6   -0.39    0.27
  -3   3   6    0.06    0.56
   2  -3  -6    1.08    0.28
  -2   3   6    1.13    0.48
   1  -3  -6    6.05    0.45
  -1   3   6    6.66    0.64
  -1   3   6    5.76    0.42
   0  -3  -6    5.45    0.46
   0   3   6    5.75    0.57
   0   3   6    5.24    0.45
  -1  -3  -6    3.21    0.34
   1   3   6    2.96    0.33
  -2  -3  -6   28.88    0.78
   2   3   6   28.85    0.81
  -3  -3  -6    2.23    0.30
   3   3   6    1.65    0.32
  -4  -3  -6   17.89    0.60
   4   3   6   18.31    0.67
  -5  -3  -6    3.75    0.31
   5   3   6    4.57    0.40
   6   3   6   34.46    0.98
   7   3   6    0.90    0.40
  -8  -3  -6    0.92    0.51
  -9  -3  -6    0.45    0.57
  -5   4   6    3.95    1.10
  -4   4   6    3.68    0.87
  -3   4   6    0.22    0.67
   2  -4  -6   12.25    0.61
  -2   4   6   12.97    0.96
   1  -4  -6    1.84    0.35
  -1   4   6    2.31    0.54
  -1   4   6    1.89    0.27
   0  -4  -6    8.28    0.55
   0   4   6    7.63    0.48
   0   4   6    8.08    0.68
  -1  -4  -6    3.35    0.38
   1   4   6    3.89    0.36
  -2  -4  -6    3.20    0.37
   2   4   6    2.12    0.35
  -3  -4  -6   15.26    0.61
   3   4   6   14.36    0.63
  -4  -4  -6    8.08    0.49
   4   4   6    8.69    0.56
  -5  -4  -6    4.10    0.35
   5   4   6    3.07    0.41
   6   4   6    0.27    0.37
   7   4   6    0.11    0.39
   8   4   6    9.76    0.72
  -9  -4  -6    4.55    0.70
   9   4   6    6.68    0.60
  -5   5   6    1.09    1.12
  -4   5   6    0.29    0.94
   3  -5  -6   19.16    0.76
  -3   5   6   18.26    1.32
   2  -5  -6    0.54    0.37
  -2   5   6    0.09    0.65
   1  -5  -6   16.12    0.73
  -1   5   6   16.23    1.06
   0  -5  -6    0.70    0.38
   0   5   6    0.60    0.52
   0   5   6    0.47    0.31
  -1  -5  -6    1.59    0.39
   1   5   6    1.89    0.35
  -2  -5  -6   14.86    0.70
   2   5   6   13.74    0.66
  -3  -5  -6   16.00    0.69
   3   5   6   14.79    0.69
  -4  -5  -6    0.61    0.35
   4   5   6    0.53    0.36
  -5  -5  -6    9.20    0.59
   5   5   6   11.76    0.67
   6   5   6    4.24    0.48
   7   5   6    2.15    0.46
   8   5   6    6.97    0.59
   9   5   6    3.79    0.57
  -4   6   6    2.41    1.10
   3  -6  -6    0.14    0.40
  -3   6   6    0.00    0.78
   2  -6  -6    6.20    0.52
  -2   6   6    7.12    0.94
   1  -6  -6    5.18    0.50
  -1   6   6    6.50    0.83
   0  -6  -6   26.80    0.91
   0   6   6   25.84    0.83
   0   6   6   25.65    1.28
  -1  -6  -6    0.49    0.40
   1   6   6    0.68    0.36
  -2  -6  -6    0.70    0.39
   2   6   6    0.39    0.39
  -3  -6  -6    8.31    0.70
   3   6   6    9.78    0.68
  -4  -6  -6    6.39    0.52
   4   6   6    5.56    0.50
  -5  -6  -6    0.74    0.41
   5   6   6    1.65    0.45
  -6  -6  -6    6.26    0.50
   6   6   6    6.90    0.57
   7   6   6    1.74    0.49
   8   6   6    1.85    0.51
   9   6   6    1.50    0.55
   3  -7  -6    0.76    0.47
  -3   7   6    1.34    0.92
   2  -7  -6    0.60    0.45
  -2   7   6    0.38    0.83
   1  -7  -6    3.38    0.50
  -1   7   6    3.50    0.83
   0  -7  -6    2.43    0.48
   0   7   6    2.17    0.74
  -1  -7  -6    0.68    0.46
   1   7   6    0.15    0.70
   1   7   6    0.54    0.41
  -2  -7  -6   -0.04    0.44
   2   7   6    0.48    0.46
  -3  -7  -6    2.76    0.48
   3   7   6    2.01    0.47
  -4  -7  -6    0.97    0.46
   4   7   6    0.44    0.45
  -5  -7  -6    5.17    0.55
   5   7   6    5.10    0.57
  -6  -7  -6    0.37    0.43
   6   7   6   -0.39    0.46
   7   7   6   10.56    0.85
   8   7   6    3.67    0.60
   9   7   6    0.39    0.56
   2  -8  -6    0.25    0.50
  -2   8   6    0.84    0.95
   1  -8  -6    1.15    0.51
  -1   8   6    1.37    0.85
   0  -8  -6    2.56    0.56
   0   8   6    3.46    0.90
  -1  -8  -6    2.50    0.56
   1   8   6    3.68    0.84
  -2  -8  -6    1.73    0.55
   2   8   6    0.80    0.51
  -3  -8  -6    1.95    0.54
   3   8   6    2.18    0.54
  -4  -8  -6    0.12    0.50
   4   8   6    0.40    0.51
  -5  -8  -6    5.25    0.62
   5   8   6    4.38    0.60
  -6  -8  -6    0.70    0.51
   6   8   6    0.78    0.54
   7   8   6    0.79    0.54
   8   8   6    2.76    0.62
   0  -9  -6    0.87    0.56
   0   9   6    1.62    0.97
  -1  -9  -6    0.07    0.56
   1   9   6    0.24    0.89
  -2  -9  -6    0.88    0.59
   2   9   6    0.19    0.89
  -3  -9  -6    0.15    0.58
   3   9   6   -0.44    0.54
  -4  -9  -6    0.24    0.57
   4   9   6    0.26    0.58
  -5  -9  -6   -0.05    0.57
   5   9   6    0.89    0.60
  -6  -9  -6    1.42    0.59
   6   9   6    0.27    0.60
   7   9   6    7.13    0.77
  -2 -10  -6    1.51    0.67
   2  10   6    1.13    1.07
  -3 -10  -6    2.69    0.72
   3  10   6   -0.81    1.12
  -4 -10  -6    0.80    0.66
   4  10   6    1.69    0.65
  -5 -10  -6    1.82    0.68
   5  10   6    1.21    0.69
  -6 -10  -6   -0.41    0.65
   6  10   6    0.71    0.67
   4   8  -7   -0.32    0.70
  -4  -8   7   -0.05    0.65
   3   8  -7    0.97    0.68
  -3  -8   7    0.84    0.66
  -2  -8   7    2.14    0.71
   6   7  -7    2.70    0.74
   5   7  -7    0.98    0.69
  -5  -7   7    0.72    0.57
   4   7  -7    6.31    0.76
  -4  -7   7    5.30    0.67
   3   7  -7   -0.17    0.62
  -3  -7   7   -0.48    0.58
   2   7  -7    3.93    0.67
   2   7  -7    4.61    0.91
  -2  -7   7    3.78    0.67
   1   7  -7    2.40    0.81
  -1  -7   7    2.38    0.64
   0   7  -7    1.53    0.92
   0  -7   7    0.05    0.60
  -1   7  -7    0.82    1.00
   1  -7   7   -0.59    0.60
   7   6  -7    0.18    0.63
   6   6  -7   -0.48    0.59
   5   6  -7    1.75    0.60
  -5  -6   7    1.87    0.52
   4   6  -7    0.71    0.58
  -4  -6   7    1.54    0.53
   3   6  -7   -0.30    0.57
   3   6  -7    0.38    0.69
  -3  -6   7    0.56    0.53
   2   6  -7    0.96    0.57
   2   6  -7    2.22    0.67
  -2  -6   7    1.63    0.54
   1   6  -7   11.83    1.08
   1   6  -7    7.61    0.66
  -1  -6   7    8.45    0.71
   0   6  -7   14.44    1.26
   0  -6   7   15.52    0.98
  -1   6  -7    0.41    0.85
   1  -6   7   -0.21    0.55
  -2   6  -7    1.11    0.97
   2  -6   7    0.28    0.55
   7   5  -7    0.17    0.53
   6   5  -7    3.06    0.56
   5   5  -7    1.84    0.54
  -5  -5   7    2.09    0.44
   4   5  -7    3.19    0.56
  -4  -5   7    3.99    0.51
   3   5  -7    3.31    0.56
  -3  -5   7    3.20    0.51
   2   5  -7    0.44    0.53
   2   5  -7    0.83    0.49
  -2  -5   7    0.29    0.46
   1   5  -7    3.86    0.64
   1   5  -7    3.68    0.53
  -1  -5   7    3.52    0.53
   0   5  -7    0.60    0.62
   0   5  -7   -0.06    0.45
   0  -5   7   -0.25    0.47
  -1   5  -7   -0.43    0.73
   1  -5   7   -0.02    0.49
  -2   5  -7    0.77    0.86
   2  -5   7    1.23    0.54
  -3   5  -7    0.71    0.96
   3  -5   7   -0.26    0.52
  -4   5  -7    1.08    1.10
   4  -5   7    0.12    0.52
   8   4  -7    0.18    0.52
   7   4  -7    8.80    0.69
   6   4  -7    0.60    0.48
   5   4  -7    1.15    0.48
  -5  -4   7    2.29    0.41
   4   4  -7    0.47    0.45
  -4  -4   7    0.19    0.36
   3   4  -7    0.93    0.46
  -3  -4   7    0.24    0.39
   2   4  -7    6.33    0.56
   2   4  -7    5.59    0.55
  -2  -4   7    5.39    0.50
   1   4  -7    7.25    0.70
   1   4  -7    6.01    0.54
  -1  -4   7    5.19    0.51
   0   4  -7    6.28    0.65
   0   4  -7    5.66    0.51
   0  -4   7    5.64    0.52
  -1   4  -7   44.46    1.59
   1  -4   7   41.62    1.20
  -2   4  -7   25.16    1.36
   2  -4   7   26.19    0.99
  -3   4  -7    2.65    0.91
   3  -4   7    2.82    0.53
  -4   4  -7   -0.99    0.95
   4  -4   7   -0.17    0.51
  -5   4  -7    2.33    1.13
   8   3  -7    0.07    0.49
   7   3  -7    0.16    0.45
   6   3  -7    5.57    0.54
   5   3  -7    5.63    0.51
   4   3  -7    0.01    0.39
  -4  -3   7   -0.19    0.31
   3   3  -7    2.73    0.43
  -3  -3   7    3.11    0.39
   2   3  -7   14.83    0.71
   2   3  -7   12.53    0.62
  -2  -3   7   14.40    0.67
   1   3  -7   17.23    0.71
   1   3  -7   18.02    0.76
  -1  -3   7   17.63    0.72
   0   3  -7    0.59    0.37
   0   3  -7   -0.10    0.40
   0  -3   7    0.36    0.35
  -1   3  -7   21.21    0.78
  -1   3  -7   21.21    0.98
   1  -3   7   21.51    0.81
  -2   3  -7    1.52    0.64
   2  -3   7    1.85    0.43
  -3   3  -7   12.74    1.19
   3  -3   7   12.74    0.78
  -4   3  -7    2.44    0.90
   4  -3   7    1.55    0.49
  -5   3  -7    0.77    0.98
   8   2  -7    0.05    0.43
   7   2  -7    6.20    0.53
   5   2  -7    0.06    0.35
   4   2  -7   12.10    0.61
  -4  -2   7   11.64    0.55
   3   2  -7    1.66    0.35
  -3  -2   7    1.26    0.32
   2   2  -7    0.92    0.32
  -2  -2   7    0.83    0.31
   1   2  -7    7.25    0.39
   1   2  -7    6.48    0.51
  -1  -2   7    7.80    0.54
   0   2  -7    4.80    0.47
   0   2  -7    5.20    0.38
   0  -2   7    5.04    0.41
  -1   2  -7   23.58    0.75
  -1   2  -7   23.93    0.90
   1  -2   7   24.98    0.78
  -2   2  -7    8.09    0.54
  -2   2  -7    8.85    0.79
  -2   2  -7    9.42    0.64
   2  -2   7   10.04    0.59
  -3   2  -7    8.05    0.82
  -3   2  -7    8.67    0.74
   3  -2   7    7.33    0.50
  -4   2  -7   20.11    1.31
  -4   2  -7   20.57    1.01
   4  -2   7   20.78    0.81
  -5   2  -7    3.95    0.66
  -5   2  -7    4.84    0.98
  -6   2  -7   -0.57    0.63
  -6   2  -7   -0.50    0.98
   6   1  -7   12.94    0.63
  -6  -1   7   11.97    0.67
   5   1  -7   12.19    0.59
  -5  -1   7   13.17    0.58
   4   1  -7   33.76    0.89
  -4  -1   7   33.55    0.84
   3   1  -7    6.58    0.49
  -3  -1   7    5.97    0.44
   2   1  -7   37.03    0.94
  -2  -1   7   36.76    0.92
   1   1  -7    0.61    0.30
  -1  -1   7    1.48    0.32
   0   1  -7   10.95    0.52
   0   1  -7    9.81    0.44
   0  -1   7   11.21    0.56
  -1   1  -7   13.01    0.53
  -1   1  -7   13.20    0.48
  -1   1  -7   12.83    0.61
   1  -1   7   12.94    0.59
  -2   1  -7    1.39    0.46
  -2   1  -7    1.44    0.27
  -2   1  -7    1.63    0.31
   2  -1   7    1.50    0.33
  -3   1  -7    0.39    0.36
  -3   1  -7   -0.02    0.52
   3  -1   7    0.56    0.33
  -4   1  -7    0.13    0.42
  -4   1  -7    0.14    0.66
   4  -1   7   -0.24    0.35
  -5   1  -7   13.21    1.27
  -5   1  -7   13.22    0.94
  -6   1  -7    0.08    0.57
  -7   1  -7   -0.22    0.64
   6   0  -7    0.31    0.30
   5   0  -7   33.93    0.91
   4   0  -7    0.49    0.29
   3   0  -7   18.24    0.63
  -3   0   7   18.58    0.57
   2   0  -7    8.44    0.49
  -2   0   7    8.92    0.47
   1   0  -7    0.39    0.29
  -1   0   7    0.48    0.26
   0   0  -7    7.75    0.49
   0   0   7    7.20    0.50
  -1   0  -7   27.87    0.78
   1   0   7   30.34    0.82
  -2   0  -7   -0.09    0.26
  -2   0  -7    0.54    0.27
   2   0   7    0.26    0.29
  -3   0  -7   28.14    0.70
  -3   0  -7   28.73    0.88
   3   0   7   28.20    0.80
  -4   0  -7    2.83    0.44
   4   0   7    3.15    0.38
  -5   0  -7    3.02    0.51
   5   0   7    2.91    0.40
  -6   0  -7    1.00    0.52
  -7   0  -7    0.22    0.55
   5  -1  -7    5.82    0.50
  -5   1   7    5.30    0.72
   4  -1  -7   18.08    0.65
  -4   1   7   17.76    0.90
   3  -1  -7   -0.26    0.27
  -3   1   7   -0.05    0.38
   2  -1  -7   27.52    0.73
  -2   1   7   25.10    0.69
  -2   1   7   25.38    0.82
   1  -1  -7    0.29    0.28
  -1   1   7    0.49    0.20
  -1   1   7    0.81    0.27
   0  -1  -7   57.32    1.27
   0   1   7   59.60    1.29
  -1  -1  -7    0.83    0.30
   1   1   7    0.49    0.30
  -2  -1  -7    0.87    0.29
   2   1   7    1.23    0.31
  -3  -1  -7    0.47    0.26
   3   1   7    0.39    0.29
   4   1   7    2.50    0.34
  -5  -1  -7    0.46    0.42
   5   1   7    0.72    0.35
  -6  -1  -7   -0.58    0.44
  -7  -1  -7   17.98    1.06
  -8  -1  -7    0.33    0.58
  -6   2   7    4.09    0.92
  -5   2   7    1.66    0.74
   4  -2  -7   -0.31    0.29
  -4   2   7    0.20    0.60
   3  -2  -7    5.10    0.38
  -3   2   7    6.01    0.61
   2  -2  -7    0.01    0.27
  -2   2   7    1.00    0.38
  -2   2   7    0.44    0.24
   1  -2  -7   20.93    0.67
  -1   2   7   21.88    0.75
  -1   2   7   20.88    0.65
   0  -2  -7   -0.47    0.29
   0   2   7   -0.10    0.30
  -1  -2  -7  109.47    2.16
   1   2   7  111.44    2.17
  -2  -2  -7    5.31    0.37
   2   2   7    5.02    0.39
  -3  -2  -7   69.71    1.45
   3   2   7   70.89    1.49
  -4  -2  -7    1.48    0.28
   4   2   7    1.43    0.33
   5   2   7    3.75    0.41
  -6  -2  -7    4.46    0.56
   6   2   7    4.68    0.45
  -7  -2  -7    0.88    0.50
  -8  -2  -7   -0.33    0.53
  -6   3   7   -0.46    0.88
  -5   3   7    0.42    0.82
  -4   3   7    1.42    0.74
   3  -3  -7    2.04    0.35
  -3   3   7    2.44    0.64
   2  -3  -7   15.16    0.61
  -2   3   7   14.36    0.84
   1  -3  -7    1.18    0.32
  -1   3   7    0.61    0.40
  -1   3   7    0.47    0.27
   0  -3  -7    0.56    0.30
   0   3   7    1.12    0.29
   0   3   7    0.99    0.37
  -1  -3  -7    2.05    0.34
   1   3   7    2.70    0.35
  -2  -3  -7   75.69    1.57
   2   3   7   74.20    1.59
  -3  -3  -7    6.18    0.49
   3   3   7    7.65    0.51
  -4  -3  -7    9.11    0.50
   4   3   7   11.75    0.58
  -5  -3  -7    3.55    0.34
   5   3   7    4.33    0.43
   6   3   7   27.95    0.89
   7   3   7    3.65    0.48
  -8  -3  -7    1.19    0.55
   8   3   7    1.76    0.46
  -5   4   7   -0.35    0.99
  -4   4   7    1.62    0.84
   3  -4  -7   -0.17    0.33
  -3   4   7    0.06    0.68
   2  -4  -7    0.02    0.32
  -2   4   7    0.08    0.55
   1  -4  -7    0.44    0.33
  -1   4   7    0.29    0.28
  -1   4   7    0.30    0.49
   0  -4  -7    1.64    0.35
   0   4   7    1.47    0.32
   0   4   7    0.90    0.46
  -1  -4  -7    5.59    0.42
   1   4   7    5.81    0.51
  -2  -4  -7    0.69    0.32
   2   4   7    0.41    0.33
  -3  -4  -7   51.34    1.20
   3   4   7   52.89    1.24
  -4  -4  -7   19.05    0.67
   4   4   7   18.70    0.74
  -5  -4  -7   67.57    1.45
   5   4   7   64.99    1.52
   6   4   7    0.06    0.40
   7   4   7    0.55    0.44
   8   4   7    0.50    0.47
  -9  -4  -7    0.04    0.56
   9   4   7    0.59    0.49
  -5   5   7    3.87    1.24
  -4   5   7    1.60    0.97
   3  -5  -7    3.90    0.42
  -3   5   7    5.33    0.96
   2  -5  -7    0.43    0.38
  -2   5   7    0.54    0.66
   1  -5  -7    1.27    0.42
  -1   5   7    2.02    0.65
   0  -5  -7    0.36    0.40
   0   5   7   -0.19    0.32
   0   5   7    0.49    0.54
  -1  -5  -7    3.73    0.44
   1   5   7    3.88    0.42
  -2  -5  -7    0.74    0.38
   2   5   7    1.07    0.37
  -3  -5  -7    1.46    0.39
   3   5   7    0.61    0.38
  -4  -5  -7    3.73    0.42
   4   5   7    4.42    0.46
  -5  -5  -7    2.42    0.38
   5   5   7    3.79    0.46
   6   5   7    1.54    0.45
   7   5   7    0.40    0.46
   8   5   7    3.76    0.55
   9   5   7    0.49    0.53
  -4   6   7    0.11    1.09
   3  -6  -7    0.28    0.40
  -3   6   7    0.07    0.79
   2  -6  -7    2.36    0.46
  -2   6   7    2.79    0.80
   1  -6  -7    0.21    0.44
  -1   6   7    0.72    0.67
   0  -6  -7   15.53    0.83
   0   6   7   14.73    1.09
   0   6   7   16.43    0.70
  -1  -6  -7    3.58    0.50
   1   6   7    3.83    0.44
  -2  -6  -7    0.13    0.43
   2   6   7   -0.17    0.38
  -3  -6  -7   -0.16    0.41
   3   6   7   -0.21    0.40
  -4  -6  -7    4.15    0.49
   4   6   7    3.47    0.49
  -5  -6  -7   18.38    0.82
   5   6   7   18.61    0.86
  -6  -6  -7    7.45    0.52
   6   6   7    7.58    0.61
   7   6   7    1.55    0.51
   8   6   7    0.04    0.51
   9   6   7   -0.22    0.53
   3  -7  -7    0.06    0.46
  -3   7   7    1.44    1.12
   2  -7  -7    1.63    0.49
  -2   7   7    1.77    0.88
   1  -7  -7    5.34    0.57
  -1   7   7    3.96    0.85
   0  -7  -7    0.08    0.48
   0   7   7    0.14    0.71
  -1  -7  -7   -0.74    0.47
   1   7   7    0.30    0.42
   1   7   7    0.26    0.74
  -2  -7  -7    0.20    0.48
   2   7   7    0.40    0.45
  -3  -7  -7    5.18    0.58
   3   7   7    5.12    0.57
  -4  -7  -7   -0.14    0.47
   4   7   7    0.71    0.49
  -5  -7  -7    0.06    0.44
   5   7   7   -0.04    0.48
  -6  -7  -7    0.62    0.46
   6   7   7    0.53    0.48
   7   7   7    6.93    0.67
   8   7   7    0.84    0.54
   1  -8  -7    0.17    0.52
  -1   8   7    0.24    0.82
   0  -8  -7    0.46    0.55
   0   8   7    1.53    0.87
  -1  -8  -7    1.54    0.54
   1   8   7    2.39    0.82
  -2  -8  -7    1.07    0.53
   2   8   7    0.20    0.49
  -3  -8  -7    0.77    0.53
   3   8   7    0.20    0.52
  -4  -8  -7   -0.64    0.51
   4   8   7    0.19    0.54
  -5  -8  -7   -0.56    0.50
   5   8   7    0.70    0.56
  -6  -8  -7   -0.01    0.49
   6   8   7    0.29    0.56
   7   8   7    2.59    0.60
   8   8   7    1.68    0.60
   0  -9  -7    0.27    0.56
   0   9   7   -0.14    0.90
  -1  -9  -7   -0.37    0.54
   1   9   7    0.47    0.87
  -2  -9  -7   -0.27    0.54
   2   9   7   -1.42    0.86
  -3  -9  -7    2.73    0.63
   3   9   7    1.72    0.61
  -4  -9  -7    0.58    0.62
   4   9   7    1.27    0.60
  -5  -9  -7    1.44    0.62
   5   9   7    1.30    0.65
  -6  -9  -7   -0.03    0.57
   6   9   7    0.10    0.62
   7   9   7    2.37    0.67
  -3 -10  -7    0.90    0.67
   3  10   7   -2.60    1.05
  -4 -10  -7    0.93    0.70
   4  10   7    0.35    0.63
  -5 -10  -7    3.32    0.73
   5  10   7    1.88    0.73
  -6 -10  -7    1.92    0.71
   6  10   7    1.99    0.73
   5   7  -8   -0.07    0.73
  -5  -7   8    0.75    0.61
   4   7  -8   -0.44    0.69
  -4  -7   8   -0.15    0.60
   3   7  -8   10.40    0.85
  -3  -7   8    8.15    0.79
   2   7  -8    6.08    0.75
  -2  -7   8    8.32    0.80
  -1  -7   8    1.62    0.66
   0  -7   8    0.89    0.62
   6   6  -8    0.67    0.64
   5   6  -8    4.35    0.71
  -5  -6   8    5.37    0.59
   4   6  -8    1.55    0.64
  -4  -6   8    1.55    0.55
   3   6  -8    1.97    0.65
  -3  -6   8    2.18    0.57
   2   6  -8    3.93    0.66
  -2  -6   8    5.00    0.64
   1   6  -8    7.43    0.68
  -1  -6   8    7.59    0.70
   0   6  -8    0.30    0.75
   0  -6   8   -0.07    0.57
  -1   6  -8    3.40    0.95
   1  -6   8    1.86    0.61
  -2   6  -8    1.56    1.00
   2  -6   8    0.29    0.59
   7   5  -8    0.95    0.62
   6   5  -8    1.34    0.59
   5   5  -8    0.65    0.55
  -5  -5   8    0.23    0.44
   4   5  -8    0.05    0.55
  -4  -5   8   -0.43    0.44
   3   5  -8    0.63    0.54
  -3  -5   8   -0.26    0.47
   2   5  -8    0.21    0.54
  -2  -5   8   -0.50    0.47
   1   5  -8   10.14    0.88
   1   5  -8   10.06    0.88
  -1  -5   8    8.60    0.66
   0   5  -8   11.18    1.03
   0  -5   8    8.98    0.68
  -1   5  -8    0.17    0.76
   1  -5   8    1.07    0.56
  -2   5  -8    6.50    1.00
   2  -5   8    6.47    0.70
  -3   5  -8    1.14    1.01
   3  -5   8    1.05    0.60
   7   4  -8   -0.44    0.52
   6   4  -8    3.73    0.59
   5   4  -8    5.89    0.62
  -5  -4   8    5.75    0.51
   4   4  -8    1.24    0.49
  -4  -4   8    0.43    0.40
   3   4  -8   -0.46    0.47
  -3  -4   8    0.62    0.41
   2   4  -8    3.49    0.55
   2   4  -8    3.99    0.54
  -2  -4   8    3.20    0.49
   1   4  -8   -0.19    0.48
   1   4  -8    0.71    0.47
  -1  -4   8    0.59    0.45
   0   4  -8    0.81    0.55
   0   4  -8    0.00    0.46
   0  -4   8   -0.25    0.43
  -1   4  -8    2.56    0.70
   1  -4   8    2.95    0.53
  -2   4  -8    4.77    0.86
   2  -4   8    3.99    0.57
  -3   4  -8    0.57    0.89
   3  -4   8    0.45    0.51
  -4   4  -8   -0.82    0.95
   4  -4   8   -0.53    0.53
   7   3  -8    2.84    0.55
   6   3  -8    1.02    0.47
   5   3  -8    1.65    0.47
  -4  -3   8   -0.68    0.34
  -3  -3   8   10.15    0.66
   2   3  -8    8.15    0.50
  -2  -3   8    7.81    0.64
   1   3  -8    3.21    0.48
   1   3  -8    3.73    0.40
  -1  -3   8    2.99    0.43
   0   3  -8    1.06    0.42
   0   3  -8    2.06    0.47
   0  -3   8    1.57    0.44
  -1   3  -8   12.05    0.73
  -1   3  -8   12.97    0.87
   1  -3   8   12.19    0.75
  -2   3  -8    7.21    0.80
   2  -3   8    6.54    0.57
  -3   3  -8    1.68    0.81
   3  -3   8    0.53    0.48
  -4   3  -8    0.34    0.91
   4  -3   8    0.73    0.50
  -5   3  -8   -0.52    0.98
   5  -3   8   -0.41    0.50
   7   2  -8    1.76    0.47
   5   2  -8   -0.17    0.37
   4   2  -8   17.61    0.73
  -4  -2   8   17.52    0.68
   3   2  -8    8.57    0.60
  -3  -2   8    8.87    0.58
   2   2  -8    0.16    0.34
  -2  -2   8    0.31    0.33
   1   2  -8    1.03    0.35
  -1  -2   8    0.95    0.35
   0   2  -8   11.23    0.60
   0   2  -8   10.95    0.58
   0  -2   8   11.66    0.66
  -1   2  -8   17.09    0.83
   1  -2   8   17.50    0.73
  -2   2  -8    0.11    0.38
  -2   2  -8   -0.84    0.55
  -2   2  -8   -0.24    0.34
   2  -2   8   -0.24    0.37
  -3   2  -8    4.88    0.77
  -3   2  -8    3.63    0.52
   3  -2   8    4.13    0.48
  -4   2  -8    2.90    0.85
  -4   2  -8    2.68    0.58
   4  -2   8    2.86    0.48
  -5   2  -8    8.34    1.08
  -5   2  -8    4.67    0.70
   5  -2   8    7.07    0.58
  -6   2  -8    1.63    0.70
   6   1  -8    0.60    0.37
   5   1  -8   -0.41    0.32
   4   1  -8    0.61    0.33
  -4  -1   8    0.59    0.29
   3   1  -8    5.48    0.41
  -3  -1   8    6.20    0.49
   2   1  -8    1.25    0.34
  -2  -1   8    1.44    0.33
   1   1  -8   15.04    0.62
  -1  -1   8   13.92    0.63
   0   1  -8   20.35    0.69
   0  -1   8   21.24    0.73
  -1   1  -8    0.96    0.31
  -1   1  -8    1.79    0.38
  -1   1  -8    1.56    0.26
   1  -1   8    0.83    0.34
  -2   1  -8    0.28    0.30
  -2   1  -8    0.42    0.29
  -2   1  -8    0.24    0.47
   2  -1   8    0.18    0.34
  -3   1  -8    7.95    0.85
  -3   1  -8    8.71    0.67
   3  -1   8    9.75    0.63
  -4   1  -8    9.31    0.90
  -4   1  -8    6.38    0.58
   4  -1   8    7.91    0.52
  -5   1  -8    3.99    0.61
   5  -1   8    4.78    0.49
  -6   1  -8    0.83    0.63
  -7   1  -8   -0.13    0.65
   7   0  -8    0.70    0.38
   6   0  -8    0.33    0.34
   5   0  -8    0.59    0.35
   4   0  -8   28.82    0.86
   3   0  -8    0.56    0.33
  -3   0   8    0.18    0.26
   2   0  -8   14.63    0.60
  -2   0   8   13.28    0.59
   1   0  -8   13.57    0.59
  -1   0   8   13.04    0.59
   0   0  -8   14.66    0.62
   0   0   8   15.22    0.62
  -1   0  -8    0.65    0.23
  -1   0  -8    1.13    0.31
   1   0   8    0.48    0.33
  -2   0  -8    2.33    0.32
  -2   0  -8    1.85    0.31
   2   0   8    1.71    0.36
  -3   0  -8    4.71    0.43
  -3   0  -8    4.63    0.33
   3   0   8    5.35    0.44
  -4   0  -8    1.53    0.44
   4   0   8    2.41    0.40
  -5   0  -8    1.24    0.49
   5   0   8   -0.45    0.38
  -6   0  -8    5.21    0.64
  -7   0  -8    1.72    0.62
   5  -1  -8    6.35    0.47
   4  -1  -8    0.63    0.34
  -4   1   8    0.39    0.48
   3  -1  -8    0.95    0.33
  -3   1   8    0.56    0.37
   2  -1  -8    3.52    0.36
  -2   1   8    3.00    0.33
  -2   1   8    4.03    0.34
   1  -1  -8   64.62    1.41
  -1   1   8   65.35    1.39
   0  -1  -8    1.26    0.31
   0   1   8    0.79    0.33
  -1  -1  -8   15.15    0.60
   1   1   8   14.90    0.63
  -2  -1  -8   18.18    0.65
   2   1   8   18.10    0.68
  -3  -1  -8    3.43    0.33
   3   1   8    3.79    0.40
  -4  -1  -8    5.73    0.45
  -4  -1  -8    6.38    0.51
   4   1   8    6.43    0.45
  -5  -1  -8    6.21    0.57
   5   1   8    7.14    0.49
  -6  -1  -8    0.38    0.50
   6   1   8    1.41    0.42
  -7  -1  -8   -0.49    0.53
  -8  -1  -8    4.73    0.74
  -6   2   8   -0.34    0.77
  -5   2   8    0.76    0.69
   4  -2  -8    0.95    0.35
  -4   2   8    1.17    0.62
   3  -2  -8   10.17    0.57
  -3   2   8   10.84    0.78
   2  -2  -8   41.35    1.00
  -2   2   8   38.84    0.95
  -2   2   8   39.49    1.21
   1  -2  -8   17.26    0.63
  -1   2   8   15.79    0.62
  -1   2   8   15.75    0.63
   0  -2  -8    3.58    0.35
   0   2   8    3.50    0.38
   0   2   8    3.63    0.34
  -1  -2  -8    4.03    0.36
   1   2   8    3.56    0.37
  -2  -2  -8    1.09    0.30
   2   2   8    0.79    0.31
  -3  -2  -8    1.80    0.32
   3   2   8    1.97    0.37
  -4  -2  -8    0.26    0.29
   4   2   8    0.43    0.35
   5   2   8    0.10    0.36
  -6  -2  -8    8.36    0.66
   6   2   8    9.01    0.57
  -7  -2  -8   -0.10    0.49
   7   2   8   -0.04    0.45
  -8  -2  -8    0.56    0.59
  -6   3   8    3.58    0.99
  -5   3   8   -0.29    0.80
  -4   3   8    1.04    0.72
   3  -3  -8    1.36    0.36
  -3   3   8    2.87    0.63
   2  -3  -8    0.41    0.34
  -2   3   8    0.21    0.27
  -2   3   8    0.72    0.47
   1  -3  -8   40.76    1.03
  -1   3   8   41.32    1.26
  -1   3   8   39.81    1.00
   0  -3  -8    0.84    0.33
   0   3   8    0.45    0.30
   0   3   8    0.60    0.37
  -1  -3  -8   15.81    0.64
   1   3   8   14.99    0.63
  -2  -3  -8    8.93    0.56
   2   3   8    8.18    0.56
  -3  -3  -8    0.28    0.30
   3   3   8   -0.17    0.32
  -4  -3  -8    5.86    0.40
   4   3   8    5.29    0.44
   5   3   8    0.43    0.38
   6   3   8    5.82    0.52
   7   3   8    0.30    0.44
  -8  -3  -8    0.48    0.57
   8   3   8   -0.32    0.46
  -5   4   8    1.27    1.04
   4  -4  -8    0.17    0.36
  -4   4   8    0.65    0.83
   3  -4  -8    3.47    0.43
  -3   4   8    5.02    0.82
   2  -4  -8   -0.21    0.36
  -2   4   8    0.24    0.58
   1  -4  -8   10.61    0.63
  -1   4   8   10.20    0.57
  -1   4   8   10.77    0.84
   0  -4  -8   11.58    0.62
   0   4   8   10.45    0.76
   0   4   8   10.35    0.58
  -1  -4  -8    2.10    0.37
   1   4   8    2.74    0.39
  -2  -4  -8    2.36    0.38
   2   4   8    3.60    0.41
  -3  -4  -8    7.82    0.56
   3   4   8    6.99    0.58
  -4  -4  -8    0.31    0.33
   4   4   8    0.08    0.35
  -5  -4  -8   10.39    0.60
   5   4   8   10.03    0.68
   6   4   8    8.90    0.70
   7   4   8    2.19    0.48
   8   4   8    5.79    0.61
  -4   5   8    0.23    0.92
   3  -5  -8    0.41    0.39
  -3   5   8    1.66    0.85
   2  -5  -8    0.32    0.39
  -2   5   8    1.31    0.67
   1  -5  -8    1.25    0.42
  -1   5   8    1.37    0.63
   0  -5  -8   -0.14    0.39
   0   5   8    0.49    0.55
   0   5   8   -0.01    0.34
  -1  -5  -8   57.49    1.39
   1   5   8   57.25    1.36
  -2  -5  -8    6.74    0.50
   2   5   8    6.92    0.49
  -3  -5  -8    0.92    0.39
   3   5   8    1.13    0.39
  -4  -5  -8    6.70    0.49
   4   5   8    6.51    0.53
  -5  -5  -8    0.45    0.36
   5   5   8    0.08    0.42
   6   5   8   13.47    0.81
   7   5   8    0.33    0.47
   8   5   8    1.12    0.53
   9   5   8    1.94    0.56
   3  -6  -8    0.12    0.40
  -3   6   8    0.16    0.95
   2  -6  -8    0.36    0.42
  -2   6   8    0.79    0.74
   1  -6  -8    2.83    0.51
  -1   6   8    3.10    0.75
   0  -6  -8    9.99    0.80
   0   6   8   11.01    1.02
  -1  -6  -8   11.29    0.80
   1   6   8   12.57    0.72
  -2  -6  -8   -0.02    0.44
   2   6   8   -0.10    0.43
  -3  -6  -8    5.24    0.53
   3   6   8    5.11    0.53
  -4  -6  -8    1.66    0.45
   4   6   8    1.53    0.48
  -5  -6  -8    2.16    0.43
   5   6   8    1.26    0.47
  -6  -6  -8    3.17    0.46
   6   6   8    2.75    0.52
   7   6   8    0.43    0.50
   8   6   8    2.82    0.61
   2  -7  -8   -0.17    0.47
  -2   7   8    0.48    0.82
   1  -7  -8    6.76    0.60
  -1   7   8    6.56    0.91
   0  -7  -8    0.45    0.50
   0   7   8    0.93    0.73
  -1  -7  -8    1.20    0.51
   1   7   8    2.35    0.48
   1   7   8    1.29    0.76
  -2  -7  -8    3.12    0.56
   2   7   8    2.50    0.51
  -3  -7  -8   41.96    1.28
   3   7   8   41.13    1.27
  -4  -7  -8   -0.32    0.46
   4   7   8    1.04    0.51
  -5  -7  -8    0.26    0.48
   5   7   8    0.74    0.51
  -6  -7  -8   -0.11    0.44
   6   7   8   -0.12    0.50
   7   7   8    0.47    0.53
   8   7   8    0.52    0.58
   1  -8  -8    0.63    0.53
  -1   8   8    2.41    0.89
   0  -8  -8    1.44    0.55
   0   8   8    2.65    0.91
  -1  -8  -8    0.81    0.56
   1   8   8    0.84    0.81
  -2  -8  -8    0.80    0.57
   2   8   8    1.15    0.52
  -3  -8  -8    3.66    0.62
   3   8   8    4.73    0.61
  -4  -8  -8    1.56    0.57
   4   8   8    1.95    0.59
  -5  -8  -8    6.76    0.66
   5   8   8    6.30    0.70
  -6  -8  -8    1.48    0.55
   6   8   8    0.82    0.58
   7   8   8    0.27    0.57
   8   8   8    3.76    0.70
   0  -9  -8    1.48    0.60
   0   9   8    1.24    0.94
  -1  -9  -8    0.34    0.59
   1   9   8    0.64    0.89
  -2  -9  -8   -0.39    0.59
   2   9   8   -0.40    0.91
  -3  -9  -8    1.68    0.65
   3   9   8    2.46    0.61
  -4  -9  -8    0.80    0.63
   4   9   8    0.07    0.61
  -5  -9  -8    9.45    0.79
   5   9   8    9.21    0.82
  -6  -9  -8    0.52    0.58
   6   9   8    0.20    0.64
   7   9   8   -0.01    0.65
  -3 -10  -8    0.41    0.69
   3  10   8   -3.07    1.04
  -4 -10  -8   -0.18    0.68
   4  10   8    0.21    0.63
  -5 -10  -8    2.09    0.73
   5  10   8    1.84    0.71
   4   7  -9    1.34    0.77
  -4  -7   9   -0.36    0.63
   3   7  -9    1.49    0.72
  -3  -7   9    1.38    0.70
  -2  -7   9    0.75    0.67
  -1  -7   9   -0.21    0.64
   6   6  -9    2.38    0.74
   5   6  -9   15.05    1.17
  -5  -6   9   13.87    0.96
   4   6  -9    0.53    0.67
  -4  -6   9    1.74    0.60
   3   6  -9    0.77    0.65
  -3  -6   9    1.22    0.59
   2   6  -9    0.25    0.63
  -2  -6   9    1.38    0.61
  -1  -6   9    3.51    0.66
   0  -6   9    0.20    0.60
   1  -6   9    0.88    0.62
   7   5  -9    3.56    0.69
   6   5  -9    4.94    0.70
   5   5  -9    7.47    0.75
  -5  -5   9    7.60    0.65
   4   5  -9    8.97    0.77
  -4  -5   9   10.32    0.82
   3   5  -9   12.05    1.03
  -3  -5   9   11.45    0.88
   2   5  -9    4.41    0.64
  -2  -5   9    4.10    0.61
   1   5  -9    4.29    0.61
  -1  -5   9    5.17    0.61
   0  -5   9    0.98    0.56
   1  -5   9   -0.55    0.56
  -2   5  -9    0.71    0.88
   2  -5   9    0.39    0.61
  -3   5  -9    2.21    1.07
   3  -5   9    0.79    0.63
   7   4  -9   -0.09    0.58
   6   4  -9    0.47    0.54
   5   4  -9    1.35    0.55
   4   4  -9    4.89    0.61
  -4  -4   9    6.19    0.56
   3   4  -9   19.68    1.02
  -3  -4   9   20.42    0.89
   2   4  -9    1.93    0.57
  -2  -4   9    3.29    0.53
   1   4  -9    1.65    0.55
  -1  -4   9    1.91    0.53
   0   4  -9    8.77    0.67
   0  -4   9    9.46    0.80
  -1   4  -9    1.98    0.68
   1  -4   9    1.36    0.51
  -2   4  -9   -0.15    0.77
   2  -4   9   -0.15    0.53
  -3   4  -9    0.52    0.93
   3  -4   9    0.78    0.56
  -4   4  -9   -0.48    0.98
   4  -4   9   -0.08    0.57
   7   3  -9   -0.06    0.51
   6   3  -9    0.36    0.50
   5   3  -9    4.53    0.55
  -4  -3   9    2.54    0.43
  -3  -3   9   13.61    0.76
  -2  -3   9    0.84    0.42
   1   3  -9   35.20    1.14
  -1  -3   9   35.26    1.09
   0   3  -9    2.16    0.49
   0   3  -9    1.68    0.49
   0  -3   9    1.75    0.46
  -1   3  -9    0.07    0.44
  -1   3  -9    0.64    0.56
   1  -3   9    0.13    0.45
  -2   3  -9   20.71    1.19
   2  -3   9   19.45    0.93
  -3   3  -9    0.61    0.82
   3  -3   9    1.46    0.53
  -4   3  -9    1.11    0.92
   4  -3   9    0.50    0.55
  -5   3  -9    0.07    1.02
   5  -3   9    1.69    0.57
   7   2  -9    1.58    0.51
   5   2  -9    0.92    0.41
   4   2  -9    5.83    0.51
  -4  -2   9    6.09    0.47
   3   2  -9    0.12    0.37
  -3  -2   9   -0.28    0.35
   2   2  -9    4.75    0.47
  -2  -2   9    5.83    0.46
   1   2  -9   24.97    0.86
  -1  -2   9   25.78    0.89
   0   2  -9    6.12    0.49
   0   2  -9    5.94    0.52
   0  -2   9    6.37    0.53
  -1   2  -9   30.91    1.10
   1  -2   9   30.03    0.97
  -2   2  -9   22.38    1.07
  -2   2  -9   22.66    0.85
  -2   2  -9   21.29    0.82
   2  -2   9   21.31    0.88
  -3   2  -9    1.30    0.71
  -3   2  -9    0.89    0.48
   3  -2   9    0.41    0.45
  -4   2  -9    2.62    0.59
  -4   2  -9    2.62    0.85
   4  -2   9    2.21    0.51
  -5   2  -9    2.28    0.67
  -5   2  -9    2.89    1.01
   5  -2   9    2.64    0.55
  -6   2  -9   -0.29    0.68
   6   1  -9    9.73    0.70
   5   1  -9    0.46    0.38
   4   1  -9    0.12    0.35
   3   1  -9    0.66    0.35
  -3  -1   9    0.53    0.33
   2   1  -9   13.84    0.67
  -2  -1   9   16.27    0.69
   1   1  -9    9.76    0.60
  -1  -1   9   10.93    0.64
   0   1  -9    0.82    0.34
   0  -1   9    0.68    0.37
  -1   1  -9   80.35    1.68
  -1   1  -9   76.64    1.63
   1  -1   9   81.77    1.75
  -2   1  -9    0.67    0.33
  -2   1  -9    0.31    0.33
   2  -1   9    0.55    0.41
  -3   1  -9    7.96    0.71
   3  -1   9    8.62    0.70
  -4   1  -9   18.97    0.97
   4  -1   9   18.67    0.85
  -5   1  -9    0.23    0.55
   5  -1   9    1.63    0.48
  -6   1  -9    3.52    0.71
   6  -1   9    3.91    0.55
   7   0  -9    0.45    0.41
   6   0  -9    0.32    0.37
   5   0  -9   29.45    0.95
   4   0  -9    3.77    0.45
   3   0  -9    1.43    0.38
  -3   0   9    1.07    0.33
   2   0  -9    1.56    0.36
  -2   0   9    0.91    0.35
   1   0  -9    2.09    0.37
  -1   0   9    1.84    0.36
   0   0  -9    1.24    0.35
   0   0   9    1.07    0.36
  -1   0  -9   20.40    0.59
  -1   0  -9   18.66    0.71
   1   0   9   19.08    0.76
  -2   0  -9   10.32    0.57
  -2   0  -9   11.01    0.58
   2   0   9   10.65    0.68
  -3   0  -9    0.26    0.36
  -3   0  -9   -0.20    0.28
   3   0   9    0.21    0.39
  -4   0  -9    9.40    0.79
   4   0   9    8.39    0.71
  -5   0  -9    1.57    0.52
   5   0   9    0.80    0.46
  -6   0  -9    2.93    0.61
   6   0   9    5.23    0.55
  -7   0  -9    0.45    0.64
   6  -1  -9    8.05    0.67
   5  -1  -9   50.28    1.27
   4  -1  -9   47.12    1.20
   3  -1  -9    5.35    0.45
  -3   1   9    5.91    0.51
   2  -1  -9   21.01    0.76
  -2   1   9   22.37    0.72
   1  -1  -9    8.51    0.56
  -1   1   9    9.78    0.56
   0  -1  -9   11.78    0.60
   0   1   9   10.46    0.63
  -1  -1  -9    0.68    0.33
   1   1   9    1.28    0.36
  -2  -1  -9    0.99    0.33
   2   1   9    0.23    0.34
  -3  -1  -9    7.77    0.54
   3   1   9    7.78    0.62
  -4  -1  -9    4.52    0.50
   4   1   9    4.66    0.47
  -5  -1  -9    5.71    0.59
   5   1   9    7.37    0.55
  -6  -1  -9    0.98    0.54
   6   1   9    2.26    0.48
  -7  -1  -9    1.09    0.60
   7   1   9    0.07    0.46
   5  -2  -9    4.76    0.48
   4  -2  -9    0.17    0.37
  -4   2   9    0.80    0.60
   3  -2  -9   87.30    1.89
  -3   2   9   91.65    2.42
   2  -2  -9    0.42    0.34
  -2   2   9    0.41    0.37
  -2   2   9   -0.03    0.30
   1  -2  -9    2.11    0.36
  -1   2   9    1.88    0.35
  -1   2   9    2.12    0.33
   0  -2  -9    8.15    0.55
   0   2   9    8.11    0.58
   0   2   9    8.19    0.46
  -1  -2  -9    9.87    0.56
   1   2   9    9.51    0.60
  -2  -2  -9    1.99    0.35
   2   2   9    1.71    0.38
  -3  -2  -9    5.89    0.42
   3   2   9    5.40    0.44
  -4  -2  -9    3.72    0.38
   4   2   9    2.68    0.42
   5   2   9    5.62    0.52
  -6  -2  -9    0.50    0.51
   6   2   9    1.15    0.46
  -7  -2  -9    1.92    0.61
   7   2   9    0.77    0.46
  -8  -2  -9   12.34    0.94
  -5   3   9    0.85    0.82
   4  -3  -9    2.28    0.42
  -4   3   9    2.48    0.75
   3  -3  -9   20.39    0.78
  -3   3   9   21.04    1.08
   2  -3  -9   33.09    0.93
  -2   3   9   30.03    1.18
   1  -3  -9   17.75    0.73
  -1   3   9   18.63    0.81
  -1   3   9   17.86    0.71
   0  -3  -9   10.21    0.60
   0   3   9    9.84    0.60
   0   3   9    9.22    0.62
  -1  -3  -9   -0.34    0.32
   1   3   9    0.06    0.32
  -2  -3  -9    0.47    0.33
   2   3   9    0.89    0.36
  -3  -3  -9    6.41    0.55
   3   3   9    7.08    0.61
  -4  -3  -9    0.22    0.33
   4   3   9    0.27    0.38
   5   3   9    0.07    0.39
   6   3   9    2.26    0.48
   7   3   9    1.67    0.50
  -8  -3  -9   -0.32    0.58
   8   3   9    0.13    0.50
  -5   4   9   -0.07    0.92
   4  -4  -9    0.15    0.38
  -4   4   9    0.07    0.80
   3  -4  -9    0.47    0.41
  -3   4   9    0.62    0.70
   2  -4  -9    0.27    0.40
  -2   4   9    1.01    0.59
   1  -4  -9   87.49    1.87
  -1   4   9   84.40    1.81
  -1   4   9   87.44    2.37
   0  -4  -9   14.17    0.70
   0   4   9   14.37    0.68
   0   4   9   13.92    0.82
  -1  -4  -9   17.58    0.74
   1   4   9   18.90    0.74
  -2  -4  -9    1.75    0.39
   2   4   9    1.95    0.39
  -3  -4  -9   23.04    0.81
   3   4   9   21.59    0.82
  -4  -4  -9    3.36    0.42
   4   4   9    2.23    0.43
  -5  -4  -9    1.18    0.37
   5   4   9    1.17    0.43
   6   4   9   10.06    0.77
   7   4   9    1.00    0.50
   8   4   9    0.53    0.53
   4  -5  -9    0.25    0.42
  -4   5   9    0.76    0.97
   3  -5  -9    0.12    0.41
  -3   5   9    0.10    0.81
   2  -5  -9    1.19    0.44
  -2   5   9    1.61    0.69
   1  -5  -9    1.51    0.43
  -1   5   9    2.48    0.64
   0  -5  -9    0.26    0.41
   0   5   9    0.25    0.36
   0   5   9    0.06    0.55
  -1  -5  -9   43.53    1.19
   1   5   9   44.18    1.19
  -2  -5  -9    3.76    0.46
   2   5   9    3.74    0.47
  -3  -5  -9    1.17    0.41
   3   5   9    0.79    0.42
  -4  -5  -9    5.93    0.50
   4   5   9    6.86    0.55
  -5  -5  -9   10.33    0.69
   5   5   9   11.09    0.75
   6   5   9   19.15    0.90
   7   5   9    2.34    0.54
   8   5   9    5.23    0.64
   3  -6  -9    0.46    0.45
  -3   6   9    1.58    1.00
   2  -6  -9    0.75    0.45
  -2   6   9    0.64    0.73
   1  -6  -9    0.21    0.45
  -1   6   9    1.43    0.70
   0  -6  -9    1.04    0.47
   0   6   9    1.29    0.67
  -1  -6  -9   29.59    1.02
   1   6   9   24.59    1.30
   1   6   9   27.41    0.96
  -2  -6  -9   12.32    0.80
   2   6   9   13.94    0.81
  -3  -6  -9    2.28    0.47
   3   6   9    1.84    0.49
  -4  -6  -9    3.04    0.49
   4   6   9    3.00    0.51
  -5  -6  -9   24.45    0.93
   5   6   9   23.66    0.99
   6   6   9   -0.12    0.48
   7   6   9    0.25    0.51
   8   6   9    3.26    0.62
   2  -7  -9    2.12    0.50
  -2   7   9    1.46    0.85
   1  -7  -9    2.28    0.52
  -1   7   9    3.65    0.84
   0  -7  -9    0.46    0.52
   0   7   9    1.80    0.78
  -1  -7  -9    2.37    0.55
   1   7   9    2.02    0.49
   1   7   9    2.84    0.82
  -2  -7  -9    0.47    0.52
   2   7   9    0.00    0.47
  -3  -7  -9   28.07    1.10
   3   7   9   26.54    1.08
  -4  -7  -9    8.41    0.65
   4   7   9    6.93    0.66
  -5  -7  -9    0.11    0.46
   5   7   9    0.63    0.53
  -6  -7  -9    0.32    0.46
   6   7   9    0.42    0.53
   7   7   9    2.43    0.59
   8   7   9    5.61    0.72
   1  -8  -9   -0.04    0.53
  -1   8   9    0.61    0.84
   0  -8  -9    7.62    0.70
   0   8   9    6.35    1.02
  -1  -8  -9    1.83    0.58
   1   8   9    0.50    0.81
  -2  -8  -9    2.87    0.59
   2   8   9    1.72    0.53
   2   8   9   -0.16    0.87
  -3  -8  -9    3.92    0.63
   3   8   9    3.09    0.61
  -4  -8  -9    2.02    0.58
   4   8   9    1.51    0.61
  -5  -8  -9    1.30    0.56
   5   8   9    0.24    0.58
  -6  -8  -9   -0.61    0.49
   6   8   9    0.01    0.58
   7   8   9    1.72    0.66
   8   8   9    0.93    0.63
  -1  -9  -9    0.39    0.62
   1   9   9    0.47    0.88
  -2  -9  -9    0.75    0.62
   2   9   9   -0.98    0.92
  -3  -9  -9    2.84    0.68
   3   9   9    2.44    0.64
  -4  -9  -9   -0.28    0.62
   4   9   9    0.31    0.61
  -5  -9  -9   12.56    1.08
   5   9   9   12.33    0.90
  -6  -9  -9   12.81    1.07
   6   9   9   15.31    1.21
   7   9   9   -0.05    0.69
  -4 -10  -9    1.41    0.73
   4  10   9    0.93    0.65
   5   6 -10    9.50    0.91
  -5  -6  10    8.11    0.77
   4   6 -10    0.02    0.69
  -4  -6  10    0.59    0.62
   3   6 -10    0.98    0.70
  -3  -6  10    1.92    0.65
   2   6 -10    2.47    0.72
  -2  -6  10    2.14    0.66
  -1  -6  10   -0.23    0.62
   0  -6  10    1.55    0.66
   6   5 -10    0.44    0.68
   5   5 -10    5.26    0.76
   4   5 -10    4.15    0.74
  -4  -5  10    3.57    0.58
   3   5 -10    1.62    0.68
  -3  -5  10    1.87    0.57
   2   5 -10    0.04    0.62
  -2  -5  10    0.15    0.55
   1   5 -10    2.88    0.63
  -1  -5  10    1.22    0.60
   0  -5  10    3.42    0.65
   1  -5  10    5.19    0.71
   2  -5  10    0.82    0.64
   6   4 -10   -1.07    0.56
   5   4 -10   10.99    0.81
   4   4 -10   -0.27    0.54
  -4  -4  10   -0.09    0.45
   3   4 -10   18.07    1.05
  -3  -4  10   17.16    0.92
   2   4 -10    3.64    0.64
  -2  -4  10    3.81    0.60
   1   4 -10    5.15    0.65
  -1  -4  10    5.60    0.63
   0   4 -10    1.90    0.57
   0  -4  10    2.85    0.57
   1  -4  10    0.20    0.53
   2  -4  10    1.56    0.60
   3  -4  10    3.71    0.65
   7   3 -10    0.42    0.55
   6   3 -10    5.09    0.63
   5   3 -10   -0.20    0.48
  -4  -3  10    1.27    0.44
  -3  -3  10    3.34    0.53
  -2  -3  10   12.41    0.81
   1   3 -10    1.99    0.54
  -1  -3  10    1.78    0.49
   0   3 -10   -0.15    0.48
   0  -3  10    0.72    0.48
  -1   3 -10    0.03    0.48
   1  -3  10    0.00    0.48
  -2   3 -10    7.45    0.86
   2  -3  10    7.63    0.66
  -3   3 -10    6.44    0.93
   3  -3  10    6.21    0.67
  -4   3 -10   -0.33    0.90
   4  -3  10    0.64    0.58
   7   2 -10    1.01    0.54
   5   2 -10    6.54    0.55
   4   2 -10    0.12    0.42
  -4  -2  10   -0.15    0.39
   3   2 -10    0.53    0.42
  -3  -2  10    0.80    0.41
   2   2 -10    4.91    0.50
  -2  -2  10    4.86    0.49
   1   2 -10   19.05    0.83
  -1  -2  10   19.36    0.87
   0   2 -10   44.95    1.23
   0  -2  10   48.07    1.30
   1  -2  10   -0.33    0.43
  -2   2 -10   -0.41    0.57
   2  -2  10    0.97    0.47
  -3   2 -10    1.69    0.74
  -3   2 -10    1.24    0.50
   3  -2  10    0.41    0.50
  -4   2 -10    0.23    0.55
  -4   2 -10    0.60    0.83
   4  -2  10    0.31    0.51
  -5   2 -10    3.16    0.69
   5  -2  10    3.81    0.60
   7   1 -10   11.00    0.81
   6   1 -10    1.28    0.46
   5   1 -10    0.63    0.42
   4   1 -10    2.07    0.43
   3   1 -10    5.21    0.49
  -3  -1  10    6.06    0.49
   2   1 -10   13.01    0.70
  -2  -1  10   13.02    0.72
   1   1 -10    1.42    0.39
  -1  -1  10    3.30    0.46
   0   1 -10   21.86    0.80
   0  -1  10   22.30    0.85
  -1   1 -10    0.66    0.28
  -1   1 -10    0.44    0.36
   1  -1  10    1.05    0.45
  -2   1 -10   49.34    1.20
  -2   1 -10   46.81    1.21
   2  -1  10   48.99    1.30
  -3   1 -10    0.82    0.43
   3  -1  10    0.46    0.46
  -4   1 -10    0.46    0.51
   4  -1  10    0.50    0.49
  -5   1 -10    0.09    0.59
   5  -1  10    1.32    0.53
  -6   1 -10    1.10    0.67
   6  -1  10   -1.00    0.52
   6   0 -10    3.17    0.46
   5   0 -10    1.29    0.44
   4   0 -10    1.89    0.44
   3   0 -10    7.37    0.54
  -3   0  10    5.86    0.47
   2   0 -10    0.90    0.40
  -2   0  10    0.87    0.38
   1   0 -10    0.11    0.37
  -1   0  10    0.14    0.36
   0   0 -10   19.98    0.78
   0   0  10   19.84    0.81
  -1   0 -10   -0.44    0.36
  -1   0 -10   -0.15    0.24
   1   0  10    0.18    0.38
  -2   0 -10   48.10    1.23
  -2   0 -10   54.01    1.23
   2   0  10   51.29    1.33
  -3   0 -10    0.01    0.32
  -3   0 -10    0.67    0.39
   3   0  10    0.23    0.45
  -4   0 -10    0.36    0.46
   4   0  10    0.64    0.47
  -5   0 -10   13.77    0.96
   5   0  10   12.54    0.87
  -6   0 -10    0.21    0.56
   6   0  10    0.72    0.52
  -7   0 -10    1.01    0.67
   7   0  10    2.57    0.55
   6  -1 -10    0.13    0.42
   5  -1 -10    1.68    0.44
   4  -1 -10    4.26    0.48
   3  -1 -10    0.46    0.38
   2  -1 -10    0.45    0.37
  -2   1  10    0.35    0.35
   1  -1 -10    2.41    0.40
  -1   1  10    2.68    0.42
   0  -1 -10   11.35    0.65
   0   1  10   11.69    0.68
  -1  -1 -10    3.13    0.41
   1   1  10    4.03    0.46
  -2  -1 -10    3.38    0.42
   2   1  10    4.40    0.47
  -3  -1 -10    3.69    0.41
   3   1  10    3.43    0.47
  -4  -1 -10   69.59    1.69
   4   1  10   67.96    1.61
  -5  -1 -10    1.65    0.53
   5   1  10    1.20    0.47
  -6  -1 -10    0.17    0.56
   6   1  10    0.43    0.48
  -7  -1 -10    0.46    0.60
   7   1  10   -0.07    0.49
   6  -2 -10    0.43    0.43
   5  -2 -10    8.44    0.72
   4  -2 -10    1.08    0.42
   3  -2 -10    1.93    0.43
   2  -2 -10    0.72    0.39
  -2   2  10    0.34    0.34
   1  -2 -10    4.56    0.44
  -1   2  10    3.98    0.42
  -1   2  10    4.50    0.43
   0  -2 -10    0.32    0.36
   0   2  10    1.36    0.27
   0   2  10    0.56    0.39
  -1  -2 -10    0.40    0.36
   1   2  10    0.91    0.39
  -2  -2 -10    2.25    0.39
   2   2  10    1.37    0.40
  -3  -2 -10    0.13    0.36
   3   2  10   -0.15    0.37
  -4  -2 -10   30.98    0.93
   4   2  10   33.61    1.02
   5   2  10    8.61    0.59
  -6  -2 -10   -0.12    0.52
   6   2  10   -0.24    0.45
  -7  -2 -10    0.94    0.59
   7   2  10    0.35    0.49
   5  -3 -10    0.18    0.43
   4  -3 -10    0.52    0.42
   3  -3 -10    3.57    0.46
  -3   3  10    4.55    0.68
   2  -3 -10    8.72    0.65
  -2   3  10    8.67    0.77
   1  -3 -10   10.56    0.66
  -1   3  10   10.21    0.67
  -1   3  10   10.96    0.68
   0  -3 -10   -0.23    0.35
   0   3  10    0.41    0.38
   0   3  10    0.36    0.37
  -1  -3 -10    0.58    0.36
   1   3  10   -0.30    0.37
  -2  -3 -10    3.23    0.42
   2   3  10    3.15    0.44
  -3  -3 -10    3.12    0.40
   3   3  10    3.20    0.44
  -4  -3 -10    3.31    0.43
   4   3  10    3.60    0.50
   5   3  10    3.35    0.52
   6   3  10   36.95    1.20
  -7  -3 -10    1.13    0.60
   7   3  10    0.81    0.54
  -8  -3 -10    3.01    0.70
   8   3  10    1.91    0.56
   5  -4 -10    2.42    0.49
   4  -4 -10   -0.12    0.40
   3  -4 -10    1.83    0.43
  -3   4  10    0.73    0.70
   2  -4 -10    3.72    0.49
  -2   4  10    3.95    0.66
   1  -4 -10   18.03    0.82
  -1   4  10   17.77    0.76
  -1   4  10   18.09    0.94
   0  -4 -10   12.32    0.74
   0   4  10   14.46    0.84
   0   4  10   13.71    0.72
  -1  -4 -10    0.17    0.40
   1   4  10    0.52    0.39
  -2  -4 -10    2.04    0.43
   2   4  10    1.59    0.43
  -3  -4 -10    5.74    0.49
   3   4  10    4.64    0.51
  -4  -4 -10    0.35    0.37
   4   4  10    0.27    0.42
  -5  -4 -10    0.85    0.38
   5   4  10    1.44    0.47
   6   4  10   13.70    0.86
   7   4  10   10.25    0.71
   8   4  10    6.74    0.68
   4  -5 -10    1.43    0.45
  -4   5  10    1.89    0.97
   3  -5 -10    1.66    0.47
  -3   5  10    2.01    0.85
   2  -5 -10    0.57    0.44
  -2   5  10    1.32    0.69
   1  -5 -10   -0.68    0.41
  -1   5  10    0.13    0.59
   0  -5 -10   18.61    0.84
   0   5  10   16.41    1.03
   0   5  10   16.85    0.79
  -1  -5 -10    0.39    0.42
   1   5  10    0.44    0.40
  -2  -5 -10   16.44    0.80
   2   5  10   15.53    0.81
  -3  -5 -10    1.63    0.45
   3   5  10    2.10    0.46
  -4  -5 -10    0.24    0.41
   4   5  10    0.54    0.45
  -5  -5 -10    0.46    0.41
   5   5  10    0.02    0.45
   6   5  10    4.80    0.58
   7   5  10    4.54    0.61
   8   5  10    9.37    0.75
   3  -6 -10    1.96    0.49
  -3   6  10    2.73    1.01
   2  -6 -10    0.14    0.45
  -2   6  10    0.93    0.75
   1  -6 -10   -0.12    0.46
  -1   6  10    0.21    0.67
   0  -6 -10    2.81    0.50
   0   6  10    3.10    0.70
  -1  -6 -10    5.39    0.56
   1   6  10    4.05    0.76
   1   6  10    4.55    0.52
  -2  -6 -10   30.79    1.06
   2   6  10   30.07    1.07
  -3  -6 -10    0.19    0.46
   3   6  10    0.32    0.49
  -4  -6 -10    0.31    0.46
   4   6  10    1.71    0.51
  -5  -6 -10   20.16    0.90
   5   6  10   20.41    0.98
   6   6  10    2.34    0.54
   7   6  10   -0.42    0.51
   8   6  10    7.04    0.73
   2  -7 -10   -0.07    0.48
  -2   7  10    0.71    0.83
   1  -7 -10    0.95    0.50
  -1   7  10    1.39    0.77
   0  -7 -10    0.64    0.49
   0   7  10    0.56    0.75
  -1  -7 -10    2.03    0.52
   1   7  10    1.19    0.78
  -2  -7 -10    3.01    0.56
   2   7  10    3.36    0.54
  -3  -7 -10    3.56    0.58
   3   7  10    3.88    0.59
  -4  -7 -10   23.54    1.02
   4   7  10   23.49    1.08
  -5  -7 -10   -0.34    0.48
   5   7  10    0.23    0.53
  -6  -7 -10    1.35    0.48
   6   7  10    0.98    0.53
   7   7  10    0.91    0.57
   8   7  10   -0.40    0.57
   1  -8 -10    0.39    0.53
  -1   8  10    1.37    0.86
   0  -8 -10    2.99    0.59
   0   8  10    3.89    0.96
  -1  -8 -10   -0.12    0.54
   1   8  10    0.85    0.84
  -2  -8 -10    0.45    0.58
   2   8  10   -0.03    0.51
  -3  -8 -10    3.30    0.64
   3   8  10    3.36    0.62
  -4  -8 -10   18.64    1.07
   4   8  10   17.13    1.08
  -5  -8 -10    1.03    0.55
   5   8  10    0.99    0.59
  -6  -8 -10    0.96    0.52
   6   8  10    0.47    0.62
   7   8  10    0.58    0.62
  -1  -9 -10    0.50    0.61
   1   9  10    1.78    0.92
  -2  -9 -10    0.69    0.65
   2   9  10   -0.67    0.94
  -3  -9 -10    2.10    0.69
   3   9  10    2.04    0.64
  -4  -9 -10    1.50    0.67
   4   9  10    1.89    0.67
  -5  -9 -10    5.00    0.70
   5   9  10    7.21    0.80
  -6  -9 -10   12.38    1.05
   6   9  10   13.36    0.96
   4   6 -11    6.09    0.87
  -4  -6  11    7.31    0.79
   3   6 -11    0.49    0.71
  -3  -6  11    0.31    0.67
   2   6 -11    3.27    0.76
  -2  -6  11    1.95    0.70
  -1  -6  11    3.45    0.73
   5   5 -11   -0.44    0.70
   4   5 -11   21.74    1.33
  -4  -5  11   23.38    1.12
   3   5 -11   -0.36    0.68
  -3  -5  11    0.21    0.58
   2   5 -11    1.66    0.70
  -2  -5  11    3.97    0.68
   1   5 -11    2.87    0.69
  -1  -5  11    2.99    0.69
   0  -5  11   -0.86    0.61
   1  -5  11   -0.94    0.64
   6   4 -11    0.76    0.65
   5   4 -11    4.46    0.72
   4   4 -11    2.42    0.64
  -4  -4  11    2.80    0.56
   3   4 -11   -0.09    0.61
  -3  -4  11    0.28    0.52
   2   4 -11   15.52    1.10
  -2  -4  11   14.59    1.00
   1   4 -11    9.37    0.78
  -1  -4  11    8.16    0.71
   0   4 -11    1.02    0.60
   0  -4  11    0.70    0.57
   1  -4  11    2.68    0.62
   2  -4  11   -0.48    0.58
   3  -4  11    0.48    0.62
   6   3 -11    2.81    0.64
  -4  -3  11    1.40    0.48
  -3  -3  11    1.58    0.53
  -2  -3  11   45.98    1.35
   1   3 -11    1.75    0.58
  -1  -3  11    1.04    0.52
   0   3 -11   -0.15    0.53
   0  -3  11    0.13    0.51
   1  -3  11    0.33    0.54
   2  -3  11    5.67    0.67
   3  -3  11    3.44    0.63
   4  -3  11    1.99    0.65
   5   2 -11    0.81    0.47
   4   2 -11    2.71    0.49
   3   2 -11    0.60    0.45
  -3  -2  11    0.20    0.43
   2   2 -11    4.10    0.54
  -2  -2  11    4.04    0.52
   1   2 -11   11.15    0.80
  -1  -2  11   10.95    0.84
   0   2 -11   52.55    1.38
   0  -2  11   53.47    1.45
   1  -2  11    1.76    0.53
   2  -2  11    0.55    0.49
   3  -2  11    1.00    0.55
  -4   2 -11   -0.01    0.57
   4  -2  11   -0.66    0.53
  -5   2 -11    2.24    0.69
   5  -2  11    1.25    0.61
   6   1 -11    0.82    0.48
   5   1 -11    3.32    0.49
   4   1 -11   -0.37    0.40
   3   1 -11    6.04    0.53
  -3  -1  11    5.51    0.51
   2   1 -11    0.46    0.41
  -2  -1  11    0.74    0.43
   1   1 -11    1.00    0.42
  -1  -1  11    0.58    0.45
   0   1 -11   13.83    0.74
   0  -1  11   13.81    0.82
  -1   1 -11    0.33    0.39
   1  -1  11    0.31    0.46
  -2   1 -11    7.96    0.54
  -2   1 -11    7.01    0.63
   2  -1  11    7.50    0.61
  -3   1 -11    1.28    0.47
   3  -1  11    1.32    0.53
  -4   1 -11    2.20    0.57
   4  -1  11    2.09    0.55
  -5   1 -11    0.91    0.62
   5  -1  11    0.23    0.55
  -6   1 -11    0.39    0.67
   6  -1  11    0.02    0.58
   6   0 -11   -0.03    0.43
   5   0 -11    0.41    0.43
   4   0 -11    2.38    0.49
   3   0 -11    0.43    0.43
  -3   0  11    0.72    0.40
   2   0 -11   -0.18    0.41
  -2   0  11    0.18    0.40
   1   0 -11   -0.24    0.41
  -1   0  11   -0.13    0.41
   0   0 -11   22.73    0.89
   0   0  11   22.79    0.92
  -1   0 -11   79.59    1.79
   1   0  11   79.81    1.82
  -2   0 -11  110.97    2.22
  -2   0 -11  101.92    2.20
   2   0  11  106.44    2.28
  -3   0 -11    0.12    0.40
  -3   0 -11    0.03    0.38
   3   0  11   -0.10    0.48
  -4   0 -11    4.34    0.55
   4   0  11    4.33    0.58
  -5   0 -11    0.12    0.54
   5   0  11    0.22    0.53
  -6   0 -11   -0.32    0.59
   6   0  11   -0.05    0.53
   6  -1 -11    0.93    0.48
   5  -1 -11   -0.04    0.45
   4  -1 -11    2.59    0.49
   3  -1 -11   -0.18    0.40
   2  -1 -11    0.10    0.40
  -2   1  11   -0.28    0.39
   1  -1 -11    9.76    0.68
  -1   1  11    8.77    0.70
   0  -1 -11    3.09    0.45
   0   1  11    2.48    0.45
  -1  -1 -11    8.88    0.68
   1   1  11    7.98    0.60
  -2  -1 -11    5.58    0.49
   2   1  11    5.45    0.55
  -3  -1 -11   14.16    0.75
  -3  -1 -11   14.23    0.73
   3   1  11   14.36    0.83
  -4  -1 -11    0.88    0.47
   4   1  11    0.11    0.46
  -5  -1 -11    1.17    0.53
   5   1  11    0.90    0.51
  -6  -1 -11    4.50    0.67
   6   1  11    4.36    0.60
  -7  -1 -11    0.74    0.64
   7   1  11    0.41    0.54
   5  -2 -11    6.28    0.56
   4  -2 -11    7.72    0.59
   3  -2 -11    0.17    0.42
   2  -2 -11    0.44    0.41
  -2   2  11    0.42    0.39
   1  -2 -11    4.95    0.49
  -1   2  11    4.57    0.48
   0  -2 -11    1.42    0.42
   0   2  11    1.80    0.45
  -1  -2 -11   -0.39    0.38
   1   2  11   -0.24    0.42
  -2  -2 -11   14.16    0.73
   2   2  11   13.94    0.78
  -3  -2 -11   15.90    0.76
   3   2  11   16.30    0.84
  -4  -2 -11   70.32    1.57
   4   2  11   68.18    1.66
   5   2  11    1.50    0.50
  -6  -2 -11    1.10    0.57
   6   2  11   -0.25    0.50
  -7  -2 -11   -0.19    0.59
   7   2  11   -0.12    0.52
   5  -3 -11    1.18    0.49
   4  -3 -11    4.76    0.53
   3  -3 -11    2.05    0.47
   2  -3 -11   15.14    0.78
   1  -3 -11    7.89    0.67
  -1   3  11    7.65    0.55
   0  -3 -11    0.51    0.40
   0   3  11    0.52    0.37
   0   3  11   -0.17    0.40
  -1  -3 -11    2.83    0.45
   1   3  11    3.05    0.46
  -2  -3 -11   -0.24    0.39
   2   3  11    0.27    0.43
  -3  -3 -11    1.35    0.42
   3   3  11    1.60    0.46
  -4  -3 -11    0.34    0.40
   4   3  11    0.88    0.43
   5   3  11   13.38    0.84
   6   3  11   12.04    0.87
  -7  -3 -11    4.00    0.69
   7   3  11    4.36    0.60
   4  -4 -11    1.01    0.47
   3  -4 -11    7.16    0.57
   2  -4 -11    2.72    0.47
   1  -4 -11    2.69    0.47
  -1   4  11    1.94    0.44
  -1   4  11    1.84    0.53
   0  -4 -11    2.73    0.47
   0   4  11    2.38    0.46
   0   4  11    2.64    0.52
  -1  -4 -11    9.74    0.71
   1   4  11    9.07    0.72
  -2  -4 -11    4.17    0.49
   2   4  11    3.55    0.49
  -3  -4 -11    0.03    0.42
   3   4  11    0.09    0.44
  -4  -4 -11    4.66    0.48
   4   4  11    3.69    0.54
  -5  -4 -11    0.61    0.45
   5   4  11    1.41    0.49
   6   4  11    7.79    0.66
   7   4  11    1.84    0.57
   8   4  11    0.76    0.61
   3  -5 -11    0.40    0.44
   2  -5 -11    1.63    0.50
  -2   5  11    1.95    0.70
   1  -5 -11   -0.32    0.45
  -1   5  11    0.84    0.60
   0  -5 -11   10.28    0.79
   0   5  11   10.97    0.91
   0   5  11   10.16    0.75
  -1  -5 -11    0.77    0.46
   1   5  11   -0.29    0.42
  -2  -5 -11    3.14    0.51
   2   5  11    3.45    0.53
  -3  -5 -11   -0.24    0.46
   3   5  11    0.20    0.47
  -4  -5 -11    0.33    0.43
   4   5  11    0.39    0.47
  -5  -5 -11    5.73    0.52
   5   5  11    3.93    0.58
   6   5  11    0.43    0.49
   7   5  11    4.37    0.63
   8   5  11   17.57    1.07
   3  -6 -11    1.59    0.53
   2  -6 -11    2.55    0.53
  -2   6  11    3.07    0.81
   1  -6 -11    1.98    0.53
  -1   6  11    3.48    0.75
   0  -6 -11    0.44    0.48
   0   6  11    0.35    0.67
  -1  -6 -11    7.19    0.62
   1   6  11    7.15    0.84
   1   6  11    7.77    0.60
  -2  -6 -11    3.21    0.55
   2   6  11    3.44    0.57
  -3  -6 -11    7.77    0.63
   3   6  11    8.02    0.67
  -4  -6 -11    3.63    0.54
   4   6  11    4.57    0.59
  -5  -6 -11    1.35    0.50
   5   6  11    1.62    0.56
   6   6  11    3.61    0.60
   7   6  11    0.83    0.56
   8   6  11    2.24    0.64
   2  -7 -11    0.25    0.51
  -2   7  11    1.45    0.84
   1  -7 -11    1.98    0.55
  -1   7  11    3.67    0.84
   0  -7 -11    1.26    0.54
   0   7  11    1.97    0.79
  -1  -7 -11    1.66    0.54
   1   7  11    1.18    0.76
  -2  -7 -11    5.71    0.62
   2   7  11    5.97    0.63
  -3  -7 -11    0.03    0.52
   3   7  11    0.07    0.52
  -4  -7 -11    3.76    0.60
   4   7  11    3.33    0.64
  -5  -7 -11    1.47    0.53
   5   7  11    1.67    0.59
   6   7  11   11.39    0.99
   7   7  11    4.86    0.67
   0  -8 -11    2.81    0.60
   0   8  11    3.88    0.93
  -1  -8 -11    0.70    0.55
   1   8  11    0.80    0.85
  -2  -8 -11    1.05    0.58
   2   8  11   -1.24    0.87
   2   8  11    0.23    0.56
  -3  -8 -11    4.88    0.67
   3   8  11    4.38    0.66
  -4  -8 -11    7.95    0.72
   4   8  11    7.62    0.78
  -5  -8 -11    6.21    0.68
   5   8  11    6.87    0.76
  -6  -8 -11    0.55    0.54
   6   8  11   -0.21    0.62
   7   8  11    0.62    0.65
  -2  -9 -11    3.88    0.70
   2   9  11    2.44    1.02
  -3  -9 -11   -0.58    0.63
   3   9  11    0.52    0.62
  -4  -9 -11    1.14    0.65
   4   9  11   -0.20    0.65
  -5  -9 -11    0.67    0.63
   5   9  11   -0.90    0.66
  -6  -9 -11    0.43    0.60
   6   9  11    1.06    0.71
   4   5 -12    1.48    0.76
  -4  -5  12    1.23    0.63
   3   5 -12    1.12    0.76
  -3  -5  12    2.47    0.67
   2   5 -12    5.29    0.81
  -2  -5  12    6.80    0.80
  -1  -5  12    4.68    0.79
   0  -5  12   -0.62    0.64
   5   4 -12   -0.32    0.69
   4   4 -12    1.72    0.69
  -4  -4  12    0.99    0.57
   3   4 -12    2.13    0.69
  -3  -4  12    2.32    0.64
   2   4 -12    1.76    0.67
  -2  -4  12    1.22    0.64
   1   4 -12    0.27    0.63
  -1  -4  12    0.51    0.61
   0  -4  12    4.47    0.71
   1  -4  12    0.71    0.62
   2  -4  12    0.36    0.63
   5   3 -12    0.30    0.60
  -4  -3  12    0.85    0.51
  -3  -3  12    6.81    0.66
  -2  -3  12    0.78    0.57
   1   3 -12    1.52    0.62
  -1  -3  12    0.70    0.55
   0   3 -12    5.90    0.67
   0  -3  12    6.30    0.68
   1  -3  12    2.03    0.59
   2  -3  12   -0.45    0.59
   3  -3  12   -0.56    0.61
   5   2 -12    2.76    0.56
   4   2 -12    8.89    0.66
   3   2 -12    0.31    0.50
  -3  -2  12   -0.06    0.47
   2   2 -12    1.13    0.52
  -2  -2  12    0.00    0.50
   1   2 -12    1.23    0.51
  -1  -2  12    0.84    0.53
   0   2 -12    1.00    0.50
   0  -2  12    1.13    0.54
   1  -2  12    0.11    0.54
   2  -2  12    0.28    0.54
   3  -2  12    1.55    0.58
   4  -2  12    2.83    0.64
   6   1 -12    1.64    0.53
   5   1 -12    0.30    0.45
   4   1 -12    2.87    0.50
   3   1 -12    4.46    0.53
  -3  -1  12    4.83    0.54
   2   1 -12   -0.37    0.44
  -2  -1  12    0.30    0.47
   1   1 -12   10.31    0.76
  -1  -1  12    9.26    0.68
   0   1 -12    4.56    0.53
   0  -1  12    4.24    0.57
  -1   1 -12    1.64    0.44
   1  -1  12    1.11    0.52
  -2   1 -12    3.70    0.49
   2  -1  12    2.45    0.55
   3  -1  12    1.71    0.56
  -4   1 -12   -0.20    0.53
   4  -1  12    0.10    0.55
  -5   1 -12   -0.31    0.61
   5  -1  12    0.07    0.59
   6   0 -12    1.39    0.50
   5   0 -12    1.98    0.50
   4   0 -12    3.52    0.55
   3   0 -12   -0.01    0.45
   2   0 -12   14.18    0.83
  -2   0  12   12.54    0.83
   1   0 -12    0.60    0.47
  -1   0  12    0.48    0.46
   0   0 -12    8.55    0.62
   0   0  12    9.78    0.82
  -1   0 -12    5.11    0.54
   1   0  12    4.12    0.58
  -2   0 -12    2.50    0.45
   2   0  12    2.94    0.54
  -3   0 -12    2.33    0.45
   3   0  12    1.82    0.53
  -4   0 -12    0.73    0.50
   4   0  12    1.15    0.52
  -5   0 -12    0.28    0.56
   5   0  12   -0.21    0.53
  -6   0 -12    2.65    0.69
   6   0  12    1.78    0.59
   5  -1 -12    0.68    0.50
   4  -1 -12   -0.09    0.45
   3  -1 -12    2.06    0.49
   2  -1 -12   11.57    0.77
  -2   1  12   11.44    0.77
   1  -1 -12   18.59    0.86
  -1   1  12   18.63    0.90
   0  -1 -12    1.80    0.46
   0   1  12    1.99    0.51
  -1  -1 -12   17.41    0.83
   1   1  12   16.68    0.91
  -2  -1 -12    6.01    0.53
   2   1  12    5.42    0.60
  -3  -1 -12    8.60    0.71
  -3  -1 -12    9.07    0.72
   3   1  12    9.84    0.67
  -4  -1 -12    1.83    0.50
   4   1  12    2.01    0.55
  -5  -1 -12   -0.20    0.52
   5   1  12    0.04    0.53
  -6  -1 -12    0.58    0.60
   6   1  12    0.30    0.56
   5  -2 -12    0.08    0.50
   4  -2 -12    1.87    0.50
   3  -2 -12    1.97    0.49
   2  -2 -12    0.46    0.44
  -2   2  12    0.32    0.42
   1  -2 -12   -0.17    0.43
  -1   2  12    0.61    0.44
   0  -2 -12   18.85    0.85
   0   2  12   17.72    0.90
  -1  -2 -12    7.40    0.58
   1   2  12    8.54    0.64
  -2  -2 -12    6.53    0.56
   2   2  12    7.46    0.63
  -3  -2 -12    0.15    0.41
   3   2  12    0.46    0.48
   4   2  12    5.51    0.58
  -5  -2 -12   18.01    1.04
   5   2  12   17.67    0.96
  -6  -2 -12    0.39    0.59
   6   2  12    1.68    0.57
  -7  -2 -12    0.74    0.62
   7   2  12    0.27    0.57
   4  -3 -12    0.86    0.48
   3  -3 -12    0.86    0.48
   2  -3 -12    4.10    0.54
   1  -3 -12    0.18    0.43
  -1   3  12    0.35    0.43
   0  -3 -12    4.90    0.53
   0   3  12    4.04    0.53
  -1  -3 -12   10.11    0.75
   1   3  12   10.73    0.80
  -2  -3 -12    0.89    0.46
   2   3  12    0.75    0.48
  -3  -3 -12    1.38    0.46
   3   3  12    2.08    0.50
  -4  -3 -12    6.42    0.54
   4   3  12    6.91    0.63
   5   3  12   -0.02    0.49
   6   3  12    1.97    0.56
  -7  -3 -12   -0.08    0.60
   7   3  12    0.60    0.58
   4  -4 -12   10.98    0.88
   3  -4 -12    0.61    0.47
   2  -4 -12    1.94    0.49
   1  -4 -12    0.51    0.45
   0  -4 -12    3.88    0.51
   0   4  12    4.59    0.54
  -1  -4 -12   -0.04    0.44
   1   4  12   -0.14    0.45
  -2  -4 -12    0.68    0.46
   2   4  12    0.24    0.47
  -3  -4 -12    3.94    0.51
   3   4  12    3.73    0.56
  -4  -4 -12    0.78    0.44
   4   4  12    0.78    0.50
   5   4  12    0.14    0.50
   6   4  12   10.05    0.74
   7   4  12    4.01    0.67
   3  -5 -12    0.01    0.48
   2  -5 -12    0.92    0.48
   1  -5 -12    1.10    0.51
   0  -5 -12    3.66    0.56
   0   5  12    2.78    0.68
   0   5  12    3.48    0.52
  -1  -5 -12    0.14    0.49
   1   5  12   -0.57    0.45
   1   5  12   -1.28    0.58
  -2  -5 -12    1.05    0.50
   2   5  12    0.34    0.49
  -3  -5 -12    1.47    0.50
   3   5  12    1.84    0.54
  -4  -5 -12    0.76    0.46
   4   5  12    0.60    0.54
  -5  -5 -12    0.23    0.44
   5   5  12   -0.21    0.51
   6   5  12    1.53    0.55
   7   5  12    1.38    0.60
   2  -6 -12    7.06    0.65
   1  -6 -12    0.65    0.52
   0  -6 -12    2.51    0.54
   0   6  12    3.34    0.75
  -1  -6 -12    1.48    0.54
   1   6  12    1.82    0.51
   1   6  12    1.59    0.70
  -2  -6 -12    0.30    0.52
   2   6  12   -0.12    0.48
  -3  -6 -12    0.56    0.53
   3   6  12    0.18    0.54
  -4  -6 -12    0.98    0.52
   4   6  12    0.64    0.55
  -5  -6 -12    0.27    0.49
   5   6  12    0.01    0.54
   6   6  12    1.06    0.57
   7   6  12    0.95    0.59
   1  -7 -12    1.13    0.55
  -1   7  12    2.86    0.85
   0  -7 -12   -0.58    0.53
   0   7  12    0.96    0.78
  -1  -7 -12    1.05    0.55
   1   7  12    0.24    0.73
  -2  -7 -12    9.39    0.74
   2   7  12    9.31    0.75
  -3  -7 -12    1.13    0.58
   3   7  12    1.89    0.59
  -4  -7 -12    0.16    0.55
   4   7  12    1.00    0.60
  -5  -7 -12    0.94    0.56
   5   7  12    1.66    0.64
   6   7  12    1.45    0.65
   7   7  12    0.40    0.63
   0  -8 -12    6.42    0.70
   0   8  12    8.48    1.05
  -1  -8 -12   -0.19    0.57
   1   8  12    1.30    0.83
  -2  -8 -12    0.65    0.61
   2   8  12   -1.25    0.88
  -3  -8 -12   -0.02    0.60
   3   8  12    0.50    0.59
  -4  -8 -12   -0.10    0.60
   4   8  12    1.12    0.66
  -5  -8 -12    9.24    0.77
   5   8  12    9.46    0.86
  -6  -8 -12    0.36    0.57
   6   8  12    0.54    0.67
  -3  -9 -12    0.00    0.66
  -4  -9 -12    7.18    0.79
   4   9  12    5.54    0.79
  -5  -9 -12   -1.20    0.62
   5   9  12    1.11    0.71
   4   4 -13    6.72    0.84
  -4  -4  13    5.93    0.72
   3   4 -13    1.90    0.75
  -3  -4  13    0.85    0.65
   2   4 -13    2.51    0.74
  -2  -4  13    2.37    0.72
   1   4 -13   -0.25    0.68
  -1  -4  13    1.46    0.70
   0  -4  13    4.01    0.73
   1  -4  13    1.15    0.68
   5   3 -13   -0.66    0.67
  -3  -3  13    0.27    0.58
  -2  -3  13    4.06    0.67
   1   3 -13    1.14    0.66
  -1  -3  13    1.36    0.63
   0   3 -13    0.01    0.62
   0  -3  13    0.02    0.60
   1  -3  13    1.39    0.64
   2  -3  13   -0.45    0.63
   5   2 -13   11.35    0.96
   4   2 -13    1.21    0.57
   3   2 -13   -0.40    0.53
  -3  -2  13    0.67    0.53
   2   2 -13    9.74    0.74
  -2  -2  13    7.81    0.73
   1   2 -13    8.47    0.70
  -1  -2  13    8.68    0.77
   0   2 -13    2.04    0.56
   0  -2  13    2.55    0.64
   1  -2  13    0.97    0.60
   2  -2  13   -0.53    0.57
   3  -2  13    1.95    0.65
   4  -2  13    3.03    0.70
   5   1 -13    0.51    0.49
   4   1 -13    3.32    0.55
   3   1 -13    3.46    0.56
  -3  -1  13    3.64    0.57
   2   1 -13    4.20    0.57
  -2  -1  13    3.50    0.60
   1   1 -13   -0.14    0.50
  -1  -1  13   -0.59    0.53
   0   1 -13    3.98    0.55
   0  -1  13    2.79    0.61
  -1   1 -13    0.04    0.44
   1  -1  13    0.43    0.54
   2  -1  13    5.49    0.65
   3  -1  13    9.14    0.75
   4  -1  13   -0.04    0.60
   5   0 -13    0.88    0.50
   4   0 -13    2.22    0.54
   3   0 -13    0.34    0.50
   2   0 -13    1.33    0.52
  -2   0  13    1.22    0.54
   1   0 -13    5.99    0.62
  -1   0  13    5.49    0.63
   0   0 -13    7.94    0.64
   0   0  13    7.14    0.65
  -1   0 -13    2.06    0.52
   1   0  13    1.69    0.57
  -2   0 -13   -0.16    0.43
   2   0  13    0.49    0.53
   3   0  13    0.74    0.54
   4   0  13   -0.15    0.54
  -5   0 -13    1.65    0.60
   5   0  13    1.89    0.59
   5  -1 -13    0.72    0.53
   4  -1 -13    0.45    0.52
   3  -1 -13    7.35    0.62
   2  -1 -13    0.27    0.48
  -2   1  13    0.23    0.48
   1  -1 -13    1.94    0.52
  -1   1  13    0.21    0.48
   0  -1 -13    5.45    0.58
   0   1  13    4.89    0.61
  -1  -1 -13    0.82    0.48
   1   1  13    1.37    0.52
  -2  -1 -13    9.40    0.79
   2   1  13   10.17    0.74
  -3  -1 -13   -0.28    0.43
   3   1  13    0.04    0.53
  -4  -1 -13   -0.09    0.48
   4   1  13    0.39    0.56
  -5  -1 -13    5.39    0.66
   5   1  13    5.22    0.67
  -6  -1 -13    0.40    0.62
   6   1  13    0.82    0.62
   4  -2 -13    1.77    0.54
   3  -2 -13    1.40    0.51
   2  -2 -13    0.32    0.47
   1  -2 -13    0.39    0.48
  -1   2  13    0.04    0.47
   0  -2 -13    2.89    0.53
   0   2  13    2.54    0.55
  -1  -2 -13   37.73    1.22
   1   2  13   40.14    1.28
  -2  -2 -13   11.46    0.82
   2   2  13   10.81    0.91
  -3  -2 -13    0.17    0.44
   3   2  13   -0.15    0.52
   4   2  13    0.94    0.53
  -5  -2 -13    4.58    0.64
   5   2  13    4.87    0.65
  -6  -2 -13    0.33    0.60
   6   2  13   -0.08    0.58
   4  -3 -13    0.94    0.54
   3  -3 -13    0.28    0.48
   2  -3 -13    0.53    0.48
   1  -3 -13    6.51    0.59
  -1   3  13    6.96    0.60
   0  -3 -13    1.02    0.49
   0   3  13    0.28    0.52
  -1  -3 -13    5.42    0.59
   1   3  13    5.09    0.61
  -2  -3 -13    8.63    0.65
   2   3  13    8.98    0.68
  -3  -3 -13    6.77    0.58
   3   3  13    6.15    0.65
  -4  -3 -13    9.31    0.78
   4   3  13    7.41    0.67
   5   3  13    0.43    0.53
   6   3  13    1.03    0.58
  -7  -3 -13    2.06    0.67
   7   3  13    2.42    0.65
   3  -4 -13    0.12    0.50
   2  -4 -13    1.13    0.50
   1  -4 -13   -0.14    0.46
   0  -4 -13    1.12    0.49
   0   4  13    0.88    0.50
  -1  -4 -13   -0.07    0.47
   1   4  13    0.18    0.49
  -2  -4 -13   -0.09    0.48
   2   4  13    0.05    0.52
  -3  -4 -13    6.23    0.60
   3   4  13    6.03    0.65
  -4  -4 -13    2.94    0.52
   4   4  13    3.45    0.59
   5   4  13    2.22    0.59
   6   4  13    1.39    0.58
   7   4  13    0.22    0.58
   3  -5 -13   -0.10    0.50
   2  -5 -13    1.89    0.53
   1  -5 -13    2.38    0.52
   0  -5 -13    1.18    0.50
   0   5  13    0.76    0.50
  -1  -5 -13    0.16    0.49
   1   5  13   -0.70    0.49
  -2  -5 -13    0.39    0.50
   2   5  13    0.51    0.52
  -3  -5 -13    0.26    0.49
   3   5  13    0.06    0.54
  -4  -5 -13   18.01    0.92
   4   5  13   18.57    1.03
  -5  -5 -13    6.54    0.61
   5   5  13    4.79    0.66
   6   5  13    0.04    0.61
   7   5  13    4.86    0.72
   2  -6 -13    0.28    0.51
   1  -6 -13    0.45    0.52
   0  -6 -13    0.61    0.55
  -1  -6 -13    0.62    0.55
   1   6  13    0.98    0.52
  -2  -6 -13   -0.34    0.54
   2   6  13   -0.51    0.50
  -3  -6 -13   -0.16    0.55
   3   6  13   -0.11    0.55
  -4  -6 -13    0.59    0.53
   4   6  13    1.15    0.61
  -5  -6 -13    0.32    0.50
   5   6  13    0.72    0.59
   6   6  13    2.12    0.65
   7   6  13    0.44    0.62
   0  -7 -13    0.05    0.56
  -1  -7 -13   -0.90    0.56
  -2  -7 -13   -0.68    0.57
   2   7  13   -0.18    0.53
  -3  -7 -13    1.17    0.62
   3   7  13    0.69    0.61
  -4  -7 -13    0.11    0.59
   4   7  13    0.79    0.63
  -5  -7 -13    0.76    0.58
   5   7  13   -0.23    0.64
   6   7  13   10.12    0.86
  -1  -8 -13    3.63    0.68
   1   8  13    4.36    0.90
  -2  -8 -13   -0.20    0.62
   2   8  13   -2.12    0.85
  -3  -8 -13    0.63    0.66
   3   8  13    0.00    0.62
  -4  -8 -13    0.44    0.64
   4   8  13    0.85    0.68
  -5  -8 -13    2.53    0.67
   5   8  13    3.24    0.75
   6   8  13    3.43    0.76
   2   4 -14   -0.66    0.74
  -2  -4  14   -0.44    0.71
   1   4 -14   -0.26    0.73
  -1  -4  14    1.33    0.77
  -3  -3  14   -0.52    0.63
  -2  -3  14    5.14    0.74
   1   3 -14    8.91    0.85
  -1  -3  14    8.15    0.81
   0   3 -14    2.37    0.70
   0  -3  14    2.21    0.71
   1  -3  14    5.66    0.76
   4   2 -14   -0.70    0.60
   3   2 -14    5.03    0.71
  -3  -2  14    2.89    0.63
   2   2 -14    1.60    0.63
  -2  -2  14   -0.31    0.61
   1   2 -14    2.01    0.63
  -1  -2  14    2.98    0.69
   0   2 -14    0.39    0.56
   0  -2  14    0.39    0.63
   1  -2  14    1.39    0.66
   2  -2  14    4.10    0.73
   3  -2  14   -0.08    0.64
   4   1 -14    0.20    0.53
   3   1 -14   10.07    0.76
   2   1 -14    1.01    0.57
  -2  -1  14    0.71    0.57
   1   1 -14    0.25    0.55
  -1  -1  14   -0.47    0.59
   0   1 -14    2.28    0.57
   0  -1  14    1.72    0.66
  -1   1 -14    7.66    0.65
   1  -1  14    6.00    0.72
   2  -1  14    3.46    0.66
   3  -1  14    0.69    0.62
   4  -1  14    8.08    0.78
   4   0 -14    2.52    0.59
   3   0 -14   -0.40    0.54
   2   0 -14    1.88    0.58
  -2   0  14    3.04    0.63
   1   0 -14    4.69    0.65
  -1   0  14    3.67    0.64
   0   0 -14   -0.40    0.54
   0   0  14    0.90    0.59
  -1   0 -14    3.69    0.57
   1   0  14    4.48    0.67
  -2   0 -14    1.72    0.49
   2   0  14    1.31    0.61
   3   0  14    2.58    0.64
   4   0  14    5.55    0.71
   5   0  14    2.15    0.67
   4  -1 -14    0.09    0.55
   3  -1 -14    2.66    0.59
   2  -1 -14    2.75    0.58
  -2   1  14    2.14    0.56
   1  -1 -14    7.09    0.66
  -1   1  14    6.34    0.66
   0  -1 -14   -0.79    0.51
   0   1  14    0.49    0.55
  -1  -1 -14    0.59    0.53
   1   1  14    0.63    0.55
  -2  -1 -14   -0.08    0.50
   2   1  14   -0.76    0.54
   3   1  14    7.35    0.73
   4   1  14   -0.27    0.59
   5   1  14    1.08    0.65
   4  -2 -14    7.81    0.71
   3  -2 -14    0.86    0.54
   2  -2 -14    0.52    0.54
   1  -2 -14    0.07    0.51
  -1   2  14   -0.40    0.50
   0  -2 -14   18.44    1.02
   0   2  14   19.10    1.00
  -1  -2 -14    2.47    0.57
   1   2  14    2.98    0.62
  -2  -2 -14   -0.46    0.49
   2   2  14   -0.47    0.56
  -3  -2 -14    4.17    0.56
   3   2  14    4.05    0.66
  -4  -2 -14    4.13    0.60
   4   2  14    4.37    0.68
  -5  -2 -14    0.05    0.55
   5   2  14    0.04    0.61
  -6  -2 -14    1.49    0.63
   6   2  14    2.76    0.68
   3  -3 -14   -0.26    0.53
   2  -3 -14    3.88    0.60
   1  -3 -14    5.41    0.63
  -1   3  14    4.44    0.60
   0  -3 -14    8.27    0.69
   0   3  14   10.53    0.91
  -1  -3 -14   13.52    0.95
   1   3  14   13.25    0.97
  -2  -3 -14    9.21    0.70
   2   3  14    7.98    0.73
  -3  -3 -14    2.73    0.56
   3   3  14    3.87    0.64
   4   3  14    3.76    0.65
   5   3  14    2.14    0.63
  -6  -3 -14   -0.47    0.59
   6   3  14    0.62    0.62
   3  -4 -14    0.24    0.53
   2  -4 -14    3.59    0.58
   1  -4 -14    0.92    0.52
   0  -4 -14    2.65    0.56
   0   4  14    2.41    0.58
  -1  -4 -14    0.67    0.54
   1   4  14   -0.12    0.54
  -2  -4 -14   14.91    1.01
   2   4  14   14.60    1.00
  -3  -4 -14    0.17    0.53
   3   4  14    0.24    0.56
  -4  -4 -14   -0.11    0.49
   4   4  14    1.56    0.59
   5   4  14    9.68    0.78
   6   4  14    1.89    0.64
   2  -5 -14    1.91    0.55
   1  -5 -14    1.04    0.54
   0  -5 -14    2.80    0.57
  -1  -5 -14    0.66    0.55
   1   5  14    1.17    0.56
  -2  -5 -14    1.18    0.56
   2   5  14    0.87    0.60
  -3  -5 -14    0.79    0.55
   3   5  14    0.83    0.58
  -4  -5 -14    6.90    0.65
   4   5  14    6.39    0.72
   5   5  14    0.18    0.59
   6   5  14    0.81    0.60
   1  -6 -14    0.63    0.53
   0  -6 -14    2.94    0.61
  -1  -6 -14   -0.16    0.56
   1   6  14   -0.09    0.53
  -2  -6 -14    0.78    0.59
   2   6  14   -0.12    0.55
  -3  -6 -14    0.04    0.57
   3   6  14    0.37    0.59
  -4  -6 -14    6.15    0.66
   4   6  14    5.86    0.72
  -5  -6 -14   -0.13    0.51
   5   6  14   -0.14    0.62
   6   6  14    1.82    0.69
   0  -7 -14    0.72    0.61
  -1  -7 -14    0.45    0.63
  -2  -7 -14    1.75    0.66
   2   7  14    0.73    0.58
  -3  -7 -14    0.00    0.64
   3   7  14    0.73    0.60
  -4  -7 -14    0.14    0.61
   4   7  14   -0.26    0.66
  -5  -7 -14    0.41    0.58
   5   7  14    0.30    0.71
   6   7  14    5.41    0.81
  -2  -8 -14    0.15    0.67
  -3  -8 -14    0.63    0.69
   3   8  14    0.24    0.65
  -4  -8 -14    0.05    0.68
   4   8  14    1.07    0.72
   2   3 -15    0.31    0.78
  -2  -3  15   -0.31    0.68
   1   3 -15    2.89    0.80
  -1  -3  15    2.33    0.78
   3   2 -15    2.01    0.71
  -3  -2  15    2.72    0.71
   2   2 -15    2.04    0.69
  -2  -2  15   -0.10    0.66
   1   2 -15   -0.79    0.62
  -1  -2  15   -0.43    0.68
   0   2 -15   14.52    0.92
   0  -2  15   11.10    0.93
   1  -2  15    0.41    0.71
   2  -2  15    3.61    0.76
   3   1 -15    0.22    0.61
   2   1 -15    1.42    0.64
  -2  -1  15    1.11    0.63
   1   1 -15    3.61    0.67
  -1  -1  15    3.33    0.75
   0   1 -15    0.34    0.56
   0  -1  15   -0.21    0.68
  -1   1 -15    3.93    0.64
   1  -1  15    4.63    0.75
   2  -1  15    0.24    0.64
   3  -1  15    0.15    0.62
   3   0 -15    0.25    0.58
   2   0 -15    2.15    0.65
  -2   0  15    1.46    0.62
   1   0 -15    4.51    0.70
  -1   0  15    4.21    0.73
   0   0 -15    2.89    0.63
   0   0  15    2.95    0.67
  -1   0 -15    0.17    0.53
   1   0  15    1.00    0.64
  -2   0 -15   -0.13    0.51
   2   0  15   -0.04    0.64
   3   0  15    2.31    0.69
   4   0  15   -0.10    0.66
   3  -1 -15    1.15    0.62
   2  -1 -15    1.25    0.63
   1  -1 -15   -0.40    0.58
  -1   1  15    0.03    0.56
   0  -1 -15    0.57    0.61
   0   1  15    0.14    0.61
  -1  -1 -15   -0.86    0.56
   1   1  15   -0.09    0.62
  -2  -1 -15    1.42    0.55
   2   1  15    2.81    0.66
   3   1  15    7.00    0.75
   4   1  15    0.55    0.64
   3  -2 -15    0.38    0.57
   2  -2 -15    0.00    0.57
   1  -2 -15    1.02    0.60
  -1   2  15    1.47    0.59
   0  -2 -15    0.12    0.59
   0   2  15   -0.17    0.57
  -1  -2 -15    0.47    0.57
   1   2  15   -0.33    0.59
  -2  -2 -15    0.94    0.56
   2   2  15   -0.33    0.62
  -3  -2 -15    0.22    0.51
   3   2  15    0.34    0.63
   4   2  15   -0.16    0.61
   5   2  15    2.82    0.70
   3  -3 -15    0.18    0.57
   2  -3 -15    1.01    0.59
   1  -3 -15    0.46    0.58
   0  -3 -15    3.54    0.67
   0   3  15    3.77    0.64
  -1  -3 -15    0.40    0.59
   1   3  15   -0.02    0.62
  -2  -3 -15   10.68    0.79
   2   3  15   10.26    0.82
  -3  -3 -15    0.57    0.55
   3   3  15    0.29    0.61
   4   3  15   -0.26    0.61
   5   3  15    0.43    0.64
   2  -4 -15    4.16    0.64
   1  -4 -15    3.92    0.63
   0  -4 -15    8.28    0.74
   0   4  15    8.26    0.74
  -1  -4 -15   10.86    0.80
   1   4  15    9.55    0.78
  -2  -4 -15    0.67    0.60
   2   4  15    0.12    0.62
  -3  -4 -15    0.28    0.57
   3   4  15    0.53    0.61
  -4  -4 -15    1.06    0.57
   4   4  15    0.47    0.63
   5   4  15    2.19    0.66
   6   4  15    1.02    0.65
   1  -5 -15    1.00    0.57
   0  -5 -15    1.07    0.60
  -1  -5 -15    0.22    0.59
   1   5  15    0.08    0.56
  -2  -5 -15    1.13    0.61
   2   5  15    0.42    0.61
  -3  -5 -15    0.66    0.58
   3   5  15   -0.36    0.63
  -4  -5 -15    8.31    0.74
   4   5  15    7.14    0.78
   5   5  15   -1.13    0.61
   6   5  15    1.89    0.68
   0  -6 -15    0.66    0.60
  -1  -6 -15    2.97    0.66
  -2  -6 -15    1.48    0.64
   2   6  15    2.10    0.65
  -3  -6 -15    0.95    0.62
   3   6  15    1.05    0.67
  -4  -6 -15    1.62    0.61
   4   6  15    1.31    0.68
   5   6  15    2.72    0.74
  -1  -7 -15   -0.42    0.63
  -2  -7 -15    2.47    0.70
   2   7  15    1.00    0.64
  -3  -7 -15    0.78    0.67
   3   7  15    1.71    0.68
  -4  -7 -15    0.40    0.63
   4   7  15    2.24    0.73
  -5  -7 -15    1.05    0.62
   5   7  15    0.55    0.71
   2   1 -16    1.87    0.68
  -2  -1  16    1.59    0.70
   1   1 -16   17.48    1.16
  -1  -1  16   13.50    1.02
   0   1 -16    2.49    0.68
   0  -1  16    2.18    0.79
  -1   1 -16    3.61    0.68
   1  -1  16    3.53    0.79
   2  -1  16    1.88    0.76
   2   0 -16    4.12    0.74
  -2   0  16    3.34    0.75
   1   0 -16    0.43    0.66
  -1   0  16    0.14    0.71
   0   0 -16    4.25    0.71
   0   0  16    3.88    0.78
  -1   0 -16    8.68    0.75
   1   0  16    6.64    0.83
   2   0  16   -0.24    0.68
   3   0  16    0.61    0.70
   2  -1 -16    3.73    0.75
   1  -1 -16    0.11    0.67
  -1   1  16   -0.54    0.63
   0  -1 -16    2.04    0.71
   0   1  16    2.80    0.72
  -1  -1 -16    5.13    0.72
   1   1  16    5.02    0.78
  -2  -1 -16    9.67    0.78
   2   1  16    8.79    0.88
   3   1  16   -0.75    0.64
   4   1  16    0.35    0.65
   2  -2 -16    1.42    0.66
   1  -2 -16    1.60    0.68
  -1   2  16    1.06    0.63
   0  -2 -16    0.51    0.65
   0   2  16    1.24    0.65
  -1  -2 -16    1.18    0.65
   1   2  16    0.54    0.66
  -2  -2 -16    3.23    0.66
   2   2  16    3.59    0.71
   3   2  16    5.73    0.81
   4   2  16    0.61    0.71
   2  -3 -16    0.47    0.62
   1  -3 -16    0.18    0.64
   0  -3 -16    0.07    0.66
   0   3  16   -0.42    0.61
  -1  -3 -16    0.54    0.65
   1   3  16    0.69    0.64
  -2  -3 -16    0.09    0.61
   2   3  16    0.96    0.68
  -3  -3 -16    1.71    0.60
   3   3  16    0.70    0.71
   4   3  16    1.84    0.71
   1  -4 -16   -0.59    0.62
   0  -4 -16    6.87    0.76
   0   4  16    7.02    0.77
  -1  -4 -16    6.83    0.79
   1   4  16    6.67    0.78
  -2  -4 -16    0.46    0.64
   2   4  16   -0.04    0.66
  -3  -4 -16    0.47    0.62
   3   4  16   -0.24    0.67
   4   4  16    3.74    0.76
   5   4  16   -0.42    0.65
   0  -5 -16    2.36    0.71
  -1  -5 -16    2.64    0.73
   1   5  16    1.59    0.66
  -2  -5 -16    3.90    0.76
   2   5  16    2.15    0.71
  -3  -5 -16    1.32    0.67
   3   5  16    0.67    0.70
  -4  -5 -16    2.07    0.66
   4   5  16    2.17    0.74
   5   5  16   -0.82    0.68
  -1  -6 -16    2.05    0.69
  -2  -6 -16    1.65    0.69
   2   6  16    1.64    0.67
  -3  -6 -16    1.96    0.68
   3   6  16    1.30    0.71
  -4  -6 -16    2.37    0.66
   4   6  16    0.81    0.72
   0   0 -17   14.41    1.18
   0   0  17   12.91    1.02
  -1   0 -17    1.07    0.66
   1   0  17    1.29    0.78
   1  -1 -17   -0.25    0.69
  -1   1  17   -0.46    0.69
   0  -1 -17    0.52    0.72
   0   1  17    0.13    0.73
  -1  -1 -17    0.52    0.71
   1   1  17   -0.16    0.74
  -2  -1 -17   -0.05    0.62
   2   1  17    0.03    0.75
   1  -2 -17    2.98    0.78
   0  -2 -17    4.01    0.78
   0   2  17    4.30    0.81
  -1  -2 -17   -0.14    0.67
   1   2  17    0.24    0.73
  -2  -2 -17    0.02    0.65
   2   2  17    0.86    0.73
   3   2  17    1.74    0.74
   0  -3 -17   -0.18    0.70
   0   3  17   -0.24    0.69
  -1  -3 -17    0.42    0.69
   1   3  17    1.29    0.71
  -2  -3 -17    1.40    0.69
   2   3  17    0.31    0.74
  -3  -3 -17    1.33    0.65
   3   3  17    1.50    0.80
   0  -4 -17   -0.29    0.71
  -1  -4 -17    0.55    0.72
   1   4  17    1.28    0.72
  -2  -4 -17    1.27    0.73
   2   4  17    1.38    0.74
  -3  -4 -17    1.60    0.70
   3   4  17   -0.65    0.73
   1   5  17    2.36    0.73
  -2  -5 -17    1.71    0.75
   2   5  17    2.30    0.79
  -3  -5 -17    2.09    0.72
   3   5  17    2.93    0.78
   0   0   0    0.00    0.00
;
_shelx_hkl_checksum              10695
_olex2_date_sample_data_collection 16.12.2014
_olex2_date_sample_submission    15.12.2014
_olex2_submission_original_sample_id jb131214_1_1
_olex2_submission_special_instructions 'No special instructions were received'
loop_
_space_group_symop_operation_xyz
'x, y, z'
'-x, -y, -z'
loop_
_atom_site_label
_atom_site_type_symbol
_atom_site_fract_x
_atom_site_fract_y
_atom_site_fract_z
_atom_site_U_iso_or_equiv
_atom_site_adp_type
_atom_site_occupancy
_atom_site_site_symmetry_order
_atom_site_calc_flag
_atom_site_refinement_flags_posn
_atom_site_refinement_flags_adp
Cl1 Cl 0.62427(15) -0.41965(14) 1.13898(6) 0.0375(3) Uani 1 1 d . U
F1 F 1.1741(3) -0.0142(3) 0.78955(15) 0.0344(5) Uani 1 1 d . U
O3 O 1.0800(3) 0.1089(3) 0.62369(15) 0.0202(5) Uani 1 1 d . U
O4 O 0.9193(4) 0.2934(3) 0.75199(16) 0.0249(5) Uani 1 1 d . U
N1 N 0.9576(4) 0.2526(3) 0.55200(19) 0.0182(5) Uani 1 1 d . U
O5 O 0.7169(3) 0.0717(3) 0.67887(16) 0.0268(6) Uani 1 1 d . U
C7 C 0.8174(4) 0.4194(4) 0.5780(2) 0.0143(6) Uani 1 1 d . U
C8 C 0.8001(4) 0.4363(4) 0.6786(2) 0.0150(6) Uani 1 1 d . U
C9 C 0.9845(5) 0.2313(4) 0.4565(2) 0.0182(6) Uani 1 1 d . U
H9 H 1.0837 0.1162 0.4409 0.022 Uiso 1 1 calc R .
C10 C 0.7262(5) 0.5456(4) 0.4005(2) 0.0199(6) Uani 1 1 d . U
H10 H 0.6477 0.6450 0.3475 0.024 Uiso 1 1 calc R .
C11 C 0.7758(5) -0.0776(4) 0.8511(2) 0.0196(6) Uani 1 1 d . U
C12 C 0.6968(4) 0.5715(4) 0.5008(2) 0.0166(6) Uani 1 1 d . U
C13 C 0.5584(5) 0.7403(4) 0.5293(2) 0.0213(7) Uani 1 1 d . U
H13 H 0.4746 0.8447 0.4800 0.026 Uiso 1 1 calc R .
C14 C 0.8668(5) 0.3784(4) 0.3794(2) 0.0209(7) Uani 1 1 d . U
H14 H 0.8850 0.3617 0.3119 0.025 Uiso 1 1 calc R .
C15 C 0.6653(5) 0.6023(5) 0.7028(2) 0.0239(7) Uani 1 1 d . U
H15 H 0.6529 0.6155 0.7708 0.029 Uiso 1 1 calc R .
C16 C 0.5448(5) 0.7535(5) 0.6283(2) 0.0239(7) Uani 1 1 d . U
H16 H 0.4514 0.8682 0.6467 0.029 Uiso 1 1 calc R .
C17 C 0.8248(5) 0.0282(4) 0.7515(2) 0.0219(7) Uani 1 1 d . U
C18 C 0.9056(5) -0.1588(5) 0.9336(2) 0.0277(8) Uani 1 1 d . U
H18 H 1.0260 -0.1423 0.9286 0.033 Uiso 1 1 calc R .
C19 C 0.5489(5) -0.2019(5) 0.9499(2) 0.0240(7) Uani 1 1 d . U
H19 H 0.4266 -0.2154 0.9563 0.029 Uiso 1 1 calc R .
C20 C 0.6839(5) -0.2862(5) 1.0287(2) 0.0240(7) Uani 1 1 d . U
C21 C 0.5954(5) -0.0979(5) 0.8619(2) 0.0211(7) Uani 1 1 d . U
H21 H 0.5033 -0.0389 0.8077 0.025 Uiso 1 1 calc R .
B22 B 1.0040(6) 0.1006(5) 0.7327(3) 0.0240(8) Uani 1 1 d . U
C23 C 0.8596(5) -0.2638(5) 1.0231(3) 0.0307(8) Uani 1 1 d . U
H23 H 0.9476 -0.3187 1.0790 0.037 Uiso 1 1 calc R .
loop_
_atom_site_aniso_label
_atom_site_aniso_U_11
_atom_site_aniso_U_22
_atom_site_aniso_U_33
_atom_site_aniso_U_23
_atom_site_aniso_U_13
_atom_site_aniso_U_12
Cl1 0.0400(6) 0.0474(6) 0.0226(4) 0.0011(4) -0.0001(4) -0.0214(5)
F1 0.0233(11) 0.0423(12) 0.0342(11) 0.0024(9) -0.0091(8) -0.0145(10)
O3 0.0151(11) 0.0164(11) 0.0208(11) -0.0004(8) -0.0026(8) -0.0007(9)
O4 0.0279(13) 0.0269(12) 0.0216(11) -0.0056(9) -0.0051(9) -0.0120(11)
N1 0.0150(13) 0.0169(13) 0.0218(12) -0.0008(10) -0.0028(10) -0.0072(11)
O5 0.0228(13) 0.0327(13) 0.0252(12) 0.0030(10) -0.0097(9) -0.0148(11)
C7 0.0094(13) 0.0127(13) 0.0224(14) -0.0054(10) 0.0015(10) -0.0059(11)
C8 0.0147(15) 0.0169(14) 0.0185(13) -0.0030(11) 0.0000(11) -0.0117(12)
C9 0.0163(16) 0.0197(15) 0.0228(14) -0.0097(11) 0.0020(11) -0.0094(13)
C10 0.0184(16) 0.0204(15) 0.0226(15) 0.0003(12) -0.0056(12) -0.0110(13)
C11 0.0164(16) 0.0181(15) 0.0227(14) -0.0061(11) -0.0048(11) -0.0041(13)
C12 0.0102(14) 0.0143(14) 0.0254(14) -0.0019(11) -0.0034(11) -0.0059(12)
C13 0.0131(15) 0.0166(15) 0.0328(17) -0.0036(12) -0.0021(12) -0.0056(13)
C14 0.0226(17) 0.0248(16) 0.0194(15) -0.0050(12) -0.0012(12) -0.0135(14)
C15 0.0244(17) 0.0269(16) 0.0244(16) -0.0096(12) 0.0054(13) -0.0140(14)
C16 0.0159(16) 0.0198(16) 0.0358(17) -0.0108(13) 0.0043(13) -0.0062(14)
C17 0.0204(16) 0.0173(16) 0.0269(16) -0.0048(12) -0.0061(12) -0.0058(14)
C18 0.0225(18) 0.0332(19) 0.0282(17) -0.0027(14) -0.0075(13) -0.0131(16)
C19 0.0223(17) 0.0287(17) 0.0223(15) -0.0085(13) -0.0011(12) -0.0104(15)
C20 0.0283(18) 0.0252(17) 0.0163(14) -0.0039(12) -0.0002(12) -0.0099(15)
C21 0.0207(16) 0.0240(16) 0.0181(14) -0.0056(12) -0.0044(12) -0.0075(14)
B22 0.0184(18) 0.0260(18) 0.0248(17) -0.0050(14) -0.0049(14) -0.0062(15)
C23 0.0291(19) 0.038(2) 0.0239(16) -0.0015(14) -0.0075(14) -0.0146(17)
loop_
_atom_type_symbol
_atom_type_description
_atom_type_scat_dispersion_real
_atom_type_scat_dispersion_imag
_atom_type_scat_source
C C 0.0033 0.0016 'International Tables Vol C Tables 4.2.6.8 and 6.1.1.4'
H H 0.0000 0.0000 'International Tables Vol C Tables 4.2.6.8 and 6.1.1.4'
B B 0.0013 0.0007 'International Tables Vol C Tables 4.2.6.8 and 6.1.1.4'
Cl Cl 0.1484 0.1585 'International Tables Vol C Tables 4.2.6.8 and 6.1.1.4'
F F 0.0171 0.0103 'International Tables Vol C Tables 4.2.6.8 and 6.1.1.4'
N N 0.0061 0.0033 'International Tables Vol C Tables 4.2.6.8 and 6.1.1.4'
O O 0.0106 0.0060 'International Tables Vol C Tables 4.2.6.8 and 6.1.1.4'
loop_
_geom_angle_atom_site_label_1
_geom_angle_atom_site_label_2
_geom_angle_atom_site_label_3
_geom_angle
N1 O3 B22 117.0(2)
C8 O4 B22 116.1(2)
O3 N1 C7 119.8(2)
C9 N1 O3 118.1(3)
C9 N1 C7 122.0(3)
N1 C7 C8 119.7(3)
N1 C7 C12 118.9(3)
C8 C7 C12 121.5(3)
O4 C8 C7 121.6(3)
O4 C8 C15 119.3(3)
C15 C8 C7 119.1(3)
N1 C9 H9 120.0
N1 C9 C14 120.1(3)
C14 C9 H9 120.0
C12 C10 H10 119.9
C14 C10 H10 119.9
C14 C10 C12 120.2(3)
C18 C11 C17 122.4(3)
C18 C11 C21 118.5(3)
C21 C11 C17 119.2(3)
C10 C12 C7 118.3(3)
C13 C12 C7 117.5(3)
C13 C12 C10 124.2(3)
C12 C13 H13 120.1
C16 C13 C12 119.9(3)
C16 C13 H13 120.1
C9 C14 H14 119.7
C10 C14 C9 120.5(3)
C10 C14 H14 119.7
C8 C15 H15 119.8
C8 C15 C16 120.5(3)
C16 C15 H15 119.8
C13 C16 C15 121.5(3)
C13 C16 H16 119.2
C15 C16 H16 119.2
O5 C17 C11 117.9(3)
O5 C17 B22 116.8(3)
C11 C17 B22 125.2(3)
C11 C18 H18 119.7
C23 C18 C11 120.6(3)
C23 C18 H18 119.7
C20 C19 H19 120.6
C21 C19 H19 120.6
C21 C19 C20 118.8(3)
C19 C20 Cl1 118.2(3)
C23 C20 Cl1 119.7(3)
C23 C20 C19 122.0(3)
C11 C21 H21 119.4
C19 C21 C11 121.3(3)
C19 C21 H21 119.4
F1 B22 O3 104.4(3)
F1 B22 O4 109.4(3)
F1 B22 C17 115.7(3)
O3 B22 C17 110.1(3)
O4 B22 O3 108.7(3)
O4 B22 C17 108.3(3)
C18 C23 H23 120.6
C20 C23 C18 118.7(3)
C20 C23 H23 120.6
loop_
_geom_bond_atom_site_label_1
_geom_bond_atom_site_label_2
_geom_bond_distance
Cl1 C20 1.748(3)
F1 B22 1.377(4)
O3 N1 1.357(3)
O3 B22 1.521(4)
O4 C8 1.360(4)
O4 B22 1.476(4)
N1 C7 1.388(4)
N1 C9 1.338(4)
O5 C17 1.233(4)
C7 C8 1.400(4)
C7 C12 1.424(4)
C8 C15 1.362(4)
C9 H9 0.9500
C9 C14 1.399(4)
C10 H10 0.9500
C10 C12 1.415(4)
C10 C14 1.364(4)
C11 C17 1.507(4)
C11 C18 1.402(4)
C11 C21 1.402(4)
C12 C13 1.409(4)
C13 H13 0.9500
C13 C16 1.372(5)
C14 H14 0.9500
C15 H15 0.9500
C15 C16 1.398(5)
C16 H16 0.9500
C17 B22 1.641(5)
C18 H18 0.9500
C18 C23 1.397(5)
C19 H19 0.9500
C19 C20 1.385(4)
C19 C21 1.381(4)
C20 C23 1.381(5)
C21 H21 0.9500
C23 H23 0.9500
loop_
_geom_torsion_atom_site_label_1
_geom_torsion_atom_site_label_2
_geom_torsion_atom_site_label_3
_geom_torsion_atom_site_label_4
_geom_torsion
Cl1 C20 C23 C18 179.1(3)
O3 N1 C7 C8 -1.5(4)
O3 N1 C7 C12 177.2(2)
O3 N1 C9 C14 -177.7(3)
O4 C8 C15 C16 178.2(3)
N1 O3 B22 F1 -161.8(2)
N1 O3 B22 O4 -45.1(3)
N1 O3 B22 C17 73.4(3)
N1 C7 C8 O4 0.7(4)
N1 C7 C8 C15 178.5(3)
N1 C7 C12 C10 -0.3(4)
N1 C7 C12 C13 -178.9(3)
N1 C9 C14 C10 1.1(4)
O5 C17 B22 F1 -149.8(3)
O5 C17 B22 O3 -31.7(4)
O5 C17 B22 O4 87.0(3)
C7 N1 C9 C14 -1.3(4)
C7 C8 C15 C16 0.4(4)
C7 C12 C13 C16 0.4(4)
C8 O4 B22 F1 157.3(3)
C8 O4 B22 O3 43.8(3)
C8 O4 B22 C17 -75.8(3)
C8 C7 C12 C10 178.5(3)
C8 C7 C12 C13 -0.1(4)
C8 C15 C16 C13 -0.1(5)
C9 N1 C7 C8 -177.9(3)
C9 N1 C7 C12 0.9(4)
C10 C12 C13 C16 -178.1(3)
C11 C17 B22 F1 33.5(5)
C11 C17 B22 O3 151.6(3)
C11 C17 B22 O4 -89.7(4)
C11 C18 C23 C20 0.0(5)
C12 C7 C8 O4 -178.0(3)
C12 C7 C8 C15 -0.2(4)
C12 C10 C14 C9 -0.5(4)
C12 C13 C16 C15 -0.3(5)
C14 C10 C12 C7 0.1(4)
C14 C10 C12 C13 178.6(3)
C17 C11 C18 C23 -176.8(3)
C17 C11 C21 C19 176.6(3)
C18 C11 C17 O5 170.0(3)
C18 C11 C17 B22 -13.4(5)
C18 C11 C21 C19 -2.7(5)
C19 C20 C23 C18 -2.5(5)
C20 C19 C21 C11 0.4(5)
C21 C11 C17 O5 -9.3(5)
C21 C11 C17 B22 167.3(3)
C21 C11 C18 C23 2.5(5)
C21 C19 C20 Cl1 -179.3(2)
C21 C19 C20 C23 2.3(5)
B22 O3 N1 C7 25.2(4)
B22 O3 N1 C9 -158.3(3)
B22 O4 C8 C7 -24.1(4)
B22 O4 C8 C15 158.1(3)
