#------------------------------------------------------------------------------
#$Date: 2019-11-25 06:43:39 +0200 (Mon, 25 Nov 2019) $
#$Revision: 240268 $
#$URL: file:///home/coder/svn-repositories/cod/cif/4/12/95/4129571.cif $
#------------------------------------------------------------------------------
#
# This file is available in the Crystallography Open Database (COD),
# http://www.crystallography.net/
#
# All data on this site have been placed in the public domain by the
# contributors.
#
data_4129571
loop_
_publ_author_name
'Bucher, Cyril'
'Deans, Richard M.'
'Burns, Noah Z.'
_publ_section_title
;
 Highly Selective Synthesis of Halomon, Plocamenone, and Isoplocamenone.
;
_journal_issue                   40
_journal_name_full               'Journal of the American Chemical Society'
_journal_page_first              12784
_journal_page_last               12787
_journal_paper_doi               10.1021/jacs.5b08398
_journal_volume                  137
_journal_year                    2015
_chemical_absolute_configuration rmad
_chemical_formula_moiety         'C16 H17 Br Cl2 Fe O2'
_chemical_formula_sum            'C16 H17 Br Cl2 Fe O2'
_chemical_formula_weight         447.95
_space_group_crystal_system      monoclinic
_space_group_IT_number           4
_space_group_name_Hall           'P 2yb'
_space_group_name_H-M_alt        'P 1 21 1'
_atom_sites_solution_hydrogens   geom
_atom_sites_solution_primary     vecmap
_atom_sites_solution_secondary   difmap
_audit_creation_method           SHELXL-2014/7
_cell_angle_alpha                90
_cell_angle_beta                 96.9070(10)
_cell_angle_gamma                90
_cell_formula_units_Z            2
_cell_length_a                   7.4370(6)
_cell_length_b                   9.6628(8)
_cell_length_c                   11.6887(10)
_cell_measurement_reflns_used    9847
_cell_measurement_temperature    120(2)
_cell_measurement_theta_max      28.30
_cell_measurement_theta_min      2.74
_cell_volume                     833.88(12)
_computing_cell_refinement       'Bruker SAINT v8.34A'
_computing_data_collection       'Bruker APEX-II v2014-11.0'
_computing_data_reduction        'Bruker SAINT v8.34A'
_computing_molecular_graphics    'Bruker XP'
_computing_publication_material  'CIFTAB (Sheldrick, 2008)'
_computing_structure_refinement  'SHELXL-2014/7 (Sheldrick, 2015)'
_computing_structure_solution    'SHELXT-2014/2 (Sheldrick, 2015)'
_diffrn_ambient_temperature      120(2)
_diffrn_detector_area_resol_mean 8.33
_diffrn_measured_fraction_theta_full 0.999
_diffrn_measured_fraction_theta_max 1.000
_diffrn_measurement_device_type  'Bruker APEX-II'
_diffrn_measurement_method       'combination of \w and \f-scans '
_diffrn_radiation_type           MoK\a
_diffrn_radiation_wavelength     0.71073
_diffrn_reflns_av_R_equivalents  0.0245
_diffrn_reflns_av_unetI/netI     0.0295
_diffrn_reflns_Laue_measured_fraction_full 0.999
_diffrn_reflns_Laue_measured_fraction_max 1.000
_diffrn_reflns_limit_h_max       9
_diffrn_reflns_limit_h_min       -9
_diffrn_reflns_limit_k_max       12
_diffrn_reflns_limit_k_min       -12
_diffrn_reflns_limit_l_max       15
_diffrn_reflns_limit_l_min       -15
_diffrn_reflns_number            22494
_diffrn_reflns_point_group_measured_fraction_full 0.993
_diffrn_reflns_point_group_measured_fraction_max 0.993
_diffrn_reflns_theta_full        25.242
_diffrn_reflns_theta_max         28.311
_diffrn_reflns_theta_min         1.755
_diffrn_source                   'fine-focus sealed tube'
_exptl_absorpt_coefficient_mu    3.623
_exptl_absorpt_correction_T_max  0.8620
_exptl_absorpt_correction_T_min  0.5493
_exptl_absorpt_correction_type   numerical
_exptl_absorpt_process_details   'SADABS (Krause et al., 2015)'
_exptl_crystal_colour            orange
_exptl_crystal_density_diffrn    1.784
_exptl_crystal_description       tablet
_exptl_crystal_F_000             448
_exptl_crystal_size_max          0.268
_exptl_crystal_size_mid          0.184
_exptl_crystal_size_min          0.082
_refine_diff_density_max         0.366
_refine_diff_density_min         -0.339
_refine_diff_density_rms         0.056
_refine_ls_abs_structure_details
;
 Flack x determined using 1794 quotients [(I+)-(I-)]/[(I+)+(I-)]
 (Parsons, Flack and Wagner, Acta Cryst. B69 (2013) 249-259).
;
_refine_ls_abs_structure_Flack   0.025(3)
_refine_ls_extinction_method     none
_refine_ls_goodness_of_fit_ref   1.032
_refine_ls_hydrogen_treatment    constr
_refine_ls_matrix_type           full
_refine_ls_number_parameters     200
_refine_ls_number_reflns         4128
_refine_ls_number_restraints     1
_refine_ls_restrained_S_all      1.032
_refine_ls_R_factor_all          0.0196
_refine_ls_R_factor_gt           0.0187
_refine_ls_shift/su_max          0.001
_refine_ls_shift/su_mean         0.000
_refine_ls_structure_factor_coef Fsqd
_refine_ls_weighting_details
'w=1/[\s^2^(Fo^2^)+(0.0244P)^2^] where P=(Fo^2^+2Fc^2^)/3'
_refine_ls_weighting_scheme      calc
_refine_ls_wR_factor_gt          0.0478
_refine_ls_wR_factor_ref         0.0480
_reflns_Friedel_coverage         0.879
_reflns_Friedel_fraction_full    0.985
_reflns_Friedel_fraction_max     0.986
_reflns_number_gt                3993
_reflns_number_total             4128
_reflns_threshold_expression     'I > 2\s(I)'
_cod_data_source_file            ja5b08398_si_004.cif
_cod_data_source_block           su1515a
_cod_original_sg_symbol_H-M      'P 21'
_cod_database_code               4129571
_shelx_shelxl_version_number     2014/7
_shelx_space_group_comment
;
The symmetry employed for this shelxl refinement is uniquely defined
by the following loop, which should always be used as a source of
symmetry information in preference to the above space-group names.
They are only intended as comments.
;
_shelx_estimated_absorpt_t_min   0.443
_shelx_estimated_absorpt_t_max   0.755
_diffrn_source_monochromator     'Bruker TRIUMPH curved-graphite'
_shelx_res_file
;

    su1515a.res created by SHELXL-2014/7


TITL su1515_a.res in P2(1)
REM Old TITL su1515 in P2(1)

REM SHELXT solution in P2(1)
REM R1 0.076,  Rweak 0.034,  Alpha 0.003,  Orientation as input
REM Flack x =  0.049 ( 0.004 ) from Parsons' quotients
REM Formula found by SHELXT:  C16 O2 Cl2 Fe Br

CELL  0.71073   7.4370   9.6628  11.6887   90.000   96.907   90.000
ZERR    2.000   0.0006   0.0008   0.0010    0.000    0.001    0.000
LATT -1
SYMM -X, 1/2+Y, -Z
SFAC C H O CL FE BR
UNIT 32 34 4 4 2 2
TEMP -153.160
SIZE 0.082 0.184 0.268

L.S. 10
BOND $H
FMAP -2
PLAN 20
CONF
ACTA

WGHT    0.024400
FVAR       0.70483
FE1   5    0.278844    0.540774    0.070519    11.00000    0.01138    0.01567 =
         0.01561   -0.00010    0.00231   -0.00159
BR1   6    0.749464    0.522353    0.677624    11.00000    0.03658    0.03846 =
         0.02740   -0.01254    0.00493    0.00657
CL1   4    0.804385    0.252833    0.368918    11.00000    0.04603    0.02900 =
         0.01869   -0.00401   -0.00216    0.01376
CL2   4    1.160877    0.369880    0.710079    11.00000    0.03338    0.03333 =
         0.02727    0.00367   -0.00906    0.00113
O1    3    0.419937    0.358871    0.352163    11.00000    0.02610    0.02099 =
         0.02231    0.00144   -0.00259    0.00023
O2    3    0.267322    0.552633    0.390733    11.00000    0.04023    0.02702 =
         0.02052   -0.00312    0.00763    0.00405
C1    1    0.482000    0.677114    0.124561    11.00000    0.01788    0.01949 =
         0.02512    0.00450   -0.00328   -0.00582
AFIX  43
H1    2    0.529009    0.696880    0.202029    11.00000   -1.20000
AFIX   0
C2    1    0.545800    0.572549    0.054547    11.00000    0.01358    0.02466 =
         0.03351    0.00467    0.00654   -0.00238
AFIX  43
H2    2    0.641991    0.509788    0.076813    11.00000   -1.20000
AFIX   0
C3    1    0.439248    0.578575   -0.055654    11.00000    0.02710    0.03201 =
         0.02529   -0.00144    0.01326   -0.01010
AFIX  43
H3    2    0.452484    0.520700   -0.119808    11.00000   -1.20000
AFIX   0
C4    1    0.310237    0.686273   -0.052269    11.00000    0.02439    0.02925 =
         0.02088    0.01026    0.00107   -0.00646
AFIX  43
H4    2    0.221951    0.713001   -0.113866    11.00000   -1.20000
AFIX   0
C5    1    0.335974    0.747473    0.059562    11.00000    0.02181    0.01595 =
         0.02774    0.00382    0.00054   -0.00131
AFIX  43
H5    2    0.267916    0.821727    0.085813    11.00000   -1.20000
AFIX   0
C6    1    0.245102    0.342131    0.124780    11.00000    0.02168    0.01380 =
         0.02456   -0.00059    0.00648   -0.00397
AFIX  43
H6    2    0.335978    0.272709    0.135887    11.00000   -1.20000
AFIX   0
C7    1    0.128800    0.366765    0.022356    11.00000    0.02068    0.02366 =
         0.02579   -0.00495    0.00500   -0.00907
AFIX  43
H7    2    0.126865    0.315723   -0.047245    11.00000   -1.20000
AFIX   0
C8    1    0.014574    0.481172    0.040805    11.00000    0.01207    0.02935 =
         0.02663    0.00204    0.00112   -0.00613
AFIX  43
H8    2   -0.074996    0.520106   -0.014719    11.00000   -1.20000
AFIX   0
C9    1    0.057531    0.526980    0.156313    11.00000    0.01408    0.02379 =
         0.02500    0.00148    0.00795    0.00001
AFIX  43
H9    2    0.001423    0.601009    0.192075    11.00000   -1.20000
AFIX   0
C10   1    0.201826    0.440479    0.209181    11.00000    0.01671    0.01627 =
         0.02121    0.00332    0.00621   -0.00047
C11   1    0.295822    0.460368    0.325140    11.00000    0.02293    0.01783 =
         0.02075    0.00451    0.00611   -0.00273
C12   1    0.523255    0.362806    0.465179    11.00000    0.02645    0.02654 =
         0.01975    0.00666   -0.00050   -0.00535
AFIX  23
H12A  2    0.512112    0.272954    0.504411    11.00000   -1.20000
H12B  2    0.474293    0.435805    0.512182    11.00000   -1.20000
AFIX   0
C13   1    0.722030    0.392175    0.455138    11.00000    0.02550    0.01444 =
         0.01736    0.00178    0.00362    0.00439
C14   1    0.832936    0.380716    0.574823    11.00000    0.02519    0.01685 =
         0.01592    0.00032    0.00285    0.00189
AFIX  13
H14   2    0.811341    0.287320    0.607406    11.00000   -1.20000
AFIX   0
C15   1    1.035815    0.398891    0.571758    11.00000    0.02373    0.02482 =
         0.01841    0.00401   -0.00098    0.00108
AFIX  23
H15A  2    1.059872    0.493855    0.545676    11.00000   -1.20000
H15B  2    1.077301    0.333129    0.515506    11.00000   -1.20000
AFIX   0
C16   1    0.748844    0.529563    0.391266    11.00000    0.01889    0.02756 =
         0.02079    0.00845    0.00360    0.00198
AFIX 137
H16A  2    0.707159    0.606968    0.435422    11.00000   -1.50000
H16B  2    0.678814    0.526968    0.314717    11.00000   -1.50000
H16C  2    0.877538    0.541746    0.383217    11.00000   -1.50000

AFIX   0
HKLF 4

REM  su1515_a.res in P2(1)
REM R1 =  0.0187 for    3993 Fo > 4sig(Fo)  and  0.0196 for all    4128 data
REM    200 parameters refined using      1 restraints

END

WGHT      0.0244      0.0000

REM Highest difference peak  0.366,  deepest hole -0.339,  1-sigma level  0.056
Q1    1   0.7815  0.6017  0.6434  11.00000  0.05    0.37
Q2    1   0.6492  0.4855  0.6754  11.00000  0.05    0.36
Q3    1   0.8270  0.5348  0.6656  11.00000  0.05   -0.34
Q4    1   0.6383  0.5519  0.6661  11.00000  0.05    0.32
Q5    1   1.0952  0.4242  0.7340  11.00000  0.05    0.32
Q6    1   0.7343  0.4694  0.4153  11.00000  0.05    0.29
Q7    1   0.3351  0.5788  0.0627  11.00000  0.05    0.29
Q8    1   0.7104  0.5615  0.3987  11.00000  0.05    0.29
Q9    1   0.8479  0.5911  0.7055  11.00000  0.05    0.28
Q10   1   0.7269  0.5734  0.3645  11.00000  0.05    0.28
Q11   1   0.7896  0.5397  0.3930  11.00000  0.05    0.27
Q12   1   0.2259  0.6040  0.1087  11.00000  0.05    0.27
Q13   1   0.7896  0.3742  0.5107  11.00000  0.05    0.26
Q14   1   0.3173  0.4785  0.0497  11.00000  0.05    0.26
Q15   1   0.7095  0.1984  0.3625  11.00000  0.05    0.25
Q16   1   0.8714  0.4853  0.7015  11.00000  0.05    0.24
Q17   1   0.1213  0.4745  0.1959  11.00000  0.05    0.24
Q18   1   0.2321  0.4765  0.0907  11.00000  0.05    0.23
Q19   1   0.8181  0.4521  0.6371  11.00000  0.05    0.23
Q20   1   0.2529  0.5245  0.0038  11.00000  0.05    0.22
;
_shelx_res_checksum              54669
_shelx_hkl_file
;
  -1   0   0    6.40    2.30
  -1   0   0    9.90    1.80
  -1   0   0   10.30    2.10
  -1   0   0    7.80    1.60
   1   0   0    8.90    1.90
   1   0   0    8.70    1.60
   1   0   0   11.50    1.80
   1   0   0    8.20    1.90
  -2   0   0 9497.95  555.74
  -2   0   0 9344.17  558.54
  -2   0   0 9952.90  558.74
   2   0   0 9593.94  556.74
   2   0   0 9999.00  554.74
   2   0   0 9543.54  556.54
   2   0   0 9457.25  556.84
  -3   0   0  158.68   10.70
  -3   0   0  153.58    9.80
  -3   0   0  151.48   10.80
   3   0   0  153.18   10.10
   3   0   0  146.69   10.20
   3   0   0  157.58    9.40
   3   0   0  155.48   10.10
  -4   0   0 4128.69  235.88
  -4   0   0 4064.69  237.08
  -4   0   0 4056.09  237.18
   4   0   0 4012.60  236.28
   4   0   0 4153.28  235.58
   4   0   0 4122.89  236.38
   4   0   0 4098.19  236.58
  -5   0   0  137.19    8.90
  -5   0   0  129.59   10.70
   5   0   0  123.29   10.00
   5   0   0  128.29    9.80
   5   0   0  136.79   10.30
  -6   0   0  258.77   19.10
  -6   0   0  279.17   19.10
   6   0   0  259.97   18.10
   6   0   0  271.77   18.60
   6   0   0  270.87   18.10
  -7   0   0  425.06   27.50
  -7   0   0  414.46   28.70
  -7   0   0  425.86   28.60
   7   0   0  440.56   28.40
   7   0   0  421.96   27.70
   7   0   0  426.46   27.60
  -8   0   0   26.30    5.70
  -8   0   0   34.10    7.30
  -8   0   0   32.80    7.40
   8   0   0   30.00    6.30
   8   0   0   31.30    7.30
   8   0   0   36.30    6.80
  -9   0   0  183.48   17.00
  -9   0   0  169.28   16.30
  -9   0   0  176.48   15.20
   9   0   0  179.28   15.80
   9   0   0  187.88   17.20
   9   0   0  167.18   15.60
   9  -1   0  100.79   12.60
   9  -1   0  114.29   13.20
   9  -1   0  111.69   14.00
  -9   1   0  110.99   11.70
  -9   1   0  116.09   13.40
  -9   1   0  126.29   13.50
   8  -1   0  342.77   22.70
   8  -1   0  316.67   22.80
   8  -1   0  334.17   23.40
  -8   1   0  301.47   23.30
  -8   1   0  326.67   23.50
  -8   1   0  295.77   21.80
   7  -1   0  255.87   18.60
   7  -1   0  252.17   19.10
   7  -1   0  245.08   18.80
  -7   1   0  274.57   18.50
  -7   1   0  287.97   20.30
  -7   1   0  289.77   20.00
   6  -1   0  133.59   11.10
   6  -1   0  136.09   11.30
   6  -1   0  141.39   10.80
  -6   1   0  140.19   10.60
  -6   1   0  129.89   12.00
  -6   1   0  139.59   11.90
   5  -1   0   70.89    6.80
   5  -1   0   71.69    6.40
   5  -1   0   61.89    6.60
   5  -1   0   72.89    5.20
  -5   1   0   57.19    7.00
  -5   1   0   58.59    4.80
  -5   1   0   58.99    6.00
  -5   1   0   55.99    7.20
   4  -1   0  247.58   15.50
   4  -1   0  243.88   16.40
   4  -1   0  243.98   16.10
   4  -1   0  253.77   16.30
  -4   1   0  259.37   16.10
  -4   1   0  270.97   15.50
  -4   1   0  242.78   16.90
  -4   1   0  266.07   17.20
   3  -1   0  805.82   42.20
   3  -1   0  773.52   42.70
   3  -1   0  796.62   42.80
   3  -1   0  791.12   42.60
  -3   1   0  667.73   42.40
  -3   1   0  631.04   43.10
  -3   1   0  631.84   43.00
  -3   1   0  661.73   42.10
   2  -1   0  231.28   14.60
   2  -1   0  220.18   14.70
   2  -1   0  233.68   14.50
   2  -1   0  225.88   14.70
  -2   1   0  249.48   14.70
  -2   1   0  246.08   15.20
  -2   1   0  247.08   14.50
  -2   1   0  244.48   15.30
   1  -1   0  815.62   44.50
   1  -1   0  813.32   44.40
   1  -1   0  808.92   44.40
   1  -1   0  824.42   44.40
  -1   1   0  690.03   44.30
  -1   1   0  686.63   44.30
  -1   1   0  741.33   44.50
  -1   1   0  717.63   44.60
   0  -1   0   -6.30    0.80
   0  -1   0   -7.70    0.70
   0  -1   0   -6.20    0.60
   0   1   0   -7.20    0.80
   0   1   0   -7.00    0.50
   0   1   0   -6.50    0.70
   0   1   0   -7.40    0.60
  -1  -1   0  791.22   40.50
  -1  -1   0  794.22   40.00
   1   1   0  659.83   40.40
   1   1   0  657.33   39.90
   1   1   0  656.83   40.20
   1   1   0  643.34   40.10
   1   1   0  667.13   40.10
   1   1   0  633.24   40.00
  -2  -1   0  238.68   15.00
  -2  -1   0  242.58   14.60
  -2  -1   0  222.98   15.60
  -2  -1   0  235.88   15.20
   2   1   0  249.28   15.30
   2   1   0  252.57   15.10
   2   1   0  245.98   15.20
   2   1   0  266.07   15.10
   2   1   0  240.88   14.50
  -3  -1   0  807.12   42.20
  -3  -1   0  799.72   42.80
  -3  -1   0  806.42   43.30
   3   1   0  638.44   42.20
   3   1   0  650.93   42.40
   3   1   0  652.33   42.50
   3   1   0  658.13   42.20
  -4  -1   0  250.87   16.10
  -4  -1   0  255.57   17.40
  -4  -1   0  251.87   16.90
   4   1   0  258.17   16.80
   4   1   0  264.07   16.50
   4   1   0  269.57   16.50
  -5  -1   0   69.79    6.90
  -5  -1   0   73.29    7.50
  -5  -1   0   79.29    5.80
   5   1   0   51.19    6.60
   5   1   0   57.79    6.50
   5   1   0   53.29    6.30
  -6  -1   0  135.69   11.80
  -6  -1   0  131.09   11.40
   6   1   0  126.89   10.50
   6   1   0  125.89   10.90
   6   1   0  132.99   10.60
  -7  -1   0  222.58   19.20
  -7  -1   0  246.68   19.40
   7   1   0  283.87   18.70
   7   1   0  271.97   19.30
   7   1   0  282.87   18.70
  -8  -1   0  339.77   23.20
  -8  -1   0  310.77   21.70
  -8  -1   0  301.97   23.10
   8   1   0  292.57   21.70
   8   1   0  304.77   22.70
   8   1   0  304.27   22.00
  -9  -1   0   95.09   12.60
  -9  -1   0   98.99   13.10
  -9  -1   0  112.69   11.80
   9   1   0  120.09   12.90
   9   1   0  122.09   13.60
   9  -2   0   97.99   12.90
   9  -2   0   90.39   12.00
   9  -2   0   95.99   11.80
  -9   2   0   91.19   12.40
  -9   2   0   72.29   11.60
  -9   2   0   82.09   10.40
   8  -2   0  181.78   15.60
   8  -2   0  179.28   16.00
   8  -2   0  180.18   15.00
  -8   2   0  186.18   15.70
  -8   2   0  172.68   15.90
  -8   2   0  169.78   14.20
   7  -2   0  355.36   23.20
   7  -2   0  352.36   22.50
   7  -2   0  341.37   22.90
  -7   2   0  317.57   23.50
  -7   2   0  295.47   21.90
  -7   2   0  335.07   23.50
   6  -2   0 1251.87   76.99
   6  -2   0 1291.07   77.09
   6  -2   0 1330.97   76.79
  -6   2   0 1257.77   76.59
  -6   2   0 1294.97   77.89
  -6   2   0 1343.37   77.89
   5  -2   0  574.54   35.70
   5  -2   0  574.34   34.80
   5  -2   0  556.04   35.70
   5  -2   0  569.24   35.50
  -5   2   0  616.14   34.50
  -5   2   0  572.84   36.40
  -5   2   0  591.04   36.60
  -5   2   0  618.24   35.60
   4  -2   0 3228.08  184.18
   4  -2   0 3181.88  184.58
   4  -2   0 3126.39  184.68
   4  -2   0 3067.29  184.68
  -4   2   0 3090.39  185.38
  -4   2   0 3369.16  183.98
  -4   2   0 3360.26  184.58
  -4   2   0 3080.69  185.38
   3  -2   0 1548.55   92.39
   3  -2   0 1551.64   92.59
   3  -2   0 1601.74   92.39
   3  -2   0 1583.74   92.29
  -3   2   0 1646.64   92.09
  -3   2   0 1596.14   93.09
  -3   2   0 1566.84   92.99
  -3   2   0 1613.44   92.39
   2  -2   0 2368.86  133.89
   2  -2   0 2299.07  133.59
   2  -2   0 2341.47  133.69
   2  -2   0 2440.66  133.79
  -2   2   0 2208.78  133.69
  -2   2   0 2353.76  134.09
  -2   2   0 2255.57  134.09
  -2   2   0 2224.68  133.59
   1  -2   0  987.10   59.49
   1  -2   0 1011.20   59.49
   1  -2   0  955.10   59.09
  -1   2   0 1022.60   59.49
  -1   2   0 1050.99   59.19
  -1   2   0 1052.19   59.79
  -1   2   0 1052.79   59.49
   0  -2   0 7146.39  396.06
   0  -2   0 7413.66  394.46
   0  -2   0 7369.96  395.66
   0   2   0 6428.06  393.46
   0   2   0 6510.65  395.76
   0   2   0 6299.17  395.06
   0   2   0 6569.94  394.66
  -1  -2   0 1000.80   57.99
  -1  -2   0  997.10   57.49
  -1  -2   0  965.40   57.69
   1   2   0  983.20   58.19
   1   2   0 1024.70   57.99
   1   2   0  988.20   57.49
   1   2   0  993.10   57.59
   1   2   0  984.20   57.69
   1   2   0  972.10   57.79
  -2  -2   0 2407.16  131.39
  -2  -2   0 2360.06  130.89
  -2  -2   0 2348.97  131.79
   2   2   0 2197.98  131.19
   2   2   0 2178.18  130.99
   2   2   0 2197.38  131.79
   2   2   0 2211.38  131.29
   2   2   0 2238.88  131.19
  -3  -2   0 1612.44   93.49
  -3  -2   0 1573.64   92.59
  -3  -2   0 1580.04   92.89
  -3  -2   0 1579.44   91.89
   3   2   0 1571.54   92.79
   3   2   0 1609.74   92.59
   3   2   0 1607.04   92.89
   3   2   0 1602.74   92.69
  -4  -2   0 3191.98  188.28
  -4  -2   0 3138.59  187.18
   4   2   0 3235.08  187.58
   4   2   0 3311.57  187.48
   4   2   0 3301.37  187.28
  -5  -2   0  590.44   36.90
  -5  -2   0  538.55   36.10
  -5  -2   0  582.54   35.40
   5   2   0  615.64   35.80
   5   2   0  611.14   35.90
   5   2   0  570.34   36.10
   5   2   0  601.54   36.40
  -6  -2   0 1220.78   78.09
  -6  -2   0 1338.27   78.79
   6   2   0 1317.27   77.49
   6   2   0 1282.37   77.89
   6   2   0 1379.16   77.79
  -7  -2   0  323.47   23.10
  -7  -2   0  354.46   23.80
   7   2   0  318.17   22.80
   7   2   0  331.47   22.40
   7   2   0  310.17   22.00
  -8  -2   0  189.18   16.10
  -8  -2   0  173.58   15.90
   8   2   0  183.88   15.30
   8   2   0  166.38   15.90
  -9  -2   0  101.69   11.20
  -9  -2   0   87.49   12.30
  -9  -2   0   95.49   13.00
   9   2   0   75.49   11.30
   9   2   0   89.89   12.00
   9  -3   0  109.49   13.10
   9  -3   0   90.89   13.00
  -9   3   0   88.89   12.30
  -9   3   0   86.09   12.90
   8  -3   0  150.28   14.20
   8  -3   0  145.69   13.10
   8  -3   0  139.99   14.10
  -8   3   0  132.49   12.50
  -8   3   0  152.78   14.30
  -8   3   0  140.89   14.30
   7  -3   0  207.68   15.30
   7  -3   0  219.48   14.80
   7  -3   0  215.88   15.30
  -7   3   0  151.88   15.20
  -7   3   0  166.38   15.20
  -7   3   0  155.28   13.80
   6  -3   0  317.97   20.80
   6  -3   0  306.77   21.00
   6  -3   0  282.67   21.00
  -6   3   0  310.57   21.90
  -6   3   0  321.17   20.60
  -6   3   0  337.27   22.10
  -5   3   0   39.00    6.10
  -5   3   0   27.10    5.20
  -5   3   0   41.00    3.90
  -5   3   0   41.20    5.10
   4  -3   0  979.90   56.99
   4  -3   0  964.50   56.49
   4  -3   0  965.70   56.59
   4  -3   0  946.41   56.59
  -4   3   0  985.20   56.59
  -4   3   0  932.31   57.39
  -4   3   0  902.91   57.29
  -4   3   0  978.10   56.09
  -3   3   0   42.20    4.80
  -3   3   0   37.40    4.60
  -3   3   0   31.00    3.50
  -3   3   0   33.30    3.60
   2  -3   0  622.84   37.10
   2  -3   0  615.14   37.10
   2  -3   0  595.64   36.60
  -2   3   0  622.54   37.20
  -2   3   0  615.14   36.90
  -2   3   0  644.04   37.50
  -2   3   0  648.24   36.60
   1  -3   0 1734.03  107.89
   1  -3   0 1765.12  108.39
   1  -3   0 1767.92  108.69
  -1   3   0 1943.31  108.59
  -1   3   0 1983.20  108.99
  -1   3   0 1955.10  108.09
  -1   3   0 1956.50  108.69
   0  -3   0   -4.40    1.20
   0  -3   0   -4.50    1.70
   0  -3   0   -5.90    1.70
   0   3   0   -4.90    1.80
   0   3   0   -7.30    1.00
   0   3   0   -5.80    1.80
   0   3   0   -6.30    1.40
  -1  -3   0 1833.32  110.49
  -1  -3   0 1822.92  110.19
  -1  -3   0 1872.71  109.79
   1   3   0 1982.70  110.09
   1   3   0 1959.00  110.59
   1   3   0 1880.31  110.29
   1   3   0 1921.91  110.69
   1   3   0 1939.91  109.89
  -2  -3   0  626.24   37.20
  -2  -3   0  607.24   36.30
  -2  -3   0  601.94   36.80
   2   3   0  601.24   36.40
   2   3   0  604.94   36.60
   2   3   0  635.14   37.30
   2   3   0  632.84   36.00
   2   3   0  620.94   36.40
   3   3   0   35.80    3.50
   3   3   0   33.50    4.00
   3   3   0   32.20    4.40
   3   3   0   33.50    5.10
   3   3   0   37.70    4.10
  -4  -3   0  947.11   56.89
  -4  -3   0  997.70   55.79
  -4  -3   0 1018.50   58.09
  -4  -3   0  949.11   57.09
   4   3   0  923.21   57.09
   4   3   0  949.01   56.99
   4   3   0  941.81   56.89
   4   3   0  957.20   56.59
   5   3   0   24.70    4.60
   5   3   0   36.90    5.10
   5   3   0   34.80    5.10
   5   3   0   34.00    4.70
  -6  -3   0  308.27   22.40
  -6  -3   0  303.47   20.60
  -6  -3   0  308.07   21.60
   6   3   0  330.97   21.00
   6   3   0  326.77   22.00
   6   3   0  310.07   21.60
   6   3   0  337.57   21.50
  -7  -3   0  190.68   15.10
  -7  -3   0  211.48   16.00
   7   3   0  154.88   14.30
   7   3   0  160.78   14.80
  -8  -3   0  145.19   14.70
  -8  -3   0  140.89   14.10
   8   3   0  142.99   14.30
   8   3   0  148.19   13.90
  -9  -3   0   91.89   12.70
  -9  -3   0   97.09   11.50
  -9  -3   0   89.69   13.10
   9   3   0   85.69   13.20
   9   3   0  100.39   12.80
   9  -4   0   37.90    8.40
   9  -4   0   30.80    8.40
  -9   4   0   51.29    9.10
  -9   4   0   46.40    9.40
   8  -4   0   74.59   10.60
   8  -4   0   58.09    9.30
  -8   4   0   83.49   11.00
  -8   4   0   60.79    9.80
   7  -4   0  150.98   14.30
   7  -4   0  154.78   13.80
  -7   4   0  162.88   14.80
  -7   4   0  185.48   14.90
  -7   4   0  172.58   13.00
   6  -4   0  755.12   48.50
   6  -4   0  790.82   47.70
   6  -4   0  786.52   48.20
  -6   4   0  835.92   48.00
  -6   4   0  798.32   49.30
  -6   4   0  778.82   49.40
   5  -4   0   89.49    8.10
   5  -4   0   87.29    8.70
   5  -4   0   91.39    8.10
  -5   4   0   97.19    9.30
  -5   4   0   97.49    7.80
  -5   4   0   86.99    9.00
  -5   4   0   95.09    7.10
   4  -4   0 1766.32  104.69
   4  -4   0 1826.22  105.29
   4  -4   0 1862.41  105.09
  -4   4   0 1744.73  104.59
  -4   4   0 1703.03  105.79
  -4   4   0 1799.22  104.49
  -4   4   0 1872.31  105.79
   3  -4   0  612.34   36.60
   3  -4   0  637.74   37.30
   3  -4   0  630.04   37.20
  -3   4   0  591.94   36.70
  -3   4   0  628.14   36.50
  -3   4   0  600.94   37.70
  -3   4   0  615.74   37.40
   2  -4   0 3570.84  208.78
   2  -4   0 3537.45  207.88
   2  -4   0 3618.04  208.58
  -2   4   0 3631.24  207.88
  -2   4   0 3624.74  208.58
  -2   4   0 3662.83  209.18
  -2   4   0 3611.44  208.68
   1  -4   0   58.39    5.50
   1  -4   0   59.39    5.00
   1  -4   0   56.59    4.00
   1  -4   0   59.29    5.50
  -1   4   0   62.19    5.50
  -1   4   0   67.29    4.40
  -1   4   0   64.59    5.70
  -1   4   0   62.99    5.20
   0  -4   0 3604.14  222.38
   0  -4   0 3583.34  222.18
   0  -4   0 3654.93  222.58
   0   4   0 4163.68  222.08
   0   4   0 4101.09  222.68
   0   4   0 3884.41  222.28
   0   4   0 3958.50  222.78
  -1  -4   0   53.09    4.90
  -1  -4   0   55.59    4.20
  -1  -4   0   54.19    5.40
   1   4   0   58.99    4.60
   1   4   0   54.09    5.40
   1   4   0   58.19    5.00
   1   4   0   59.39    4.20
  -2  -4   0 3591.94  210.08
  -2  -4   0 3685.63  210.38
  -2  -4   0 3691.63  211.28
  -2  -4   0 3666.43  210.88
   2   4   0 3647.74  210.68
   2   4   0 3616.84  211.28
   2   4   0 3607.54  210.18
   2   4   0 3629.74  210.38
   2   4   0 3645.64  209.98
  -3  -4   0  629.24   37.70
  -3  -4   0  612.74   37.10
  -3  -4   0  631.94   36.30
   3   4   0  612.64   37.80
   3   4   0  600.14   37.00
   3   4   0  610.74   36.60
   3   4   0  595.84   36.70
   3   4   0  603.14   36.00
  -4  -4   0 1842.62  105.99
  -4  -4   0 1850.51  103.89
  -4  -4   0 1807.72  105.09
  -4  -4   0 1786.82  104.99
   4   4   0 1664.53  104.89
   4   4   0 1847.22  104.09
   4   4   0 1756.62  104.79
   4   4   0 1775.82  104.79
  -5  -4   0   84.69    9.40
  -5  -4   0  108.39    8.90
  -5  -4   0   84.09    8.10
   5   4   0   90.69    7.60
   5   4   0   80.79    8.70
   5   4   0  101.79    8.70
   5   4   0   90.89    8.30
  -6  -4   0  775.42   50.29
  -6  -4   0  778.32   48.80
  -6  -4   0  781.22   49.40
   6   4   0  835.72   49.20
   6   4   0  838.12   49.50
   6   4   0  817.62   49.60
  -7  -4   0  164.18   15.30
  -7  -4   0  144.19   14.20
   7   4   0  178.38   14.70
   7   4   0  182.98   15.10
   7   4   0  197.68   14.90
  -8  -4   0   51.09    8.90
  -8  -4   0   72.49   11.20
   8   4   0   88.29   11.50
   8   4   0   82.09   10.80
  -9  -4   0   52.49    9.90
  -9  -4   0   31.60    8.30
   9   4   0   49.50    9.10
   9   4   0   57.69   10.00
   9  -5   0   58.79   10.30
   9  -5   0   46.10    9.10
  -9   5   0   60.39   10.10
  -9   5   0   45.50    9.70
   8  -5   0  195.18   16.70
   8  -5   0  191.58   17.20
  -8   5   0  209.18   17.70
  -8   5   0  182.18   17.50
   7  -5   0   96.39   11.30
   7  -5   0  100.09   10.50
  -7   5   0   71.59   11.00
  -7   5   0   73.69   10.50
   6  -5   0  112.09    9.50
   6  -5   0   95.99   10.20
   6  -5   0  101.39    9.30
  -6   5   0   83.29   10.10
  -6   5   0   80.59    9.30
  -6   5   0   89.39   10.60
   5  -5   0   56.59    8.00
   5  -5   0   59.39    7.40
   5  -5   0   59.39    7.00
  -5   5   0   73.79    6.50
  -5   5   0   86.99    8.70
  -5   5   0   80.39    8.70
  -5   5   0   79.69    6.70
   4  -5   0  131.29    9.90
   4  -5   0  122.59    9.80
   4  -5   0  125.79    8.80
  -4   5   0  107.39    8.80
  -4   5   0  111.19   10.20
  -4   5   0  121.09    8.50
  -4   5   0  104.89    9.80
   3  -5   0   84.49    7.10
   3  -5   0   87.39    7.20
   3  -5   0   83.69    5.70
  -3   5   0   61.79    6.70
  -3   5   0   63.19    5.30
  -3   5   0   61.59    6.20
  -3   5   0   56.39    6.90
   2  -5   0  124.49    9.50
   2  -5   0  129.09    9.30
   2  -5   0  119.09    9.10
   2  -5   0  127.09    8.00
  -2   5   0  125.59    9.20
  -2   5   0  117.79    9.10
  -2   5   0  126.49    9.80
  -2   5   0  121.79    8.00
   1  -5   0 1100.19   57.29
   1  -5   0 1064.39   57.29
   1  -5   0 1071.19   56.79
  -1   5   0  852.21   56.69
  -1   5   0  887.41   57.39
  -1   5   0  880.01   56.99
  -1   5   0  888.71   55.99
   0  -5   0    0.40    2.10
   0  -5   0    0.20    1.50
   0  -5   0    0.50    2.10
   0   5   0   -2.00    2.20
   0   5   0   -0.30    1.30
   0   5   0   -1.70    1.70
   0   5   0    0.40    2.30
  -1  -5   0 1072.59   53.59
  -1  -5   0 1060.99   54.39
   1   5   0  837.22   54.09
   1   5   0  849.22   54.69
   1   5   0  842.62   53.19
   1   5   0  854.01   54.49
   1   5   0  888.31   53.59
  -2  -5   0  124.89    9.80
  -2  -5   0  126.29    9.00
  -2  -5   0  135.79    8.30
  -2  -5   0  133.29   10.20
   2   5   0  122.89    9.80
   2   5   0  125.09    9.40
   2   5   0  132.49   10.30
   2   5   0  123.29    8.90
   2   5   0  122.79    8.60
  -3  -5   0   82.79    7.50
  -3  -5   0   86.49    7.20
  -3  -5   0   79.89    5.90
   3   5   0   65.49    6.20
   3   5   0   56.39    7.50
   3   5   0   61.39    5.90
   3   5   0   58.29    4.90
   3   5   0   60.09    6.60
  -4  -5   0  130.29    8.40
  -4  -5   0  127.29    9.90
  -4  -5   0  138.59   10.90
   4   5   0  106.89    9.00
   4   5   0  106.39    9.50
   4   5   0  108.19    7.90
   4   5   0   98.99   10.50
   4   5   0  111.69    9.30
  -5  -5   0   62.89    7.50
  -5  -5   0   51.89    7.20
  -5  -5   0   69.29    8.80
   5   5   0   74.59    7.50
   5   5   0   89.19    7.80
   5   5   0   67.89    8.00
  -6  -5   0  106.79    9.90
  -6  -5   0  109.69   10.10
  -6  -5   0  107.89   11.40
   6   5   0   86.79    9.80
   6   5   0   86.89   10.20
   6   5   0   94.09    9.80
  -7  -5   0   86.59   11.30
  -7  -5   0   90.29   10.40
   7   5   0   76.19   10.80
   7   5   0   71.89   10.00
   7   5   0   75.89    9.80
  -8  -5   0  176.58   16.60
  -8  -5   0  181.38   17.40
   8   5   0  177.78   16.60
   8   5   0  196.28   16.60
  -9  -5   0   47.40    9.30
  -9  -5   0   39.40    9.30
   9   5   0   51.69    9.70
   9   5   0   52.99    9.50
   8  -6   0  187.58   16.80
  -8   6   0  147.49   16.40
  -8   6   0  169.28   16.30
   7  -6   0  208.58   17.60
   7  -6   0  216.48   16.50
  -7   6   0  227.88   18.10
  -7   6   0  204.18   18.10
   6  -6   0  309.57   21.10
   6  -6   0  322.07   22.30
   6  -6   0  308.17   21.50
  -6   6   0  315.97   22.80
  -6   6   0  307.17   22.70
   5  -6   0  264.17   18.00
   5  -6   0  236.68   16.50
   5  -6   0  239.98   17.40
  -5   6   0  233.78   18.30
  -5   6   0  254.37   18.10
   4  -6   0  732.83   45.00
   4  -6   0  735.93   45.70
   4  -6   0  734.53   45.60
   4  -6   0  714.33   44.40
  -4   6   0  750.72   45.00
  -4   6   0  790.32   44.30
  -4   6   0  762.82   45.90
  -4   6   0  760.22   46.60
   3  -6   0   47.20    5.70
   3  -6   0   43.50    6.10
   3  -6   0   56.79    6.30
   3  -6   0   48.60    4.30
  -3   6   0   34.20    5.60
  -3   6   0   36.50    5.50
  -3   6   0   43.10    3.90
  -3   6   0   41.70    5.40
   2  -6   0 1389.76   87.99
   2  -6   0 1472.75   86.89
   2  -6   0 1378.66   88.49
   2  -6   0 1392.26   88.29
  -2   6   0 1581.64   88.59
  -2   6   0 1605.44   89.19
  -2   6   0 1575.74   88.39
  -2   6   0 1627.64   87.19
   1  -6   0   10.90    3.20
   1  -6   0   13.80    2.90
   1  -6   0   10.20    3.10
  -1   6   0   19.00    3.80
  -1   6   0   14.60    3.20
  -1   6   0   15.00    2.10
  -1   6   0   19.70    4.10
   0  -6   0 5270.27  314.57
   0  -6   0 5228.78  314.37
   0  -6   0 5090.69  313.47
   0   6   0 5618.84  315.07
   0   6   0 5929.71  313.77
   0   6   0 5463.15  314.67
   0   6   0 5476.25  314.17
  -1  -6   0   15.30    3.40
  -1  -6   0   16.10    2.40
  -1  -6   0   14.60    3.70
   1   6   0   16.30    3.40
   1   6   0   18.60    4.00
   1   6   0   15.40    2.70
   1   6   0   12.20    3.50
   1   6   0   19.00    2.10
  -2  -6   0 1476.95   87.79
  -2  -6   0 1452.25   89.39
  -2  -6   0 1387.46   88.69
   2   6   0 1526.65   89.49
   2   6   0 1546.55   88.99
   2   6   0 1593.14   88.49
   2   6   0 1532.55   89.89
   2   6   0 1595.14   88.19
  -3  -6   0   55.79    7.00
  -3  -6   0   47.60    6.60
  -3  -6   0   47.20    5.30
  -3  -6   0   54.29    4.20
   3   6   0   43.70    5.50
   3   6   0   44.50    7.00
   3   6   0   43.40    5.20
  -4  -6   0  740.63   44.60
  -4  -6   0  727.13   45.90
  -4  -6   0  756.62   46.70
   4   6   0  720.93   46.70
   4   6   0  768.02   45.10
   4   6   0  750.52   45.70
   4   6   0  758.12   45.30
  -5  -6   0  247.98   18.80
  -5  -6   0  235.28   17.50
  -5  -6   0  253.87   17.70
   5   6   0  245.38   17.80
   5   6   0  241.28   17.20
   5   6   0  244.48   17.20
  -6  -6   0  309.17   21.90
  -6  -6   0  319.87   22.20
  -6  -6   0  303.07   23.20
   6   6   0  322.77   21.90
   6   6   0  312.77   22.50
   6   6   0  319.67   22.00
  -7  -6   0  222.08   17.50
  -7  -6   0  219.68   18.80
   7   6   0  229.28   17.70
   7   6   0  199.78   17.70
   7   6   0  223.38   17.50
  -8  -6   0  171.78   17.10
  -8  -6   0  184.18   16.30
   8   6   0  164.78   15.80
   8   6   0  172.18   16.30
   8   6   0  145.49   16.40
   8  -7   0  121.09   14.70
  -8   7   0   99.29   13.70
  -8   7   0  107.29   13.70
   7  -7   0   56.49    9.40
  -7   7   0   60.79    9.70
  -7   7   0   58.29    9.20
   6  -7   0  204.28   16.20
   6  -7   0  216.18   17.00
  -6   7   0  202.18   17.30
  -6   7   0  210.28   17.20
   5  -7   0  228.18   16.30
   5  -7   0  228.78   16.20
  -5   7   0  185.18   16.50
  -5   7   0  177.58   15.80
   4  -7   0  314.57   21.70
   4  -7   0  328.17   22.60
   4  -7   0  332.97   22.30
  -4   7   0  321.87   23.20
  -4   7   0  355.86   22.00
  -4   7   0  341.17   22.50
   3  -7   0  527.45   33.60
   3  -7   0  520.25   33.10
   3  -7   0  578.64   33.30
  -3   7   0  520.75   33.10
  -3   7   0  510.25   33.20
  -3   7   0  527.45   34.10
   2  -7   0  134.19   11.00
   2  -7   0  129.89   11.20
   2  -7   0  132.19   10.40
  -2   7   0  150.68   12.00
  -2   7   0  137.59   10.90
  -2   7   0  144.39    9.20
  -2   7   0  150.48   11.30
   1  -7   0  224.08   15.60
   1  -7   0  232.78   16.50
   1  -7   0  228.28   16.50
  -1   7   0  250.67   16.70
  -1   7   0  241.68   16.20
  -1   7   0  253.27   14.80
   0  -7   0   -1.80    2.90
   0  -7   0    1.80    2.00
   0  -7   0   -0.90    2.60
   0   7   0    0.60    3.10
   0   7   0   -0.30    3.10
   0   7   0   -0.90    2.60
   0   7   0    0.40    1.70
  -1  -7   0  229.58   16.20
  -1  -7   0  225.78   16.80
  -1  -7   0  240.08   15.00
   1   7   0  258.57   15.40
   1   7   0  232.48   16.20
   1   7   0  255.97   17.50
   1   7   0  225.58   16.80
  -2  -7   0  139.59   11.60
  -2  -7   0  136.29    9.30
  -2  -7   0  135.59   10.60
   2   7   0  144.29   11.10
   2   7   0  145.19   10.20
   2   7   0  141.69   12.00
  -3  -7   0  542.95   34.20
  -3  -7   0  538.25   33.10
  -3  -7   0  560.44   34.80
   3   7   0  523.55   32.90
   3   7   0  542.05   32.70
   3   7   0  522.65   33.50
   3   7   0  524.95   34.70
  -4  -7   0  327.27   22.90
  -4  -7   0  333.17   23.60
  -4  -7   0  337.17   21.60
   4   7   0  355.46   21.90
   4   7   0  328.77   24.00
   4   7   0  338.47   22.90
   4   7   0  326.77   22.00
  -5  -7   0  224.18   16.00
  -5  -7   0  221.88   17.00
   5   7   0  191.08   14.60
   5   7   0  181.68   14.70
   5   7   0  183.38   15.30
   5   7   0  174.08   16.80
  -6  -7   0  220.98   16.90
  -6  -7   0  228.18   18.50
  -6  -7   0  218.88   17.00
   6   7   0  201.98   16.30
   6   7   0  193.88   17.00
   6   7   0  204.88   16.60
  -7  -7   0   65.69    9.40
  -7  -7   0   66.89   10.70
   7   7   0   58.09    8.90
   7   7   0   61.39    9.70
   7   7   0   60.49    9.10
  -8  -7   0  127.49   15.00
  -8  -7   0  120.89   13.80
   8   7   0  115.39   13.60
   8   7   0  101.49   14.40
   8   7   0  106.19   13.90
   7  -8   0   13.40    7.00
  -7   8   0   17.20    6.80
  -7   8   0   13.90    6.90
   6  -8   0  165.38   15.80
   6  -8   0  166.38   15.40
  -6   8   0  194.58   16.70
  -6   8   0  217.48   16.70
   5  -8   0  199.88   16.60
   5  -8   0  212.98   16.70
  -5   8   0  218.78   16.80
  -5   8   0  209.28   17.60
   4  -8   0  421.46   31.40
   4  -8   0  447.36   31.10
   4  -8   0  431.26   30.80
  -4   8   0  536.65   31.80
  -4   8   0  551.04   31.30
  -4   8   0  536.15   33.00
   3  -8   0  185.38   15.10
   3  -8   0  188.38   14.60
   3  -8   0  183.68   14.30
  -3   8   0  189.68   14.50
  -3   8   0  201.08   14.60
  -3   8   0  212.38   16.10
   2  -8   0  770.32   48.00
   2  -8   0  780.52   47.20
   2  -8   0  766.82   48.10
  -2   8   0  756.92   47.50
  -2   8   0  808.32   48.90
  -2   8   0  801.92   48.00
   1  -8   0  143.99   10.90
   1  -8   0  137.69   12.00
   1  -8   0  146.79   12.30
  -1   8   0  145.89   11.60
  -1   8   0  155.98   13.00
  -1   8   0  158.78   12.50
   0  -8   0  969.50   57.89
   0  -8   0  990.40   56.39
   0  -8   0 1001.20   57.59
   0   8   0  917.51   57.19
   0   8   0  911.31   55.89
   0   8   0  931.91   57.89
   0   8   0  931.71   58.29
  -1  -8   0  139.19   12.30
  -1  -8   0  142.59   10.10
  -1  -8   0  147.19   11.70
   1   8   0  149.99   13.00
   1   8   0  150.78   10.50
   1   8   0  153.68   11.70
   1   8   0  151.88   12.70
  -2  -8   0  782.62   48.10
  -2  -8   0  785.42   47.30
   2   8   0  769.72   48.70
   2   8   0  754.82   47.40
   2   8   0  786.22   46.50
  -3  -8   0  191.58   15.30
  -3  -8   0  179.28   15.60
  -3  -8   0  195.08   14.00
   3   8   0  197.48   13.70
   3   8   0  183.78   16.00
   3   8   0  190.18   14.60
  -4  -8   0  457.55   30.60
  -4  -8   0  442.86   31.80
  -4  -8   0  460.95   32.80
   4   8   0  507.55   33.50
   4   8   0  520.35   32.00
   4   8   0  549.05   31.30
  -5  -8   0  202.58   17.00
  -5  -8   0  214.58   17.90
   5   8   0  203.68   17.00
   5   8   0  208.78   18.70
   5   8   0  230.78   16.30
  -6  -8   0  163.08   14.90
  -6  -8   0  145.59   14.50
  -6  -8   0  165.18   16.30
   6   8   0  200.58   16.00
  -7  -8   0   20.90    6.70
  -7  -8   0   14.10    7.20
   7   8   0   15.60    7.10
   7   8   0   12.20    6.40
   7  -9   0   77.89   11.20
  -7   9   0   79.69   11.90
  -7   9   0   74.99   11.20
   6  -9   0   57.89    9.50
   6  -9   0   69.39   10.00
  -6   9   0   84.99   11.30
  -6   9   0   85.49   12.10
   5  -9   0  104.39   11.50
   5  -9   0  100.39   11.10
  -5   9   0   68.89   10.40
  -5   9   0   79.49   11.90
   4  -9   0   65.09    8.90
   4  -9   0   70.59    9.90
   4  -9   0   62.89    8.70
  -4   9   0   61.09    9.10
  -4   9   0   74.09    8.90
  -4   9   0   55.09    9.20
   3  -9   0  337.97   22.20
   3  -9   0  347.77   22.70
   3  -9   0  349.57   21.90
  -3   9   0  294.37   21.90
  -3   9   0  289.77   23.10
  -3   9   0  277.17   21.60
   2  -9   0   31.30    6.20
   2  -9   0   35.80    6.50
   2  -9   0   38.90    5.60
  -2   9   0   36.90    6.60
  -2   9   0   33.60    5.80
  -2   9   0   35.00    7.00
   1  -9   0  489.65   31.00
   1  -9   0  494.15   31.00
   1  -9   0  500.25   29.50
  -1   9   0  457.15   30.90
  -1   9   0  424.46   30.00
  -1   9   0  455.85   31.60
   0  -9   0    1.60    3.70
   0  -9   0    1.60    2.70
   0  -9   0    1.00    4.20
   0   9   0   -1.50    4.10
   0   9   0   -1.40    3.60
   0   9   0    3.10    4.60
  -1  -9   0  503.95   29.90
  -1  -9   0  477.85   30.50
   1   9   0  414.16   29.30
   1   9   0  440.96   28.00
   1   9   0  460.95   30.40
   1   9   0  442.96   30.80
  -2  -9   0   38.10    6.10
  -2  -9   0   44.90    7.40
   2   9   0   33.60    6.00
   2   9   0   36.20    7.40
   2   9   0   38.10    5.50
  -3  -9   0  358.56   22.10
  -3  -9   0  367.36   24.20
  -3  -9   0  357.76   23.60
   3   9   0  276.17   20.90
   3   9   0  293.57   23.60
   3   9   0  285.07   22.00
  -4  -9   0   70.49   10.30
  -4  -9   0   58.49    8.80
   4   9   0   73.09   10.80
   4   9   0   68.39    8.50
   4   9   0   65.69    9.70
  -5  -9   0   77.99   11.50
  -5  -9   0   90.79   11.20
   5   9   0   74.99   11.70
   5   9   0   78.69    9.70
   5   9   0   69.29   10.40
  -6  -9   0   70.09   10.10
  -6  -9   0   71.69   11.50
  -6  -9   0   69.29   10.30
   6   9   0   88.29   11.20
   6   9   0   92.19   12.00
  -7  -9   0   81.39   12.80
  -7  -9   0   81.49   11.20
   7   9   0   85.09   12.00
   7   9   0   88.79   12.40
   6 -10   0  248.48   20.90
   6 -10   0  251.07   20.90
  -6  10   0  266.17   22.30
  -6  10   0  261.17   21.00
   5 -10   0    8.50    5.80
   5 -10   0   16.40    6.60
  -5  10   0   12.70    6.10
  -5  10   0   15.10    6.90
   4 -10   0  248.08   19.00
   4 -10   0  237.18   19.00
   4 -10   0  248.08   20.00
  -4  10   0  267.67   19.30
  -4  10   0  255.77   19.50
  -4  10   0  268.77   21.30
   3 -10   0  135.79   12.80
   3 -10   0  136.89   12.20
   3 -10   0  124.99   13.20
  -3  10   0  136.19   12.60
  -3  10   0  133.19   12.80
  -3  10   0  138.99   14.50
   2 -10   0  510.55   36.60
   2 -10   0  548.35   35.70
   2 -10   0  519.45   36.70
  -2  10   0  595.54   36.50
  -2  10   0  619.14   37.30
  -2  10   0  629.44   38.40
   1 -10   0    9.20    5.20
   1 -10   0    5.50    3.60
   1 -10   0    8.40    5.00
  -1  10   0   12.10    4.80
  -1  10   0    8.30    5.40
  -1  10   0    6.30    5.40
   0 -10   0  384.16   31.60
   0  10   0  541.45   33.20
   0  10   0  513.75   31.80
   0  10   0  535.85   33.90
  -1 -10   0    7.30    4.50
  -1 -10   0    8.30    5.00
   1  10   0    5.90    4.70
   1  10   0    9.40    5.90
  -2 -10   0  544.55   38.60
  -2 -10   0  584.04   37.90
   2  10   0  625.84   40.00
   2  10   0  625.64   38.20
  -3 -10   0  138.19   12.40
  -3 -10   0  150.58   14.60
  -3 -10   0  145.19   13.90
   3  10   0  130.69   14.90
   3  10   0  130.19   11.40
   3  10   0  130.59   13.10
  -4 -10   0  272.37   21.80
  -4 -10   0  251.27   20.60
   4  10   0  254.07   22.20
   4  10   0  276.27   19.20
   4  10   0  260.67   20.20
  -5 -10   0   13.90    6.60
  -5 -10   0   15.20    7.10
   5  10   0    9.70    5.30
   5  10   0    9.40    7.20
   5  10   0    5.40    6.00
  -6 -10   0  261.97   21.20
  -6 -10   0  254.67   21.50
  -6 -10   0  262.47   22.70
   6  10   0  254.77   21.30
   6  10   0  269.87   20.50
   5 -11   0   17.40    6.60
   5 -11   0   13.50    7.10
  -5  11   0    8.30    6.00
  -5  11   0    8.60    7.30
   4 -11   0   35.40    7.10
   4 -11   0   24.10    8.00
   4 -11   0   34.60    8.10
  -4  11   0   43.50    9.40
  -4  11   0   39.20    7.50
  -4  11   0   35.20    7.40
   3 -11   0  134.09   12.30
   3 -11   0  133.59   13.10
   3 -11   0  136.49   13.90
  -3  11   0  109.99   12.60
  -3  11   0  117.49   14.40
  -3  11   0  113.69   12.90
   2 -11   0   13.50    6.00
   2 -11   0    8.30    4.60
   2 -11   0    3.50    5.30
  -2  11   0   16.40    7.10
  -2  11   0   11.30    6.00
  -2  11   0    7.70    5.20
   1 -11   0  344.47   24.00
   1 -11   0  338.37   24.20
  -1  11   0  305.47   23.20
  -1  11   0  323.27   23.90
  -1  11   0  316.57   25.20
   0 -11   0   -2.40    4.90
   0 -11   0    2.40    4.70
   0  11   0   -0.50    4.30
   0  11   0    1.00    5.80
  -1 -11   0  336.17   23.90
  -1 -11   0  341.37   23.00
   1  11   0  281.87   22.30
   1  11   0  296.37   24.50
  -2 -11   0   12.50    6.40
  -2 -11   0   11.60    5.20
   2  11   0    7.90    5.40
   2  11   0   10.00    6.90
  -3 -11   0  136.99   14.30
  -3 -11   0  129.89   12.40
  -3 -11   0  151.38   15.30
   3  11   0  121.09   15.20
   3  11   0  105.79   13.00
  -4 -11   0   44.40    9.40
  -4 -11   0   42.60    9.10
   4  11   0   34.20    9.40
   4  11   0   35.70    7.90
  -5 -11   0   17.10    7.60
  -5 -11   0   21.80    7.70
   5  11   0    8.80    6.70
   5  11   0    3.60    7.60
   3 -12   0   25.30    7.60
   3 -12   0   27.00    7.40
  -3  12   0   29.70    7.20
  -3  12   0   32.00    8.90
  -3  12   0   29.50    7.50
   2 -12   0  154.48   15.80
   2 -12   0  155.28   16.00
  -2  12   0  185.78   18.00
  -2  12   0  161.78   15.20
  -2  12   0  173.38   16.00
   1 -12   0    1.10    5.40
   1 -12   0    7.00    6.10
  -1  12   0   -1.00    6.60
  -1  12   0    4.70    5.50
   0 -12   0  238.48   19.70
   0 -12   0  238.78   20.30
   0  12   0  243.68   19.40
   0  12   0  267.37   22.00
  -1 -12   0    4.70    5.20
  -1 -12   0    4.50    5.80
   1  12   0    3.00    6.90
   1  12   0    3.90    5.60
  -2 -12   0  151.48   16.50
  -2 -12   0  151.08   14.80
  -2 -12   0  160.38   17.10
   2  12   0  175.58   15.80
   2  12   0  192.08   18.50
  -3 -12   0   30.70    8.90
  -3 -12   0   22.40    6.60
  -3 -12   0   27.80    8.00
   3  12   0   37.40    8.00
   3  12   0   33.30    9.50
   3  12  -1    7.30    7.60
   3  12  -1    8.50    6.20
  -3 -12   1    6.90    6.70
  -3 -12   1    6.80    7.10
  -3 -12   1    6.30    5.20
   2  12  -1   72.59   12.10
   2  12  -1   58.19    9.50
  -2 -12   1   85.19   12.50
  -2 -12   1   71.69   10.30
  -2 -12   1   76.29   11.80
   1  12  -1  155.18   16.40
   1  12  -1  130.69   13.60
  -1 -12   1  112.99   13.90
  -1 -12   1  115.09   13.00
   0  12  -1    5.00    5.30
   0  12  -1    7.90    7.10
   0 -12   1    0.30    5.40
   0 -12   1    6.30    5.60
  -1  12  -1   23.80    6.80
  -1  12  -1   19.20    8.10
   1 -12   1   23.60    7.10
   1 -12   1   20.70    7.10
  -2  12  -1   19.70    8.00
  -2  12  -1   19.50    6.40
   2 -12   1   30.40    7.80
   2 -12   1   22.40    7.20
  -3  12  -1   98.29   12.10
  -3  12  -1   97.09   13.90
   3 -12   1   88.19   12.20
   3 -12   1   81.59   12.00
   5  11  -1   51.29    8.20
   5  11  -1   42.90   10.40
   5  11  -1   45.90    9.20
  -5 -11   1   44.00    9.80
  -5 -11   1   47.40    9.50
   4  11  -1   17.80    7.10
   4  11  -1   13.70    6.50
   4  11  -1    9.90    7.50
  -4 -11   1   19.50    7.90
  -4 -11   1   20.00    7.40
   3  11  -1  182.68   17.20
   3  11  -1  157.58   14.60
  -3 -11   1  132.89   15.60
  -3 -11   1  130.29   13.10
  -3 -11   1  137.89   15.10
   2  11  -1   27.80    6.80
   2  11  -1   25.00    8.10
  -2 -11   1   42.90    8.30
  -2 -11   1   48.40    7.60
  -2 -11   1   50.59    9.30
   1  11  -1  136.79   12.80
   1  11  -1  131.59   14.30
  -1 -11   1  112.99   12.90
  -1 -11   1  115.09   12.20
   0  11  -1   28.70    8.10
   0 -11   1   56.49    8.80
   0 -11   1   46.00    7.90
  -1  11  -1  198.88   17.90
  -1  11  -1  188.78   16.00
   1 -11   1  183.78   16.30
   1 -11   1  184.48   16.10
  -2  11  -1   27.60    6.60
  -2  11  -1   18.90    7.00
   2 -11   1   27.50    6.70
   2 -11   1   24.60    6.70
  -3  11  -1  163.28   15.40
  -3  11  -1  172.88   16.80
   3 -11   1  172.68   15.20
   3 -11   1  179.98   14.50
   3 -11   1  170.38   15.80
  -4  11  -1  103.09   13.70
  -4  11  -1   98.99   12.20
   4 -11   1   89.59   12.70
   4 -11   1  103.59   11.70
  -5  11  -1  130.39   15.40
  -5  11  -1  120.09   14.10
   5 -11   1  140.99   14.30
   5 -11   1  123.29   14.90
   6  10  -1   39.30    8.00
   6  10  -1   49.60    9.20
  -6 -10   1   45.60    9.10
  -6 -10   1   44.20    9.80
  -6 -10   1   53.99    9.20
   5  10  -1   10.00    7.70
   5  10  -1   16.10    6.80
   5  10  -1   21.90    6.10
  -5 -10   1   24.30    7.20
  -5 -10   1   15.90    7.40
   4  10  -1  133.89   12.00
   4  10  -1  117.69   13.10
   4  10  -1  131.59   15.30
  -4 -10   1  124.89   13.80
  -4 -10   1  131.29   14.50
   3  10  -1   79.09   12.60
   3  10  -1   83.39    9.20
   3  10  -1   90.39   11.20
  -3 -10   1  104.39   10.10
  -3 -10   1  106.09   11.90
  -3 -10   1  109.79   12.60
   2  10  -1  159.78   12.80
   2  10  -1  156.88   14.50
   2  10  -1  173.58   16.50
  -2 -10   1  184.18   16.00
  -2 -10   1  179.48   15.50
  -2 -10   1  181.38   14.30
   1  10  -1  363.86   24.60
   1  10  -1  351.26   22.70
  -1 -10   1  299.77   23.10
  -1 -10   1  278.67   22.10
   0  10  -1   29.50    7.20
   0  10  -1   24.80    5.90
   0 -10   1   45.70    7.10
   0 -10   1   43.10    7.30
  -1  10  -1  237.78   17.10
  -1  10  -1  237.68   18.90
   1 -10   1  218.28   17.60
   1 -10   1  212.78   17.50
   1 -10   1  220.38   16.50
  -2  10  -1   75.29   10.90
  -2  10  -1   67.79    9.70
  -2  10  -1   73.89    9.80
   2 -10   1   91.19   10.30
   2 -10   1   94.59    9.00
   2 -10   1   90.79   10.70
  -3  10  -1  247.18   17.10
  -3  10  -1  230.98   18.50
  -3  10  -1  223.08   17.10
   3 -10   1  187.28   16.50
   3 -10   1  177.78   17.00
   3 -10   1  213.18   16.20
  -4  10  -1    4.70    5.10
  -4  10  -1    6.30    6.00
  -4  10  -1    4.50    6.20
   4 -10   1   -0.50    5.50
   4 -10   1   -0.30    4.70
  -5  10  -1  227.98   17.70
  -5  10  -1  207.08   18.20
   5 -10   1  183.38   16.60
   5 -10   1  166.98   17.10
  -6  10  -1   11.10    6.50
  -6  10  -1    4.40    6.50
   6 -10   1    2.70    6.60
   6 -10   1    6.60    6.60
   7   9  -1  119.39   14.50
   7   9  -1  111.49   13.50
  -7  -9   1  109.49   15.00
  -7  -9   1  121.09   13.80
   6   9  -1  176.98   15.40
   6   9  -1  163.78   16.10
  -6  -9   1  185.88   16.20
  -6  -9   1  192.88   18.00
  -6  -9   1  174.18   16.40
   5   9  -1  215.48   17.40
   5   9  -1  209.28   19.40
   5   9  -1  219.28   16.60
  -5  -9   1  212.18   18.70
  -5  -9   1  188.78   17.30
   4   9  -1  383.46   26.90
   4   9  -1  400.06   26.00
   4   9  -1  392.66   28.80
  -4  -9   1  401.26   27.70
  -4  -9   1  388.06   28.30
   3   9  -1  163.68   14.40
   3   9  -1  180.08   16.20
   3   9  -1  172.88   13.30
  -3  -9   1  168.88   14.70
  -3  -9   1  195.58   16.10
  -3  -9   1  179.58   13.70
   2   9  -1  271.17   18.30
   2   9  -1  254.67   19.50
   2   9  -1  273.77   21.10
  -2  -9   1  296.67   20.60
  -2  -9   1  281.77   19.30
   1   9  -1   77.99   10.20
   1   9  -1   78.59    7.10
   1   9  -1   76.29    8.80
  -1  -9   1   71.49    8.50
  -1  -9   1   67.89    9.20
   0   9  -1  338.27   25.40
   0   9  -1  338.17   24.30
   0   9  -1  348.67   23.40
   0  -9   1  371.46   24.90
   0  -9   1  384.76   23.00
   0  -9   1  396.96   24.80
  -1   9  -1  233.18   18.00
  -1   9  -1  228.88   17.20
  -1   9  -1  217.38   16.60
   1  -9   1  230.68   17.30
   1  -9   1  216.98   17.20
   1  -9   1  248.08   15.90
  -2   9  -1  144.89   14.20
  -2   9  -1  145.89   13.30
  -2   9  -1  146.79   13.40
   2  -9   1  196.38   14.10
   2  -9   1  194.58   14.40
  -3   9  -1  113.29   10.20
  -3   9  -1  111.39   11.80
  -3   9  -1  105.99   10.30
   3  -9   1   90.29   10.00
   3  -9   1   83.39   10.40
   3  -9   1   89.39    9.70
  -4   9  -1  121.89   13.40
  -4   9  -1  129.59   12.70
  -4   9  -1  129.39   11.70
   4  -9   1  140.09   12.00
   4  -9   1  141.39   13.20
   4  -9   1  137.79   12.40
  -5   9  -1   16.70    5.90
  -5   9  -1   20.70    6.70
   5  -9   1    8.20    6.00
   5  -9   1    8.40    5.70
  -6   9  -1   12.90    6.50
  -6   9  -1   20.30    7.00
   6  -9   1   20.80    7.10
   6  -9   1   20.00    7.10
   7   8  -1   93.89   12.30
   7   8  -1   89.99   13.00
  -7  -8   1   98.59   12.40
  -7  -8   1   93.69   13.50
   6   8  -1    6.50    5.00
   6   8  -1    0.60    5.10
  -6  -8   1   10.80    5.70
  -6  -8   1    5.90    5.30
  -6  -8   1    4.20    5.90
   5   8  -1   26.90    7.70
   5   8  -1   27.70    5.80
   5   8  -1   27.20    6.50
   4   8  -1    8.10    4.50
   4   8  -1    6.10    5.50
   4   8  -1   10.10    4.10
  -4  -8   1   10.90    5.00
  -4  -8   1   11.50    5.50
  -4  -8   1    9.60    3.60
  -3  -8   1  134.59   12.90
  -3  -8   1  144.99   11.10
  -3  -8   1  128.69   11.90
   2   8  -1    2.40    4.30
   2   8  -1    3.40    3.40
   2   8  -1    2.90    2.80
  -2  -8   1    0.30    3.10
  -2  -8   1    5.10    4.30
  -1  -8   1   83.69    6.60
  -1  -8   1   82.29    8.10
  -1  -8   1   74.29    8.40
   0   8  -1  476.55   31.10
   0   8  -1  487.85   28.80
   0   8  -1  456.15   30.00
   0   8  -1  486.05   30.70
   0  -8   1  463.35   28.80
   0  -8   1  461.85   30.50
   0  -8   1  485.25   30.40
  -1   8  -1  752.12   39.50
  -1   8  -1  744.83   42.20
  -1   8  -1  709.43   40.90
  -1   8  -1  753.42   41.40
   1  -8   1  550.64   40.60
   1  -8   1  557.64   40.70
   1  -8   1  570.94   39.70
  -2   8  -1  384.36   24.60
  -2   8  -1  348.97   24.30
  -2   8  -1  372.86   25.50
   2  -8   1  385.86   24.00
   2  -8   1  372.16   24.90
   2  -8   1  368.06   24.60
  -3   8  -1  343.37   23.80
  -3   8  -1  345.87   22.50
  -3   8  -1  334.77   22.70
   3  -8   1  322.97   23.00
   3  -8   1  337.87   22.20
   3  -8   1  324.77   22.40
  -4   8  -1  276.27   19.40
  -4   8  -1  284.67   21.10
  -4   8  -1  285.87   20.30
   4  -8   1  285.97   19.50
   4  -8   1  291.07   20.00
   4  -8   1  276.57   20.40
  -5   8  -1  406.96   28.00
  -5   8  -1  404.56   28.50
   5  -8   1  413.46   27.90
   5  -8   1  412.96   27.70
  -6   8  -1   17.50    6.40
  -6   8  -1   21.20    6.50
   6  -8   1   11.50    6.10
   6  -8   1   17.20    6.60
  -7   8  -1   81.89   11.60
  -7   8  -1   79.29   11.30
   7  -8   1   85.39   12.80
   8   7  -1  122.89   14.10
   8   7  -1  136.59   14.00
   8   7  -1  142.69   15.40
  -8  -7   1  107.59   13.40
  -8  -7   1  103.49   14.90
   7   7  -1   36.20    7.10
   7   7  -1   34.60    7.40
   7   7  -1   36.20    7.80
  -7  -7   1   19.20    7.40
  -7  -7   1   23.00    6.90
   6   7  -1  171.68   13.40
   6   7  -1  182.68   13.90
   6   7  -1  163.38   14.40
  -6  -7   1  145.09   15.30
  -6  -7   1  135.39   13.80
  -6  -7   1  146.49   13.80
   5   7  -1  250.07   19.00
   5   7  -1  264.47   18.60
   5   7  -1  255.57   18.00
  -5  -7   1  254.77   19.10
  -5  -7   1  283.27   20.60
   4   7  -1   71.99   10.00
   4   7  -1   76.39    8.20
   4   7  -1   75.39    7.50
   4   7  -1   71.99    8.70
  -4  -7   1   88.29    9.40
  -4  -7   1   86.59    7.40
  -4  -7   1   97.69   10.20
   3   7  -1  638.84   39.40
   3   7  -1  678.13   40.00
   3   7  -1  620.34   39.90
   3   7  -1  606.44   41.10
  -3  -7   1  662.03   41.20
  -3  -7   1  671.43   39.50
  -3  -7   1  657.33   40.50
   2   7  -1  319.37   22.20
   2   7  -1  306.67   20.30
   2   7  -1  294.67   20.90
  -2  -7   1  344.87   21.00
  -2  -7   1  335.47   21.80
   1   7  -1 1338.37   74.89
   1   7  -1 1269.77   76.49
   1   7  -1 1231.78   75.49
  -1  -7   1 1341.67   74.39
  -1  -7   1 1186.68   75.79
  -1  -7   1 1278.77   75.69
   0   7  -1  311.47   22.20
   0   7  -1  299.17   21.30
   0   7  -1  323.27   20.40
   0   7  -1  318.27   21.90
   0  -7   1  356.56   21.90
   0  -7   1  366.26   20.60
   0  -7   1  343.07   22.00
  -1   7  -1  778.62   46.90
  -1   7  -1  811.82   47.80
  -1   7  -1  821.72   45.80
  -1   7  -1  802.42   47.20
   1  -7   1  765.12   47.20
   1  -7   1  712.73   46.10
   1  -7   1  732.83   47.00
  -2   7  -1  426.36   28.90
  -2   7  -1  454.35   29.00
  -2   7  -1  452.75   29.80
  -2   7  -1  463.45   27.70
   2  -7   1  458.35   29.30
   2  -7   1  490.05   28.70
   2  -7   1  474.45   29.20
  -3   7  -1  501.35   31.70
  -3   7  -1  520.25   30.70
  -3   7  -1  509.55   29.30
  -3   7  -1  512.95   31.00
   3  -7   1  464.25   30.50
   3  -7   1  452.05   30.40
   3  -7   1  447.26   31.00
  -4   7  -1   12.50    4.50
  -4   7  -1    8.40    3.60
  -4   7  -1   13.60    4.80
   4  -7   1   29.10    5.20
   4  -7   1   25.10    5.30
  -5   7  -1   84.39   10.00
  -5   7  -1   88.29   10.30
   5  -7   1   86.59   10.00
   5  -7   1   94.99   10.20
  -6   7  -1   77.79   11.00
  -6   7  -1   76.69   10.50
   6  -7   1  103.49   11.40
   6  -7   1   91.19   10.60
  -7   7  -1   35.60    7.60
  -7   7  -1   30.90    7.70
   7  -7   1   37.40    8.30
  -8   7  -1    9.50    6.30
  -8   7  -1   11.90    7.30
   8  -7   1   28.70    8.20
   8   6  -1    9.10    6.30
   8   6  -1    4.70    6.70
   8   6  -1    4.20    5.90
  -8  -6   1    3.50    6.60
  -8  -6   1    7.40    5.70
   7   6  -1   39.40    7.70
   7   6  -1   38.70    7.30
   7   6  -1   39.40    7.10
  -7  -6   1   30.90    6.80
  -7  -6   1   32.40    8.00
   6   6  -1   58.79    8.60
   6   6  -1   64.99    9.40
   6   6  -1   65.69    8.40
  -6  -6   1   63.79    8.60
  -6  -6   1   70.59    9.10
  -6  -6   1   70.79   10.30
   5   6  -1  263.37   20.00
   5   6  -1  278.47   19.40
   5   6  -1  273.57   19.70
  -5  -6   1  314.27   20.50
  -5  -6   1  327.37   21.90
   4   6  -1   42.90    6.20
   4   6  -1   41.60    5.60
   4   6  -1   39.10    6.80
   4   6  -1   44.00    6.20
  -4  -6   1   52.19    7.80
  -4  -6   1   49.90    5.10
  -4  -6   1   54.09    7.00
   3   6  -1  154.58   11.80
   3   6  -1  162.38   11.40
   3   6  -1  153.18   12.20
   3   6  -1  155.88   13.40
  -3  -6   1  182.78   13.50
  -3  -6   1  186.18   13.10
  -3  -6   1  189.08   11.90
   2   6  -1  220.08   15.00
   2   6  -1  221.78   14.30
   2   6  -1  208.58   16.40
  -2  -6   1  236.08   15.30
  -2  -6   1  239.28   14.00
  -2  -6   1  247.28   16.30
  -2  -6   1  239.28   16.60
   1   6  -1 1046.70   66.69
   1   6  -1 1039.60   65.99
   1   6  -1 1072.99   65.39
  -1  -6   1 1164.28   66.59
  -1  -6   1 1173.78   66.29
  -1  -6   1 1200.88   65.09
   0   6  -1   22.50    3.70
   0   6  -1   28.10    4.70
   0   6  -1   27.80    3.40
   0   6  -1   29.20    4.50
   0  -6   1   27.90    3.40
   0  -6   1   32.80    4.70
   0  -6   1   22.70    4.00
  -1   6  -1  467.55   27.40
  -1   6  -1  445.66   26.90
  -1   6  -1  448.66   26.70
  -1   6  -1  458.55   25.70
   1  -6   1  399.16   26.70
   1  -6   1  389.66   26.70
   1  -6   1  387.06   26.00
  -2   6  -1   29.70    4.20
  -2   6  -1   28.80    4.70
  -2   6  -1   30.10    3.20
  -2   6  -1   28.70    4.30
   2  -6   1   18.70    2.70
   2  -6   1   15.60    3.70
   2  -6   1   22.80    3.80
   2  -6   1   19.70    4.10
  -3   6  -1  656.33   39.50
  -3   6  -1  665.13   38.80
  -3   6  -1  658.73   40.10
  -3   6  -1  665.03   40.60
   3  -6   1  629.44   40.10
   3  -6   1  635.44   39.80
   3  -6   1  661.43   38.70
   3  -6   1  653.73   39.60
  -4   6  -1   94.29    9.10
  -4   6  -1   98.49    9.00
  -4   6  -1   97.59    7.60
  -4   6  -1   99.69    7.10
   4  -6   1   77.39    7.50
   4  -6   1   72.29    7.10
   4  -6   1   68.79    8.40
   4  -6   1   71.39    8.30
  -5   6  -1 1257.97   73.59
  -5   6  -1 1242.58   74.89
  -5   6  -1 1206.78   74.69
   5  -6   1 1220.78   73.29
   5  -6   1 1247.18   74.19
   5  -6   1 1259.77   74.39
  -6   6  -1   21.90    6.30
  -6   6  -1   23.80    6.10
   6  -6   1   32.10    5.60
   6  -6   1   30.00    6.50
   6  -6   1   25.10    5.80
  -7   6  -1  390.76   26.00
  -7   6  -1  351.66   26.40
   7  -6   1  355.86   25.80
   7  -6   1  342.37   27.40
  -8   6  -1   24.10    7.00
  -8   6  -1   18.00    7.40
   8  -6   1   12.00    7.40
   9   5  -1   99.99   13.60
   9   5  -1   91.29   13.40
  -9  -5   1   95.19   13.10
  -9  -5   1   99.99   14.00
   8   5  -1  141.79   14.30
   8   5  -1  146.89   14.70
   8   5  -1  151.88   15.40
  -8  -5   1  150.38   14.60
  -8  -5   1  151.58   15.90
   7   5  -1  255.57   19.20
   7   5  -1  257.97   18.60
   7   5  -1  260.47   18.60
  -7  -5   1  225.88   19.60
  -7  -5   1  208.58   18.00
   6   5  -1  250.57   18.70
   6   5  -1  252.27   19.20
   6   5  -1  244.48   18.60
  -6  -5   1  268.47   19.10
  -6  -5   1  297.47   19.30
  -6  -5   1  283.07   20.60
   5   5  -1  742.53   45.10
   5   5  -1  748.43   45.30
   5   5  -1  736.83   45.50
  -5  -5   1  745.83   45.60
  -5  -5   1  724.63   45.50
  -5  -5   1  756.12   46.90
   4   5  -1  810.92   47.40
   4   5  -1  769.62   49.00
   4   5  -1  763.72   47.90
   4   5  -1  800.72   47.60
  -4  -5   1  777.02   48.00
  -4  -5   1  804.32   46.70
  -4  -5   1  810.42   49.10
   3   5  -1 1859.01  104.29
   3   5  -1 1846.52  104.59
   3   5  -1 1785.12  105.79
   3   5  -1 1771.92  104.79
  -3  -5   1 1730.63  104.19
  -3  -5   1 1848.81  103.29
  -3  -5   1 1707.43  105.59
  -3  -5   1 1770.22  105.19
   2   5  -1  995.40   56.49
   2   5  -1  970.70   57.59
   2   5  -1 1000.80   55.99
  -2  -5   1  956.50   55.49
  -2  -5   1  926.41   57.19
  -2  -5   1  927.71   57.49
  -2  -5   1  927.41   56.49
   1   5  -1 1569.14   87.89
   1   5  -1 1519.05   88.99
   1   5  -1 1534.75   88.29
   1   5  -1 1597.44   87.19
  -1  -5   1 1465.35   87.39
  -1  -5   1 1458.25   88.29
  -1  -5   1 1422.46   88.59
   0   5  -1  345.77   20.10
   0   5  -1  330.37   20.60
   0   5  -1  352.46   20.50
   0   5  -1  358.26   19.40
   0  -5   1  267.67   20.10
   0  -5   1  267.67   19.20
  -1   5  -1  633.84   39.10
  -1   5  -1  637.54   39.60
  -1   5  -1  624.64   39.20
  -1   5  -1  634.94   38.40
   1  -5   1  669.03   39.40
   1  -5   1  692.63   39.40
   1  -5   1  674.53   38.80
  -2   5  -1  210.58   14.30
  -2   5  -1  199.78   13.60
  -2   5  -1  200.38   13.90
  -2   5  -1  205.98   12.90
   2  -5   1  214.68   13.80
   2  -5   1  204.88   14.00
   2  -5   1  211.38   12.70
   2  -5   1  199.58   13.70
  -3   5  -1  206.48   14.30
  -3   5  -1  195.58   15.50
  -3   5  -1  197.68   15.30
  -3   5  -1  193.58   14.60
   3  -5   1  265.27   14.50
   3  -5   1  249.58   15.70
   3  -5   1  260.47   15.60
   3  -5   1  253.87   15.00
  -4   5  -1  260.47   18.90
  -4   5  -1  279.47   19.10
  -4   5  -1  248.38   20.10
  -4   5  -1  269.97   20.30
   4  -5   1  337.57   19.40
   4  -5   1  337.97   20.20
   4  -5   1  351.56   20.40
   4  -5   1  344.07   19.30
  -5   5  -1   93.49   10.20
  -5   5  -1   97.49    8.70
  -5   5  -1   98.49   10.10
   5  -5   1  126.59   10.40
   5  -5   1  116.19    9.30
   5  -5   1  123.99   10.00
  -6   5  -1  525.15   36.10
  -6   5  -1  531.15   37.80
  -6   5  -1  550.44   37.40
   6  -5   1  642.04   36.80
   6  -5   1  650.83   36.80
   6  -5   1  615.24   37.50
  -7   5  -1   20.60    6.50
  -7   5  -1   21.40    6.00
   7  -5   1   11.30    5.30
   7  -5   1   10.30    5.70
  -8   5  -1   45.20    8.40
  -8   5  -1   45.60    9.20
   8  -5   1   74.69    9.60
   8  -5   1   64.69    9.90
   9   4  -1   11.80    6.90
   9   4  -1    8.00    6.80
  -9  -4   1    5.70    6.10
  -9  -4   1   15.40    7.30
   8   4  -1   13.60    6.10
   8   4  -1   14.30    6.20
  -8  -4   1   16.10    6.10
  -8  -4   1   12.80    6.70
   7   4  -1   17.40    5.90
   7   4  -1   12.90    5.20
   7   4  -1   14.00    5.30
  -7  -4   1   12.60    5.00
  -7  -4   1   12.00    5.80
   6   4  -1   53.09    7.60
   6   4  -1   67.49    7.90
   6   4  -1   57.89    7.90
  -6  -4   1   57.69    8.90
  -6  -4   1   57.09    7.60
  -6  -4   1   60.19    7.40
   5   4  -1   60.19    6.20
   5   4  -1   58.59    7.00
   5   4  -1   57.59    6.40
   5   4  -1   59.39    6.70
  -5  -4   1   44.40    7.10
  -5  -4   1   36.40    6.00
   4   4  -1  303.87   19.70
   4   4  -1  297.77   19.30
   4   4  -1  284.37   19.30
   4   4  -1  305.17   18.30
  -4  -4   1  309.07   18.30
  -4  -4   1  298.27   19.70
  -4  -4   1  319.37   20.90
   3   4  -1  182.38   12.90
   3   4  -1  190.08   11.50
   3   4  -1  206.98   12.80
   3   4  -1  187.78   13.90
   3   4  -1  192.38   12.50
   2   4  -1  368.16   22.70
   2   4  -1  356.06   22.90
   2   4  -1  377.56   23.70
   2   4  -1  377.86   22.30
  -2  -4   1  376.16   23.60
  -2  -4   1  375.56   22.60
  -2  -4   1  370.46   23.20
   1   4  -1 1147.49   66.99
   1   4  -1 1138.49   65.59
   1   4  -1 1149.48   66.49
   1   4  -1 1168.38   66.19
  -1  -4   1 1114.49   65.59
  -1  -4   1 1113.59   66.39
  -1  -4   1 1108.99   66.69
   0   4  -1  169.08   11.30
   0   4  -1  169.48   11.70
   0   4  -1  170.48   12.20
   0   4  -1  174.58   12.00
   0  -4   1  195.98   12.20
   0  -4   1  193.48   11.30
   0  -4   1  196.08   12.10
  -1   4  -1 1749.82  101.79
  -1   4  -1 1755.52  102.39
  -1   4  -1 1772.42  102.69
  -1   4  -1 1787.42  102.39
   1  -4   1 1732.53  102.09
   1  -4   1 1776.92  101.39
   1  -4   1 1793.52  102.39
   1  -4   1 1707.23  102.49
  -2   4  -1  117.19    8.50
  -2   4  -1  116.79    8.10
  -2   4  -1  120.69    7.60
  -2   4  -1  116.19    8.60
   2  -4   1  108.29    8.20
   2  -4   1  107.99    7.50
   2  -4   1  103.79    8.40
   2  -4   1  112.69    8.10
  -3   4  -1 1984.50  111.79
  -3   4  -1 2005.00  112.59
  -3   4  -1 1812.62  112.49
  -3   4  -1 1929.01  111.59
   3  -4   1 1876.01  112.09
   3  -4   1 1918.01  111.59
   3  -4   1 1961.70  111.69
   3  -4   1 1895.61  112.19
  -4   4  -1  243.48   14.40
  -4   4  -1  222.28   15.80
  -4   4  -1  237.28   15.10
  -4   4  -1  227.08   16.00
   4  -4   1  220.68   15.50
   4  -4   1  218.88   14.30
   4  -4   1  218.98   14.90
   4  -4   1  229.38   15.30
  -5   4  -1  909.91   53.79
  -5   4  -1  944.01   52.99
  -5   4  -1  850.11   53.79
   5  -4   1  832.42   53.29
   5  -4   1  879.01   52.89
   5  -4   1  877.61   52.89
  -6   4  -1  236.48   17.90
  -6   4  -1  216.18   18.20
  -6   4  -1  233.08   16.90
   6  -4   1  270.57   17.10
   6  -4   1  255.57   17.50
   6  -4   1  251.17   18.10
  -7   4  -1  606.74   40.00
  -7   4  -1  665.03   39.80
  -7   4  -1  647.34   38.70
   7  -4   1  564.84   39.20
   7  -4   1  593.04   38.80
  -8   4  -1  189.58   16.30
  -8   4  -1  185.68   17.00
  -8   4  -1  199.58   15.60
   8  -4   1  195.38   16.60
   8  -4   1  182.58   16.90
  -9   4  -1  255.87   22.70
  -9   4  -1  274.77   22.00
   9  -4   1  297.57   22.90
   9  -4   1  299.87   22.70
   9   3  -1   86.59   12.00
   9   3  -1   92.29   13.00
  -9  -3   1   71.79   11.10
  -9  -3   1   82.59   11.90
   8   3  -1  623.34   38.20
   8   3  -1  598.24   38.70
  -8  -3   1  592.14   39.50
  -8  -3   1  542.45   38.40
   7   3  -1  293.97   20.20
   7   3  -1  276.47   20.40
  -7  -3   1  281.17   20.60
  -7  -3   1  289.17   21.60
   6   3  -1  388.96   26.20
   6   3  -1  404.06   26.70
   6   3  -1  414.26   25.50
   6   3  -1  423.86   26.10
  -6  -3   1  390.86   25.70
  -6  -3   1  380.26   26.30
  -6  -3   1  419.56   27.60
   5   3  -1  604.34   37.60
   5   3  -1  598.14   37.30
   5   3  -1  634.94   36.70
   5   3  -1  628.54   37.30
  -5  -3   1  584.54   37.40
  -5  -3   1  604.44   37.30
  -5  -3   1  607.64   38.50
   4   3  -1  683.43   42.60
   4   3  -1  658.53   42.50
   4   3  -1  685.53   42.10
   4   3  -1  689.13   42.80
  -4  -3   1  751.32   43.00
  -4  -3   1  720.63   43.90
  -4  -3   1  753.12   41.40
  -4  -3   1  752.82   43.00
   3   3  -1  462.55   29.00
   3   3  -1  459.65   29.00
   3   3  -1  477.95   29.30
   3   3  -1  469.25   28.40
  -3  -3   1  504.15   30.20
  -3  -3   1  498.95   29.40
  -3  -3   1  503.35   28.40
   2   3  -1  100.99    6.80
   2   3  -1   98.99    7.00
   2   3  -1   96.39    8.00
   1   3  -1   68.89    4.60
   1   3  -1   73.69    5.10
   1   3  -1   67.29    5.40
   1   3  -1   72.49    6.00
   0   3  -1  236.08   14.30
   0   3  -1  235.78   15.00
   0   3  -1  239.88   14.80
   0   3  -1  236.28   14.70
  -1   3  -1 3304.47  189.98
  -1   3  -1 3315.67  189.88
  -1   3  -1 3331.67  190.48
  -1   3  -1 3380.86  189.78
   1  -3   1 3306.37  189.78
   1  -3   1 3180.18  189.88
   1  -3   1 3244.18  189.58
   1  -3   1 3235.78  189.28
   2  -3   1   29.10    3.10
   2  -3   1   25.70    3.60
   2  -3   1   27.60    3.20
   2  -3   1   29.10    3.60
  -3   3  -1  781.02   44.00
  -3   3  -1  793.12   44.60
  -3   3  -1  758.62   44.50
  -3   3  -1  788.12   43.50
   3  -3   1  696.93   43.90
   3  -3   1  690.83   44.00
   3  -3   1  697.63   43.70
   3  -3   1  724.03   43.40
  -4   3  -1  104.49    9.00
  -4   3  -1  111.59    7.10
  -4   3  -1  112.19    8.80
  -4   3  -1  114.89    8.30
   4  -3   1  104.39    8.20
   4  -3   1   92.69    8.50
   4  -3   1   97.29    8.20
  -5   3  -1  340.37   23.70
  -5   3  -1  368.46   23.50
  -5   3  -1  381.76   23.00
   5  -3   1  342.57   23.20
   5  -3   1  352.26   22.50
   5  -3   1  357.86   22.90
  -6   3  -1  269.07   20.60
  -6   3  -1  302.37   20.30
  -6   3  -1  303.27   19.60
   6  -3   1  304.87   21.30
   6  -3   1  283.97   19.90
   6  -3   1  301.27   19.90
   6  -3   1  262.67   19.90
  -7   3  -1    4.00    4.40
  -7   3  -1    3.40    3.70
  -7   3  -1    0.60    4.50
   7  -3   1    4.40    4.60
   7  -3   1    5.00    5.00
  -8   3  -1    2.70    5.40
  -8   3  -1   11.20    4.80
  -8   3  -1    7.10    5.40
   8  -3   1   14.20    6.30
   8  -3   1   13.30    6.20
  -9   3  -1  105.39   12.60
  -9   3  -1   88.59   13.10
  -9   3  -1  100.19   11.60
   9  -3   1  113.29   13.90
   9  -3   1  104.69   13.90
   9   2  -1   25.30    7.80
   9   2  -1   20.90    6.90
  -9  -2   1   28.70    8.00
  -9  -2   1   24.00    7.50
   8   2  -1    4.50    5.40
   8   2  -1    5.10    5.00
  -8  -2   1    5.60    5.30
  -8  -2   1   -0.30    5.20
   7   2  -1   73.49    9.00
   7   2  -1   70.29    8.20
   7   2  -1   64.89    9.40
  -7  -2   1   95.79    9.70
   6   2  -1   11.70    3.40
   6   2  -1    8.00    4.00
   6   2  -1    7.00    3.60
  -6  -2   1    9.60    4.60
  -6  -2   1    8.20    3.10
  -6  -2   1    8.70    3.60
   5   2  -1  646.34   40.40
   5   2  -1  636.34   40.90
   5   2  -1  659.23   40.10
   5   2  -1  624.74   40.60
  -5  -2   1  709.33   40.50
  -5  -2   1  736.23   42.10
  -5  -2   1  676.63   40.90
   4   2  -1  121.49    8.40
   4   2  -1  114.69    8.80
   4   2  -1  114.39    9.10
   4   2  -1  116.69    9.00
  -4  -2   1  115.59    9.80
  -4  -2   1  128.49    9.10
  -4  -2   1  124.59    8.90
   3   2  -1 2545.15  148.99
   3   2  -1 2567.14  149.09
   3   2  -1 2474.95  149.09
   3   2  -1 2645.04  148.59
  -3  -2   1 2650.73  149.19
  -3  -2   1 2565.04  149.19
  -3  -2   1 2563.94  149.88
   2   2  -1 1764.12  103.09
   2   2  -1 1760.92  102.29
   2   2  -1 1751.52  102.39
   2   2  -1 1771.72  102.29
   2   2  -1 1741.93  101.89
  -2  -2   1 1760.52  102.99
  -2  -2   1 1772.22  101.89
  -2  -2   1 1805.52  102.59
   1   2  -1 5213.58  321.97
   1   2  -1 5518.25  322.07
   1   2  -1 5426.66  320.87
   1   2  -1 5259.37  322.27
  -1  -2   1 5634.74  322.77
  -1  -2   1 5909.01  322.07
  -1  -2   1 5919.11  321.87
   0   2  -1 2416.36  141.49
   0   2  -1 2507.85  141.19
   0   2  -1 2500.55  142.19
   0   2  -1 2373.36  142.49
   0  -2   1 2426.86  141.59
   0  -2   1 2483.35  141.19
   0  -2   1 2447.46  141.69
   0  -2   1 2441.16  141.99
  -1   2  -1 5389.16  306.87
  -1   2  -1 5381.96  307.17
  -1   2  -1 5579.64  307.37
  -1   2  -1 5701.23  307.57
   1  -2   1 4916.21  306.37
   1  -2   1 5118.19  306.27
   1  -2   1 5177.18  306.47
   1  -2   1 5180.48  306.17
  -2   2  -1   27.50    3.40
  -2   2  -1   28.40    3.50
  -2   2  -1   33.40    3.80
  -2   2  -1   29.70    2.80
   2  -2   1   37.70    3.60
   2  -2   1   35.70    3.40
   2  -2   1   36.10    3.60
   2  -2   1   36.00    2.90
  -3   2  -1 1633.44   94.39
  -3   2  -1 1621.44   93.49
  -3   2  -1 1607.74   94.89
  -3   2  -1 1549.14   94.59
   3  -2   1 1647.84   94.09
   3  -2   1 1644.44   94.39
   3  -2   1 1668.33   94.39
   3  -2   1 1578.94   94.19
  -4   2  -1   17.60    3.30
  -4   2  -1   17.50    3.50
  -4   2  -1   15.70    2.00
  -4   2  -1   17.70    3.80
   4  -2   1   23.20    3.60
   4  -2   1   26.80    3.80
   4  -2   1   24.70    3.80
   4  -2   1   22.30    3.60
  -5   2  -1  391.46   25.90
  -5   2  -1  385.16   26.20
  -5   2  -1  417.56   25.40
   5  -2   1  399.56   25.40
   5  -2   1  410.36   25.60
   5  -2   1  397.96   25.60
   5  -2   1  417.66   24.80
  -6   2  -1   76.59    8.80
  -6   2  -1   75.99    8.10
  -6   2  -1   79.19    7.50
   6  -2   1   54.89    7.90
   6  -2   1   53.39    7.40
   6  -2   1   56.19    7.70
  -7   2  -1  345.27   23.40
  -7   2  -1  324.97   23.70
  -7   2  -1  340.67   22.70
   7  -2   1  335.87   23.30
   7  -2   1  329.97   23.30
   7  -2   1  332.47   22.90
  -8   2  -1  332.77   23.50
  -8   2  -1  345.67   24.80
  -8   2  -1  370.76   24.40
   8  -2   1  346.67   24.40
   8  -2   1  314.67   23.70
   8  -2   1  314.37   24.00
  -9   2  -1  237.88   18.30
  -9   2  -1  227.88   19.10
  -9   2  -1  229.88   17.70
   9  -2   1  197.78   18.80
   9  -2   1  180.88   17.90
   9  -2   1  193.58   17.50
   9   1  -1   95.49   13.00
   9   1  -1   69.29    9.60
  -9  -1   1   79.59   10.00
  -9  -1   1   70.09   10.70
  -9  -1   1   73.89   11.60
   8   1  -1  320.37   24.10
   8   1  -1  318.37   23.00
   8   1  -1  350.76   23.50
  -8  -1   1  367.46   25.10
  -8  -1   1  339.57   24.90
   7   1  -1  197.28   14.80
   7   1  -1  194.98   15.50
   7   1  -1  212.78   15.10
  -7  -1   1  186.38   15.90
  -7  -1   1  201.98   16.30
   6   1  -1  540.85   30.30
   6   1  -1  529.15   30.50
   6   1  -1  506.25   30.90
  -6  -1   1  432.26   31.30
  -6  -1   1  440.06   30.90
  -6  -1   1  455.15   29.70
   5   1  -1 1121.19   67.09
   5   1  -1 1145.69   66.79
   5   1  -1 1176.78   66.59
  -5  -1   1 1100.49   67.99
  -5  -1   1 1123.49   66.59
  -5  -1   1 1112.29   67.39
   4   1  -1  852.91   47.30
   4   1  -1  827.92   47.50
   4   1  -1  862.91   48.10
   4   1  -1  839.02   47.90
  -4  -1   1  628.94   47.60
   3   1  -1 3106.09  180.68
   3   1  -1 3054.69  181.08
   3   1  -1 2954.40  180.88
   3   1  -1 3073.59  181.18
  -3  -1   1 3196.98  181.88
  -3  -1   1 3272.67  181.28
  -3  -1   1 3273.37  181.08
   2   1  -1 2050.39  111.39
   2   1  -1 2105.29  111.49
   2   1  -1 2111.69  110.99
   2   1  -1 2041.50  111.29
  -2  -1   1 1704.43  111.29
  -2  -1   1 1779.82  111.39
  -2  -1   1 1673.63  111.79
   1   1  -1 6003.00  350.46
   1   1  -1 5589.54  351.86
   1   1  -1 5938.81  350.86
   1   1  -1 6190.78  350.56
  -1  -1   1 6537.85  351.96
  -1  -1   1 6367.86  350.06
  -1  -1   1 5805.82  352.06
  -1   1  -1 2539.25  141.49
  -1   1  -1 2428.16  140.99
  -1   1  -1 2443.96  141.29
   1  -1   1 2371.56  140.69
   1  -1   1 2406.66  141.09
   1  -1   1 2399.26  140.39
   1  -1   1 2485.45  140.99
  -2   1  -1  255.77   20.10
   2  -1   1  349.37   19.70
   2  -1   1  346.27   20.00
   2  -1   1  348.97   19.90
   2  -1   1  339.27   20.00
  -3   1  -1  389.26   25.10
  -3   1  -1  383.96   24.40
  -3   1  -1  365.66   24.70
   3  -1   1  418.86   24.60
   3  -1   1  433.36   24.60
   3  -1   1  418.36   24.10
   3  -1   1  412.86   24.60
  -4   1  -1  163.88   13.40
  -4   1  -1  182.88   13.90
  -4   1  -1  181.18   13.10
   4  -1   1  208.18   13.30
   4  -1   1  215.68   12.70
   4  -1   1  220.48   13.60
   4  -1   1  213.58   13.50
  -5   1  -1  133.59   11.30
  -5   1  -1  133.39   12.20
  -5   1  -1  144.99   12.00
   5  -1   1  181.98   11.00
   5  -1   1  179.18   12.20
   5  -1   1  179.68   11.90
   5  -1   1  175.38   12.20
  -6   1  -1  120.39   10.80
  -6   1  -1  126.29   10.50
  -6   1  -1  111.59    9.50
   6  -1   1  107.19    9.70
   6  -1   1  111.49   10.40
   6  -1   1  100.49   10.00
  -7   1  -1   58.89    8.70
  -7   1  -1   67.69    9.60
  -7   1  -1   61.79    7.90
   7  -1   1   83.09    9.00
   7  -1   1   80.49    9.50
   7  -1   1   73.79    9.20
  -8   1  -1   23.60    5.70
  -8   1  -1   12.60    5.80
  -8   1  -1   22.80    6.10
   8  -1   1   24.50    6.20
   8  -1   1   34.70    7.00
   8  -1   1   27.50    6.90
  -9   1  -1   27.40    7.50
  -9   1  -1   31.60    6.90
  -9   1  -1   29.30    7.40
   9  -1   1   30.70    8.50
   9  -1   1   33.50    7.70
   9  -1   1   37.10    7.80
   9   0  -1   23.10    6.50
   9   0  -1   28.60    8.10
   9   0  -1   26.20    8.00
  -9   0   1   27.90    7.70
  -9   0   1   24.90    7.70
  -9   0   1   22.20    6.00
   8   0  -1    3.40    4.50
   8   0  -1    1.50    4.40
   8   0  -1   -0.30    5.20
  -8   0   1    3.40    5.10
  -8   0   1    0.50    3.80
  -8   0   1    1.10    5.00
   7   0  -1   65.09    7.80
   7   0  -1   64.89    8.70
   7   0  -1   65.59    8.00
  -7   0   1   66.79    9.20
  -7   0   1   57.19    8.70
   6   0  -1   20.20    4.20
   6   0  -1   23.20    4.20
   6   0  -1   22.40    5.00
  -6   0   1   24.10    5.30
  -6   0   1   23.60    5.10
  -6   0   1   24.50    4.20
   5   0  -1  291.57   18.90
   5   0  -1  283.77   18.90
   5   0  -1  306.07   19.50
  -5   0   1  292.67   20.00
  -5   0   1  314.57   18.80
  -5   0   1  287.47   20.10
   4   0  -1  363.16   22.30
   4   0  -1  354.36   21.90
   4   0  -1  341.17   21.80
  -4   0   1  359.06   22.00
  -4   0   1  356.76   22.70
  -4   0   1  366.16   23.10
   3   0  -1  159.28   10.40
   3   0  -1  155.98   10.70
   3   0  -1  157.08   10.30
  -3   0   1  166.98   11.00
  -3   0   1  171.78   10.70
  -3   0   1  160.38   11.40
   2   0  -1   75.49    4.80
   2   0  -1   81.29    5.70
   2   0  -1   76.69    4.80
   2   0  -1   85.29    5.80
   2   0  -1   79.29    5.40
   2   0  -1   74.19    5.30
  -2   0   1   77.89    6.30
  -2   0   1   79.69    5.80
  -2   0   1   80.39    5.70
   1   0  -1 1064.49   61.79
   1   0  -1 1066.79   61.79
   1   0  -1 1038.10   61.69
   1   0  -1 1093.99   61.69
   1   0  -1 1048.90   61.69
  -1   0   1 1039.00   62.09
  -1   0   1 1104.29   61.99
  -1   0   1 1045.50   61.69
  -1   0   1 1078.69   61.79
   0   0   1    1.90    0.70
   0   0   1    2.50    0.60
   0   0   1    1.90    0.70
  -1   0  -1 3881.11  227.68
  -1   0  -1 3810.12  227.28
  -1   0  -1 3959.70  227.88
   1   0   1 3998.30  227.78
   1   0   1 4078.69  227.68
   1   0   1 3829.22  227.08
  -2   0  -1 2249.27  130.39
  -2   0  -1 2269.97  130.59
  -2   0  -1 2283.37  130.69
   2   0   1 2251.57  130.39
   2   0   1 2232.08  130.39
   2   0   1 2245.38  130.19
   2   0   1 2256.67  130.39
  -3   0  -1 4381.56  248.88
  -3   0  -1 4390.26  247.48
  -3   0  -1 4043.10  247.18
   3   0   1 4227.08  246.88
   3   0   1 4169.08  246.98
   3   0   1 4355.36  246.98
   3   0   1 4387.26  246.58
  -4   0  -1  600.44   36.20
  -4   0  -1  606.14   37.00
  -4   0  -1  596.64   36.80
   4   0   1  625.74   35.70
   4   0   1  604.44   36.30
   4   0   1  582.94   36.40
   4   0   1  602.04   36.30
  -5   0  -1 3242.08  189.68
  -5   0  -1 3305.17  187.78
  -5   0  -1 3047.50  189.78
  -5   0  -1 3177.08  188.98
   5   0   1 3359.26  188.18
   5   0   1 3285.47  189.18
   5   0   1 3294.07  189.08
   5   0   1 3352.06  189.48
  -6   0  -1   77.49    7.80
  -6   0  -1   83.99    9.20
  -6   0  -1   81.99    8.60
   6   0   1   77.09    8.60
   6   0   1   92.19    8.40
   6   0   1   84.29    9.10
  -7   0  -1  976.90   59.29
  -7   0  -1  945.51   59.79
  -7   0  -1  948.21   58.49
   7   0   1  948.01   58.79
   7   0   1 1010.30   59.39
   7   0   1  978.00   58.79
  -8   0  -1   14.80    6.10
  -8   0  -1   10.90    5.60
  -8   0  -1   12.70    4.80
   8   0   1   16.90    6.40
   8   0   1   19.20    5.90
   8   0   1   13.60    5.50
  -9   0  -1   32.80    8.10
  -9   0  -1   36.80    7.20
  -9   0  -1   37.10    8.00
   9   0   1   41.60    7.90
   9   0   1   37.80    9.10
   9   0   1   40.10    8.20
   9  -1  -1   85.39   12.80
   9  -1  -1   81.59   10.90
   9  -1  -1   70.19    9.90
  -9   1   1   77.69   11.60
  -9   1   1   81.99   12.00
  -9   1   1   91.89   10.20
   8  -1  -1  378.56   24.00
   8  -1  -1  356.16   25.00
   8  -1  -1  338.07   24.10
  -8   1   1  337.47   23.60
  -8   1   1  347.07   25.30
  -8   1   1  339.87   25.30
   7  -1  -1  183.98   14.70
   7  -1  -1  206.08   14.60
   7  -1  -1  203.58   15.40
  -7   1   1  194.38   16.00
  -7   1   1  186.88   14.20
  -7   1   1  199.58   16.20
   6  -1  -1  414.06   29.40
   6  -1  -1  457.75   30.00
   6  -1  -1  431.76   29.20
  -6   1   1  533.75   31.10
  -6   1   1  539.25   31.30
   5  -1  -1 1115.49   65.89
   5  -1  -1 1135.79   67.29
   5  -1  -1 1101.69   66.99
   5  -1  -1 1108.09   66.79
  -5   1   1 1217.18   66.59
  -5   1   1 1133.29   67.99
  -5   1   1 1133.09   68.19
   4  -1  -1  629.14   40.00
   4  -1  -1  631.94   39.20
   4  -1  -1  648.24   40.20
   4  -1  -1  637.94   39.80
  -4   1   1  825.72   41.60
   3  -1  -1 3245.68  182.88
   3  -1  -1 3430.36  182.38
   3  -1  -1 3210.98  182.98
   3  -1  -1 3187.28  182.58
  -3   1   1 3045.30  183.58
  -3   1   1 3010.10  183.38
  -3   1   1 3023.00  182.78
   2  -1  -1 1689.73  108.59
   2  -1  -1 1763.22  108.89
   2  -1  -1 1714.83  108.59
   2  -1  -1 1690.83  108.79
  -2   1   1 2092.99  109.29
  -2   1   1 2172.68  109.49
  -2   1   1 2059.59  108.99
   1  -1  -1 6445.86  354.96
   1  -1  -1 6284.07  355.06
   1  -1  -1 6342.47  355.16
   1  -1  -1 6395.86  353.66
  -1   1   1 5964.80  354.96
  -1   1   1 5888.31  356.66
  -1   1   1 5707.03  355.66
  -1   1   1 6324.27  355.36
  -1   1   1 5899.11  353.86
  -1  -1  -1 2483.55  139.89
  -1  -1  -1 2508.35  140.79
   1   1   1 2430.36  139.79
   1   1   1 2374.06  140.59
   1   1   1 2397.76  140.49
   1   1   1 2406.46  140.09
   1   1   1 2395.16  140.49
   1   1   1 2297.07  140.19
   1   1   1 2517.55  140.49
   2   1   1  242.68   15.30
   2   1   1  254.87   15.40
   2   1   1  242.78   15.20
   2   1   1  243.48   15.40
   2   1   1  255.07   14.90
  -3  -1  -1  419.56   23.80
  -3  -1  -1  434.06   24.90
  -3  -1  -1  434.16   24.70
   3   1   1  375.06   24.40
   3   1   1  386.76   23.60
   3   1   1  380.36   24.30
   3   1   1  386.66   24.60
   3   1   1  389.16   24.40
  -4  -1  -1  207.58   12.00
  -4  -1  -1  224.38   13.50
  -4  -1  -1  218.78   13.60
   4   1   1  173.48   13.00
   4   1   1  173.68   12.80
   4   1   1  170.38   12.60
   4   1   1  170.48   11.60
  -5  -1  -1  178.98   12.30
  -5  -1  -1  176.98   10.20
  -5  -1  -1  168.48   12.20
   5   1   1  137.19   11.40
   5   1   1  133.59   11.50
   5   1   1  141.79    9.70
  -6  -1  -1  114.49   10.40
  -6  -1  -1  109.49   10.50
  -6  -1  -1  106.89    9.40
   6   1   1  114.79   10.50
   6   1   1  117.89   10.00
   6   1   1  108.49   10.00
  -7  -1  -1   82.59    9.40
  -7  -1  -1   79.99    8.30
  -7  -1  -1   83.79    9.60
   7   1   1   52.39    7.70
   7   1   1   60.49    8.80
   7   1   1   61.69    8.70
  -8  -1  -1   34.10    7.00
  -8  -1  -1   25.20    6.90
  -8  -1  -1   29.80    6.10
   8   1   1   17.60    6.00
   8   1   1   27.90    7.00
   8   1   1   21.00    6.20
  -9  -1  -1   39.00    8.00
  -9  -1  -1   34.70    8.30
  -9  -1  -1   28.30    6.70
   9   1   1   33.70    7.60
   9   1   1   27.10    8.50
   9  -2  -1   30.00    8.00
   9  -2  -1   21.20    6.40
   9  -2  -1   28.90    7.40
  -9   2   1   19.90    7.20
  -9   2   1   18.70    7.10
  -9   2   1   17.60    5.50
   8  -2  -1    1.90    5.00
   8  -2  -1    3.40    5.30
   8  -2  -1    6.90    4.70
  -8   2   1    0.80    5.10
  -8   2   1    4.30    5.20
  -8   2   1    2.10    3.70
  -7   2   1   65.39    9.40
  -7   2   1   70.09    9.50
  -7   2   1   69.19    7.40
   6  -2  -1    8.40    4.10
   6  -2  -1    8.40    3.80
   6  -2  -1   10.50    3.50
  -6   2   1   12.20    4.70
  -6   2   1    9.40    4.30
  -6   2   1    7.20    3.00
   5  -2  -1  734.63   41.40
   5  -2  -1  689.63   41.20
   5  -2  -1  731.23   40.30
   5  -2  -1  704.93   40.80
  -5   2   1  660.53   40.40
  -5   2   1  667.23   40.70
  -5   2   1  611.74   41.80
  -5   2   1  636.14   42.10
   4  -2  -1  133.19    8.70
   4  -2  -1  137.19    9.50
   4  -2  -1  135.09    8.90
   4  -2  -1  133.09    9.50
  -4   2   1  124.79   10.10
  -4   2   1  121.19    8.80
  -4   2   1  121.49   10.00
  -4   2   1  123.29    8.70
   3  -2  -1 2581.34  150.18
   3  -2  -1 2688.93  149.88
   3  -2  -1 2575.44  149.69
   3  -2  -1 2505.15  149.99
  -3   2   1 2542.45  150.68
  -3   2   1 2574.74  149.88
  -3   2   1 2672.93  149.69
  -3   2   1 2590.14  150.48
   2  -2  -1 1759.42  105.29
   2  -2  -1 1795.42  104.79
   2  -2  -1 1808.92  105.09
   2  -2  -1 1831.22  105.19
  -2   2   1 1822.52  105.29
  -2   2   1 1870.71  105.39
  -2   2   1 1829.72  104.79
  -2   2   1 1805.52  105.69
   1  -2  -1 6007.60  327.97
   1  -2  -1 5989.40  328.47
   1  -2  -1 6038.40  328.87
  -1   2   1 5584.94  330.67
  -1   2   1 5389.36  328.77
  -1   2   1 5413.66  329.87
  -1   2   1 5314.97  328.87
   0  -2  -1 2584.44  141.69
   0  -2  -1 2605.84  141.69
   0  -2  -1 2459.25  141.59
   0   2   1 2309.77  142.09
   0   2   1 2451.35  142.19
   0   2   1 2430.36  141.39
   0   2   1 2356.36  141.29
   0   2   1 2426.16  141.69
  -1  -2  -1 5322.87  306.57
  -1  -2  -1 5223.68  306.97
   1   2   1 5548.35  306.17
   1   2   1 5215.08  305.67
   1   2   1 5253.37  305.87
   1   2   1 5170.88  305.57
   1   2   1 5448.55  307.17
   1   2   1 5213.98  306.27
   1   2   1 5200.08  305.97
  -2  -2  -1   40.20    3.60
  -2  -2  -1   40.10    3.60
  -2  -2  -1   40.30    4.00
   2   2   1   30.90    3.60
   2   2   1   30.40    4.10
   2   2   1   31.10    3.40
   2   2   1   31.50    3.00
   2   2   1   31.90    3.50
   2   2   1   29.70    3.60
   2   2   1   32.20    3.50
  -3  -2  -1 1680.13   93.89
  -3  -2  -1 1619.34   93.39
  -3  -2  -1 1616.64   92.99
   3   2   1 1589.64   92.59
   3   2   1 1580.34   93.29
   3   2   1 1522.85   93.09
   3   2   1 1608.04   93.39
   3   2   1 1590.24   93.39
  -4  -2  -1   23.10    3.50
  -4  -2  -1   27.60    4.30
  -4  -2  -1   24.30    3.30
   4   2   1   16.70    2.30
   4   2   1   16.30    3.20
   4   2   1   15.50    3.50
   4   2   1   16.90    3.40
   4   2   1   13.80    3.40
  -5  -2  -1  447.46   27.70
  -5  -2  -1  417.96   27.10
  -5  -2  -1  434.96   26.00
   5   2   1  426.46   26.90
   5   2   1  418.26   26.80
   5   2   1  415.66   27.10
  -6  -2  -1   59.69    8.30
   6   2   1   76.39    8.50
   6   2   1   78.49    8.40
   6   2   1   82.19    8.30
  -7  -2  -1  334.07   23.20
  -7  -2  -1  316.57   22.00
  -7  -2  -1  319.77   23.20
   7   2   1  319.67   22.80
   7   2   1  340.67   22.40
   7   2   1  319.77   22.30
  -8  -2  -1  335.67   24.30
  -8  -2  -1  302.97   24.30
  -8  -2  -1  317.77   23.20
   8   2   1  361.46   24.80
   8   2   1  342.07   24.30
   8   2   1  341.37   23.80
  -9  -2  -1  176.58   16.30
  -9  -2  -1  187.78   17.20
  -9  -2  -1  171.98   17.80
   9   2   1  231.88   18.00
   9   2   1  228.28   19.20
   9  -3  -1   93.09   13.20
   9  -3  -1   72.19   10.50
  -9   3   1   83.89   12.40
  -9   3   1   80.59   12.20
   8  -3  -1  606.84   37.80
   8  -3  -1  592.84   38.30
   8  -3  -1  604.14   38.60
  -8   3   1  615.04   39.70
  -8   3   1  570.34   39.20
  -8   3   1  576.94   37.50
   7  -3  -1  286.37   20.20
   7  -3  -1  293.07   20.30
   7  -3  -1  310.27   19.70
  -7   3   1  284.27   19.30
  -7   3   1  274.57   21.20
  -7   3   1  251.67   20.70
   6  -3  -1  409.66   26.60
   6  -3  -1  443.46   26.20
   6  -3  -1  429.76   26.70
  -6   3   1  399.26   25.90
  -6   3   1  404.96   27.70
  -6   3   1  377.76   27.20
   5  -3  -1  622.44   36.70
   5  -3  -1  605.44   37.50
   5  -3  -1  625.44   37.00
   5  -3  -1  615.44   37.30
  -5   3   1  609.64   38.50
  -5   3   1  568.94   38.00
  -5   3   1  620.14   36.60
  -5   3   1  621.14   36.90
   4  -3  -1  769.12   43.90
   4  -3  -1  748.43   43.50
   4  -3  -1  767.72   43.40
   4  -3  -1  760.42   43.20
  -4   3   1  728.83   43.20
  -4   3   1  707.53   44.10
  -4   3   1  646.84   44.20
  -4   3   1  695.63   43.20
   3  -3  -1  485.15   29.10
   3  -3  -1  496.25   29.00
   3  -3  -1  510.55   29.60
   3  -3  -1  510.95   29.30
  -3   3   1  467.65   28.90
  -3   3   1  459.35   29.90
  -3   3   1  472.05   29.20
  -3   3   1  485.45   29.60
  -2   3   1  103.69    6.60
  -2   3   1   97.09    7.80
  -2   3   1   99.39    7.40
  -2   3   1  110.89    7.40
  -1   3   1   72.79    5.70
  -1   3   1   68.69    4.30
  -1   3   1   71.49    5.60
  -1   3   1   67.69    5.10
   0   3   1  225.98   13.80
   0   3   1  229.78   14.30
   0   3   1  228.78   13.40
   0   3   1  214.58   14.00
   0   3   1  226.48   14.30
  -1  -3  -1 3290.17  187.58
  -1  -3  -1 3132.09  188.18
  -1  -3  -1 3269.77  187.58
   1   3   1 3249.57  186.98
   1   3   1 3208.38  187.18
   1   3   1 3278.67  188.68
   1   3   1 3279.87  187.58
   1   3   1 3351.96  187.68
   1   3   1 3158.68  187.38
   1   3   1 3233.28  187.28
   2   3   1    6.60    1.70
   2   3   1    5.70    2.20
   2   3   1    4.80    1.70
   2   3   1    3.60    1.70
   2   3   1    6.80    1.90
   2   3   1    5.10    2.50
   2   3   1    7.10    2.10
  -3  -3  -1  720.53   45.50
  -3  -3  -1  708.93   44.40
  -3  -3  -1  709.03   44.90
  -3  -3  -1  713.33   45.00
   3   3   1  802.42   44.80
   3   3   1  779.42   44.40
   3   3   1  791.82   45.10
   3   3   1  788.82   45.80
   3   3   1  783.82   45.00
   3   3   1  774.02   45.10
  -4  -3  -1  101.29    9.00
  -4  -3  -1  102.89    8.10
  -4  -3  -1   98.59    8.50
  -4  -3  -1  105.29    7.20
   4   3   1  113.29    7.30
   4   3   1  107.59    8.60
   4   3   1  109.39    8.70
   4   3   1  113.89    8.40
   4   3   1  103.29    8.30
  -5  -3  -1  366.86   24.00
  -5  -3  -1  345.97   22.50
  -5  -3  -1  343.17   23.30
   5   3   1  358.56   23.30
   5   3   1  363.26   23.20
   5   3   1  379.66   23.10
   5   3   1  361.96   23.60
  -6  -3  -1  260.67   19.60
  -6  -3  -1  274.47   20.20
   6   3   1  298.97   19.30
   6   3   1  299.37   19.60
   6   3   1  276.47   19.70
  -7  -3  -1    5.50    4.60
  -7  -3  -1    7.50    4.90
   7   3   1    3.30    4.80
   7   3   1    3.50    4.20
   7   3   1    4.60    4.80
  -8  -3  -1   16.80    5.20
  -8  -3  -1    8.40    5.70
  -8  -3  -1   16.40    6.10
   8   3   1    4.60    6.10
   8   3   1    7.00    5.50
  -9  -3  -1   95.69   11.80
  -9  -3  -1  116.09   13.90
  -9  -3  -1  109.49   13.20
   9   3   1   95.09   13.10
   9   3   1   98.69   14.10
   9  -4  -1    8.40    6.80
   9  -4  -1    8.70    6.90
  -9   4   1    5.20    6.30
  -9   4   1    5.70    6.50
   8  -4  -1   14.50    6.30
   8  -4  -1   12.10    6.00
  -8   4   1   16.50    6.70
  -8   4   1   11.70    6.30
   7  -4  -1    6.40    5.10
   7  -4  -1    7.00    4.80
  -7   4   1    7.60    5.20
  -7   4   1    7.30    5.30
   6  -4  -1   60.79    6.70
   6  -4  -1   57.99    8.00
   6  -4  -1   61.59    7.70
  -6   4   1   54.29    6.40
  -6   4   1   54.29    8.20
  -6   4   1   57.19    8.50
  -5   4   1   57.89    5.70
  -5   4   1   63.49    6.00
  -5   4   1   63.49    7.70
  -5   4   1   60.19    7.40
   4  -4  -1  311.97   19.20
   4  -4  -1  301.77   19.50
   4  -4  -1  310.67   18.90
  -4   4   1  279.17   19.90
  -4   4   1  275.17   18.40
  -4   4   1  301.87   19.60
  -4   4   1  295.67   18.70
  -3   4   1  187.78   13.80
  -3   4   1  192.98   13.10
  -3   4   1  207.48   12.30
  -3   4   1  198.28   13.30
   2  -4  -1  393.86   23.70
   2  -4  -1  379.76   22.80
   2  -4  -1  383.76   23.50
  -2   4   1  383.86   23.70
  -2   4   1  379.56   23.40
  -2   4   1  380.66   22.50
   1  -4  -1 1150.28   66.79
   1  -4  -1 1154.18   67.49
   1  -4  -1 1179.98   67.79
  -1   4   1 1158.18   66.69
  -1   4   1 1132.79   67.39
  -1   4   1 1172.38   68.09
  -1   4   1 1131.29   67.79
   0  -4  -1  199.58   11.70
   0  -4  -1  185.88   12.10
   0  -4  -1  203.58   11.00
   0   4   1  172.98   11.70
   0   4   1  161.18   12.20
   0   4   1  173.28   11.10
  -1  -4  -1 1755.72  104.19
  -1  -4  -1 1827.92  103.79
  -1  -4  -1 1818.82  104.59
   1   4   1 1758.02  103.69
   1   4   1 1795.02  104.09
   1   4   1 1781.42  104.59
   1   4   1 1857.91  104.59
   1   4   1 1745.83  104.19
   1   4   1 1789.82  103.79
  -2  -4  -1  109.69    7.50
  -2  -4  -1  115.99    8.60
  -2  -4  -1  115.99    8.00
  -2  -4  -1  114.79    8.90
   2   4   1  116.79    9.00
   2   4   1  114.39    8.00
   2   4   1  121.99    8.20
   2   4   1  113.29    7.60
   2   4   1  112.69    8.00
   2   4   1  114.39    8.70
   2   4   1  108.99    8.30
  -3  -4  -1 1957.10  113.29
  -3  -4  -1 1881.81  112.69
  -3  -4  -1 1942.91  112.19
   3   4   1 1949.60  112.59
   3   4   1 1980.50  113.49
   3   4   1 1997.20  112.09
   3   4   1 1904.91  112.09
   3   4   1 1910.71  112.69
   3   4   1 1864.51  112.39
  -4  -4  -1  214.48   15.10
  -4  -4  -1  232.58   14.30
  -4  -4  -1  221.68   15.40
  -4  -4  -1  220.18   16.00
   4   4   1  222.68   15.60
   4   4   1  237.48   14.80
   4   4   1  226.48   15.20
   4   4   1  235.88   15.50
  -5  -4  -1  867.31   54.79
  -5  -4  -1  835.02   53.49
  -5  -4  -1  881.71   54.09
   5   4   1  895.91   54.19
   5   4   1  901.31   54.09
   5   4   1  943.71   53.59
   5   4   1  942.61   53.99
  -6  -4  -1  266.57   18.50
  -6  -4  -1  277.07   17.90
   6   4   1  231.08   16.80
   6   4   1  233.78   17.40
   6   4   1  218.78   17.50
   6   4   1  223.68   17.60
  -7  -4  -1  592.84   39.60
  -7  -4  -1  581.94   40.10
   7   4   1  639.74   39.90
   7   4   1  664.13   39.60
  -8  -4  -1  178.28   16.70
  -8  -4  -1  191.48   17.10
   8   4   1  197.08   16.40
   8   4   1  188.58   17.00
  -9  -4  -1  278.57   21.60
  -9  -4  -1  287.27   23.20
  -9  -4  -1  291.97   22.80
   9   4   1  268.07   23.00
   9   4   1  278.97   22.40
   9  -5  -1  101.99   13.40
   9  -5  -1  104.79   13.50
  -9   5   1   83.29   12.30
  -9   5   1   87.19   13.10
   8  -5  -1  158.68   14.50
   8  -5  -1  151.28   15.00
  -8   5   1  144.89   15.00
  -8   5   1  132.89   14.80
   7  -5  -1  216.78   18.00
   7  -5  -1  228.38   17.50
  -7   5   1  232.08   18.70
  -7   5   1  254.17   19.20
   6  -5  -1  300.87   18.80
   6  -5  -1  277.07   19.60
   6  -5  -1  285.57   18.60
  -6   5   1  235.28   20.00
  -6   5   1  255.57   19.80
   5  -5  -1  736.53   44.60
   5  -5  -1  695.63   45.20
   5  -5  -1  746.33   45.00
  -5   5   1  741.23   44.30
  -5   5   1  751.62   44.50
  -5   5   1  765.62   45.80
  -5   5   1  743.73   46.30
   4  -5  -1  853.11   50.19
   4  -5  -1  767.42   49.10
   4  -5  -1  827.62   49.99
  -4   5   1  853.41   48.80
  -4   5   1  822.02   49.60
  -4   5   1  843.72   50.19
  -4   5   1  843.22   50.89
   3  -5  -1 1746.23  105.59
   3  -5  -1 1706.73  104.59
   3  -5  -1 1752.52  105.49
  -3   5   1 1897.61  104.29
  -3   5   1 1838.82  105.49
  -3   5   1 1800.62  106.19
  -3   5   1 1878.71  105.49
   2  -5  -1  914.31   55.49
   2  -5  -1  931.01   56.69
   2  -5  -1  919.41   56.39
  -2   5   1  996.50   55.29
  -2   5   1  962.20   57.19
  -2   5   1  984.70   56.39
  -2   5   1  966.30   56.69
   1  -5  -1 1496.85   88.39
   1  -5  -1 1435.46   89.29
   1  -5  -1 1457.75   89.79
  -1   5   1 1639.24   90.39
  -1   5   1 1579.14   89.99
  -1   5   1 1547.35   89.49
  -1   5   1 1577.64   88.49
   0  -5  -1  267.87   18.70
   0  -5  -1  253.37   18.50
   0  -5  -1  257.57   17.20
   0  -5  -1  256.77   17.90
   0   5   1  351.66   18.60
   0   5   1  337.97   19.30
   0   5   1  344.17   19.20
  -1  -5  -1  663.23   38.30
  -1  -5  -1  679.33   38.10
  -1  -5  -1  689.73   39.50
  -1  -5  -1  659.33   39.00
   1   5   1  618.64   38.20
   1   5   1  640.94   39.40
   1   5   1  636.94   39.50
   1   5   1  617.14   38.70
   1   5   1  636.34   38.10
  -2  -5  -1  205.38   12.90
  -2  -5  -1  217.28   14.40
  -2  -5  -1  203.08   13.60
   2   5   1  206.48   14.60
   2   5   1  206.88   13.40
   2   5   1  206.28   13.00
   2   5   1  204.58   14.30
   2   5   1  196.08   13.70
   2   5   1  214.38   13.30
  -3  -5  -1  251.47   15.40
  -3  -5  -1  253.97   14.90
  -3  -5  -1  247.38   14.00
   3   5   1  190.88   13.30
   3   5   1  185.28   13.90
   3   5   1  189.68   15.00
   3   5   1  195.38   14.40
   3   5   1  183.78   13.80
  -4  -5  -1  333.67   19.80
  -4  -5  -1  337.87   19.00
   4   5   1  267.37   17.40
   4   5   1  258.17   18.20
   4   5   1  243.68   18.40
   4   5   1  245.78   19.30
   4   5   1  266.27   18.30
  -5  -5  -1  121.79   10.90
  -5  -5  -1  130.89   10.10
  -5  -5  -1  124.39   10.10
   5   5   1  102.89    9.70
   5   5   1   93.49   10.00
   5   5   1   88.99    9.60
   5   5   1  107.89    9.30
  -6  -5  -1  639.34   38.40
  -6  -5  -1  626.24   37.30
  -6  -5  -1  618.54   36.70
   6   5   1  553.54   37.00
   6   5   1  546.45   36.80
   6   5   1  527.25   37.00
  -7  -5  -1   10.20    5.20
  -7  -5  -1   16.30    6.20
   7   5   1   21.00    6.20
   7   5   1   19.60    5.90
   7   5   1   16.40    6.10
  -8  -5  -1   71.99   10.50
  -8  -5  -1   58.19    9.20
   8   5   1   51.49    9.00
   8   5   1   45.00    9.00
   8  -6  -1    4.70    6.40
  -8   6   1   14.40    6.90
  -8   6   1    7.80    6.10
   7  -6  -1   35.80    6.50
   7  -6  -1   32.20    7.10
  -7   6   1   37.30    7.80
  -7   6   1   41.10    7.80
   6  -6  -1   70.39    8.40
   6  -6  -1   61.19    9.10
   6  -6  -1   75.69    8.00
  -6   6   1   46.10    8.20
  -6   6   1   72.09    9.60
   5  -6  -1  327.27   20.70
   5  -6  -1  337.67   21.10
   5  -6  -1  315.27   19.70
  -5   6   1  266.07   21.40
  -5   6   1  278.97   19.80
  -5   6   1  290.17   20.80
   4  -6  -1   56.49    5.50
   4  -6  -1   60.99    7.40
   4  -6  -1   53.69    7.00
  -4   6   1   48.40    7.20
  -4   6   1   46.50    6.50
  -4   6   1   43.50    5.90
   3  -6  -1  189.18   11.20
   3  -6  -1  188.58   12.70
   3  -6  -1  183.98   12.70
  -3   6   1  156.08   12.10
  -3   6   1  151.18   13.00
  -3   6   1  159.78   12.30
  -3   6   1  160.88   10.70
   2  -6  -1  244.78   14.10
   2  -6  -1  236.28   16.00
   2  -6  -1  251.47   15.60
  -2   6   1  225.98   15.80
  -2   6   1  207.58   15.20
  -2   6   1  235.38   16.50
  -2   6   1  221.98   13.90
   1  -6  -1 1191.28   66.49
   1  -6  -1 1211.08   66.69
   1  -6  -1 1183.48   65.89
  -1   6   1 1070.79   64.79
  -1   6   1 1052.19   66.39
  -1   6   1 1049.09   66.69
  -1   6   1 1070.99   65.89
   0  -6  -1   27.60    3.70
   0  -6  -1   29.40    4.40
   0  -6  -1   35.00    4.90
   0   6   1   28.50    4.70
   0   6   1   26.50    3.00
   0   6   1   28.80    4.70
   0   6   1   23.10    3.70
  -1  -6  -1  398.56   27.30
  -1  -6  -1  389.06   26.00
  -1  -6  -1  400.96   26.80
  -1  -6  -1  433.86   25.60
   1   6   1  455.25   26.10
   1   6   1  454.95   27.70
   1   6   1  470.45   25.70
   1   6   1  456.35   26.80
  -2  -6  -1   19.00    3.60
  -2  -6  -1   16.30    2.70
  -2  -6  -1   17.40    4.20
   2   6   1   25.30    4.80
   2   6   1   28.90    3.80
   2   6   1   28.90    4.30
   2   6   1   27.90    3.80
   2   6   1   24.30    4.50
  -3  -6  -1  665.33   41.10
  -3  -6  -1  650.23   40.20
  -3  -6  -1  646.74   41.50
  -3  -6  -1  679.03   39.50
   3   6   1  698.13   40.40
   3   6   1  679.43   39.60
   3   6   1  678.03   40.30
   3   6   1  646.34   40.60
   3   6   1  661.03   41.70
  -4  -6  -1   82.19    8.90
  -4  -6  -1   72.39    8.30
  -4  -6  -1   72.89    6.90
  -4  -6  -1   71.79    6.80
   4   6   1   89.39    8.60
   4   6   1   95.49    8.20
   4   6   1   94.69    8.10
   4   6   1   88.79    9.50
  -5  -6  -1 1259.57   75.99
  -5  -6  -1 1223.98   74.99
  -5  -6  -1 1273.27   75.19
   5   6   1 1257.67   74.79
   5   6   1 1290.57   74.79
   5   6   1 1204.28   74.99
  -6  -6  -1   29.40    6.10
  -6  -6  -1   26.70    5.50
  -6  -6  -1   31.00    7.00
   6   6   1   19.60    5.50
   6   6   1   20.10    6.00
   6   6   1   26.30    6.10
  -7  -6  -1  359.16   25.80
  -7  -6  -1  348.17   26.70
   7   6   1  389.86   26.00
   7   6   1  384.46   26.00
   7   6   1  352.56   26.30
  -8  -6  -1   21.30    7.60
  -8  -6  -1   16.80    6.80
   8   6   1   25.80    7.60
   8   6   1   24.60    7.80
   8   6   1   30.70    7.70
   8  -7  -1  105.39   14.10
  -8   7   1  130.79   14.60
  -8   7   1  135.79   14.90
   7  -7  -1   30.40    7.40
  -7   7   1   24.60    7.50
  -7   7   1   25.90    6.90
   6  -7  -1  130.89   13.10
   6  -7  -1  142.29   13.90
  -6   7   1  179.38   14.30
  -6   7   1  171.68   15.10
   5  -7  -1  277.07   19.60
   5  -7  -1  286.57   19.70
   5  -7  -1  270.77   18.60
  -5   7   1  254.07   20.40
  -5   7   1  260.97   18.50
  -5   7   1  273.77   19.50
   4  -7  -1   92.89    9.20
   4  -7  -1   83.89    9.10
  -4   7   1   77.09    9.40
  -4   7   1   70.39    8.30
  -4   7   1   81.59    8.30
   3  -7  -1  670.63   41.20
   3  -7  -1  671.33   41.40
   3  -7  -1  689.03   41.10
  -3   7   1  676.73   41.20
  -3   7   1  678.73   42.20
  -3   7   1  627.14   40.80
   2  -7  -1  323.47   21.30
   2  -7  -1  314.07   21.20
   2  -7  -1  352.46   20.90
  -2   7   1  314.67   21.90
  -2   7   1  296.77   20.60
  -2   7   1  317.57   21.30
   1  -7  -1 1289.97   75.49
   1  -7  -1 1271.87   74.69
   1  -7  -1 1216.28   75.49
  -1   7   1 1219.68   74.89
  -1   7   1 1302.97   76.09
  -1   7   1 1323.67   75.79
  -1   7   1 1259.67   73.59
   0  -7  -1  355.56   21.50
   0  -7  -1  342.17   20.50
   0  -7  -1  345.77   21.80
   0   7   1  332.57   21.90
   0   7   1  310.57   19.80
   0   7   1  302.27   21.00
   0   7   1  293.27   21.80
  -1  -7  -1  737.53   45.10
  -1  -7  -1  771.02   46.80
  -1  -7  -1  760.32   46.20
   1   7   1  746.23   46.90
   1   7   1  759.02   46.80
   1   7   1  800.32   45.10
   1   7   1  753.32   45.90
  -2  -7  -1  489.05   29.00
  -2  -7  -1  496.65   29.90
  -2  -7  -1  497.65   27.90
  -2  -7  -1  489.35   27.90
   2   7   1  430.26   28.80
   2   7   1  447.86   28.10
   2   7   1  426.56   29.80
   2   7   1  426.16   29.60
   2   7   1  429.56   27.90
  -3  -7  -1  463.25   31.00
  -3  -7  -1  488.45   31.60
  -3  -7  -1  476.85   30.10
  -3  -7  -1  451.75   29.50
   3   7   1  509.45   30.00
   3   7   1  490.05   29.90
   3   7   1  484.15   31.70
   3   7   1  498.35   30.70
   4   7   1    6.20    3.70
   4   7   1   14.60    4.70
   4   7   1    9.30    5.20
   4   7   1    9.90    3.80
  -5  -7  -1   90.39    9.70
  -5  -7  -1   87.89   10.40
  -5  -7  -1   88.69    9.70
   5   7   1   86.69   10.00
   5   7   1   81.19    9.30
   5   7   1   86.89    9.40
   5   7   1   90.69   11.60
  -6  -7  -1   97.99   10.10
  -6  -7  -1   95.79   11.50
  -6  -7  -1   88.59   10.10
   6   7   1   72.29    9.90
   6   7   1   79.99   11.00
   6   7   1   73.49   10.10
  -7  -7  -1   43.70    8.80
  -7  -7  -1   29.50    7.10
   7   7   1   42.00    8.50
   7   7   1   35.80    7.60
   7   7   1   40.20    7.90
  -8  -7  -1   26.80    8.10
  -8  -7  -1   29.40    7.60
   8   7   1   21.60    7.60
   8   7   1   11.40    7.00
   8   7   1   16.90    7.70
   7  -8  -1  104.59   12.80
  -7   8   1   88.99   13.00
  -7   8   1   86.19   12.10
   6  -8  -1    0.70    5.00
   6  -8  -1   12.00    6.00
  -6   8   1    3.10    5.70
  -6   8   1    8.00    5.20
   5  -8  -1   62.59    8.90
   5  -8  -1   57.19    7.90
  -5   8   1   32.30    7.40
  -5   8   1   41.60    6.70
  -5   8   1   34.80    6.70
   4  -8  -1   14.50    5.00
   4  -8  -1    9.30    4.90
   4  -8  -1   11.50    4.40
  -4   8   1    7.90    5.30
  -4   8   1    5.70    4.00
  -4   8   1   11.30    4.50
   3  -8  -1  146.39   11.80
   3  -8  -1  137.89   11.90
   3  -8  -1  135.59   12.30
   2  -8  -1    2.90    3.50
   2  -8  -1    4.20    3.40
   2  -8  -1    3.50    3.60
  -2   8   1   -1.00    3.60
  -2   8   1    0.90    3.20
  -2   8   1    4.20    4.40
   1  -8  -1   80.59    8.80
   1  -8  -1   84.29    7.50
   1  -8  -1   84.79    8.50
   0  -8  -1  489.35   31.30
   0  -8  -1  468.15   30.00
   0  -8  -1  491.15   31.70
   0   8   1  508.45   32.10
   0   8   1  500.15   30.90
   0   8   1  494.45   31.70
   0   8   1  487.85   30.20
  -1  -8  -1  582.84   40.70
  -1  -8  -1  608.34   41.40
  -1  -8  -1  565.74   39.50
   1   8   1  708.63   42.10
   1   8   1  708.23   41.90
   1   8   1  730.33   41.00
   1   8   1  746.93   39.70
  -2  -8  -1  380.26   23.90
  -2  -8  -1  410.96   25.70
  -2  -8  -1  398.66   24.70
   2   8   1  358.86   23.50
   2   8   1  372.96   25.90
   2   8   1  358.36   25.50
   2   8   1  355.46   24.60
  -3  -8  -1  352.76   22.40
  -3  -8  -1  356.26   24.00
  -3  -8  -1  326.17   23.20
   3   8   1  323.87   22.70
   3   8   1  338.87   21.90
   3   8   1  319.87   23.80
  -4  -8  -1  283.07   21.10
  -4  -8  -1  295.07   19.70
  -4  -8  -1  301.77   21.90
   4   8   1  291.67   19.90
   4   8   1  287.77   22.20
   4   8   1  291.37   21.00
  -5  -8  -1  407.86   28.70
  -5  -8  -1  419.26   28.10
  -5  -8  -1  412.66   27.60
   5   8   1  400.16   29.30
   5   8   1  391.06   27.70
   5   8   1  414.76   27.10
  -6  -8  -1   21.80    6.20
  -6  -8  -1   22.30    6.30
  -6  -8  -1   20.60    7.00
   6   8   1   29.90    6.60
   6   8   1   18.60    6.70
  -7  -8  -1  107.19   13.50
  -7  -8  -1   92.19   12.00
   7   8   1   82.29   12.50
   7   8   1   91.99   12.40
   7  -9  -1  126.09   14.40
  -7   9   1  124.99   14.00
  -7   9   1  110.99   14.70
   6  -9  -1  162.18   15.70
   6  -9  -1  191.68   16.20
  -6   9   1  172.08   17.10
  -6   9   1  169.78   15.70
   5  -9  -1  198.08   17.00
   5  -9  -1  203.08   16.80
  -5   9   1  201.88   18.20
  -5   9   1  217.88   16.70
   4  -9  -1  384.86   26.50
   4  -9  -1  383.16   26.00
   4  -9  -1  360.46   25.80
  -4   9   1  400.96   26.20
  -4   9   1  396.86   27.80
  -4   9   1  377.06   25.80
   3  -9  -1  193.88   15.50
   3  -9  -1  181.78   14.30
   3  -9  -1  175.48   14.70
  -3   9   1  176.78   16.10
  -3   9   1  178.48   14.30
  -3   9   1  191.08   15.00
   2  -9  -1  285.07   19.00
   2  -9  -1  287.37   20.20
   2  -9  -1  268.07   19.90
  -2   9   1  299.37   21.20
  -2   9   1  280.57   20.20
  -2   9   1  249.88   19.10
   1  -9  -1   83.39    9.50
   1  -9  -1   80.89    7.90
   1  -9  -1   80.39    9.30
  -1   9   1   78.99   10.30
  -1   9   1   80.19    9.50
  -1   9   1   69.79    8.40
   0  -9  -1  398.46   25.00
   0  -9  -1  402.26   23.60
   0  -9  -1  391.86   25.60
   0   9   1  360.66   25.80
   0   9   1  311.97   24.00
   0   9   1  344.97   25.40
  -1  -9  -1  236.18   17.20
  -1  -9  -1  249.08   18.30
  -1  -9  -1  229.58   16.20
   1   9   1  238.38   17.10
   1   9   1  230.08   18.30
   1   9   1  227.78   18.10
   2   9   1  139.69   12.40
   2   9   1  146.79   13.80
   2   9   1  135.29   10.70
   2   9   1  152.78   13.70
  -3  -9  -1  102.99   11.10
  -3  -9  -1   91.79   11.40
  -3  -9  -1   91.19    9.60
   3   9   1  107.79    9.30
   3   9   1  109.59   12.40
   3   9   1  101.99   10.50
  -4  -9  -1  148.89   13.90
  -4  -9  -1  156.68   16.20
  -4  -9  -1  141.09   13.50
   4   9   1  124.69   14.60
   4   9   1  130.79   11.70
   4   9   1  130.69   13.30
  -5  -9  -1    6.50    5.90
  -5  -9  -1   11.00    5.60
   5   9   1   11.90    7.10
   5   9   1   13.90    6.00
   5   9   1   15.90    5.40
  -6  -9  -1   24.20    7.60
  -6  -9  -1   21.60    6.70
  -6  -9  -1   22.70    6.80
   6   9   1   15.90    7.00
   6   9   1   19.90    6.40
   6 -10  -1   49.20    8.90
   6 -10  -1   48.60    9.00
  -6  10   1   40.50    9.60
  -6  10   1   45.40    8.40
   5 -10  -1   20.60    7.00
   5 -10  -1   21.60    6.70
  -5  10   1   21.10    7.60
  -5  10   1   20.20    6.20
   4 -10  -1  116.19   13.00
   4 -10  -1  128.89   12.80
   4 -10  -1  121.59   12.30
  -4  10   1  145.09   14.90
  -4  10   1  120.29   12.20
  -4  10   1  126.59   12.60
   3 -10  -1   96.99   10.50
   3 -10  -1  102.89   11.60
   3 -10  -1  101.19   11.20
  -3  10   1   90.59   12.30
  -3  10   1   96.39   11.00
  -3  10   1   82.29   10.20
   2 -10  -1  186.98   15.40
   2 -10  -1  174.18   15.30
   2 -10  -1  185.28   13.80
  -2  10   1  179.28   15.40
  -2  10   1  165.98   16.10
  -2  10   1  157.58   14.00
   1 -10  -1  312.57   22.10
   1 -10  -1  323.57   23.60
   1 -10  -1  293.07   23.60
  -1  10   1  350.36   23.10
  -1  10   1  367.76   24.30
  -1  10   1  366.56   25.20
   0 -10  -1   46.90    7.90
   0 -10  -1   46.60    7.40
   0 -10  -1   31.80    6.40
   0  10   1   31.60    6.10
   0  10   1   29.40    7.50
   0  10   1   36.60    7.50
  -1 -10  -1  214.68   17.30
  -1 -10  -1  228.68   18.50
   1  10   1  238.38   19.30
   1  10   1  243.78   17.60
   1  10   1  231.88   18.70
  -2 -10  -1   93.29    9.70
  -2 -10  -1   91.09   11.20
   2  10   1   69.19   10.60
   2  10   1   70.59    9.90
  -3 -10  -1  178.58   17.00
  -3 -10  -1  199.08   16.00
  -3 -10  -1  199.58   17.80
   3  10   1  236.68   17.10
   3  10   1  217.28   18.40
  -4 -10  -1    3.00    5.20
  -4 -10  -1    1.70    5.60
   4  10   1    6.20    4.50
   4  10   1    3.50    5.70
   4  10   1    3.30    6.70
  -5 -10  -1  163.68   17.20
  -5 -10  -1  182.08   18.30
   5  10   1  217.08   19.80
   5  10   1  226.68   18.00
   5  10   1  219.28   16.50
  -6 -10  -1    5.70    5.90
  -6 -10  -1    7.30    6.90
  -6 -10  -1    8.70    6.30
   6  10   1    6.00    6.80
   6  10   1    5.50    6.10
   5 -11  -1   44.00    8.90
   5 -11  -1   43.70    8.50
  -5  11   1   42.70    8.00
  -5  11   1   49.10   10.10
   4 -11  -1   18.50    7.10
   4 -11  -1   21.10    6.20
   4 -11  -1   22.40    6.70
  -4  11   1   14.40    7.40
  -4  11   1   21.10    6.40
  -4  11   1   17.60    6.60
   3 -11  -1  136.49   12.90
   3 -11  -1  118.99   13.70
   3 -11  -1  121.89   14.10
  -3  11   1  157.38   15.90
  -3  11   1  151.88   13.40
  -3  11   1  164.38   14.60
   2 -11  -1   46.50    6.80
   2 -11  -1   48.50    8.50
   2 -11  -1   44.30    7.90
  -2  11   1   27.20    7.50
  -2  11   1   26.70    6.50
  -2  11   1   31.00    8.30
   1 -11  -1  119.29   13.90
   1 -11  -1  133.49   13.90
  -1  11   1  146.69   13.40
  -1  11   1  159.58   15.80
  -1  11   1  147.39   14.40
   0 -11  -1   45.00    8.10
   0 -11  -1   47.10    7.80
   0  11   1   23.30    7.30
   0  11   1   23.80    6.30
   0  11   1   26.90    7.90
  -1 -11  -1  192.88   17.00
  -1 -11  -1  190.18   16.10
   1  11   1  201.38   17.90
   1  11   1  189.08   16.00
   1  11   1  180.78   17.40
  -2 -11  -1   32.20    7.60
  -2 -11  -1   24.90    6.20
   2  11   1   22.80    6.40
   2  11   1   23.00    7.80
  -3 -11  -1  186.28   17.30
  -3 -11  -1  191.68   15.60
  -3 -11  -1  203.68   17.90
   3  11   1  161.18   17.80
   3  11   1  169.68   16.00
  -4 -11  -1  106.59   13.50
  -4 -11  -1  103.19   12.70
   4  11   1   77.29   12.50
   4  11   1   83.39   12.40
  -5 -11  -1  120.59   15.00
  -5 -11  -1  126.99   14.80
   5  11   1  114.19   14.10
   5  11   1  117.19   16.00
   3 -12  -1    6.40    6.30
   3 -12  -1    4.40    5.10
   3 -12  -1    1.90    5.60
  -3  12   1    8.00    5.80
  -3  12   1    4.50    7.10
  -3  12   1   10.60    6.50
   2 -12  -1   72.49   11.30
   2 -12  -1   80.79   11.70
  -2  12   1   57.59    9.20
  -2  12   1   61.49   11.10
  -2  12   1   63.89   10.30
   1 -12  -1  110.59   14.20
   1 -12  -1  124.99   14.20
  -1  12   1  140.49   13.60
  -1  12   1  161.38   15.60
  -1  12   1  142.99   16.50
   0 -12  -1   10.20    6.50
   0 -12  -1    6.30    5.80
   0  12   1    6.70    5.60
   0  12   1   13.80    7.80
   0  12   1    2.60    6.40
  -1 -12  -1   25.70    7.00
  -1 -12  -1   24.20    7.50
   1  12   1   32.00    7.20
   1  12   1   22.00    8.30
  -2 -12  -1   21.70    6.70
  -2 -12  -1   31.50    8.00
  -2 -12  -1   27.30    8.40
   2  12   1   20.20    8.40
   2  12   1   19.30    6.90
  -3 -12  -1   85.19   11.00
  -3 -12  -1   81.89   12.20
  -3 -12  -1   82.19   12.50
   3  12   1   89.19   12.40
   3  12   1   97.19   14.40
   3  12  -2   26.30    7.50
   3  12  -2   23.80    9.00
  -3 -12   2   18.70    7.90
  -3 -12   2   19.80    7.80
  -3 -12   2   23.90    8.10
   2  12  -2   98.79   14.60
   2  12  -2  111.59   12.90
  -2 -12   2  105.19   13.60
  -2 -12   2  101.69   11.70
  -2 -12   2  103.59   14.30
   1  12  -2    8.30    5.60
   1  12  -2   21.70    8.00
  -1 -12   2    8.70    5.60
  -1 -12   2   18.40    7.00
   0  12  -2   90.89   11.50
   0  12  -2   88.39   12.90
   0 -12   2   78.69   11.20
   0 -12   2   74.19   10.80
  -1  12  -2    2.10    6.40
  -1  12  -2   -0.90    5.30
   1 -12   2    0.70    5.30
   1 -12   2    3.20    5.40
  -2  12  -2    0.00    6.20
  -2  12  -2    6.30    5.70
   2 -12   2    0.30    6.00
   2 -12   2    7.80    5.80
  -3  12  -2   17.30    7.40
  -3  12  -2   12.30    6.20
   3 -12   2   18.30    6.60
   3 -12   2   16.80    7.30
   5  11  -2  107.49   14.10
   5  11  -2  127.59   13.00
   5  11  -2  120.59   16.20
  -5 -11   2  103.59   14.70
  -5 -11   2  125.99   14.80
   4  11  -2   72.19   12.20
   4  11  -2   66.49   10.20
   4  11  -2   69.29    9.10
  -4 -11   2   87.59   11.90
  -4 -11   2   87.59   13.00
   3  11  -2  232.88   19.00
   3  11  -2  245.38   21.40
  -3 -11   2  238.48   20.20
  -3 -11   2  230.38   17.90
  -3 -11   2  220.88   20.30
   2  11  -2  105.79   11.90
   2  11  -2  112.79   13.80
  -2 -11   2   90.49   12.40
  -2 -11   2   94.49   12.90
  -2 -11   2   82.99   10.50
   1  11  -2   85.99   12.70
   1  11  -2   89.59   11.10
  -1 -11   2   97.29   11.40
  -1 -11   2   97.69   10.80
   0  11  -2   41.60    7.30
   0  11  -2   31.20    8.00
   0 -11   2   23.00    6.60
   0 -11   2   24.00    6.40
  -1  11  -2   54.49    9.50
  -1  11  -2   62.49    8.80
   1 -11   2   62.39    9.10
   1 -11   2   47.50    8.20
  -2  11  -2  208.48   17.80
  -2  11  -2  209.28   16.20
   2 -11   2  167.68   15.70
   2 -11   2  156.98   15.90
  -3  11  -2    8.60    6.20
  -3  11  -2    9.30    5.70
   3 -11   2    4.30    6.00
   3 -11   2    8.40    5.40
   3 -11   2    7.10    5.00
  -4  11  -2   98.79   13.10
  -4  11  -2  110.59   12.70
   4 -11   2   90.89   13.00
   4 -11   2   90.29   11.80
   6  10  -2   20.70    7.40
   6  10  -2   18.80    6.60
  -6 -10   2   23.20    8.40
  -6 -10   2   24.80    8.00
   5  10  -2   34.90    7.90
   5  10  -2   35.30    9.30
   5  10  -2   41.10    7.10
  -5 -10   2   14.00    7.30
  -5 -10   2   27.50    7.70
   4  10  -2    5.00    5.20
   4  10  -2   12.80    7.40
   4  10  -2   12.30    5.00
  -4 -10   2   13.50    6.50
  -4 -10   2   14.20    6.70
   3  10  -2   50.49    7.20
   3  10  -2   57.39   10.20
   3  10  -2   60.89    8.80
  -3 -10   2   77.39   11.30
  -3 -10   2   78.89   10.80
  -3 -10   2   69.79    8.50
   2  10  -2   33.00    5.60
   2  10  -2   37.00    8.20
   2  10  -2   38.70    7.20
  -2 -10   2   50.99    8.20
  -2 -10   2   58.09    9.10
  -2 -10   2   56.29    7.80
   1  10  -2   89.89   11.70
   1  10  -2   85.79    9.20
   1  10  -2   81.89   10.30
  -1 -10   2  119.09   10.70
  -1 -10   2  116.19   11.60
   0  10  -2   44.50    7.10
   0  10  -2   46.20    8.30
   0 -10   2   32.20    6.50
   0 -10   2   35.30    6.90
  -1  10  -2  297.87   23.00
  -1  10  -2  268.07   21.40
   1 -10   2  336.77   22.40
   1 -10   2  321.57   22.30
  -2  10  -2   63.39    9.40
  -2  10  -2   60.09    9.50
   2 -10   2   71.19    9.40
   2 -10   2   75.09    8.10
   2 -10   2   66.89    9.80
  -3  10  -2  158.18   14.90
  -3  10  -2  157.38   15.60
   3 -10   2  174.28   14.70
   3 -10   2  188.98   14.30
   3 -10   2  177.68   15.70
  -4  10  -2  143.09   13.80
  -4  10  -2  119.79   13.60
   4 -10   2  118.89   13.80
   4 -10   2  131.79   13.00
  -5  10  -2   45.50    8.90
  -5  10  -2   43.00    9.10
   5 -10   2   68.39   10.10
   5 -10   2   62.09    9.20
   7   9  -2   10.60    6.70
   7   9  -2   14.60    6.60
  -7  -9   2    6.60    6.90
  -7  -9   2   16.80    6.70
  -7  -9   2   10.00    7.40
   6   9  -2   13.70    6.20
   6   9  -2   19.50    6.20
  -6  -9   2   32.20    8.90
  -6  -9   2   25.10    7.40
   5   9  -2   50.09    8.30
   5   9  -2   60.59   10.50
   5   9  -2   49.99    7.40
  -5  -9   2   48.40    8.60
  -5  -9   2   45.60    9.30
   4   9  -2  147.69   12.40
   4   9  -2  139.49   13.00
   4   9  -2  168.28   15.60
  -4  -9   2  135.19   13.80
  -4  -9   2  132.29   14.20
   3   9  -2  273.57   21.00
   3   9  -2  259.87   19.30
   3   9  -2  261.37   18.10
  -3  -9   2  267.07   20.20
  -3  -9   2  254.67   18.40
  -3  -9   2  264.57   20.60
   2   9  -2  264.87   17.40
   2   9  -2  276.27   20.20
   2   9  -2  247.58   18.40
  -2  -9   2  256.67   19.10
  -2  -9   2  238.38   17.90
  -2  -9   2  240.18   19.60
   1   9  -2  441.76   28.10
   1   9  -2  456.35   27.00
   1   9  -2  455.55   29.70
  -1  -9   2  400.86   27.90
  -1  -9   2  386.46   28.40
   0   9  -2  592.04   36.00
   0   9  -2  572.04   37.40
   0   9  -2  640.84   38.90
   0  -9   2  603.64   37.60
   0  -9   2  559.44   37.70
  -1   9  -2  179.48   14.20
  -1   9  -2  192.38   15.60
   1  -9   2  168.58   14.50
   1  -9   2  186.08   14.80
   1  -9   2  187.58   13.10
  -2   9  -2  353.76   24.40
  -2   9  -2  359.26   23.40
   2  -9   2  319.37   23.40
   2  -9   2  344.77   22.30
   2  -9   2  324.87   23.10
  -3   9  -2   46.40    7.70
  -3   9  -2   45.60    6.90
   3  -9   2   22.80    5.40
   3  -9   2   26.30    5.60
   3  -9   2   25.50    6.50
  -4   9  -2  178.78   14.90
  -4   9  -2  200.48   15.70
   4  -9   2  146.59   14.80
   4  -9   2  143.19   13.70
  -5   9  -2   29.40    7.40
  -5   9  -2   25.50    7.00
   5  -9   2   45.50    7.90
   5  -9   2   38.30    7.90
  -6   9  -2  218.48   18.50
  -6   9  -2  216.18   18.00
   6  -9   2  192.98   18.00
   6  -9   2  182.78   17.70
   7   8  -2  170.18   16.10
   7   8  -2  157.68   15.00
  -7  -8   2  150.68   15.60
  -7  -8   2  149.79   15.00
  -7  -8   2  153.78   17.10
   6   8  -2  111.09   12.00
   6   8  -2  110.79   12.50
  -6  -8   2  116.39   12.10
  -6  -8   2  135.49   13.40
  -6  -8   2  128.49   14.60
   5   8  -2   52.09    8.10
   5   8  -2   66.49    8.80
  -5  -8   2   67.09    9.60
  -5  -8   2   74.99   10.80
   4   8  -2  112.09   12.90
   4   8  -2  107.19   11.40
   4   8  -2  106.59   10.60
  -4  -8   2  143.99   13.20
  -4  -8   2  139.89   12.50
  -4  -8   2  138.99   11.40
   3   8  -2  185.18   15.60
   3   8  -2  183.48   13.00
   3   8  -2  165.08   13.70
  -3  -8   2  154.88   14.50
  -3  -8   2  175.18   12.90
  -3  -8   2  173.88   14.50
   2   8  -2  337.67   23.10
   2   8  -2  310.27   23.70
   2   8  -2  349.27   25.20
  -2  -8   2  406.96   24.80
  -2  -8   2  393.26   23.90
  -2  -8   2  382.96   25.50
   1   8  -2   32.70    4.60
   1   8  -2   26.80    6.10
   1   8  -2   29.90    5.20
   0   8  -2   98.19   10.40
   0   8  -2   97.89    8.30
   0  -8   2  117.09   10.00
   0  -8   2  121.19    8.40
   0  -8   2  115.89   10.30
  -1   8  -2    5.20    2.50
  -1   8  -2    2.60    3.40
  -1   8  -2    6.50    4.00
   1  -8   2    7.90    3.90
   1  -8   2    5.60    3.80
   1  -8   2    6.10    2.90
  -2   8  -2    6.80    2.60
  -2   8  -2   10.80    4.00
  -2   8  -2   10.80    4.60
   2  -8   2   13.90    3.60
   2  -8   2   13.30    4.30
   2  -8   2   17.30    4.80
  -3   8  -2    7.90    4.60
  -3   8  -2   12.00    4.50
   3  -8   2    5.80    4.60
   3  -8   2    4.50    3.70
   3  -8   2    5.30    3.80
  -4   8  -2   71.79    9.40
  -4   8  -2   64.09    9.00
   4  -8   2   61.09    9.40
   4  -8   2   57.69    8.50
  -5   8  -2   94.09   11.70
  -5   8  -2   93.59   11.50
   5  -8   2  133.49   12.30
   5  -8   2  134.69   12.50
  -6   8  -2   75.09   10.40
  -6   8  -2   65.29   10.00
   6  -8   2   58.89    9.40
   6  -8   2   68.29    9.60
  -7   8  -2  144.49   15.90
  -7   8  -2  157.48   15.30
   7  -8   2  161.58   16.20
   8   7  -2   32.90    7.70
   8   7  -2   42.90    8.60
   8   7  -2   29.80    8.40
  -8  -7   2   48.90   10.30
  -8  -7   2   37.60    7.90
   7   7  -2  282.87   21.50
   7   7  -2  300.37   22.10
   7   7  -2  306.77   23.00
  -7  -7   2  289.47   22.30
  -7  -7   2  313.77   22.90
  -7  -7   2  312.77   24.30
   6   7  -2    9.90    4.60
   6   7  -2   10.40    5.10
   6   7  -2    9.80    5.30
  -6  -7   2    6.40    5.30
  -6  -7   2    7.80    4.80
  -6  -7   2    9.60    6.00
   5   7  -2  700.33   43.30
   5   7  -2  719.93   43.90
   5   7  -2  726.23   44.40
  -5  -7   2  691.53   45.70
  -5  -7   2  702.63   44.70
   4   7  -2   32.40    5.60
   4   7  -2   37.60    5.30
   4   7  -2   38.80    5.50
   4   7  -2   33.70    7.00
  -4  -7   2   20.30    5.30
  -4  -7   2   27.60    4.30
  -4  -7   2   24.40    6.10
   3   7  -2  686.73   41.10
   3   7  -2  646.54   38.90
   3   7  -2  632.64   39.40
  -3  -7   2  611.54   38.70
  -3  -7   2  589.64   40.30
  -3  -7   2  659.43   40.20
   2   7  -2   90.89    9.70
   2   7  -2   87.69    8.50
   2   7  -2   97.99    7.90
   1   7  -2  444.56   25.30
   1   7  -2  469.75   26.50
  -1  -7   2  363.66   23.40
  -1  -7   2  345.77   25.30
  -1  -7   2  350.36   24.80
   0   7  -2  410.36   27.40
   0   7  -2  434.16   26.60
   0   7  -2  434.66   28.30
   0  -7   2  447.56   26.40
   0  -7   2  456.35   27.70
   0  -7   2  426.66   27.80
  -1   7  -2  273.87   19.30
  -1   7  -2  274.57   18.70
  -1   7  -2  285.57   17.60
   1  -7   2  272.77   17.80
   1  -7   2  280.27   18.80
   1  -7   2  288.67   19.00
  -2   7  -2  341.67   22.20
  -2   7  -2  333.27   23.40
  -2   7  -2  344.87   24.00
   2  -7   2  387.76   23.00
   2  -7   2  379.96   23.90
   2  -7   2  379.26   23.50
  -3   7  -2  206.68   13.30
  -3   7  -2  197.68   14.70
  -3   7  -2  196.48   15.20
  -3   7  -2  203.88   14.20
   3  -7   2  179.98   14.70
   3  -7   2  204.08   14.30
   3  -7   2  201.28   14.40
  -4   7  -2  447.56   29.40
  -4   7  -2  447.96   29.20
  -4   7  -2  454.25   27.50
   4  -7   2  443.36   28.70
   4  -7   2  438.36   29.10
   4  -7   2  431.76   27.90
  -5   7  -2   31.20    6.70
  -5   7  -2   28.40    6.30
   5  -7   2   38.50    6.90
   5  -7   2   41.30    7.00
  -6   7  -2  209.48   17.50
  -6   7  -2  232.18   17.00
   6  -7   2  186.88   16.30
   6  -7   2  186.78   16.90
  -7   7  -2   11.30    5.90
  -7   7  -2   11.50    6.50
   7  -7   2   23.20    7.60
  -8   7  -2   47.00    9.60
   8  -7   2   46.90    9.60
   8   6  -2   25.30    7.30
   8   6  -2   27.90    8.00
   8   6  -2   23.60    7.00
  -8  -6   2   30.60    8.80
  -8  -6   2   35.80    7.60
   7   6  -2  107.79   12.30
   7   6  -2  105.19   11.30
   7   6  -2  114.19   11.10
  -7  -6   2   89.39   11.00
  -7  -6   2   77.79   10.60
  -7  -6   2   93.99   12.80
   6   6  -2   99.89   10.50
   6   6  -2  101.59   11.60
   6   6  -2  100.79   11.00
  -6  -6   2  125.49   11.50
  -6  -6   2  144.09   13.50
  -6  -6   2  132.59   11.90
   5   6  -2  229.88   15.90
   5   6  -2  224.18   16.30
   5   6  -2  228.58   15.30
  -5  -6   2  174.78   16.90
   4   6  -2  334.97   23.20
   4   6  -2  346.87   23.60
   4   6  -2  332.67   25.00
   4   6  -2  345.07   22.80
  -4  -6   2  383.46   22.60
  -4  -6   2  406.96   24.30
  -4  -6   2  383.76   25.20
   3   6  -2  210.48   15.10
   3   6  -2  218.28   14.40
   3   6  -2  228.38   16.90
   3   6  -2  218.38   15.60
  -3  -6   2  218.68   16.50
  -3  -6   2  243.38   16.30
  -3  -6   2  234.58   14.90
   2   6  -2   50.89    5.40
   2   6  -2   50.39    7.00
   2   6  -2   50.79    4.30
   2   6  -2   45.00    5.90
  -2  -6   2   74.69    7.40
   1   6  -2  154.68   11.70
   1   6  -2  168.68   11.20
   1   6  -2  156.08   12.50
  -1  -6   2  172.98   10.40
  -1  -6   2  171.98   11.80
  -1  -6   2  163.08   12.30
   0   6  -2  234.68   16.30
   0   6  -2  226.08   16.90
   0   6  -2  230.38   17.50
   0  -6   2  297.17   17.70
   0  -6   2  290.37   17.50
   0  -6   2  290.87   16.30
  -1   6  -2  661.93   40.70
  -1   6  -2  600.24   41.70
   1  -6   2  728.53   41.70
   1  -6   2  736.03   41.90
   1  -6   2  704.43   40.90
  -2   6  -2   86.69    7.70
  -2   6  -2   80.79    8.00
  -2   6  -2   79.39    5.90
  -2   6  -2   86.29    6.60
  -2   6  -2   79.59    7.40
   2  -6   2  109.89    8.50
  -3   6  -2  243.68   18.60
  -3   6  -2  249.48   18.50
  -3   6  -2  250.47   17.70
  -3   6  -2  253.87   17.30
   3  -6   2  291.97   18.90
   3  -6   2  282.97   18.30
   3  -6   2  312.77   17.40
   3  -6   2  304.17   18.10
  -4   6  -2  114.89    9.10
  -4   6  -2  124.39    9.20
  -4   6  -2  121.59   10.90
  -4   6  -2  110.89   10.40
   4  -6   2  120.69    9.30
   4  -6   2  120.59   10.60
   4  -6   2  127.09   10.90
   4  -6   2  115.29    9.20
  -5   6  -2  129.49   12.60
  -5   6  -2  137.09   13.20
  -5   6  -2  125.99   11.30
   5  -6   2  175.68   12.20
   5  -6   2  177.68   13.30
   5  -6   2  188.88   13.70
  -6   6  -2  190.98   17.40
  -6   6  -2  206.78   16.80
   6  -6   2  234.28   17.60
   6  -6   2  227.88   16.70
   6  -6   2  227.18   16.40
  -7   6  -2   13.10    5.60
  -7   6  -2    5.80    6.10
   7  -6   2   27.90    7.30
  -8   6  -2   83.29   12.30
   8  -6   2   79.39   11.40
   9   5  -2   71.69   10.80
   9   5  -2   79.49   10.70
  -9  -5   2   56.59   10.10
  -9  -5   2   65.69   11.50
   8   5  -2    3.40    6.10
   8   5  -2    9.80    6.30
   8   5  -2    8.50    5.90
  -8  -5   2   13.10    6.00
  -8  -5   2   11.50    7.00
   7   5  -2  241.48   18.40
   7   5  -2  254.67   18.00
   7   5  -2  246.58   17.80
  -7  -5   2  210.88   17.30
  -7  -5   2  209.08   19.10
  -7  -5   2  212.28   17.50
   6   5  -2   53.99    7.60
   6   5  -2   44.10    6.60
   6   5  -2   49.00    7.40
   5   5  -2  386.76   25.10
   5   5  -2  410.96   25.80
   5   5  -2  409.26   25.60
  -5  -5   2  393.06   27.10
  -5  -5   2  392.16   26.00
  -5  -5   2  373.66   25.50
   4   5  -2  303.17   21.50
   4   5  -2  301.17   21.70
   4   5  -2  308.17   22.20
  -4  -5   2  380.06   22.90
  -4  -5   2  394.46   21.20
  -4  -5   2  365.16   23.60
   3   5  -2 1216.98   70.49
   3   5  -2 1202.68   70.99
   3   5  -2 1231.48   71.29
  -3  -5   2 1151.08   70.49
  -3  -5   2 1222.18   71.69
   2   5  -2 1285.47   71.29
   2   5  -2 1282.87   70.89
   2   5  -2 1217.78   71.99
   2   5  -2 1282.77   70.29
  -2  -5   2 1105.79   71.69
  -2  -5   2 1121.09   70.69
  -2  -5   2 1146.89   71.49
   1   5  -2 1488.45   89.59
   1   5  -2 1469.75   90.59
   1   5  -2 1482.15   88.79
   1   5  -2 1483.05   89.99
  -1  -5   2 1590.14   89.99
  -1  -5   2 1644.04   90.49
  -1  -5   2 1611.54   88.89
   0   5  -2 2098.89  119.09
   0   5  -2 2112.09  119.49
   0   5  -2 2141.99  118.59
   0  -5   2 1953.50  119.09
   0  -5   2 1957.90  118.19
   0  -5   2 1998.50  119.19
  -1   5  -2 1460.65   81.29
  -1   5  -2 1412.36   80.59
  -1   5  -2 1421.16   81.59
   1  -5   2 1356.36   81.19
   1  -5   2 1331.87   80.69
   1  -5   2 1321.77   81.29
  -2   5  -2 2741.23  152.98
  -2   5  -2 2725.23  153.68
  -2   5  -2 2753.32  152.58
  -2   5  -2 2818.32  153.48
   2  -5   2 2583.94  152.98
   2  -5   2 2470.55  153.28
   2  -5   2 2615.54  152.38
   2  -5   2 2383.36  152.78
  -3   5  -2  622.54   35.90
  -3   5  -2  576.34   36.70
  -3   5  -2  652.73   36.00
  -3   5  -2  603.74   36.80
   3  -5   2  593.84   35.80
   3  -5   2  587.94   35.90
   3  -5   2  561.34   36.60
   3  -5   2  583.44   36.40
  -4   5  -2  996.00   60.69
  -4   5  -2 1022.90   61.09
  -4   5  -2 1051.79   59.39
  -4   5  -2 1073.99   59.99
   4  -5   2  999.80   60.49
   4  -5   2  947.51   60.29
   4  -5   2  984.80   59.79
   4  -5   2  998.40   59.39
  -5   5  -2   78.39    7.20
  -5   5  -2   78.69    8.20
  -5   5  -2   77.29    8.90
   5  -5   2   56.09    8.00
   5  -5   2   63.99    8.60
   5  -5   2   58.09    7.40
  -6   5  -2  372.56   26.40
  -6   5  -2  343.67   27.00
  -6   5  -2  369.46   25.50
   6  -5   2  419.86   27.00
   6  -5   2  442.36   26.40
   6  -5   2  426.16   26.20
  -7   5  -2   22.60    6.80
  -7   5  -2   25.80    6.20
  -7   5  -2   28.90    5.40
   7  -5   2   23.20    6.90
   7  -5   2   17.70    6.10
  -8   5  -2   87.69   13.40
  -8   5  -2   98.29   12.60
   8  -5   2  143.49   14.60
   8  -5   2  137.39   13.70
   9   4  -2  188.98   18.20
   9   4  -2  201.68   17.90
  -9  -4   2  192.18   18.00
  -9  -4   2  211.98   19.30
   8   4  -2   35.70    7.60
   8   4  -2   45.20    7.90
  -8  -4   2   55.19    9.70
  -8  -4   2   58.09    8.70
   7   4  -2  263.57   20.40
   7   4  -2  277.97   20.90
   7   4  -2  285.67   20.50
  -7  -4   2  323.07   22.60
  -7  -4   2  279.87   20.60
   6   4  -2  312.87   21.10
   6   4  -2  295.17   21.30
   6   4  -2  294.97   20.90
  -6  -4   2  319.97   21.40
  -6  -4   2  313.77   21.20
  -6  -4   2  324.17   22.80
   5   4  -2  242.78   15.00
   5   4  -2  245.98   15.50
   5   4  -2  226.68   15.00
  -5  -4   2  184.48   15.00
  -5  -4   2  176.78   14.70
  -5  -4   2  189.18   16.10
   4   4  -2  604.54   40.00
   4   4  -2  626.34   40.30
   4   4  -2  632.74   39.90
  -4  -4   2  714.83   39.20
  -4  -4   2  706.13   40.80
  -4  -4   2  704.43   41.70
   3   4  -2  287.17   17.70
   3   4  -2  279.67   18.00
   3   4  -2  276.97   19.20
   3   4  -2  285.97   18.20
   2   4  -2   11.80    3.30
   2   4  -2   13.10    2.60
   2   4  -2   15.30    2.80
   2   4  -2   13.70    2.10
  -2  -4   2   25.20    3.80
   1   4  -2   76.59    6.20
   1   4  -2   77.59    5.10
   1   4  -2   75.59    6.70
   1   4  -2   77.09    5.80
   0   4  -2  141.19   11.10
   0  -4   2  195.48   11.90
   0  -4   2  183.28   11.10
   0  -4   2  196.68   12.10
  -1   4  -2  235.88   16.50
  -1   4  -2  248.48   15.60
  -1   4  -2  229.38   16.00
   1  -4   2  300.47   17.00
   1  -4   2  298.97   16.30
  -2   4  -2   62.29    5.00
  -2   4  -2   59.29    5.10
  -2   4  -2   62.49    5.60
  -2   4  -2   56.99    5.80
  -3   4  -2   98.39    7.60
  -3   4  -2  100.29    8.80
  -3   4  -2  102.29    8.10
  -3   4  -2   94.29    8.40
   3  -4   2  118.99    8.20
   3  -4   2  123.59    8.90
   3  -4   2  122.29    8.90
   3  -4   2  123.89    7.90
  -4   4  -2  206.68   13.40
  -4   4  -2  198.88   13.80
  -4   4  -2  207.28   14.40
   4  -4   2  186.28   12.20
   4  -4   2  187.78   13.60
   4  -4   2  178.48   13.20
   4  -4   2  191.38   13.80
  -5   4  -2   81.59    8.10
  -5   4  -2   74.79    7.50
  -5   4  -2   70.49    8.50
   5  -4   2   78.79    8.00
   5  -4   2   87.19    8.20
   5  -4   2   85.19    8.80
  -6   4  -2  103.19    9.40
  -6   4  -2  103.29   10.00
  -6   4  -2   94.49   10.90
   6  -4   2  118.09   10.30
   6  -4   2  100.49   10.80
   6  -4   2   96.99    9.50
  -7   4  -2   22.70    6.50
  -7   4  -2   30.30    5.70
  -7   4  -2   31.90    6.40
   7  -4   2   40.80    7.10
   7  -4   2   39.40    7.40
  -8   4  -2  176.78   14.30
  -8   4  -2  183.38   15.10
  -8   4  -2  161.48   15.80
   8  -4   2  145.09   15.70
   8  -4   2  158.38   15.80
  -9   4  -2   36.60    8.60
   9  -4   2   34.40    8.80
   9  -4   2   26.50    8.50
   9   3  -2  101.59   12.70
   9   3  -2  110.09   13.80
  -9  -3   2  117.19   14.40
  -9  -3   2  104.29   13.50
   8   3  -2   54.69    8.00
   8   3  -2   47.80    8.10
  -8  -3   2   42.70    8.80
  -8  -3   2   37.90    7.70
   7   3  -2  370.56   23.50
   7   3  -2  345.17   23.70
   7   3  -2  349.96   24.20
  -7  -3   2  320.97   23.70
  -7  -3   2  330.37   24.80
   6   3  -2  191.08   13.10
   6   3  -2  176.88   13.40
   6   3  -2  178.18   13.70
  -6  -3   2  157.48   14.50
  -6  -3   2  153.38   13.00
  -6  -3   2  162.18   12.90
   5   3  -2 1063.59   58.19
   5   3  -2 1026.40   57.79
   5   3  -2 1028.80   56.99
   5   3  -2  978.80   57.79
  -5  -3   2  934.01   59.09
  -5  -3   2  848.92   57.69
  -5  -3   2  885.31   57.79
   4   3  -2  874.51   51.79
   4   3  -2  898.31   51.59
   4   3  -2  913.11   51.69
   4   3  -2  909.31   50.79
  -4  -3   2  819.32   52.69
  -4  -3   2  829.62   51.69
  -4  -3   2  839.42   51.89
  -4  -3   2  850.71   50.39
   3   3  -2 3765.92  214.58
   3   3  -2 3844.32  214.68
   3   3  -2 3792.32  214.78
  -3  -3   2 3653.93  213.98
  -3  -3   2 3516.05  215.58
  -3  -3   2 3707.13  215.08
   2   3  -2  418.76   25.40
   2   3  -2  398.66   25.70
   2   3  -2  409.76   26.40
   2   3  -2  440.66   25.70
  -2  -3   2  440.36   26.50
  -2  -3   2  438.66   25.40
  -2  -3   2  428.46   26.00
   1   3  -2 4534.05  251.37
   1   3  -2 4599.54  250.87
   1   3  -2 4438.56  251.97
   1   3  -2 4528.95  250.67
  -1  -3   2 4010.60  252.37
  -1  -3   2 4168.08  252.37
  -1  -3   2 4156.98  251.97
   0   3  -2  832.42   53.99
   0   3  -2  833.12   54.19
   0   3  -2  824.82   54.39
   0   3  -2  863.21   53.59
   0  -3   2 1036.10   54.59
   0  -3   2 1061.19   53.99
   0  -3   2 1048.30   54.59
  -1   3  -2 1204.68   69.59
  -1   3  -2 1203.88   69.09
  -1   3  -2 1217.08   69.29
  -1   3  -2 1240.58   69.59
   1  -3   2 1168.38   69.09
   1  -3   2 1196.38   69.39
   1  -3   2 1146.59   69.59
   1  -3   2 1146.99   69.29
  -2   3  -2  352.26   25.30
  -2   3  -2  379.46   25.60
  -2   3  -2  375.46   25.20
   2  -3   2  440.46   25.50
   2  -3   2  468.25   25.30
   2  -3   2  464.15   25.80
   2  -3   2  452.65   25.10
  -3   3  -2   42.50    4.60
  -3   3  -2   39.80    5.00
  -3   3  -2   45.50    4.60
   3  -3   2   40.50    5.00
   3  -3   2   35.60    3.40
   3  -3   2   36.30    4.80
   3  -3   2   36.40    4.40
  -4   3  -2  281.37   19.00
  -4   3  -2  280.97   19.10
  -4   3  -2  281.37   19.60
   4  -3   2  310.17   19.00
   4  -3   2  293.07   19.30
   4  -3   2  303.67   19.00
   4  -3   2  307.87   17.60
  -5   3  -2  174.88   13.40
  -5   3  -2  149.09   14.00
  -5   3  -2  172.88   13.60
   5  -3   2  215.58   14.00
   5  -3   2  206.38   14.30
   5  -3   2  217.78   13.50
  -6   3  -2  995.50   60.59
  -6   3  -2 1039.00   59.99
  -6   3  -2 1012.60   59.59
   6  -3   2  953.40   58.99
   6  -3   2  958.00   59.99
   6  -3   2  976.00   59.79
  -7   3  -2   24.80    5.40
  -7   3  -2   34.00    7.00
  -7   3  -2   25.80    5.80
   7  -3   2   32.20    6.60
   7  -3   2   34.60    7.00
  -8   3  -2  294.87   20.80
  -8   3  -2  308.27   21.30
  -8   3  -2  292.97   22.10
   8  -3   2  247.28   21.50
   8  -3   2  271.97   21.70
  -9   3  -2   28.80    8.00
  -9   3  -2   29.10    6.70
   9  -3   2   43.40    9.10
   9  -3   2   30.40    8.50
   9   2  -2  166.28   14.70
   9   2  -2  161.28   15.70
  -9  -2   2  136.19   15.60
  -9  -2   2  130.19   15.20
   8   2  -2   80.19   10.10
   8   2  -2   69.79   10.80
  -8  -2   2   74.29   10.70
  -8  -2   2   79.49   11.40
   7   2  -2  245.08   17.60
   7   2  -2  254.27   18.40
  -7  -2   2  243.78   19.40
  -7  -2   2  241.18   18.40
   6   2  -2   14.60    4.70
   6   2  -2   16.30    3.70
   6   2  -2   21.00    4.40
   6   2  -2   10.80    4.20
  -6  -2   2   15.10    5.00
  -6  -2   2   19.00    4.20
  -6  -2   2   21.50    4.70
   5   2  -2   68.19    7.30
   5   2  -2   68.99    7.30
   5   2  -2   75.49    6.30
   5   2  -2   72.19    7.00
  -5  -2   2   90.99    8.90
  -5  -2   2   76.49    7.20
  -5  -2   2   74.69    7.20
   4   2  -2  386.46   24.70
   4   2  -2  414.16   24.10
   4   2  -2  393.16   25.00
   4   2  -2  391.16   24.90
  -4  -2   2  400.46   25.10
  -4  -2   2  416.96   26.20
  -4  -2   2  411.06   25.00
   3   2  -2  528.75   31.70
   3   2  -2  543.35   31.00
   3   2  -2  528.25   31.90
   3   2  -2  528.45   31.80
  -3  -2   2  509.95   32.70
  -3  -2   2  541.65   32.20
  -3  -2   2  528.45   31.00
   2   2  -2  997.90   61.19
   2   2  -2  998.70   61.09
   2   2  -2 1013.20   61.09
  -2  -2   2 1128.19   61.59
  -2  -2   2 1063.79   61.99
  -2  -2   2 1090.89   60.89
   1   2  -2 1693.83   93.39
   1   2  -2 1666.03   93.79
   1   2  -2 1679.23   93.39
   1   2  -2 1700.13   93.19
  -1  -2   2 1451.25   93.69
  -1  -2   2 1532.25   93.59
  -1  -2   2 1556.34   93.39
   0   2  -2  172.28   10.20
   0   2  -2  161.18   10.40
   0   2  -2  169.18   10.60
   0   2  -2  165.58   10.60
  -1   2  -2  978.20   57.59
  -1   2  -2 1022.20   57.49
  -1   2  -2  972.80   57.39
   1  -2   2  983.60   57.69
   1  -2   2  968.80   57.39
   1  -2   2  971.80   57.49
   1  -2   2  997.20   57.39
  -2   2  -2  463.45   28.50
  -2   2  -2  439.96   28.20
  -2   2  -2  433.66   28.10
   2  -2   2  491.95   27.60
   2  -2   2  478.95   28.30
   2  -2   2  492.65   28.20
   2  -2   2  492.35   28.30
  -3   2  -2  357.86   21.20
  -3   2  -2  367.36   20.80
  -3   2  -2  325.57   20.50
   3  -2   2  302.07   20.40
   3  -2   2  311.27   20.40
   3  -2   2  318.77   20.60
  -4   2  -2  570.74   35.00
  -4   2  -2  571.74   35.00
  -4   2  -2  557.54   35.50
   4  -2   2  592.44   34.70
   4  -2   2  578.94   35.00
   4  -2   2  572.74   35.10
  -5   2  -2   12.90    3.40
  -5   2  -2   17.10    4.20
  -5   2  -2   10.70    3.30
   5  -2   2    3.30    3.30
   5  -2   2    5.20    3.40
   5  -2   2    5.40    3.30
   5  -2   2    4.00    2.80
  -6   2  -2  188.88   14.00
  -6   2  -2  183.98   14.80
  -6   2  -2  200.28   14.10
   6  -2   2  177.28   14.40
   6  -2   2  180.08   14.10
   6  -2   2  179.18   14.30
  -7   2  -2  113.29   11.90
  -7   2  -2  107.19   11.10
  -7   2  -2  110.89   11.10
   7  -2   2  144.09   12.00
   7  -2   2  134.79   12.50
   7  -2   2  143.49   12.80
  -8   2  -2  257.17   18.80
  -8   2  -2  241.98   19.80
  -8   2  -2  262.67   19.00
   8  -2   2  223.88   19.40
   8  -2   2  249.58   19.20
   8  -2   2  241.48   19.70
  -9   2  -2   -0.20    5.80
  -9   2  -2    1.70    4.90
   9  -2   2    0.60    6.30
   9  -2   2    3.90    6.90
   9   1  -2  181.68   17.60
   9   1  -2  195.58   16.40
  -9  -1   2  204.38   18.10
  -9  -1   2  200.88   18.20
   8   1  -2   23.50    6.50
   8   1  -2   25.20    5.90
  -8  -1   2   44.90    8.30
  -8  -1   2   34.10    7.30
   7   1  -2  383.76   27.40
   7   1  -2  395.36   26.70
   7   1  -2  385.06   26.30
  -7  -1   2  446.86   28.30
  -7  -1   2  470.35   29.10
   6   1  -2   14.50    4.20
   6   1  -2   13.70    3.60
   6   1  -2   10.20    3.60
   5   1  -2  812.92   49.10
   5   1  -2  780.82   49.30
   5   1  -2  789.92   49.80
  -5  -1   2  866.31   51.09
  -5  -1   2  863.01   50.09
  -5  -1   2  866.11   49.90
   4   1  -2  289.27   16.40
   4   1  -2  282.47   15.40
  -4  -1   2  210.28   15.80
  -4  -1   2  196.18   16.60
   3   1  -2  837.12   49.60
   3   1  -2  882.11   49.90
   3   1  -2  875.51   49.90
   3   1  -2  845.12   49.30
  -3  -1   2  792.32   50.59
  -3  -1   2  843.12   49.99
  -3  -1   2  841.62   49.90
   2   1  -2  269.77   16.40
   2   1  -2  267.97   16.30
   2   1  -2  269.37   15.90
   2   1  -2  264.47   16.30
   1   1  -2 3178.18  171.48
   1   1  -2 3226.08  170.48
   1   1  -2 3300.27  171.08
   1   1  -2 3278.37  171.08
  -1  -1   2 2716.23  170.38
  -1  -1   2 2603.04  171.58
  -1  -1   2 2571.84  170.58
  -1  -1   2 2764.52  171.88
   0   1  -2 4635.54  259.87
   0   1  -2 4495.85  259.47
   0   1  -2 4713.63  259.87
   0   1  -2 4410.16  259.47
   0  -1   2 4250.07  259.07
   0  -1   2 4271.97  259.57
   0  -1   2 4477.85  261.47
   0  -1   2 4666.73  260.17
  -1   1  -2 2553.84  149.69
  -1   1  -2 2756.62  149.99
  -1   1  -2 2614.64  150.38
   1  -1   2 2595.74  149.59
   1  -1   2 2580.84  149.99
   1  -1   2 2505.35  149.99
   1  -1   2 2570.64  149.99
  -2   1  -2 1948.31  113.39
  -2   1  -2 1973.90  113.79
  -2   1  -2 1946.51  113.89
   2  -1   2 1993.50  113.59
   2  -1   2 1941.21  113.69
   2  -1   2 1953.80  113.69
  -3   1  -2  942.11   54.19
  -3   1  -2  975.20   53.89
  -3   1  -2  902.31   53.59
   3  -1   2  903.01   53.79
   3  -1   2  904.41   53.49
   3  -1   2  867.61   53.69
   3  -1   2  869.11   53.69
  -4   1  -2 2340.77  133.99
  -4   1  -2 2288.47  133.39
  -4   1  -2 2236.78  133.29
   4  -1   2 2278.37  133.39
   4  -1   2 2324.87  133.39
   4  -1   2 2319.07  132.89
   4  -1   2 2236.58  133.39
  -5   1  -2  305.77   21.30
  -5   1  -2  310.77   20.60
  -5   1  -2  294.07   20.40
   5  -1   2  319.77   20.70
   5  -1   2  311.07   20.80
   5  -1   2  316.17   20.80
   5  -1   2  338.97   20.10
  -6   1  -2  361.06   22.60
  -6   1  -2  375.26   23.60
  -6   1  -2  354.26   22.70
   6  -1   2  324.27   22.60
   6  -1   2  311.67   22.70
   6  -1   2  314.57   22.80
  -7   1  -2   65.49    9.40
  -7   1  -2   65.29    8.40
  -7   1  -2   71.19    8.70
   7  -1   2   71.89    9.60
   7  -1   2   79.09    9.40
   7  -1   2   74.29   10.00
  -8   1  -2  167.88   14.90
  -8   1  -2  177.88   15.20
  -8   1  -2  179.58   15.90
   8  -1   2  194.18   16.70
   8  -1   2  175.78   15.70
   8  -1   2  181.78   15.70
  -9   1  -2    7.60    5.60
  -9   1  -2    5.60    5.90
   9  -1   2   10.20    6.60
   9  -1   2    9.60    6.30
   9  -1   2   12.00    7.60
   9   0  -2   14.90    6.00
   9   0  -2   18.00    7.30
  -9   0   2   16.10    7.20
  -9   0   2   11.70    6.50
  -9   0   2   15.80    5.40
   8   0  -2   19.70    6.50
   8   0  -2   22.40    5.40
   8   0  -2   16.80    5.20
  -8   0   2   19.30    6.60
  -8   0   2   20.90    6.50
   7   0  -2  556.74   34.90
   7   0  -2  574.94   35.90
   7   0  -2  531.65   34.70
  -7   0   2  552.04   36.40
  -7   0   2  584.84   36.90
   6   0  -2   29.30    5.40
   6   0  -2   29.40    4.60
   6   0  -2   33.40    4.70
  -6   0   2   30.30    5.70
  -6   0   2   34.90    5.00
  -6   0   2   30.10    5.80
   5   0  -2  786.72   47.70
   5   0  -2  823.92   48.30
   5   0  -2  781.52   47.60
  -5   0   2  797.22   49.30
  -5   0   2  813.62   48.10
  -5   0   2  806.52   48.70
   4   0  -2  204.38   13.50
   4   0  -2  212.78   13.60
  -4   0   2  213.98   14.30
  -4   0   2  206.58   14.90
  -4   0   2  216.28   14.20
   3   0  -2  378.96   23.80
   3   0  -2  401.86   23.20
   3   0  -2  393.16   23.80
   3   0  -2  404.06   24.20
  -3   0   2  415.76   24.30
  -3   0   2  395.46   24.90
  -3   0   2  385.06   24.40
  -3   0   2  408.26   23.20
   2   0  -2 2878.01  164.88
   2   0  -2 2947.31  165.58
   2   0  -2 2835.92  164.68
   2   0  -2 2926.11  164.68
  -2   0   2 2794.82  164.88
  -2   0   2 2803.92  165.38
  -2   0   2 2851.01  165.28
  -2   0   2 2814.82  165.58
   1   0  -2    5.30    1.20
   1   0  -2    4.80    1.10
   1   0  -2    6.50    1.00
   1   0  -2    5.60    1.40
  -1   0   2    6.50    1.00
  -1   0   2    7.50    1.70
  -1   0   2    6.10    2.00
  -1   0   2    7.70    1.40
   0   0  -2  681.73   39.80
   0   0  -2  648.44   39.60
   0   0  -2  695.53   39.60
   0   0   2  687.43   39.60
   0   0   2  688.63   39.60
   0   0   2  699.23   40.10
   0   0   2  679.43   39.90
  -1   0  -2 1565.44   89.99
  -1   0  -2 1594.84   89.59
  -1   0  -2 1571.74   89.69
  -1   0  -2 1566.44   90.09
   1   0   2 1522.55   89.69
   1   0   2 1585.54   90.19
   1   0   2 1533.65   89.69
   1   0   2 1492.15   90.09
   1   0   2 1505.15   90.19
  -2   0  -2   12.40    2.50
  -2   0  -2   12.40    2.60
  -2   0  -2   14.00    2.80
   2   0   2   13.90    2.70
   2   0   2   12.90    2.70
   2   0   2   12.00    2.70
   2   0   2   15.20    2.80
  -3   0  -2  690.53   40.90
  -3   0  -2  691.83   41.40
  -3   0  -2  679.43   40.90
   3   0   2  679.73   41.00
   3   0   2  678.73   41.00
   3   0   2  684.63   40.80
   3   0   2  698.03   40.90
  -4   0  -2    7.20    2.70
  -4   0  -2    6.90    2.90
  -4   0  -2    7.50    2.40
   4   0   2    5.70    2.90
   4   0   2   10.30    3.10
   4   0   2   11.40    2.60
   4   0   2    6.80    2.70
  -5   0  -2   96.49    8.50
  -5   0  -2  106.39    8.90
  -5   0  -2  110.29    9.70
   5   0   2  102.09    9.10
   5   0   2  103.29    9.00
   5   0   2  111.99    8.00
   5   0   2   98.59    9.30
  -6   0  -2    0.30    3.20
  -6   0  -2    4.10    3.10
  -6   0  -2    2.70    3.90
   6   0   2    3.70    3.80
   6   0   2    6.00    3.70
   6   0   2    7.60    4.30
  -7   0  -2    7.80    5.00
  -7   0  -2    8.40    4.10
  -7   0  -2    5.40    4.10
   7   0   2    8.30    5.00
   7   0   2   10.70    5.60
   7   0   2    8.90    4.90
  -8   0  -2   61.49    9.30
  -8   0  -2   55.29    9.00
  -8   0  -2   68.19    9.20
   8   0   2   70.09   10.40
   8   0   2   68.29    9.80
   8   0   2   71.39    9.50
  -9   0  -2   -1.10    5.50
  -9   0  -2    7.50    5.40
  -9   0  -2    3.40    5.80
   9   0   2    0.70    6.90
   9   0   2    5.30    6.20
   9   0   2   -0.40    6.00
   9  -1  -2  192.58   16.60
   9  -1  -2  221.88   18.40
   9  -1  -2  201.88   16.20
  -9   1   2  187.08   15.70
  -9   1   2  213.08   18.40
  -9   1   2  183.18   17.70
   8  -1  -2   40.70    6.40
   8  -1  -2   46.20    7.80
   8  -1  -2   41.20    6.70
  -8   1   2   35.40    7.90
  -8   1   2   29.20    7.30
  -8   1   2   23.40    5.40
   7  -1  -2  463.65   28.00
   7  -1  -2  443.76   28.20
   7  -1  -2  472.55   29.10
  -7   1   2  403.36   29.70
  -7   1   2  401.56   29.20
   6  -1  -2   32.70    4.70
  -6   1   2   17.60    3.50
  -6   1   2   17.70    5.20
  -6   1   2   14.20    4.60
   5  -1  -2  876.91   49.90
   5  -1  -2  845.72   48.30
   5  -1  -2  839.32   49.50
   5  -1  -2  815.12   49.10
  -5   1   2  803.22   50.29
  -5   1   2  812.32   49.40
  -5   1   2  805.42   50.79
   4  -1  -2  193.88   14.10
   4  -1  -2  211.48   13.70
   4  -1  -2  200.08   14.50
  -4   1   2  271.37   16.10
  -4   1   2  271.57   15.70
   3  -1  -2  810.82   49.40
   3  -1  -2  878.51   49.80
   3  -1  -2  855.11   49.90
   3  -1  -2  845.42   49.30
  -3   1   2  815.82   50.09
  -3   1   2  883.51   50.69
  -3   1   2  835.72   50.09
   2  -1  -2  381.56   18.70
  -2   1   2  279.27   19.40
  -2   1   2  281.47   18.70
   1  -1  -2 2638.74  171.08
   1  -1  -2 2707.73  170.68
   1  -1  -2 2742.83  171.08
  -1   1   2 2990.20  172.48
  -1   1   2 3423.56  171.28
  -1   1   2 3295.47  172.78
   0  -1  -2 4227.98  255.77
   0  -1  -2 4551.04  257.47
   0  -1  -2 4341.57  257.27
   0  -1  -2 4497.45  256.97
   0   1   2 4561.24  255.97
   0   1   2 4517.15  258.67
   0   1   2 4553.44  257.07
   0   1   2 4298.77  258.77
  -1  -1  -2 2530.95  147.69
  -1  -1  -2 2578.94  146.99
   1   1   2 2557.84  148.19
   1   1   2 2550.44  147.09
   1   1   2 2532.85  146.89
   1   1   2 2613.34  146.89
   1   1   2 2545.75  146.89
   1   1   2 2437.96  147.19
   1   1   2 2572.54  146.99
  -2  -1  -2 2011.60  115.39
  -2  -1  -2 1981.70  115.49
  -2  -1  -2 2021.60  115.39
   2   1   2 2030.70  115.49
   2   1   2 1995.30  115.59
   2   1   2 1970.20  115.29
   2   1   2 1983.10  114.99
   2   1   2 1957.60  115.59
   2   1   2 1967.30  115.39
  -3  -1  -2  874.41   52.99
  -3  -1  -2  883.61   53.69
  -3  -1  -2  874.31   53.99
  -3  -1  -2  874.31   53.89
   3   1   2  948.41   54.09
   3   1   2  958.00   54.09
   3   1   2  945.51   53.79
   3   1   2  935.31   53.39
  -4  -1  -2 2329.67  132.29
  -4  -1  -2 2324.37  133.79
  -4  -1  -2 2339.27  133.59
  -4  -1  -2 2279.87  133.29
   4   1   2 2289.07  133.59
   4   1   2 2220.38  132.59
   4   1   2 2254.27  133.29
   4   1   2 2284.57  133.59
  -5  -1  -2  319.77   20.30
  -5  -1  -2  330.57   20.80
  -5  -1  -2  304.27   19.80
   5   1   2  295.97   19.90
   5   1   2  298.77   18.70
   5   1   2  300.47   20.30
   5   1   2  284.27   20.20
  -6  -1  -2  337.87   23.40
  -6  -1  -2  340.67   22.90
  -6  -1  -2  313.37   22.30
   6   1   2  362.26   22.80
   6   1   2  356.26   23.20
   6   1   2  343.77   23.20
  -7  -1  -2   70.19    9.80
  -7  -1  -2   74.99    8.50
  -7  -1  -2   76.49    9.00
   7   1   2   74.89    9.40
   7   1   2   68.59    9.90
   7   1   2   65.79    9.50
  -8  -1  -2  181.48   15.10
  -8  -1  -2  180.98   15.50
  -8  -1  -2  194.48   16.70
   8   1   2  177.88   15.80
   8   1   2  182.28   16.40
   8   1   2  179.38   15.90
  -9  -1  -2    6.30    6.20
  -9  -1  -2    4.10    5.20
  -9  -1  -2   10.30    6.10
   9   1   2    3.70    7.30
   9   1   2    8.90    6.40
   9   1   2    9.90    6.60
   9  -2  -2  138.99   13.50
   9  -2  -2  150.28   15.30
   9  -2  -2  135.79   14.30
  -9   2   2  155.48   15.50
  -9   2   2  147.39   14.30
  -9   2   2  132.49   14.80
   8  -2  -2   80.09    9.30
   8  -2  -2   77.99   10.80
   8  -2  -2   70.19    9.70
  -8   2   2   77.09   10.70
  -8   2   2   72.89    8.40
  -8   2   2   76.89   11.10
   7  -2  -2  248.48   18.10
   7  -2  -2  231.78   17.60
   7  -2  -2  239.88   17.00
  -7   2   2  255.07   16.90
  -7   2   2  236.28   18.60
  -7   2   2  252.77   19.30
   6  -2  -2   13.00    3.50
   6  -2  -2   15.30    4.40
   6  -2  -2   15.80    4.20
  -6   2   2   16.00    4.80
  -6   2   2   14.50    4.90
  -6   2   2   12.70    3.30
  -6   2   2   18.20    3.50
   5  -2  -2   78.29    7.40
   5  -2  -2   81.39    6.10
   5  -2  -2   81.29    6.50
   5  -2  -2   78.79    7.50
  -5   2   2   73.49    8.30
  -5   2   2   71.69    6.50
  -5   2   2   66.09    7.60
   4  -2  -2  399.96   24.90
   4  -2  -2  414.36   25.00
   4  -2  -2  418.96   24.40
   4  -2  -2  402.36   24.30
  -4   2   2  392.36   25.90
  -4   2   2  404.86   24.90
  -4   2   2  390.96   25.50
   3  -2  -2  547.65   32.20
   3  -2  -2  550.04   32.60
   3  -2  -2  545.05   32.50
   3  -2  -2  536.85   31.90
  -3   2   2  542.95   32.70
  -3   2   2  537.45   33.20
  -3   2   2  537.75   32.70
   2  -2  -2 1024.80   60.99
   2  -2  -2 1076.89   61.19
   2  -2  -2 1060.29   60.49
   2  -2  -2 1085.99   61.09
  -2   2   2 1037.30   61.49
  -2   2   2 1054.59   60.99
  -2   2   2  991.30   60.99
   1  -2  -2 1601.24   93.69
   1  -2  -2 1558.54   93.49
   1  -2  -2 1456.95   93.69
  -1   2   2 1731.83   93.99
  -1   2   2 1650.63   93.99
  -1   2   2 1657.83   93.79
  -1   2   2 1656.63   93.39
   0   2   2  161.98    9.80
   0   2   2  163.08    9.80
   0   2   2  163.38   10.30
   0   2   2  156.58   10.50
   0   2   2  155.88   10.20
   1   2   2  945.41   55.89
   1   2   2  945.41   55.89
   1   2   2  973.80   56.09
   1   2   2  980.60   56.19
   1   2   2  969.30   56.19
   1   2   2  938.71   56.29
   1   2   2  971.00   56.29
  -2  -2  -2  501.15   27.60
  -2  -2  -2  510.05   27.60
  -2  -2  -2  492.05   27.80
   2   2   2  445.26   27.80
   2   2   2  439.26   27.50
   2   2   2  432.46   27.80
   2   2   2  458.65   27.50
   2   2   2  445.86   27.50
   2   2   2  437.36   27.50
   2   2   2  438.76   27.60
  -3  -2  -2  317.17   21.10
  -3  -2  -2  304.07   20.90
  -3  -2  -2  296.27   20.40
   3   2   2  364.76   21.00
   3   2   2  346.97   20.60
   3   2   2  346.97   21.20
   3   2   2  364.86   20.60
   3   2   2  350.06   21.10
   3   2   2  348.57   21.30
  -4  -2  -2  587.84   36.60
  -4  -2  -2  587.54   35.70
  -4  -2  -2  589.84   36.80
   4   2   2  618.04   35.60
   4   2   2  596.44   36.70
   4   2   2  628.04   36.70
   4   2   2  600.34   36.70
  -5  -2  -2    3.70    3.00
  -5  -2  -2    4.70    2.10
  -5  -2  -2    1.70    2.60
  -5  -2  -2    3.70    3.00
   5   2   2   10.30    3.40
   5   2   2   11.20    2.30
   5   2   2   11.50    3.70
   5   2   2   11.20    3.90
  -6  -2  -2  195.58   14.70
  -6  -2  -2  182.78   14.70
  -6  -2  -2  175.48   13.80
   6   2   2  203.18   14.40
   6   2   2  187.58   14.70
   6   2   2  192.88   14.50
  -7  -2  -2  130.49   12.50
  -7  -2  -2  138.79   11.30
  -7  -2  -2  140.39   12.20
   7   2   2  120.39   12.30
   7   2   2  107.59   11.60
   7   2   2  113.59   11.80
  -8  -2  -2  242.58   19.00
  -8  -2  -2  225.88   18.30
  -8  -2  -2  235.88   20.00
   8   2   2  252.67   20.00
   8   2   2  256.37   19.10
   8   2   2  259.87   19.50
  -9  -2  -2   -2.70    5.10
  -9  -2  -2    5.10    6.40
  -9  -2  -2    2.20    4.90
   9   2   2    1.90    6.90
   9   2   2    7.30    6.60
   9  -3  -2  124.49   14.00
   9  -3  -2  117.89   12.90
  -9   3   2  104.29   14.40
  -9   3   2  106.39   13.50
   8  -3  -2   39.20    7.70
   8  -3  -2   45.50    7.60
  -8   3   2   44.60    8.10
  -8   3   2   37.80    8.30
   7  -3  -2  320.67   23.00
   7  -3  -2  325.27   22.90
   7  -3  -2  330.97   22.10
  -7   3   2  340.27   24.00
  -7   3   2  349.17   22.00
  -7   3   2  353.06   24.70
   6  -3  -2  164.88   12.40
   6  -3  -2  174.58   13.60
   6  -3  -2  178.48   13.70
  -6   3   2  171.38   12.60
  -6   3   2  173.28   14.30
  -6   3   2  192.98   12.60
  -6   3   2  179.58   14.90
   5  -3  -2  957.30   57.69
   5  -3  -2  910.81   58.19
   5  -3  -2  896.21   58.29
   5  -3  -2  941.61   57.59
  -5   3   2 1038.90   59.89
  -5   3   2 1004.50   59.09
  -5   3   2 1053.59   57.79
  -5   3   2 1024.90   57.99
   4  -3  -2  831.12   52.49
   4  -3  -2  833.82   52.79
   4  -3  -2  845.22   51.99
   4  -3  -2  884.31   52.39
  -4   3   2  956.60   53.19
  -4   3   2  941.01   52.09
  -4   3   2  921.41   52.69
  -4   3   2  884.11   53.69
   3  -3  -2 3650.13  220.48
   3  -3  -2 3784.62  220.38
   3  -3  -2 3688.73  219.68
   3  -3  -2 3713.43  220.28
  -3   3   2 3892.21  220.68
  -3   3   2 3963.20  220.58
  -3   3   2 3900.01  219.78
  -3   3   2 3923.21  221.18
   2  -3  -2  438.16   26.60
   2  -3  -2  460.15   26.60
   2  -3  -2  446.96   26.20
  -2   3   2  431.56   26.80
  -2   3   2  422.66   26.50
  -2   3   2  434.66   26.30
   1  -3  -2 4348.56  260.17
   1  -3  -2 4250.97  260.27
   1  -3  -2 4434.26  260.17
  -1   3   2 4493.55  260.77
  -1   3   2 4661.63  260.87
  -1   3   2 4934.91  262.97
  -1   3   2 4487.55  260.57
   0  -3  -2 1064.79   51.59
   0   3   2  852.51   51.59
   0   3   2  838.62   50.59
   0   3   2  843.52   50.99
   0   3   2  841.32   51.49
   0   3   2  812.32   51.29
  -1  -3  -2 1232.08   69.99
  -1  -3  -2 1170.18   69.79
  -1  -3  -2 1188.38   69.69
   1   3   2 1226.38   69.69
   1   3   2 1189.78   69.49
   1   3   2 1189.68   70.09
   1   3   2 1217.68   70.09
   1   3   2 1199.78   69.69
   1   3   2 1174.38   69.79
   1   3   2 1182.48   69.89
   2   3   2  350.86   21.60
   2   3   2  346.77   21.20
   2   3   2  363.36   21.30
   2   3   2  338.87   21.20
   2   3   2  343.87   21.30
   2   3   2  349.87   21.70
   2   3   2  343.57   21.60
  -3  -3  -2   38.90    4.40
  -3  -3  -2   37.90    4.80
  -3  -3  -2   34.90    4.30
   3   3   2   42.50    5.30
   3   3   2   42.00    4.70
   3   3   2   38.00    4.90
   3   3   2   43.80    4.70
   3   3   2   41.40    4.70
   3   3   2   40.70    4.60
   3   3   2   40.40    4.00
  -4  -3  -2  299.77   18.50
  -4  -3  -2  312.17   19.40
  -4  -3  -2  293.37   18.90
   4   3   2  286.67   18.80
   4   3   2  279.87   18.90
   4   3   2  284.07   18.80
   4   3   2  283.37   19.10
   4   3   2  283.37   17.90
  -5  -3  -2  217.18   14.20
  -5  -3  -2  210.88   14.50
  -5  -3  -2  214.28   13.00
   5   3   2  159.08   13.90
   5   3   2  169.58   13.60
   5   3   2  179.68   13.60
   5   3   2  173.38   14.00
  -6  -3  -2  966.70   60.89
  -6  -3  -2  976.80   61.09
   6   3   2 1034.70   61.09
   6   3   2 1046.70   60.59
   6   3   2  987.00   60.49
  -7  -3  -2   37.90    6.80
  -7  -3  -2   35.00    6.10
  -7  -3  -2   30.80    6.50
   7   3   2   29.90    6.00
   7   3   2   19.00    5.90
   7   3   2   25.30    6.70
  -8  -3  -2  258.57   21.60
  -8  -3  -2  260.77   20.40
  -8  -3  -2  274.27   21.30
   8   3   2  312.77   21.50
   8   3   2  294.37   22.30
  -9  -3  -2   35.10    7.50
  -9  -3  -2   26.00    7.40
  -9  -3  -2   24.80    7.90
   9   3   2   36.20    8.70
   9   3   2   28.70    8.50
   9  -4  -2  202.78   17.50
   9  -4  -2  198.28   17.70
  -9   4   2  206.58   18.80
  -9   4   2  172.18   17.80
   8  -4  -2   56.59    8.70
   8  -4  -2   54.39    8.40
  -8   4   2   52.39    9.40
  -8   4   2   45.10    8.60
   7  -4  -2  313.57   20.40
   7  -4  -2  287.67   20.30
  -7   4   2  257.67   21.30
  -7   4   2  263.27   20.80
   6  -4  -2  325.47   20.40
   6  -4  -2  311.47   21.50
   6  -4  -2  321.77   21.10
   6  -4  -2  336.87   22.00
  -6   4   2  300.57   22.40
  -6   4   2  305.97   21.80
  -6   4   2  288.47   20.20
   5  -4  -2  185.58   14.90
   5  -4  -2  182.28   14.40
   5  -4  -2  185.98   13.90
   5  -4  -2  187.98   14.40
  -5   4   2  244.38   14.20
  -5   4   2  244.28   14.70
  -5   4   2  244.28   15.70
  -5   4   2  230.28   16.30
   4  -4  -2  726.83   40.50
   4  -4  -2  681.03   40.20
   4  -4  -2  670.53   40.70
  -4   4   2  617.14   39.60
  -4   4   2  677.33   40.70
  -4   4   2  678.43   41.50
  -4   4   2  639.84   40.30
   3  -4  -2  401.36   21.40
   3  -4  -2  395.46   20.70
  -3   4   2  298.47   20.90
  -3   4   2  301.37   21.50
  -3   4   2  300.07   20.70
  -3   4   2  307.67   19.70
  -2   4   2   15.30    3.10
  -2   4   2   19.00    3.60
  -2   4   2   15.30    2.60
  -1   4   2   70.99    6.50
  -1   4   2   80.39    6.50
  -1   4   2   70.69    5.50
  -1   4   2   68.09    6.00
   0   4   2  138.99   10.10
   0   4   2  140.59    9.90
   0   4   2  146.59   10.30
   0   4   2  141.79    8.80
   0   4   2  148.49    9.50
   1   4   2  251.97   15.70
   1   4   2  238.18   14.90
   1   4   2  235.88   14.90
   1   4   2  245.48   15.60
   1   4   2  236.48   14.50
   1   4   2  229.68   15.10
   1   4   2  225.68   14.80
   2   4   2   59.19    5.40
   2   4   2   58.19    5.90
   2   4   2   62.09    5.20
   2   4   2   66.09    5.20
   2   4   2   59.29    5.40
   2   4   2   53.89    5.50
   2   4   2   64.59    6.10
  -3  -4  -2  123.29    8.60
  -3  -4  -2  128.59    8.40
  -3  -4  -2  127.19    8.90
   3   4   2   91.69    8.30
   3   4   2  103.09    7.90
   3   4   2   93.59    8.80
   3   4   2   95.79    8.20
   3   4   2  100.39    8.40
   3   4   2   91.69    7.90
   3   4   2  100.19    7.80
  -4  -4  -2  185.48   13.90
  -4  -4  -2  198.08   13.30
  -4  -4  -2  198.68   14.80
  -4  -4  -2  188.98   14.10
   4   4   2  223.08   13.50
   4   4   2  212.78   14.50
   4   4   2  221.38   14.00
   4   4   2  209.28   14.60
   4   4   2  212.78   14.20
  -5  -4  -2   81.69    7.80
  -5  -4  -2   80.29    8.50
  -5  -4  -2   77.99    7.30
   5   4   2   66.59    7.60
   5   4   2   67.59    8.20
   5   4   2   69.99    8.20
   5   4   2   76.49    8.00
  -6  -4  -2  111.19   10.40
  -6  -4  -2   97.39   10.30
   6   4   2  103.99   10.30
   6   4   2  102.29    9.70
   6   4   2   93.89   10.70
   6   4   2   93.59   10.30
  -7  -4  -2   35.80    6.40
  -7  -4  -2   41.00    7.30
  -7  -4  -2   39.80    7.20
   7   4   2   24.40    6.80
   7   4   2   24.60    6.40
  -8  -4  -2  152.08   15.00
  -8  -4  -2  148.99   14.00
  -8  -4  -2  157.48   15.50
   8   4   2  168.08   15.90
   8   4   2  170.28   15.30
  -9  -4  -2   34.00    8.20
  -9  -4  -2   38.40    9.00
  -9  -4  -2   33.10    7.50
   9   4   2   38.20    8.70
   9   4   2   42.10    9.40
   9  -5  -2   67.29   10.20
   9  -5  -2   57.29    9.90
  -9   5   2   56.19   10.30
  -9   5   2   56.29   10.40
   8  -5  -2   10.30    6.30
   8  -5  -2   14.60    6.00
  -8   5   2    3.90    5.90
  -8   5   2    3.40    5.70
   7  -5  -2  206.88   17.40
   7  -5  -2  225.38   17.20
  -7   5   2  229.98   18.10
  -7   5   2  244.98   19.10
   6  -5  -2   75.99    8.30
   6  -5  -2   74.39    7.90
   6  -5  -2   71.29    9.10
  -6   5   2   63.39    9.00
   5  -5  -2  389.16   25.90
   5  -5  -2  390.16   25.40
   5  -5  -2  400.86   25.10
  -5   5   2  402.86   26.90
  -5   5   2  415.46   26.00
  -5   5   2  383.26   25.10
   4  -5  -2  372.86   21.70
   4  -5  -2  386.56   22.50
   4  -5  -2  403.36   22.90
  -4   5   2  302.87   23.10
  -4   5   2  321.97   22.20
  -4   5   2  299.57   21.90
  -4   5   2  337.97   21.20
   3  -5  -2 1205.58   71.49
   3  -5  -2 1222.78   72.39
   3  -5  -2 1198.78   72.39
  -3   5   2 1265.57   73.19
  -3   5   2 1234.58   72.09
  -3   5   2 1220.88   72.49
   2  -5  -2 1117.09   71.49
   2  -5  -2 1173.08   70.49
   2  -5  -2 1150.48   71.29
  -2   5   2 1276.37   71.19
  -2   5   2 1276.77   72.09
  -2   5   2 1282.07   71.89
   1  -5  -2 1676.73   89.99
   1  -5  -2 1577.74   91.09
   1  -5  -2 1637.94   90.79
  -1   5   2 1482.15   90.49
  -1   5   2 1478.55   91.29
  -1   5   2 1467.85   91.29
   0  -5  -2 2076.89  121.89
   0  -5  -2 2039.40  122.99
   0  -5  -2 2048.59  122.49
   0   5   2 2141.69  123.29
   0   5   2 2141.79  123.29
   0   5   2 2087.79  122.99
   0   5   2 2214.08  122.59
   0   5   2 2133.39  121.79
  -1  -5  -2 1407.66   85.69
  -1  -5  -2 1403.06   84.79
  -1  -5  -2 1392.76   85.29
  -1  -5  -2 1466.95   84.69
   1   5   2 1441.36   84.49
   1   5   2 1470.35   85.79
   1   5   2 1507.75   85.09
   1   5   2 1521.95   84.69
   1   5   2 1446.76   85.29
   1   5   2 1492.75   85.79
  -2  -5  -2 2504.85  157.18
  -2  -5  -2 2561.04  158.08
  -2  -5  -2 2541.85  157.68
   2   5   2 2767.82  157.28
   2   5   2 2822.02  158.48
   2   5   2 2793.22  157.68
   2   5   2 2789.62  157.78
   2   5   2 2785.52  157.68
   2   5   2 2783.42  158.38
   2   5   2 2825.82  157.38
  -3  -5  -2  564.04   37.80
  -3  -5  -2  594.64   37.20
  -3  -5  -2  589.84   38.10
  -3  -5  -2  606.94   36.90
   3   5   2  644.14   37.00
   3   5   2  649.34   37.70
   3   5   2  637.74   38.00
   3   5   2  639.84   37.30
   3   5   2  628.94   37.30
   3   5   2  628.74   37.70
   3   5   2  618.44   38.40
  -4  -5  -2 1006.60   60.09
  -4  -5  -2  950.90   59.99
  -4  -5  -2 1015.60   59.29
  -4  -5  -2  995.10   60.69
   4   5   2 1023.50   60.19
   4   5   2 1012.00   60.89
   4   5   2  964.40   59.99
   4   5   2  985.60   59.79
   4   5   2 1058.09   59.39
   4   5   2 1019.00   59.29
  -5  -5  -2   62.49    7.60
  -5  -5  -2   54.29    7.40
  -5  -5  -2   63.59    8.30
   5   5   2   77.59    8.60
   5   5   2   79.79    7.50
   5   5   2   80.99    8.70
   5   5   2   84.09    8.40
  -6  -5  -2  428.76   27.60
  -6  -5  -2  432.36   26.90
   6   5   2  374.36   26.80
   6   5   2  369.26   26.80
   6   5   2  387.86   26.50
  -7  -5  -2   25.10    6.30
  -7  -5  -2   19.10    6.30
   7   5   2   22.50    6.90
   7   5   2   38.80    7.50
   7   5   2   28.70    6.70
  -8  -5  -2  126.49   13.90
  -8  -5  -2  144.49   14.10
  -8  -5  -2  138.09   13.20
   8   5   2  105.49   14.10
   8   5   2  110.19   13.60
   8  -6  -2   37.10    8.10
   8  -6  -2   42.50    7.70
  -8   6   2   21.30    7.70
  -8   6   2   21.60    7.40
   7  -6  -2   89.99   10.20
   7  -6  -2   79.59   11.00
  -7   6   2  112.99   11.80
  -7   6   2   90.99   12.10
   6  -6  -2  117.19   11.50
   6  -6  -2  126.19   10.50
   6  -6  -2  118.09   10.70
  -6   6   2  102.29   11.30
  -6   6   2  101.19   12.30
   5  -6  -2  175.78   15.30
   5  -6  -2  179.38   14.90
   5  -6  -2  172.48   13.90
  -5   6   2  225.88   15.40
  -5   6   2  230.78   16.80
  -5   6   2  240.98   15.00
   4  -6  -2  425.06   25.60
   4  -6  -2  406.36   24.20
   4  -6  -2  417.56   25.50
  -4   6   2  348.17   24.80
  -4   6   2  359.96   25.00
   3  -6  -2  240.68   15.90
   3  -6  -2  237.28   14.40
   3  -6  -2  226.58   15.90
  -3   6   2  210.78   15.20
  -3   6   2  221.28   15.80
  -3   6   2  222.48   16.50
   2  -6  -2   77.09    5.10
   2  -6  -2   77.39    6.60
   2  -6  -2   72.69    7.10
  -2   6   2   47.80    6.70
  -2   6   2   53.59    6.00
  -2   6   2   45.00    7.00
   1  -6  -2  179.38   10.20
   1  -6  -2  155.68   11.80
   1  -6  -2  166.68   11.40
  -1   6   2  161.68   12.30
  -1   6   2  159.08   11.30
  -1   6   2  154.18   12.30
  -1   6   2  155.68    9.80
   0  -6  -2  288.27   17.20
   0  -6  -2  294.57   16.40
   0   6   2  243.78   16.40
   0   6   2  231.28   15.30
   0   6   2  239.28   17.30
   0   6   2  227.48   17.10
  -1  -6  -2  773.42   40.40
  -1  -6  -2  732.53   41.50
  -1  -6  -2  709.73   40.70
  -1  -6  -2  726.53   42.00
   1   6   2  630.74   41.80
   1   6   2  635.64   40.30
   1   6   2  654.43   41.10
   1   6   2  631.14   41.80
   1   6   2  654.63   40.20
   2   6   2   72.19    8.00
   2   6   2   74.29    6.20
   2   6   2   75.09    7.10
   2   6   2   74.29    6.60
   2   6   2   74.19    7.70
  -3  -6  -2  312.77   17.30
  -3  -6  -2  310.37   19.20
  -3  -6  -2  309.47   18.90
  -3  -6  -2  302.07   17.90
   3   6   2  241.18   18.50
   3   6   2  257.77   17.10
   3   6   2  246.68   18.10
   3   6   2  243.78   17.80
   3   6   2  245.08   17.50
   3   6   2  239.78   18.80
  -4  -6  -2  114.99    9.90
  -4  -6  -2  121.49   10.40
  -4  -6  -2  124.99   11.00
  -4  -6  -2  122.99    8.90
  -4  -6  -2  118.69    9.30
   4   6   2  113.79   11.40
   4   6   2  115.19   10.30
   4   6   2  118.19   10.00
   4   6   2  122.59    9.20
   4   6   2  119.59   10.60
  -5  -6  -2  194.18   14.10
  -5  -6  -2  179.28   13.00
  -5  -6  -2  180.38   13.10
   5   6   2  131.49   12.80
   5   6   2  145.29   13.10
   5   6   2  124.09   12.40
  -6  -6  -2  237.88   17.30
  -6  -6  -2  246.68   18.30
   6   6   2  214.28   17.00
   6   6   2  198.78   17.40
   6   6   2  219.68   17.60
  -7  -6  -2   29.80    7.20
  -7  -6  -2   27.20    6.60
   7   6   2   19.00    7.00
   7   6   2   19.30    6.70
   7   6   2   16.20    6.20
  -8  -6  -2   88.09   11.40
  -8  -6  -2   79.69   12.30
  -8  -6  -2   86.39   12.40
   8   6   2  101.49   13.50
   8   6   2  103.09   12.80
   8  -7  -2   41.30    8.70
  -8   7   2   32.10    8.00
  -8   7   2   31.50    8.90
   7  -7  -2  285.97   21.60
  -7   7   2  278.77   22.80
  -7   7   2  281.87   21.40
   6  -7  -2   12.40    5.50
   6  -7  -2   12.50    5.20
  -6   7   2   14.00    5.30
  -6   7   2   10.80    6.00
   5  -7  -2  706.93   44.10
   5  -7  -2  690.13   43.80
  -5   7   2  688.83   43.70
  -5   7   2  731.33   43.50
  -5   7   2  699.43   45.20
   4  -7  -2   29.40    5.60
   4  -7  -2   25.50    5.30
  -4   7   2   29.80    6.30
  -4   7   2   33.30    5.50
  -4   7   2   41.30    5.70
   3  -7  -2  634.74   40.00
   3  -7  -2  605.74   40.20
  -3   7   2  700.03   41.40
  -3   7   2  640.54   39.70
  -3   7   2  674.43   40.40
  -2   7   2   93.49    9.10
  -2   7   2   90.79    9.50
  -2   7   2   94.99    8.10
   1  -7  -2  357.36   26.60
   1  -7  -2  358.96   25.90
  -1   7   2  466.95   26.40
  -1   7   2  450.15   27.70
  -1   7   2  480.35   27.70
   0  -7  -2  449.46   27.20
   0  -7  -2  433.86   28.50
   0  -7  -2  468.75   28.20
   0   7   2  440.26   27.50
   0   7   2  432.46   26.30
   0   7   2  451.65   28.60
   0   7   2  418.96   28.50
  -1  -7  -2  301.97   19.60
  -1  -7  -2  304.97   18.00
  -1  -7  -2  297.47   20.20
  -1  -7  -2  294.47   18.60
   1   7   2  280.17   19.30
   1   7   2  289.77   20.40
   1   7   2  292.07   18.30
   1   7   2  290.17   20.40
  -2  -7  -2  400.06   22.90
  -2  -7  -2  414.76   25.00
  -2  -7  -2  394.16   23.90
  -2  -7  -2  414.06   23.00
   2   7   2  328.97   23.60
   2   7   2  350.76   24.80
   2   7   2  345.17   22.80
   2   7   2  335.27   24.60
   2   7   2  338.97   22.80
  -3  -7  -2  213.48   13.40
  -3  -7  -2  195.48   15.20
  -3  -7  -2  203.68   14.10
  -3  -7  -2  210.98   15.70
   3   7   2  192.28   13.90
   3   7   2  182.38   15.20
   3   7   2  195.28   14.10
   3   7   2  203.68   15.90
   3   7   2  196.98   14.70
  -4  -7  -2  474.05   28.50
  -4  -7  -2  413.16   29.20
  -4  -7  -2  452.55   30.00
   4   7   2  470.35   30.60
   4   7   2  449.86   28.60
   4   7   2  434.46   29.20
   4   7   2  457.55   29.00
  -5  -7  -2   38.70    6.40
  -5  -7  -2   39.50    7.30
  -5  -7  -2   33.80    6.10
   5   7   2   31.90    6.10
   5   7   2   25.30    5.60
   5   7   2   25.80    6.10
   5   7   2   25.00    6.90
  -6  -7  -2  178.18   16.30
  -6  -7  -2  194.18   17.50
   6   7   2  208.48   17.30
   6   7   2  252.87   17.20
   6   7   2  227.28   17.20
  -7  -7  -2   22.50    7.00
  -7  -7  -2   17.00    6.30
   7   7   2   12.90    6.50
   7   7   2    7.60    6.00
   7   7   2   13.30    6.90
  -8  -7  -2   41.30    8.80
  -8  -7  -2   41.70    9.30
  -8  -7  -2   39.00    8.10
   8   7   2   55.39    9.30
   8   7   2   48.70    9.70
   8   7   2   53.49    9.80
   7  -8  -2  154.78   15.40
  -7   8   2  156.58   15.00
  -7   8   2  150.08   16.50
   6  -8  -2  127.79   12.50
   6  -8  -2  114.39   12.60
  -6   8   2  109.09   11.80
  -6   8   2  115.29   13.90
   5  -8  -2   63.49    9.20
   5  -8  -2   64.19    8.60
  -5   8   2   59.59    8.40
  -5   8   2   56.29    9.30
  -5   8   2   55.69    8.40
   4  -8  -2  140.99   11.60
   4  -8  -2  145.69   12.10
  -4   8   2  108.29   11.20
  -4   8   2  101.59   12.30
  -4   8   2  105.29   10.50
   3  -8  -2  183.18   13.80
   3  -8  -2  152.68   13.60
  -3   8   2  189.58   15.20
  -3   8   2  177.28   14.10
  -3   8   2  167.28   13.10
   2  -8  -2  400.66   24.00
   2  -8  -2  387.36   24.90
   2  -8  -2  393.86   24.80
  -2   8   2  350.16   25.20
  -2   8   2  327.27   23.60
  -2   8   2  345.87   24.70
   1  -8  -2   15.10    4.70
   1  -8  -2   19.30    4.90
   1  -8  -2   15.00    3.80
  -1   8   2   27.40    5.60
   0  -8  -2  122.59    8.90
   0  -8  -2  123.99   10.30
   0   8   2   94.79   10.40
   0   8   2   98.79    9.30
   0   8   2  101.19   10.70
  -1  -8  -2    6.20    3.60
  -1  -8  -2    6.80    2.80
  -1  -8  -2    5.30    4.00
   1   8   2    8.60    2.60
   1   8   2    6.90    3.70
   1   8   2    6.70    4.30
   1   8   2    6.70    4.50
  -2  -8  -2   11.70    4.00
  -2  -8  -2   13.90    3.20
  -2  -8  -2   13.30    4.90
   2   8   2    6.60    4.70
   2   8   2   10.50    4.20
   2   8   2   11.30    5.10
   2   8   2    6.80    2.90
  -3  -8  -2    4.60    3.60
  -3  -8  -2    3.30    4.20
  -3  -8  -2    5.70    4.30
   3   8   2   10.00    3.60
   3   8   2    5.90    4.20
   3   8   2    7.70    5.00
   3   8   2    7.40    5.00
  -4  -8  -2   65.49    8.90
  -4  -8  -2   59.49    7.50
  -4  -8  -2   60.69    8.90
   4   8   2   68.59    9.30
   4   8   2   65.49    8.00
   4   8   2   72.89   10.60
  -5  -8  -2  115.39   11.50
  -5  -8  -2  146.89   12.10
  -5  -8  -2  131.19   12.50
   5   8   2   99.39   13.30
   5   8   2   89.19   10.80
   5   8   2   98.09   11.80
  -6  -8  -2   64.99    9.00
  -6  -8  -2   76.39   12.70
  -6  -8  -2   71.99   10.90
   6   8   2   60.49    8.70
   6   8   2   61.79    9.50
  -7  -8  -2  161.38   15.60
  -7  -8  -2  174.48   16.80
   7   8   2  158.88   16.00
   7   8   2  160.48   16.70
   7  -9  -2   10.90    6.90
  -7   9   2   13.30    6.30
  -7   9   2   11.60    7.30
   6  -9  -2   29.30    7.30
   6  -9  -2   25.40    7.10
  -6   9   2   19.40    7.60
  -6   9   2   21.80    6.50
   5  -9  -2   46.10    7.90
   5  -9  -2   49.00    7.60
   5  -9  -2   48.50    8.30
  -5   9   2   50.49    9.40
  -5   9   2   60.99    8.90
  -5   9   2   50.99    7.60
   4  -9  -2  136.99   13.30
   4  -9  -2  150.68   14.00
   4  -9  -2  146.49   13.40
  -4   9   2  161.88   15.20
  -4   9   2  156.28   13.70
  -4   9   2  150.28   13.00
   3  -9  -2  253.47   19.50
   3  -9  -2  246.38   19.30
   3  -9  -2  252.27   18.70
  -3   9   2  256.27   18.50
  -3   9   2  292.17   20.90
  -3   9   2  281.57   19.80
   2  -9  -2  236.18   18.50
   2  -9  -2  243.28   18.80
   2  -9  -2  244.78   17.70
  -2   9   2  245.28   17.70
  -2   9   2  284.27   20.20
  -2   9   2  276.87   19.50
   1  -9  -2  405.76   28.40
   1  -9  -2  396.46   28.60
   1  -9  -2  408.56   27.20
  -1   9   2  459.45   29.20
  -1   9   2  444.86   27.80
  -1   9   2  467.35   29.60
   0  -9  -2  602.74   38.40
   0  -9  -2  577.74   38.90
   0  -9  -2  610.04   37.20
   0   9   2  602.74   37.80
   0   9   2  625.54   39.20
   0   9   2  625.24   39.40
  -1  -9  -2  183.48   13.00
  -1  -9  -2  174.18   14.40
  -1  -9  -2  186.28   15.50
   1   9   2  186.08   15.90
   1   9   2  192.08   14.40
   1   9   2  187.88   15.70
  -2  -9  -2  343.67   24.60
  -2  -9  -2  375.16   26.00
   2   9   2  371.96   26.20
   2   9   2  384.46   24.90
   2   9   2  381.56   26.50
  -3  -9  -2   37.60    7.50
  -3  -9  -2   36.60    6.20
  -3  -9  -2   30.80    7.00
   3   9   2   50.69    8.40
   3   9   2   50.39    6.70
   3   9   2   48.00    8.20
   3   9   2   52.79    7.50
  -4  -9  -2  142.19   14.20
  -4  -9  -2  144.19   13.20
  -4  -9  -2  139.19   14.40
   4   9   2  184.58   16.40
   4   9   2  170.38   13.20
   4   9   2  186.38   14.80
  -5  -9  -2   34.30    7.80
  -5  -9  -2   38.00    7.10
  -5  -9  -2   37.50    7.30
   5   9   2   19.40    6.60
   5   9   2   29.50    6.40
   5   9   2   26.10    8.20
  -6  -9  -2  177.88   16.30
  -6  -9  -2  171.48   17.40
  -6  -9  -2  171.78   17.00
   6   9   2  206.68   17.80
   6   9   2  210.68   16.60
   6 -10  -2   26.50    7.60
   6 -10  -2   22.90    7.60
  -6  10   2   25.80    8.60
  -6  10   2   24.20    6.80
   5 -10  -2   13.20    6.30
   5 -10  -2   20.40    7.00
  -5  10   2   37.50    7.10
  -5  10   2   39.50    9.20
   4 -10  -2   15.90    5.80
   4 -10  -2    9.90    5.70
   4 -10  -2   11.30    6.30
  -4  10   2   12.30    6.00
  -4  10   2   13.80    5.20
  -4  10   2   11.00    6.70
   3 -10  -2   77.69   10.40
   3 -10  -2   80.39    9.30
   3 -10  -2   69.19   10.10
  -3  10   2   54.19    9.60
  -3  10   2   45.90    7.40
  -3  10   2   62.39    9.40
   2 -10  -2   57.69    8.00
   2 -10  -2   55.99    8.30
   2 -10  -2   60.49    8.50
  -2  10   2   34.70    6.50
  -2  10   2   38.70    8.40
  -2  10   2   39.10    7.80
   1 -10  -2  119.49   10.00
   1 -10  -2  126.19   11.80
   1 -10  -2  126.99   12.20
  -1  10   2   86.29   12.10
  -1  10   2   90.49   10.30
  -1  10   2   88.99   11.60
   0 -10  -2   44.40    6.40
   0 -10  -2   35.40    7.20
   0 -10  -2   29.80    6.40
   0  10   2   42.50    8.30
   0  10   2   56.29    9.10
   0  10   2   44.60    6.70
  -1 -10  -2  360.26   24.00
  -1 -10  -2  346.87   22.70
   1  10   2  286.87   23.40
   1  10   2  296.37   22.00
   1  10   2  291.87   23.50
  -2 -10  -2   75.19   10.70
  -2 -10  -2   81.29    9.30
   2  10   2   56.49    9.60
   2  10   2   64.89    9.40
   2  10   2   68.39   10.40
  -3 -10  -2  194.08   15.10
  -3 -10  -2  205.48   16.70
  -3 -10  -2  186.28   16.70
   3  10   2  166.98   17.00
   3  10   2  165.88   15.50
  -4 -10  -2  118.89   13.30
  -4 -10  -2  117.49   13.30
   4  10   2  120.49   13.30
   4  10   2  124.79   15.00
  -5 -10  -2   69.99   10.60
  -5 -10  -2   68.99   10.10
  -5 -10  -2   67.49    9.40
   5  10   2   51.69    9.20
   5  10   2   46.10    8.00
   5  10   2   46.30   10.40
   5 -11  -2  113.09   14.30
   5 -11  -2  119.39   13.30
  -5  11   2  117.59   15.50
  -5  11   2  124.09   12.90
   4 -11  -2   93.49   12.00
   4 -11  -2   91.09   11.30
   4 -11  -2   86.49   12.20
  -4  11   2   77.49   12.00
  -4  11   2   74.89   10.40
  -4  11   2   74.09   10.60
   3 -11  -2  230.38   19.40
   3 -11  -2  242.98   18.40
   3 -11  -2  227.58   19.60
  -3  11   2  236.68   20.90
  -3  11   2  254.57   19.60
  -3  11   2  227.68   18.20
   2 -11  -2   92.99   10.40
   2 -11  -2  100.79   12.30
   2 -11  -2  101.09   12.50
  -2  11   2  112.09   13.80
  -2  11   2  103.39   12.80
  -2  11   2  103.59   11.10
   1 -11  -2  107.69   10.10
   1 -11  -2   98.39   12.30
   1 -11  -2  110.89   12.00
  -1  11   2   77.49   10.30
  -1  11   2   85.09   12.60
  -1  11   2   90.09   13.00
   0 -11  -2   28.90    7.10
   0  11   2   50.99    9.30
   0  11   2   43.90    9.10
   0  11   2   46.10    7.30
  -1 -11  -2   55.19    9.70
  -1 -11  -2   60.29    9.60
   1  11   2   63.69   10.50
   1  11   2   61.39    8.60
   1  11   2   71.59   10.60
  -2 -11  -2  188.28   17.70
  -2 -11  -2  179.28   16.30
   2  11   2  205.98   18.50
   2  11   2  221.98   19.00
   2  11   2  214.58   16.90
  -3 -11  -2    6.80    5.00
  -3 -11  -2    3.90    5.80
  -3 -11  -2    6.40    6.30
   3  11   2    4.60    5.80
   3  11   2    8.00    6.90
  -4 -11  -2   85.89   12.70
  -4 -11  -2   86.19   12.80
   4  11   2   95.49   14.60
   4  11   2  111.99   13.50
   3 -12  -2   15.20    6.20
   3 -12  -2   12.20    6.80
   3 -12  -2   15.70    7.20
  -3  12   2   27.70    8.00
  -3  12   2   30.60    9.10
  -3  12   2   29.70    6.90
   2 -12  -2  103.39   13.20
   2 -12  -2  114.79   13.60
  -2  12   2  100.09   13.90
  -2  12   2   96.69   12.10
  -2  12   2  107.79   14.90
   1 -12  -2   14.10    6.60
   1 -12  -2   16.70    7.10
  -1  12   2   12.60    7.30
  -1  12   2   16.80    6.00
  -1  12   2   13.60    7.90
   0 -12  -2   77.99   11.40
   0 -12  -2   72.79   11.10
   0  12   2   76.29   10.90
   0  12   2   94.79   13.90
   0  12   2   99.09   13.40
  -1 -12  -2    7.30    6.50
  -1 -12  -2    1.40    5.30
   1  12   2    4.30    6.90
   1  12   2    1.00    6.30
   1  12   2    3.20    5.50
  -2 -12  -2   13.70    6.80
  -2 -12  -2    9.50    5.90
   2  12   2    7.10    7.20
   2  12   2   -0.40    5.60
  -3 -12  -2   26.10    8.20
  -3 -12  -2   21.70    6.50
  -3 -12  -2   21.40    7.90
   3  12   2   18.00    8.40
   3  12   2   12.30    6.90
   3  12  -3   36.50    8.20
   3  12  -3   36.40    9.80
  -3 -12   3   24.40    8.00
  -3 -12   3   26.70    8.60
   2  12  -3   87.29   13.20
   2  12  -3   94.79   12.30
  -2 -12   3  100.19   13.50
  -2 -12   3   97.99   11.80
  -2 -12   3   89.69   13.30
   1  12  -3  140.49   16.20
   1  12  -3  138.79   14.50
  -1 -12   3  148.29   15.40
  -1 -12   3  146.59   14.30
  -1 -12   3  138.29   15.90
   0  12  -3   56.79   10.30
   0  12  -3   59.09    9.00
   0 -12   3   43.10    8.80
   0 -12   3   56.19    9.20
  -1  12  -3  148.59   15.00
  -1  12  -3  162.88   16.60
   1 -12   3  145.49   15.40
   1 -12   3  139.89   15.20
  -2  12  -3   99.49   12.50
  -2  12  -3  103.89   13.70
   2 -12   3   84.99   12.20
   2 -12   3   93.19   13.10
   5  11  -3   92.29   11.40
   5  11  -3   86.59   12.50
   4  11  -3    8.20    6.00
   4  11  -3    7.90    7.60
   4  11  -3   19.20    5.80
  -4 -11   3   12.10    7.40
  -4 -11   3   13.10    6.90
   3  11  -3  178.68   17.80
   3  11  -3  173.18   13.80
   3  11  -3  159.38   15.30
  -3 -11   3  169.58   14.70
  -3 -11   3  151.38   16.60
  -3 -11   3  170.18   16.30
   2  11  -3   52.59   10.10
   2  11  -3   58.89    8.80
  -2 -11   3   39.20    7.50
  -2 -11   3   35.70    8.60
  -2 -11   3   54.29    9.50
   1  11  -3  368.66   26.80
   1  11  -3  333.27   24.80
  -1 -11   3  349.67   24.90
  -1 -11   3  350.26   25.80
   0  11  -3  196.88   16.10
   0  11  -3  201.68   17.70
   0 -11   3  174.58   16.50
   0 -11   3  181.08   16.10
  -1  11  -3  217.08   18.50
  -1  11  -3  244.28   20.20
   1 -11   3  242.58   19.00
   1 -11   3  238.98   19.20
  -2  11  -3  186.98   16.80
  -2  11  -3  157.68   15.00
   2 -11   3  168.08   15.80
   2 -11   3  168.98   15.10
  -3  11  -3   96.59   12.00
  -3  11  -3   91.59   11.90
   3 -11   3   71.99   11.40
   3 -11   3   74.19   13.90
  -4  11  -3   32.90    8.10
  -4  11  -3   36.20    8.20
   4 -11   3   36.40    8.90
   4 -11   3   44.40    8.00
   6  10  -3  257.57   20.70
   6  10  -3  246.68   19.50
  -6 -10   3  215.18   21.70
  -6 -10   3  253.37   21.60
   5  10  -3   60.69    9.70
   5  10  -3   48.90   10.90
   5  10  -3   57.09    8.30
  -5 -10   3   57.89    9.70
  -5 -10   3   52.69   10.40
   4  10  -3  507.25   34.40
   4  10  -3  492.65   30.90
   4  10  -3  464.95   31.70
  -4 -10   3  445.56   32.40
  -4 -10   3  441.96   33.40
   3  10  -3   98.19    9.90
   3  10  -3   97.09   11.30
   3  10  -3   95.09   12.90
  -3 -10   3   90.39   10.10
  -3 -10   3   97.59   11.90
  -3 -10   3   98.99   12.40
   2  10  -3  495.25   30.90
   2  10  -3  497.95   32.60
   2  10  -3  504.55   29.60
  -2 -10   3  401.56   31.50
  -2 -10   3  431.26   30.10
  -2 -10   3  421.56   31.20
   1  10  -3  179.08   12.60
   1  10  -3  162.58   15.40
   1  10  -3  167.08   14.10
  -1 -10   3  148.59   13.70
  -1 -10   3  160.58   14.80
   0 -10   3   63.99    9.20
   0 -10   3   60.19    9.40
  -1  10  -3  152.58   13.90
  -1  10  -3  164.48   15.00
   1 -10   3  165.18   14.60
   1 -10   3  154.78   13.90
  -2  10  -3    2.70    5.00
  -2  10  -3    3.70    4.80
   2 -10   3   15.00    4.90
   2 -10   3   13.90    5.20
   2 -10   3   14.80    5.90
  -3  10  -3   43.50    7.70
  -3  10  -3   53.29    8.80
   3 -10   3   49.30    8.50
   3 -10   3   45.80    7.30
   3 -10   3   51.89    7.30
  -4  10  -3  145.69   15.00
  -4  10  -3  133.79   15.20
   4 -10   3  173.08   16.10
   4 -10   3  199.18   15.20
  -5  10  -3   85.29   11.70
  -5  10  -3   86.59   12.10
   5 -10   3   92.59   11.80
   5 -10   3   73.79   11.30
   7   9  -3   28.20    7.50
   7   9  -3   24.30    8.10
  -7  -9   3   43.70    8.30
  -7  -9   3   28.10    8.80
  -7  -9   3   39.20    9.80
   6   9  -3  105.39   12.40
   6   9  -3   88.49   11.40
  -6  -9   3   78.99   12.50
  -6  -9   3   77.69   12.30
   5   9  -3   54.89    8.10
   5   9  -3   56.79    9.10
  -5  -9   3   69.89   10.70
  -5  -9   3   86.59   11.20
   4   9  -3   63.29   10.10
   4   9  -3   70.99    9.30
   4   9  -3   59.19    8.20
  -4  -9   3   53.99    8.60
  -4  -9   3   44.50    8.80
   3   9  -3  124.39   11.90
   3   9  -3  123.39   13.00
   3   9  -3  140.89   14.80
  -3  -9   3  173.88   14.50
  -3  -9   3  179.58   12.90
  -3  -9   3  172.48   14.90
   2   9  -3  114.99   12.50
   2   9  -3  119.59    9.90
   2   9  -3  103.49   10.80
  -2  -9   3  114.59   12.30
  -2  -9   3  117.49   11.60
  -2  -9   3  108.29   10.30
   1   9  -3   83.29    9.20
   1   9  -3   90.89   10.70
   1   9  -3   81.19    8.00
  -1  -9   3   89.19   10.20
  -1  -9   3   94.19    9.40
   0   9  -3   73.99    8.50
   0   9  -3   65.09    6.50
   0   9  -3   70.29    9.20
   0  -9   3   54.89    7.90
   0  -9   3   44.30    7.20
  -1   9  -3  308.37   21.50
  -1   9  -3  338.37   22.80
  -1   9  -3  322.37   20.00
   1  -9   3  279.47   21.40
   1  -9   3  312.17   21.90
   1  -9   3  300.07   20.10
  -2   9  -3  227.38   17.30
  -2   9  -3  207.58   16.20
   2  -9   3  205.28   16.70
   2  -9   3  200.88   15.10
   2  -9   3  211.98   16.00
  -3   9  -3  262.07   18.90
  -3   9  -3  253.17   18.60
   3  -9   3  233.38   17.60
   3  -9   3  232.18   18.80
   3  -9   3  233.28   17.50
  -4   9  -3  187.08   15.30
  -4   9  -3  187.38   15.50
   4  -9   3  147.39   14.30
   4  -9   3  156.18   15.30
  -5   9  -3  313.87   22.00
  -5   9  -3  289.97   22.20
   5  -9   3  269.27   21.30
   5  -9   3  267.77   22.00
  -6   9  -3   61.89   10.00
   6  -9   3   65.39   10.20
   6  -9   3   56.29    9.70
   7   8  -3   32.90    8.10
   7   8  -3   26.70    7.10
  -7  -8   3   31.30    8.30
  -7  -8   3   37.80    9.60
  -7  -8   3   26.70    7.10
   6   8  -3  412.66   27.80
   6   8  -3  404.56   27.10
  -6  -8   3  369.46   28.10
  -6  -8   3  391.06   29.50
   5   8  -3   31.00    6.20
   5   8  -3   31.80    6.90
  -5  -8   3   23.10    7.20
  -5  -8   3   41.00    7.60
   4   8  -3  470.75   28.60
   4   8  -3  469.85   30.50
   4   8  -3  465.75   27.90
  -4  -8   3  358.16   29.20
  -4  -8   3  372.06   28.50
   3   8  -3   59.89    7.60
   3   8  -3   66.69    8.50
   3   8  -3   63.89    9.40
  -3  -8   3   78.69    9.40
  -3  -8   3   66.99    9.40
  -3  -8   3   69.99    7.40
   2   8  -3  787.22   46.90
   2   8  -3  789.62   46.10
   2   8  -3  773.72   48.10
  -2  -8   3  749.33   46.50
  -2  -8   3  737.83   47.40
  -2  -8   3  726.23   47.90
   1   8  -3   40.70    5.60
   1   8  -3   46.20    7.40
   1   8  -3   33.70    5.60
  -1  -8   3   57.59    6.70
  -1  -8   3   54.79    7.70
   0   8  -3  327.57   23.90
   0   8  -3  315.17   22.00
   0   8  -3  315.07   23.00
   0  -8   3  381.56   21.90
   0  -8   3  404.06   23.80
   0  -8   3  363.66   23.60
  -1   8  -3  164.78   13.30
  -1   8  -3  142.89   12.40
  -1   8  -3  159.48   11.20
   1  -8   3  153.58   11.30
   1  -8   3  153.38   12.60
   1  -8   3  164.28   13.10
  -2   8  -3  279.17   21.40
  -2   8  -3  314.97   22.20
  -2   8  -3  316.67   20.30
   2  -8   3  334.67   20.90
   2  -8   3  329.27   22.20
   2  -8   3  328.27   21.60
  -3   8  -3  520.85   33.20
  -3   8  -3  540.75   33.50
  -3   8  -3  505.45   31.40
   3  -8   3  502.05   33.30
   3  -8   3  509.95   32.30
   3  -8   3  494.55   32.30
  -4   8  -3   96.79   10.60
  -4   8  -3   86.89   10.10
   4  -8   3   83.59   10.10
   4  -8   3   91.99   10.80
  -5   8  -3  368.76   25.60
  -5   8  -3  356.56   26.00
   5  -8   3  359.86   25.40
   5  -8   3  371.66   25.90
  -6   8  -3    2.80    5.30
  -6   8  -3    3.10    5.40
   6  -8   3    3.50    5.90
   6  -8   3    1.70    5.90
  -7   8  -3   50.19    9.70
   7  -8   3   41.80    9.20
   8   7  -3    4.50    6.00
   8   7  -3    0.90    6.60
  -8  -7   3    6.40    7.70
  -8  -7   3    7.90    5.90
   7   7  -3  119.79   12.60
   7   7  -3  107.19   13.50
   7   7  -3  102.39   12.80
  -7  -7   3  138.99   14.00
  -7  -7   3  141.79   15.40
  -7  -7   3  132.89   13.10
   6   7  -3   -3.40    4.20
   6   7  -3    1.50    4.70
   6   7  -3    0.00    3.90
  -6  -7   3   -0.70    5.50
  -6  -7   3    0.80    4.20
  -6  -7   3   -0.30    5.10
   5   7  -3  259.57   18.60
   5   7  -3  271.17   19.80
   5   7  -3  254.07   19.10
  -5  -7   3  282.57   21.40
  -5  -7   3  297.87   20.60
   4   7  -3  295.77   20.20
   4   7  -3  307.97   22.50
   4   7  -3  296.57   20.60
  -4  -7   3  304.47   21.30
  -4  -7   3  283.37   21.80
  -4  -7   3  295.87   19.40
   3   7  -3  607.14   38.00
   3   7  -3  598.14   39.30
   3   7  -3  594.54   37.40
  -3  -7   3  637.44   37.40
  -3  -7   3  570.74   39.00
  -3  -7   3  646.34   38.70
   2   7  -3  566.24   34.30
   2   7  -3  559.24   33.80
   2   7  -3  579.24   35.70
  -2  -7   3  547.05   35.00
  -2  -7   3  525.95   35.30
  -2  -7   3  526.55   33.90
   1   7  -3  197.68   14.10
   1   7  -3  199.58   13.20
   1   7  -3  195.78   14.80
  -1  -7   3  188.38   12.80
  -1  -7   3  194.48   13.90
  -1  -7   3  182.18   14.40
   0   7  -3  902.01   51.49
   0   7  -3  862.81   52.09
   0   7  -3  855.71   52.89
   0  -7   3  810.82   52.19
   0  -7   3  882.81   50.99
   0  -7   3  873.41   52.29
  -1   7  -3  306.77   20.00
  -1   7  -3  339.47   19.10
  -1   7  -3  325.57   20.60
   1  -7   3  272.27   19.80
   1  -7   3  268.37   18.90
   1  -7   3  282.97   20.20
  -2   7  -3  703.93   40.90
  -2   7  -3  692.23   42.10
  -2   7  -3  696.13   42.30
   2  -7   3  656.33   42.20
   2  -7   3  660.83   41.30
   2  -7   3  680.13   41.70
  -3   7  -3  102.19   10.70
  -3   7  -3  112.09   10.70
  -3   7  -3  103.79    9.20
   3  -7   3  148.59   10.80
   3  -7   3  150.68   10.60
   3  -7   3  133.49   11.30
  -4   7  -3  401.26   26.00
  -4   7  -3  402.56   24.60
  -4   7  -3  399.46   26.20
   4  -7   3  375.46   25.60
   4  -7   3  356.16   25.90
  -5   7  -3  374.56   25.70
  -5   7  -3  381.86   25.10
   5  -7   3  349.96   25.00
   5  -7   3  349.37   25.20
  -6   7  -3  204.88   18.40
  -6   7  -3  232.08   17.60
   6  -7   3  229.48   18.50
   6  -7   3  223.08   17.80
  -7   7  -3   99.09   13.10
   8   6  -3  429.26   28.60
   8   6  -3  409.96   29.00
   8   6  -3  390.96   28.00
  -8  -6   3  396.96   30.30
  -8  -6   3  388.36   28.40
   7   6  -3  153.08   13.90
   7   6  -3  151.58   13.30
   7   6  -3  153.48   14.60
  -7  -6   3  139.99   15.70
  -7  -6   3  144.99   13.90
  -7  -6   3  152.38   14.40
   6   6  -3  502.45   32.20
   6   6  -3  542.75   32.70
   6   6  -3  515.45   33.00
  -6  -6   3  487.95   34.60
  -6  -6   3  495.45   33.40
  -6  -6   3  483.55   32.80
   5   6  -3    1.40    3.10
   5   6  -3    0.50    3.50
   5   6  -3   -0.10    3.80
  -5  -6   3    0.00    4.20
  -5  -6   3    4.00    4.60
   4   6  -3  165.78   12.80
   4   6  -3  181.48   13.40
   4   6  -3  180.58   12.40
   4   6  -3  177.18   15.00
   3   6  -3  473.25   29.50
   3   6  -3  451.05   29.10
   3   6  -3  465.65   28.30
  -3  -6   3  467.45   28.80
  -3  -6   3  482.65   30.00
   2   6  -3  556.04   32.40
   2   6  -3  558.34   31.00
   2   6  -3  558.24   31.90
   2   6  -3  548.35   33.40
  -2  -6   3  483.75   32.70
  -2  -6   3  468.35   31.80
  -2  -6   3  472.65   33.00
   1   6  -3  610.34   40.20
   1   6  -3  663.03   39.70
   1   6  -3  637.24   38.00
   1   6  -3  638.14   39.10
  -1  -6   3  654.93   39.60
  -1  -6   3  669.03   40.10
  -1  -6   3  687.03   38.20
   0   6  -3  901.31   48.50
   0   6  -3  876.51   49.10
   0   6  -3  854.01   49.60
   0  -6   3  755.22   49.00
   0  -6   3  749.03   49.00
   0  -6   3  764.82   47.90
  -1   6  -3  659.63   40.00
  -1   6  -3  666.53   39.20
  -1   6  -3  641.74   40.20
   1  -6   3  661.73   39.20
   1  -6   3  650.13   39.90
   1  -6   3  656.23   40.20
  -2   6  -3 1060.99   60.89
  -2   6  -3 1095.09   60.29
  -2   6  -3 1049.70   61.99
  -2   6  -3 1054.29   61.89
   2  -6   3 1064.79   60.29
   2  -6   3 1017.40   61.39
   2  -6   3  946.71   61.69
   2  -6   3  968.20   61.09
  -3   6  -3   38.40    6.10
  -3   6  -3   41.90    5.10
  -3   6  -3   40.00    6.20
   3  -6   3   48.60    5.70
   3  -6   3   47.20    6.90
   3  -6   3   49.80    5.20
   3  -6   3   50.39    6.60
  -4   6  -3  262.97   20.20
  -4   6  -3  270.27   19.00
  -4   6  -3  272.47   19.80
   4  -6   3  307.97   20.20
   4  -6   3  314.87   20.50
   4  -6   3  318.37   19.30
  -5   6  -3   42.40    6.50
  -5   6  -3   36.10    6.90
  -5   6  -3   44.20    6.40
   5  -6   3   47.00    6.50
   5  -6   3   42.10    6.90
   5  -6   3   49.40    7.40
  -6   6  -3   88.69    9.80
  -6   6  -3   66.39   10.00
  -6   6  -3   75.79    8.80
   6  -6   3  100.89   11.60
   6  -6   3  103.39   10.70
  -7   6  -3   23.10    7.40
   7  -6   3   25.90    7.80
  -8   6  -3   44.50    9.30
   8  -6   3   61.69   10.40
   9   5  -3   11.30    7.00
   9   5  -3   23.10    7.70
  -9  -5   3   15.90    8.30
  -9  -5   3   23.70    7.50
   8   5  -3   24.00    6.90
   8   5  -3   20.80    6.50
   8   5  -3   23.80    7.30
  -8  -5   3   21.90    6.50
  -8  -5   3   18.30    8.00
   7   5  -3   41.50    7.60
   7   5  -3   40.90    7.00
   7   5  -3   43.30    7.30
  -7  -5   3   53.49    9.50
  -7  -5   3   60.09    8.30
  -7  -5   3   49.10    7.50
   6   5  -3   74.09    8.50
   6   5  -3   78.99    9.20
   6   5  -3   78.59    8.80
  -6  -5   3   63.69    8.30
  -6  -5   3   81.69   10.50
  -6  -5   3   62.79    9.00
   5   5  -3  139.49   11.90
   5   5  -3  150.48   12.40
   5   5  -3  141.09   11.50
  -5  -5   3  165.88   14.10
  -5  -5   3  179.68   13.30
   4   5  -3  880.31   51.09
   4   5  -3  859.81   50.79
   4   5  -3  892.11   50.49
  -4  -5   3  770.72   52.09
  -4  -5   3  835.52   49.90
  -4  -5   3  823.62   51.49
   3   5  -3   39.70    6.10
   3   5  -3   37.30    5.10
   3   5  -3   33.10    4.30
   3   5  -3   36.40    5.20
  -3  -5   3   46.70    6.20
  -3  -5   3   50.89    6.70
  -3  -5   3   51.49    4.80
   2   5  -3 1213.78   67.79
   2   5  -3 1223.18   68.79
   2   5  -3 1194.58   69.59
   2   5  -3 1214.48   68.49
  -2  -5   3 1131.89   69.09
  -2  -5   3 1079.49   69.29
  -2  -5   3 1079.89   68.29
   1   5  -3  996.80   62.69
   1   5  -3  937.01   63.09
   1   5  -3  941.21   62.19
   1   5  -3 1004.50   61.59
  -1  -5   3 1190.58   63.39
  -1  -5   3 1202.98   61.69
  -1  -5   3 1157.48   62.89
   0   5  -3 1692.43   98.09
   0   5  -3 1648.94   98.89
   0   5  -3 1807.22   97.29
   0   5  -3 1741.53   98.59
   0  -5   3 1623.44   97.79
   0  -5   3 1689.93   98.79
   0  -5   3 1593.74   98.59
  -1   5  -3  550.04   32.70
  -1   5  -3  522.05   33.30
  -1   5  -3  497.75   33.90
  -1   5  -3  517.25   33.90
   1  -5   3  615.04   34.40
   1  -5   3  595.04   33.50
   1  -5   3  613.54   34.00
  -2   5  -3  582.14   33.30
  -2   5  -3  563.94   34.30
  -2   5  -3  596.44   34.40
  -2   5  -3  582.14   33.60
   2  -5   3  569.34   33.30
   2  -5   3  508.35   34.20
   2  -5   3  534.95   33.70
   2  -5   3  531.05   33.80
  -3   5  -3  749.42   45.10
  -3   5  -3  808.42   44.70
  -3   5  -3  806.62   45.60
   3  -5   3  685.83   45.10
   3  -5   3  725.03   44.40
   3  -5   3  724.03   44.90
   3  -5   3  716.13   44.20
  -4   5  -3  172.78   14.10
  -4   5  -3  180.88   14.90
  -4   5  -3  180.48   13.80
   4  -5   3  227.58   14.20
   4  -5   3  232.88   15.10
   4  -5   3  212.98   14.90
  -5   5  -3  913.81   57.69
  -5   5  -3 1015.80   57.09
  -5   5  -3  967.10   56.69
   5  -5   3  890.21   56.79
   5  -5   3  910.51   56.49
   5  -5   3  937.71   57.29
  -6   5  -3  115.19   10.30
  -6   5  -3  101.29   11.30
  -6   5  -3  107.39    9.80
   6  -5   3   97.19   10.40
   6  -5   3  101.89   11.50
   6  -5   3   97.79   10.60
  -7   5  -3  576.14   35.30
  -7   5  -3  544.45   37.00
   7  -5   3  518.55   36.40
   7  -5   3  558.84   35.90
  -8   5  -3   33.30    8.40
   8  -5   3   28.30    7.70
   8  -5   3   37.20    8.90
   9   4  -3   17.00    6.80
   9   4  -3   21.20    7.40
  -9  -4   3   14.70    6.80
  -9  -4   3    8.80    7.40
   8   4  -3  466.15   31.20
   8   4  -3  490.75   30.70
   8   4  -3  467.55   30.80
  -8  -4   3  425.06   32.20
  -8  -4   3  405.56   30.50
   7   4  -3    9.00    5.30
   7   4  -3    5.40    4.60
   7   4  -3   10.50    5.00
  -7  -4   3   14.20    5.20
  -7  -4   3    8.30    4.70
  -7  -4   3    7.90    5.80
   6   4  -3  692.73   41.40
   6   4  -3  667.53   41.60
   6   4  -3  662.53   41.30
  -6  -4   3  627.64   41.40
  -6  -4   3  691.93   42.00
  -6  -4   3  660.63   43.20
   5   4  -3  110.29    9.50
   5   4  -3  110.09    9.60
   5   4  -3  109.39   10.00
  -5  -4   3  117.39   11.50
  -5  -4   3  128.89   10.60
  -5  -4   3  121.69    9.90
   4   4  -3 4646.33  264.77
   4   4  -3 4539.55  264.37
  -4  -4   3 4387.66  265.97
  -4  -4   3 4646.14  263.77
  -4  -4   3 4643.44  265.27
   3   4  -3 1396.26   83.29
   3   4  -3 1404.56   82.89
   3   4  -3 1445.26   83.29
  -3  -4   3 1423.06   82.79
  -3  -4   3 1462.35   83.99
  -3  -4   3 1390.26   84.49
   2   4  -3 4055.89  248.08
   2   4  -3 4287.77  247.18
   2   4  -3 4211.38  247.28
   2   4  -3 4333.17  246.78
  -2  -4   3 4249.98  248.08
  -2  -4   3 4461.15  247.88
  -2  -4   3 4356.66  247.18
   1   4  -3  693.23   40.10
   1   4  -3  676.73   40.30
   1   4  -3  648.64   40.70
   1   4  -3  679.33   39.50
  -1  -4   3  681.13   39.30
  -1  -4   3  693.53   40.80
  -1  -4   3  650.83   40.20
  -1  -4   3  672.53   40.60
   0   4  -3 2136.29  125.49
   0   4  -3 2268.77  124.39
   0   4  -3 2228.48  125.09
   0   4  -3 2134.29  125.29
   0  -4   3 2211.38  125.49
   0  -4   3 2001.10  125.29
   0  -4   3 2114.19  124.69
  -1   4  -3 1313.47   80.89
  -1   4  -3 1440.46   80.29
  -1   4  -3 1395.96   81.09
  -1   4  -3 1404.96   80.69
   1  -4   3 1388.16   80.99
   1  -4   3 1332.37   80.69
   1  -4   3 1350.46   81.19
   1  -4   3 1445.36   80.29
  -2   4  -3  355.46   20.30
  -2   4  -3  363.26   20.90
  -2   4  -3  332.37   20.50
   2  -4   3  303.87   20.40
   2  -4   3  301.97   20.00
   2  -4   3  316.67   20.80
   2  -4   3  313.67   20.10
  -3   4  -3  206.28   14.30
  -3   4  -3  213.58   15.00
  -3   4  -3  212.58   14.30
   3  -4   3  217.78   13.60
   3  -4   3  210.98   14.60
   3  -4   3  216.38   14.20
   3  -4   3  219.68   14.80
  -4   4  -3   80.19    7.40
  -4   4  -3   90.09    8.60
  -4   4  -3   75.99    7.30
  -5   4  -3  141.79   11.50
  -5   4  -3  141.59   11.50
  -5   4  -3  133.39   12.60
   5  -4   3  160.78   12.10
   5  -4   3  150.78   11.90
   5  -4   3  167.68   12.80
  -6   4  -3   11.00    4.00
  -6   4  -3   11.90    4.10
  -6   4  -3    8.00    4.70
   6  -4   3    7.00    5.10
   6  -4   3   11.90    4.60
   6  -4   3   12.20    4.90
  -7   4  -3   42.20    7.90
  -7   4  -3   51.89    7.80
  -7   4  -3   48.20    6.90
   7  -4   3   41.30    8.00
   7  -4   3   43.10    7.60
  -8   4  -3   49.50    9.20
  -8   4  -3   55.69    8.30
   8  -4   3   82.99   12.10
   8  -4   3   88.29   12.10
   9   3  -3   15.20    7.00
   9   3  -3   23.90    7.10
  -9  -3   3   27.30    7.80
  -9  -3   3   28.20    8.70
   8   3  -3   11.70    5.80
   8   3  -3   13.40    5.50
  -8  -3   3   10.80    5.60
  -8  -3   3   17.00    7.10
   7   3  -3   14.90    5.20
   7   3  -3   20.70    5.10
   7   3  -3   17.40    5.70
   6   3  -3  139.79   11.80
   6   3  -3  135.19   11.40
   6   3  -3  149.59   11.40
  -6  -3   3  125.39   11.40
  -6  -3   3  122.19   12.60
  -6  -3   3  132.19   11.20
   5   3  -3    6.50    3.10
   5   3  -3    8.20    2.40
   5   3  -3    5.40    3.40
   5   3  -3    6.50    3.20
  -5  -3   3   16.30    4.10
   4   3  -3  359.46   19.60
   4   3  -3  336.97   20.80
   4   3  -3  351.36   21.10
   4   3  -3  343.97   20.90
  -4  -3   3  303.97   21.20
  -4  -3   3  291.17   22.00
  -4  -3   3  301.07   19.70
   3   3  -3  253.77   14.80
   3   3  -3  268.97   14.80
   3   3  -3  261.67   14.90
  -3  -3   3  180.38   15.50
  -3  -3   3  191.68   14.00
  -3  -3   3  204.08   15.10
   2   3  -3  717.83   42.40
   2   3  -3  773.32   42.30
   2   3  -3  742.83   42.50
   2   3  -3  718.93   43.30
  -2  -3   3  677.93   42.20
  -2  -3   3  665.23   43.10
  -2  -3   3  719.63   43.00
   1   3  -3 3564.84  196.28
   1   3  -3 3370.46  196.68
   1   3  -3 3519.95  196.38
   1   3  -3 3593.84  196.28
  -1  -3   3 3360.16  196.58
  -1  -3   3 3199.08  195.68
  -1  -3   3 3301.27  196.28
  -1  -3   3 3275.07  196.68
   0   3  -3 1584.34   87.49
   0   3  -3 1521.55   87.89
   0   3  -3 1566.64   87.99
   0   3  -3 1520.55   88.09
   0  -3   3 1457.05   88.19
   0  -3   3 1433.46   88.09
   0  -3   3 1502.65   87.69
  -1   3  -3 2173.38  118.29
  -1   3  -3 2010.90  118.19
  -1   3  -3 2101.09  118.49
  -1   3  -3 2191.18  118.09
   1  -3   3 1927.01  118.49
   1  -3   3 1988.30  117.99
   1  -3   3 1953.00  118.19
   1  -3   3 1970.50  118.19
  -2   3  -3 2226.48  133.59
  -2   3  -3 2436.86  133.89
  -2   3  -3 2449.55  134.19
   2  -3   3 2267.37  133.29
   2  -3   3 2257.67  133.69
   2  -3   3 2218.18  133.99
   2  -3   3 2279.17  133.89
  -3   3  -3 1116.99   68.59
  -3   3  -3 1146.29   68.89
  -3   3  -3 1142.99   69.29
   3  -3   3 1190.08   67.79
   3  -3   3 1188.58   69.09
   3  -3   3 1165.98   68.79
   3  -3   3 1225.98   69.09
  -4   3  -3 1555.24   90.79
  -4   3  -3 1513.75   89.89
  -4   3  -3 1569.14   90.19
   4  -3   3 1528.85   90.29
   4  -3   3 1537.75   89.99
   4  -3   3 1484.25   89.99
  -5   3  -3  402.56   27.50
  -5   3  -3  405.56   26.80
  -5   3  -3  404.96   26.60
   5  -3   3  444.56   26.80
   5  -3   3  439.76   27.10
   5  -3   3  428.06   27.40
  -6   3  -3  200.68   14.90
  -6   3  -3  207.18   16.30
  -6   3  -3  201.28   15.20
   6  -3   3  198.48   16.00
   6  -3   3  214.88   15.80
   6  -3   3  201.28   14.80
  -7   3  -3  233.58   19.40
  -7   3  -3  236.98   18.40
  -7   3  -3  252.47   18.40
   7  -3   3  269.37   19.90
   7  -3   3  283.07   19.70
  -8   3  -3    2.80    4.50
  -8   3  -3    1.00    5.30
   8  -3   3    6.70    6.30
   8  -3   3    3.10    6.10
  -9   3  -3  128.79   12.90
  -9   3  -3  126.59   14.50
   9  -3   3  113.29   14.90
   9  -3   3  126.59   15.30
   9   2  -3   36.90    7.70
   9   2  -3   38.70    8.50
  -9  -2   3   36.90    8.40
  -9  -2   3   38.80    9.10
   8   2  -3  863.91   52.79
   8   2  -3  830.02   53.49
  -8  -2   3  907.31   55.19
  -8  -2   3  832.22   53.89
   7   2  -3  153.18   12.40
   7   2  -3  139.59   12.80
  -7  -2   3  152.88   12.50
  -7  -2   3  150.98   14.40
  -7  -2   3  137.69   12.90
   6   2  -3 1029.60   60.69
   6   2  -3  999.00   60.39
   6   2  -3 1035.80   59.29
   6   2  -3 1025.20   60.09
  -6  -2   3  970.50   60.49
  -6  -2   3  984.40   61.79
  -6  -2   3  969.00   60.49
   5   2  -3  145.89   11.00
   5   2  -3  137.69   10.80
   5   2  -3  138.89   10.50
   5   2  -3  139.89    9.60
  -5  -2   3  141.79   12.30
  -5  -2   3  145.19   11.20
  -5  -2   3  145.19   10.80
   4   2  -3 4356.66  244.38
   4   2  -3 4354.66  244.38
   4   2  -3 4410.06  243.48
   4   2  -3 4352.06  244.18
  -4  -2   3 4016.90  244.28
  -4  -2   3 4080.59  244.68
  -4  -2   3 3996.00  245.48
   3   2  -3   67.19    4.80
   3   2  -3   69.69    5.80
   3   2  -3   69.09    5.90
   3   2  -3   74.49    6.00
  -3  -2   3   82.19    6.80
  -3  -2   3   70.89    7.10
  -3  -2   3   72.39    5.30
   2   2  -3 1821.12  101.89
   2   2  -3 1939.11  101.19
   2   2  -3 1868.01  101.89
   2   2  -3 1846.12  101.99
  -2  -2   3 1594.04  101.79
  -2  -2   3 1671.33  102.39
  -2  -2   3 1541.05  102.49
   1   2  -3  229.08   15.30
   1   2  -3  247.48   15.20
   1   2  -3  237.28   15.80
   1   2  -3  234.78   15.20
  -1  -2   3  268.07   14.80
  -1  -2   3  257.37   15.90
  -1  -2   3  270.17   15.70
  -1  -2   3  251.47   15.80
   0   2  -3 1346.57   79.79
   0   2  -3 1375.76   79.79
   0   2  -3 1366.26   79.69
   0   2  -3 1360.76   79.79
   0  -2   3 1366.66   79.89
   0  -2   3 1412.16   80.09
   0  -2   3 1399.16   80.19
  -1   2  -3  869.01   53.39
  -1   2  -3  934.71   53.79
  -1   2  -3  899.91   53.79
  -1   2  -3  927.31   53.89
   1  -2   3  936.91   53.89
   1  -2   3  923.31   53.79
   1  -2   3  918.51   54.09
   1  -2   3  941.51   53.69
  -2   2  -3  886.81   52.99
  -2   2  -3  905.31   53.09
  -2   2  -3  880.41   52.49
   2  -2   3  908.61   52.19
   2  -2   3  919.31   53.09
   2  -2   3  893.71   53.09
   2  -2   3  891.01   52.99
  -3   2  -3 1342.17   80.49
  -3   2  -3 1333.37   79.69
  -3   2  -3 1360.16   80.19
   3  -2   3 1377.36   80.19
   3  -2   3 1388.76   80.19
   3  -2   3 1394.16   80.29
  -4   2  -3  434.76   27.00
  -4   2  -3  429.26   27.50
  -4   2  -3  414.96   26.50
   4  -2   3  429.46   27.00
   4  -2   3  449.46   26.90
   4  -2   3  429.16   27.20
  -5   2  -3  523.65   33.30
  -5   2  -3  531.25   33.00
  -5   2  -3  561.04   34.10
   5  -2   3  527.95   32.90
   5  -2   3  527.45   33.70
   5  -2   3  537.65   33.50
  -6   2  -3  175.58   13.60
  -6   2  -3  189.08   13.40
  -6   2  -3  191.38   14.70
   6  -2   3  158.48   14.00
   6  -2   3  161.68   14.20
  -7   2  -3   65.99    8.20
  -7   2  -3   61.29    8.90
  -7   2  -3   65.99    8.70
   7  -2   3   65.19    9.00
   7  -2   3   62.99    8.90
  -8   2  -3   14.80    6.50
  -8   2  -3   15.10    5.50
   8  -2   3   16.50    6.80
   8  -2   3   21.00    7.00
  -9   2  -3   19.30    6.30
  -9   2  -3    9.70    6.70
   9  -2   3   27.10    8.50
   9  -2   3   13.10    7.40
   9   1  -3   16.60    6.10
   9   1  -3   20.80    7.10
  -9  -1   3   17.40    7.40
  -9  -1   3   11.50    6.60
   8   1  -3   24.80    6.60
   8   1  -3   37.40    6.50
  -8  -1   3   21.40    6.60
  -8  -1   3   29.20    7.80
   7   1  -3   28.10    5.20
   7   1  -3   18.50    5.40
   7   1  -3   22.90    4.50
  -7  -1   3   17.80    5.50
  -7  -1   3   13.60    5.80
   6   1  -3  129.69   10.70
   6   1  -3  131.29    9.30
   6   1  -3  122.59    9.70
  -6  -1   3  109.49   10.10
  -6  -1   3   97.69   11.20
  -6  -1   3  108.19   10.40
   5   1  -3   61.09    6.70
   5   1  -3   65.79    6.20
   5   1  -3   63.19    6.80
   5   1  -3   60.19    5.60
   4   1  -3  792.42   48.20
   4   1  -3  815.62   48.30
   4   1  -3  817.62   47.50
   4   1  -3  790.82   47.90
  -4  -1   3  808.62   48.70
  -4  -1   3  839.52   48.30
  -4  -1   3  799.02   49.40
   3   1  -3  928.61   61.99
   3   1  -3  920.71   61.99
   3   1  -3  976.20   62.29
   3   1  -3  977.60   61.69
  -3  -1   3 1181.98   62.89
  -3  -1   3 1139.69   63.39
  -3  -1   3 1189.08   61.59
  -3  -1   3 1185.78   62.29
   2   1  -3 1266.97   73.19
   2   1  -3 1233.08   73.69
   2   1  -3 1231.98   73.59
   2   1  -3 1266.47   73.49
  -2  -1   3 1327.17   74.19
  -2  -1   3 1267.47   73.59
  -2  -1   3 1268.17   74.39
   1   1  -3   97.09    6.70
   1   1  -3  100.49    6.30
   1   1  -3   99.09    6.40
   1   1  -3  103.29    6.70
   0   1  -3 4022.60  240.08
   0   1  -3 4162.18  239.78
   0   1  -3 4170.98  239.58
   0  -1   3 4219.58  240.28
   0  -1   3 4140.69  239.88
   0  -1   3 4079.49  238.88
   0  -1   3 4216.88  239.58
  -1   1  -3  709.83   41.40
  -1   1  -3  682.93   40.70
  -1   1  -3  728.43   41.40
  -1   1  -3  670.83   41.40
   1  -1   3  693.63   41.60
   1  -1   3  707.23   41.70
   1  -1   3  723.43   41.10
   1  -1   3  708.13   41.50
  -2   1  -3 2109.19  123.09
  -2   1  -3 2040.40  122.29
  -2   1  -3 2075.89  122.99
   2  -1   3 2144.39  123.09
   2  -1   3 2222.88  122.09
   2  -1   3 2105.69  122.99
   2  -1   3 2120.69  122.99
  -3   1  -3  960.90   58.99
  -3   1  -3  998.60   59.29
  -3   1  -3  937.31   58.39
   3  -1   3 1000.90   59.09
   3  -1   3 1029.80   59.19
   3  -1   3 1058.09   59.09
  -4   1  -3  718.43   42.90
  -4   1  -3  719.93   43.50
  -4   1  -3  738.33   43.90
   4  -1   3  714.63   43.60
   4  -1   3  725.53   43.20
   4  -1   3  687.63   43.40
   4  -1   3  725.43   43.60
  -5   1  -3 1753.82   98.49
  -5   1  -3 1647.04   97.89
  -5   1  -3 1675.43   97.49
   5  -1   3 1553.74   97.79
   5  -1   3 1655.23   97.89
   5  -1   3 1655.23   97.99
   5  -1   3 1677.83   97.39
  -6   1  -3  433.06   28.40
  -6   1  -3  458.95   29.70
  -6   1  -3  416.46   28.70
   6  -1   3  479.45   29.50
   6  -1   3  451.25   29.10
   6  -1   3  438.36   29.10
  -7   1  -3  801.72   49.60
  -7   1  -3  822.82   50.79
  -7   1  -3  764.12   49.90
   7  -1   3  837.22   50.69
   7  -1   3  834.02   50.29
   7  -1   3  781.72   50.29
  -8   1  -3  269.47   20.80
  -8   1  -3  251.27   19.70
   8  -1   3  242.68   20.60
   8  -1   3  277.87   20.60
   8  -1   3  272.27   21.00
  -9   1  -3  337.57   25.40
  -9   1  -3  338.87   24.50
   9  -1   3  330.17   25.80
   9  -1   3  316.87   25.30
   9   0  -3    4.80    5.00
   9   0  -3    8.70    6.80
  -9   0   3    2.60    6.60
  -9   0   3    1.80    5.80
   8   0  -3  567.94   36.40
   8   0  -3  550.84   35.10
   8   0  -3  528.65   34.80
  -8   0   3  567.44   37.60
  -8   0   3  553.04   36.80
   7   0  -3  126.39   12.00
   7   0  -3  128.99   10.60
   7   0  -3  127.29   10.80
  -7   0   3  123.79   12.80
  -7   0   3  127.39   12.30
   6   0  -3  901.21   53.79
   6   0  -3  897.31   53.89
   6   0  -3  907.61   54.59
  -6   0   3  876.31   55.69
  -6   0   3  924.21   54.59
  -6   0   3  906.71   55.29
   5   0  -3    3.10    2.90
   5   0  -3    3.90    2.40
   5   0  -3    3.60    2.40
  -5   0   3    3.40    3.40
  -5   0   3    2.00    2.80
  -5   0   3    3.60    3.00
   4   0  -3 1241.88   71.99
   4   0  -3 1204.88   71.99
   4   0  -3 1223.08   72.49
   4   0  -3 1251.87   71.29
  -4   0   3 1270.57   72.69
  -4   0   3 1268.67   71.19
  -4   0   3 1211.78   72.99
  -4   0   3 1172.18   73.29
   3   0  -3  261.17   16.60
   3   0  -3  274.17   16.70
   3   0  -3  284.77   17.10
   3   0  -3  274.27   17.20
  -3   0   3  271.97   17.00
  -3   0   3  268.17   16.30
  -3   0   3  262.97   17.70
  -3   0   3  279.47   17.90
   2   0  -3 4411.26  254.47
   2   0  -3 4480.45  254.27
   2   0  -3 4356.76  255.17
   2   0  -3 4365.66  253.87
  -2   0   3 4388.36  255.77
  -2   0   3 4315.37  254.37
  -2   0   3 4427.76  254.77
  -2   0   3 4482.35  255.37
   1   0  -3  689.63   40.90
   1   0  -3  661.03   40.60
   1   0  -3  694.03   40.40
   1   0  -3  690.83   40.60
  -1   0   3  711.33   40.70
  -1   0   3  717.03   41.00
  -1   0   3  718.03   41.00
   0   0  -3 8261.97  467.65
   0   0  -3 7973.30  468.35
   0   0  -3 8077.19  466.15
   0   0   3 8424.46  470.45
   0   0   3 8197.68  466.15
   0   0   3 7902.41  467.85
   0   0   3 7796.52  470.35
  -1   0  -3  324.77   19.90
  -1   0  -3  338.17   19.60
  -1   0  -3  325.97   19.80
   1   0   3  313.17   19.90
   1   0   3  316.37   20.10
   1   0   3  329.77   19.60
   1   0   3  327.17   19.90
  -2   0  -3 3925.21  223.48
  -2   0  -3 3821.92  223.48
  -2   0  -3 3874.71  223.28
   2   0   3 3840.52  223.68
   2   0   3 3906.31  223.58
   2   0   3 3876.21  223.48
   2   0   3 3800.72  222.58
   2   0   3 3897.51  223.58
  -3   0  -3   49.90    5.20
  -3   0  -3   52.69    4.60
  -3   0  -3   53.79    5.40
   3   0   3   51.69    5.50
   3   0   3   46.30    5.70
   3   0   3   46.80    5.30
   3   0   3   55.49    5.40
  -4   0  -3    6.90    3.10
  -4   0  -3   10.10    2.60
  -4   0  -3    7.70    2.90
   4   0   3   11.60    3.00
   4   0   3   11.20    3.30
   4   0   3   11.00    3.50
   4   0   3    8.60    3.30
  -5   0  -3  132.99   11.10
  -5   0  -3  130.59   10.00
  -5   0  -3  122.19   10.20
   5   0   3  118.19   10.60
   5   0   3  131.49   11.00
   5   0   3  115.99   10.60
   5   0   3  137.09    9.70
  -6   0  -3   23.30    4.60
  -6   0  -3   26.90    5.70
  -6   0  -3   20.50    4.60
   6   0   3   24.60    5.60
   6   0   3   22.30    5.20
   6   0   3   18.50    5.10
  -7   0  -3  256.57   18.40
  -7   0  -3  247.98   18.50
  -7   0  -3  270.67   19.60
   7   0   3  239.18   18.90
   7   0   3  243.18   19.20
   7   0   3  263.37   19.50
  -8   0  -3   96.19   11.20
  -8   0  -3  110.19   12.70
   8   0   3  113.39   12.60
   8   0   3  110.49   12.80
   8   0   3  102.29   13.00
  -9   0  -3    8.60    6.40
  -9   0  -3    1.70    5.40
   9   0   3    4.50    6.40
   9   0   3    5.00    7.10
   9   0   3    5.50    6.30
   9  -1  -3   18.70    7.40
   9  -1  -3   13.30    5.60
   9  -1  -3   18.30    6.30
  -9   1   3   20.70    7.60
  -9   1   3   18.80    6.90
  -9   1   3   16.80    5.30
   8  -1  -3   26.40    5.80
   8  -1  -3   27.70    5.60
   8  -1  -3   23.30    6.60
  -8   1   3   34.40    7.40
  -8   1   3   31.50    7.70
   7  -1  -3   15.20    4.50
   7  -1  -3   16.60    4.30
   7  -1  -3   15.50    5.20
  -7   1   3   25.30    6.00
  -7   1   3   23.40    6.70
   6  -1  -3  105.49   10.20
   6  -1  -3  106.99    9.60
   6  -1  -3  106.99    9.10
  -6   1   3  137.79   12.00
  -6   1   3  124.09   10.90
  -6   1   3  124.09    9.70
   5  -1  -3  120.19    9.50
   5  -1  -3  117.19    7.90
   5  -1  -3  121.69    9.30
   5  -1  -3  115.89    8.70
   4  -1  -3  870.41   49.10
   4  -1  -3  870.91   48.80
   4  -1  -3  855.51   48.00
   4  -1  -3  805.82   48.30
  -4   1   3  786.32   49.20
  -4   1   3  773.52   49.30
  -4   1   3  778.32   49.80
   3  -1  -3 1184.88   60.89
   3  -1  -3 1130.29   60.79
   3  -1  -3 1196.48   61.29
   3  -1  -3 1186.18   61.59
  -3   1   3  959.60   61.89
  -3   1   3  881.21   61.69
  -3   1   3  879.61   61.29
  -3   1   3  935.61   60.69
   2  -1  -3 1328.77   72.99
   2  -1  -3 1261.47   72.29
   2  -1  -3 1323.67   72.79
  -2   1   3 1253.17   73.29
  -2   1   3 1242.08   72.59
  -2   1   3 1162.68   73.49
  -2   1   3 1176.58   72.59
   1  -1  -3  182.18   11.40
   1  -1  -3  183.68   10.90
   1  -1  -3  173.58   11.30
   1  -1  -3  186.18   10.70
   0  -1  -3 4260.47  245.28
   0  -1  -3 4267.67  244.08
   0  -1  -3 4273.77  243.68
   0  -1  -3 4506.85  245.18
   0  -1  -3 4304.97  245.18
   0   1   3 4172.58  244.48
   0   1   3 4094.99  244.28
   0   1   3 3993.20  244.78
  -1  -1  -3  723.33   40.80
  -1  -1  -3  728.73   41.10
  -1  -1  -3  717.63   41.20
   1   1   3  680.43   41.10
   1   1   3  666.23   40.90
   1   1   3  686.93   41.10
   1   1   3  679.23   41.20
   1   1   3  684.63   40.50
  -2  -1  -3 2161.68  122.39
  -2  -1  -3 2230.48  121.99
  -2  -1  -3 2195.38  122.29
   2   1   3 2068.49  121.79
   2   1   3 2037.00  122.39
   2   1   3 2010.70  122.49
   2   1   3 2096.79  122.59
   2   1   3 2061.19  122.29
  -3  -1  -3 1023.80   58.29
  -3  -1  -3 1041.10   58.69
  -3  -1  -3 1012.20   58.39
  -3  -1  -3 1034.90   57.49
   3   1   3  965.40   58.69
   3   1   3  941.51   58.19
   3   1   3  950.50   58.69
   3   1   3  962.00   57.49
   3   1   3  971.70   58.49
  -4  -1  -3  718.43   42.90
  -4  -1  -3  672.73   42.90
  -4  -1  -3  728.93   43.50
  -4  -1  -3  707.03   41.60
   4   1   3  751.42   43.50
   4   1   3  709.13   43.30
   4   1   3  711.03   42.60
   4   1   3  711.33   43.00
  -5  -1  -3 1626.24   95.99
  -5  -1  -3 1555.44   95.29
  -5  -1  -3 1680.63   95.39
   5   1   3 1616.04   95.69
   5   1   3 1669.53   95.49
   5   1   3 1592.44   94.59
   5   1   3 1589.74   95.69
  -6  -1  -3  472.55   28.30
  -6  -1  -3  452.75   29.10
  -6  -1  -3  435.06   28.10
   6   1   3  429.26   28.40
   6   1   3  408.46   28.50
   6   1   3  416.26   28.50
  -7  -1  -3  785.42   49.50
  -7  -1  -3  850.11   49.70
  -7  -1  -3  806.92   50.49
   7   1   3  813.42   49.90
   7   1   3  776.82   49.99
   7   1   3  773.02   50.09
  -8  -1  -3  255.57   19.50
  -8  -1  -3  257.87   20.40
  -8  -1  -3  264.17   19.30
   8   1   3  257.97   20.20
   8   1   3  250.27   20.20
   8   1   3  250.07   20.70
  -9  -1  -3  292.87   24.00
  -9  -1  -3  320.17   25.10
   9   1   3  357.66   25.50
   9   1   3  336.37   25.10
   9   1   3  348.97   26.30
   9  -2  -3   35.50    7.40
   9  -2  -3   42.50    8.60
  -9   2   3   33.80    8.50
  -9   2   3   36.20    8.10
   8  -2  -3  873.31   52.39
   8  -2  -3  905.01   53.89
   8  -2  -3  870.31   52.99
  -8   2   3  830.92   52.29
  -8   2   3  848.92   54.99
  -8   2   3  837.02   54.19
   7  -2  -3  154.58   13.20
   7  -2  -3  152.48   12.30
   7  -2  -3  150.58   11.60
  -7   2   3  146.99   14.10
  -7   2   3  136.89   13.40
   6  -2  -3 1022.20   60.39
   6  -2  -3  948.11   59.89
   6  -2  -3 1009.20   59.39
  -6   2   3 1038.20   61.89
  -6   2   3  971.90   60.89
  -6   2   3 1020.90   59.89
   5  -2  -3  147.89    9.90
   5  -2  -3  141.09   11.00
   5  -2  -3  148.39   10.00
   5  -2  -3  137.39   10.90
  -5   2   3  147.59   11.60
  -5   2   3  146.69   10.90
  -5   2   3  141.49   12.20
   4  -2  -3 4303.27  250.37
   4  -2  -3 4072.49  250.17
   4  -2  -3 4315.77  250.97
   4  -2  -3 4270.07  250.97
  -4   2   3 4501.55  252.07
  -4   2   3 4375.16  251.27
  -4   2   3 4548.84  251.37
   3  -2  -3   76.99    6.20
   3  -2  -3   76.19    5.70
   3  -2  -3   78.99    6.10
   3  -2  -3   75.69    5.10
  -3   2   3   69.29    5.90
  -3   2   3   67.49    6.60
  -3   2   3   62.39    6.40
  -3   2   3   67.69    5.50
   2  -2  -3 1561.24   99.69
   2  -2  -3 1650.73   99.79
   2  -2  -3 1593.14   99.79
   2  -2  -3 1525.15   99.09
  -2   2   3 1951.70   99.59
  -2   2   3 1790.52  100.49
  -2   2   3 1878.61  100.39
  -2   2   3 1806.02   99.89
   1  -2  -3  264.57   15.70
   1  -2  -3  273.57   15.60
   1  -2  -3  264.17   14.90
  -1   2   3  235.98   15.70
  -1   2   3  246.88   16.30
  -1   2   3  241.38   15.80
  -1   2   3  245.08   15.00
   0  -2  -3 1430.26   78.89
   0  -2  -3 1398.06   78.99
   0  -2  -3 1395.96   78.59
   0   2   3 1315.27   79.29
   0   2   3 1345.77   78.89
   0   2   3 1318.47   78.39
   0   2   3 1301.17   78.89
  -1  -2  -3  934.31   53.09
  -1  -2  -3  940.51   52.79
  -1  -2  -3  898.61   53.29
   1   2   3  883.91   52.79
   1   2   3  922.91   53.39
   1   2   3  898.31   53.29
   1   2   3  893.61   53.19
   1   2   3  903.61   53.39
   1   2   3  902.01   52.99
   1   2   3  890.61   52.99
  -2  -2  -3  896.91   52.39
  -2  -2  -3  900.71   52.29
  -2  -2  -3  884.11   52.29
   2   2   3  904.41   52.49
   2   2   3  907.91   52.89
   2   2   3  888.31   52.29
   2   2   3  904.71   52.39
   2   2   3  877.71   52.39
   2   2   3  861.01   52.59
   2   2   3  876.71   52.29
  -3  -2  -3 1384.56   80.59
  -3  -2  -3 1388.66   80.69
  -3  -2  -3 1371.56   80.09
  -3  -2  -3 1388.26   80.59
   3   2   3 1350.86   80.99
   3   2   3 1328.87   80.49
   3   2   3 1376.66   80.89
   3   2   3 1386.36   80.69
   3   2   3 1386.96   80.09
   3   2   3 1391.76   80.39
  -4  -2  -3  439.76   27.20
  -4  -2  -3  433.36   27.00
  -4  -2  -3  444.86   26.00
   4   2   3  438.36   27.30
   4   2   3  440.16   26.40
   4   2   3  419.56   27.30
   4   2   3  405.26   26.80
  -5  -2  -3  533.05   32.60
  -5  -2  -3  517.35   32.80
   5   2   3  506.55   32.90
   5   2   3  539.35   31.50
   5   2   3  534.05   32.80
   5   2   3  483.65   32.30
  -6  -2  -3  142.69   13.50
  -6  -2  -3  157.78   13.00
  -6  -2  -3  145.79   12.60
   6   2   3  187.98   13.90
   6   2   3  190.98   13.70
   6   2   3  175.38   14.10
  -7  -2  -3   65.69    9.40
  -7  -2  -3   64.69    8.50
  -7  -2  -3   67.69    8.70
   7   2   3   69.89    9.70
   7   2   3   64.99    9.20
   7   2   3   62.39    8.50
  -8  -2  -3   10.00    5.00
  -8  -2  -3   10.70    6.20
  -8  -2  -3   14.00    5.50
   8   2   3   12.40    6.80
   8   2   3   21.50    6.40
   8   2   3   15.80    6.50
  -9  -2  -3   20.40    7.50
  -9  -2  -3    8.10    5.70
   9   2   3   19.50    7.60
   9   2   3   25.70    8.50
   9  -3  -3   30.80    8.00
   9  -3  -3   29.50    7.30
  -9   3   3   12.60    6.80
  -9   3   3   21.90    8.20
   8  -3  -3   13.30    5.50
   8  -3  -3    9.40    5.70
  -8   3   3    6.60    6.20
  -8   3   3    5.90    5.60
   7  -3  -3   39.40    6.30
   7  -3  -3   38.70    6.60
  -7   3   3   21.50    6.10
  -7   3   3   20.80    4.80
  -7   3   3   19.50    6.60
   6  -3  -3  129.49    9.90
   6  -3  -3  133.09   11.20
   6  -3  -3  125.99   11.20
  -6   3   3  133.99   10.50
  -6   3   3  132.99   11.90
  -6   3   3  129.29   12.50
  -6   3   3  140.99    9.90
   5  -3  -3   18.10    4.20
   5  -3  -3   20.40    3.50
   5  -3  -3   18.70    4.00
   5  -3  -3   22.60    3.20
  -5   3   3    5.90    4.20
   4  -3  -3  306.27   20.40
   4  -3  -3  310.07   19.40
   4  -3  -3  303.17   20.50
   4  -3  -3  303.47   20.10
  -4   3   3  349.07   21.70
  -4   3   3  327.37   20.70
  -4   3   3  357.36   20.70
   3  -3  -3  184.98   13.00
   3  -3  -3  187.88   13.10
   3  -3  -3  193.08   12.10
   3  -3  -3  193.08   13.40
  -3   3   3  242.28   13.30
   2  -3  -3  731.93   43.20
   2  -3  -3  700.73   43.40
   2  -3  -3  700.33   43.40
  -2   3   3  750.02   43.90
  -2   3   3  742.83   42.90
  -2   3   3  740.43   43.40
  -2   3   3  757.32   43.90
   1  -3  -3 3356.86  197.38
   1  -3  -3 3256.87  197.48
   1  -3  -3 3364.36  197.08
  -1   3   3 3517.45  196.88
  -1   3   3 3462.65  197.88
  -1   3   3 3539.55  197.68
  -1   3   3 3419.06  197.48
   0  -3  -3 1452.95   89.49
   0  -3  -3 1516.95   89.39
   0  -3  -3 1498.75   88.99
   0   3   3 1555.74   90.09
   0   3   3 1575.54   89.09
   0   3   3 1554.34   89.49
   0   3   3 1544.75   89.79
   0   3   3 1586.44   89.79
   0   3   3 1572.44   89.09
  -1  -3  -3 2027.00  120.39
  -1  -3  -3 1959.10  120.49
  -1  -3  -3 2031.30  120.19
   1   3   3 2161.18  120.59
   1   3   3 2096.89  120.19
   1   3   3 2130.99  120.89
   1   3   3 2143.89  120.59
   1   3   3 2068.89  120.59
   1   3   3 2087.69  120.19
   1   3   3 2063.29  120.39
  -2  -3  -3 2357.66  135.39
  -2  -3  -3 2288.27  134.99
  -2  -3  -3 2250.17  134.99
   2   3   3 2268.27  134.99
   2   3   3 2361.96  135.59
   2   3   3 2341.37  135.39
   2   3   3 2342.77  135.39
   2   3   3 2378.66  135.29
   2   3   3 2294.77  134.99
   2   3   3 2416.06  135.29
  -3  -3  -3 1231.58   68.59
  -3  -3  -3 1170.68   68.39
  -3  -3  -3 1208.78   68.79
  -3  -3  -3 1180.68   68.59
   3   3   3 1113.69   68.69
   3   3   3 1185.08   68.39
   3   3   3 1163.58   68.79
   3   3   3 1151.28   68.39
   3   3   3 1125.49   68.49
   3   3   3 1132.39   68.99
   3   3   3 1148.59   68.59
  -4  -3  -3 1592.54   89.99
  -4  -3  -3 1559.04   89.59
  -4  -3  -3 1555.14   90.39
  -4  -3  -3 1500.05   90.09
   4   3   3 1501.25   90.19
   4   3   3 1474.55   89.89
   4   3   3 1512.75   90.49
   4   3   3 1558.44   89.49
   4   3   3 1532.25   90.19
  -5  -3  -3  462.05   27.00
  -5  -3  -3  436.46   27.30
  -5  -3  -3  442.06   26.20
  -5  -3  -3  449.66   27.40
   5   3   3  406.96   25.90
   5   3   3  391.46   27.30
   5   3   3  383.86   26.70
   5   3   3  406.36   27.00
  -6  -3  -3  218.78   15.60
  -6  -3  -3  205.88   15.80
  -6  -3  -3  213.48   15.80
   6   3   3  200.38   15.70
   6   3   3  211.08   15.80
   6   3   3  196.68   16.30
  -7  -3  -3  274.77   18.70
  -7  -3  -3  270.67   19.80
  -7  -3  -3  298.07   19.50
   7   3   3  223.88   18.60
   7   3   3  230.58   18.90
   7   3   3  229.58   19.40
  -8  -3  -3    4.60    5.10
  -8  -3  -3    5.00    5.70
  -8  -3  -3    3.20    4.90
   8   3   3    2.20    5.90
   8   3   3    1.10    6.20
  -9  -3  -3  116.09   13.50
  -9  -3  -3  129.79   15.20
   9   3   3  146.69   16.50
   9   3   3  137.69   15.60
   9  -4  -3   11.70    6.80
   9  -4  -3    9.90    6.70
  -9   4   3   16.90    7.90
  -9   4   3    7.70    6.60
   8  -4  -3  468.85   29.90
   8  -4  -3  406.56   29.20
  -8   4   3  430.16   31.30
  -8   4   3  434.16   30.30
   7  -4  -3    9.50    5.00
   7  -4  -3    6.00    4.90
  -7   4   3    8.20    5.00
  -7   4   3    6.20    5.70
   6  -4  -3  683.83   41.80
   6  -4  -3  675.13   42.10
  -6   4   3  692.03   41.50
  -6   4   3  650.33   42.30
  -6   4   3  689.13   43.60
   5  -4  -3  134.89   10.10
   5  -4  -3  129.89    9.10
   5  -4  -3  135.79   10.00
   5  -4  -3  129.89   10.70
  -5   4   3  117.29    8.90
  -5   4   3  119.79   10.00
  -5   4   3  120.29   10.30
  -5   4   3  121.49   11.50
   4  -4  -3 4570.94  270.17
   4  -4  -3 4671.63  269.47
   4  -4  -3 4717.23  270.67
   4  -4  -3 4831.72  270.47
  -4   4   3 4805.12  270.57
  -4   4   3 4503.35  269.47
  -4   4   3 4785.82  271.67
  -4   4   3 4525.45  270.67
   3  -4  -3 1439.86   84.79
   3  -4  -3 1449.76   85.29
   3  -4  -3 1437.26   85.09
  -3   4   3 1455.05   85.59
  -3   4   3 1477.15   84.89
   2  -4  -3 4542.55  253.27
   2  -4  -3 4492.05  253.27
   2  -4  -3 4426.16  252.67
  -2   4   3 4261.07  252.67
  -2   4   3 4300.57  253.67
  -2   4   3 4349.46  253.67
  -2   4   3 4296.37  253.17
   1  -4  -3  651.33   40.20
   1  -4  -3  677.03   39.60
   1  -4  -3  669.53   40.10
  -1   4   3  664.23   40.60
  -1   4   3  689.83   39.60
  -1   4   3  662.33   40.20
  -1   4   3  686.93   40.50
   0  -4  -3 2194.28  127.19
   0  -4  -3 2186.78  126.49
   0  -4  -3 2078.19  127.39
   0  -4  -3 2175.68  126.89
   0   4   3 2213.88  127.89
   0   4   3 2214.48  126.49
   0   4   3 2249.68  127.59
   0   4   3 2241.78  126.89
   0   4   3 2175.08  127.49
  -1  -4  -3 1377.56   79.79
  -1  -4  -3 1323.27   79.49
  -1  -4  -3 1394.96   79.59
   1   4   3 1357.26   80.19
   1   4   3 1343.87   79.49
   1   4   3 1362.26   79.89
   1   4   3 1350.06   79.29
   1   4   3 1354.76   79.09
   1   4   3 1374.46   79.49
   1   4   3 1383.26   79.99
  -2  -4  -3  303.77   20.80
  -2  -4  -3  310.97   21.10
   2   4   3  337.07   21.00
   2   4   3  347.37   21.20
   2   4   3  354.26   21.70
   2   4   3  350.36   21.00
   2   4   3  344.27   21.50
   2   4   3  357.06   21.70
   2   4   3  346.97   20.90
  -3  -4  -3  208.98   14.50
  -3  -4  -3  218.88   14.00
  -3  -4  -3  221.48   14.50
  -3  -4  -3  229.68   14.30
   3   4   3  202.18   14.00
   3   4   3  210.48   14.50
   3   4   3  204.88   14.80
   3   4   3  205.38   14.30
   3   4   3  209.58   14.70
   3   4   3  218.98   14.30
   3   4   3  204.38   14.10
   4   4   3   82.69    8.60
   4   4   3   80.89    7.70
   4   4   3   86.69    7.20
   4   4   3   81.49    8.00
   4   4   3   86.39    7.70
   4   4   3   87.19    7.70
   4   4   3   81.19    8.40
  -5  -4  -3  162.98   12.40
  -5  -4  -3  158.28   12.10
  -5  -4  -3  171.88   11.90
  -5  -4  -3  154.28   11.10
   5   4   3  137.09   11.80
   5   4   3  139.49   12.40
   5   4   3  135.09   11.70
   5   4   3  135.29   12.20
  -6  -4  -3    7.60    4.30
  -6  -4  -3    8.00    4.20
  -6  -4  -3   12.20    4.30
   6   4   3    7.40    4.40
   6   4   3   12.50    5.30
   6   4   3    7.70    4.60
  -7  -4  -3   47.20    7.70
  -7  -4  -3   54.09    7.70
  -7  -4  -3   47.40    8.00
   7   4   3   51.39    8.00
   7   4   3   48.90    8.40
  -8  -4  -3   80.99   10.40
  -8  -4  -3   71.89   10.60
  -8  -4  -3   76.29   10.60
   8   4   3   69.89   10.80
   8   4   3   64.69    9.90
   9  -5  -3   26.30    7.90
   9  -5  -3   29.10    7.90
  -9   5   3   15.40    7.70
  -9   5   3    8.80    7.00
   8  -5  -3   20.30    6.50
   8  -5  -3   21.80    6.60
  -8   5   3   18.20    7.30
  -8   5   3   19.40    6.80
   7  -5  -3   56.49    8.20
   7  -5  -3   62.19    8.80
  -7   5   3   40.50    8.40
  -7   5   3   40.70    7.70
   6  -5  -3   74.59    8.30
   6  -5  -3   68.69    9.30
   6  -5  -3   74.89    8.40
  -6   5   3   83.79    8.10
  -6   5   3   69.99   10.20
  -6   5   3   79.89    9.20
   5  -5  -3  177.08   12.40
   5  -5  -3  168.08   12.90
   5  -5  -3  166.08   11.90
  -5   5   3  147.89   12.20
  -5   5   3  140.19   11.90
  -5   5   3  154.48   13.60
   4  -5  -3  812.12   51.69
   4  -5  -3  805.22   50.99
   4  -5  -3  844.82   51.59
  -4   5   3  905.41   52.89
  -4   5   3  880.71   51.89
  -4   5   3  904.71   51.49
   3  -5  -3   58.19    5.90
   3  -5  -3   53.59    5.00
   3  -5  -3   58.39    5.90
  -3   5   3   38.40    6.00
  -3   5   3   39.40    5.80
  -3   5   3   34.50    4.90
   2  -5  -3 1116.39   68.39
   2  -5  -3 1078.59   69.29
   2  -5  -3 1131.49   69.19
  -2   5   3 1237.68   69.99
  -2   5   3 1214.68   69.79
  -2   5   3 1228.78   68.79
  -2   5   3 1210.28   69.49
   1  -5  -3 1175.98   61.69
   1  -5  -3 1194.08   62.49
   1  -5  -3 1178.88   62.89
  -1   5   3  949.21   61.79
  -1   5   3  982.70   62.89
  -1   5   3  954.50   62.49
  -1   5   3  962.30   62.79
   0  -5  -3 1628.54   99.09
   0  -5  -3 1685.53   98.19
   0  -5  -3 1587.74   98.59
   0   5   3 1711.13   97.79
   0   5   3 1684.93   99.09
   0   5   3 1742.43   99.39
   0   5   3 1747.73   99.59
   0   5   3 1753.12   98.49
  -1  -5  -3  628.54   33.50
  -1  -5  -3  624.94   32.70
  -1  -5  -3  593.44   32.80
   1   5   3  504.05   32.20
   1   5   3  526.25   32.70
   1   5   3  528.85   32.60
   1   5   3  512.35   33.40
   1   5   3  511.45   32.70
   1   5   3  498.65   33.10
   1   5   3  513.85   33.60
  -2  -5  -3  550.84   35.00
  -2  -5  -3  544.65   34.50
  -2  -5  -3  537.35   34.40
  -2  -5  -3  551.54   34.10
   2   5   3  582.24   35.10
   2   5   3  575.64   34.60
   2   5   3  577.14   34.40
   2   5   3  582.64   34.60
   2   5   3  587.64   35.10
   2   5   3  571.44   34.20
   2   5   3  583.74   34.10
  -3  -5  -3  750.52   45.50
  -3  -5  -3  731.83   45.60
  -3  -5  -3  722.73   45.70
  -3  -5  -3  716.63   46.20
  -3  -5  -3  754.22   46.40
   3   5   3  798.82   45.60
   3   5   3  776.82   45.90
   3   5   3  764.32   46.30
   3   5   3  768.42   46.50
   3   5   3  782.52   46.30
   3   5   3  790.62   45.80
   3   5   3  786.62   45.70
  -4  -5  -3  225.68   13.60
  -4  -5  -3  233.88   14.30
  -4  -5  -3  227.28   14.90
  -4  -5  -3  220.28   14.30
   4   5   3  178.68   14.60
   4   5   3  179.48   14.00
   4   5   3  164.38   13.70
   4   5   3  174.18   13.30
   4   5   3  168.88   13.90
   4   5   3  189.98   14.40
   4   5   3  176.08   13.50
  -5  -5  -3  850.21   55.49
  -5  -5  -3  892.61   56.39
  -5  -5  -3  869.01   55.79
   5   5   3  941.91   56.39
   5   5   3  982.80   56.29
   5   5   3  971.90   55.89
   5   5   3  951.90   55.59
  -6  -5  -3  103.79   10.10
  -6  -5  -3   99.59   10.40
  -6  -5  -3   96.09   10.70
   6   5   3  104.39   11.50
   6   5   3  102.59   11.30
   6   5   3  108.19   10.80
   6   5   3   90.99   13.20
  -7  -5  -3  526.25   36.40
  -7  -5  -3  538.65   36.60
  -7  -5  -3  558.24   35.90
   7   5   3  580.04   37.10
   7   5   3  571.34   36.30
  -8  -5  -3   33.40    7.70
  -8  -5  -3   34.40    7.20
  -8  -5  -3   29.20    7.50
   8   5   3   33.40    8.10
   8   5   3   26.70    8.10
   8  -6  -3  400.76   27.90
   8  -6  -3  400.26   27.30
  -8   6   3  385.76   28.20
  -8   6   3  385.46   29.40
   7  -6  -3  143.99   14.10
   7  -6  -3  145.49   13.10
  -7   6   3  154.68   15.50
  -7   6   3  159.18   14.20
   6  -6  -3  472.65   32.00
   6  -6  -3  477.55   32.70
   6  -6  -3  491.15   31.80
  -6   6   3  522.85   34.30
  -6   6   3  526.85   32.80
  -6   6   3  538.85   33.40
   5  -6  -3    6.50    4.30
   5  -6  -3    3.30    3.40
   5  -6  -3    5.90    4.10
  -5   6   3    2.70    3.60
  -5   6   3    5.20    4.70
  -5   6   3    0.40    3.30
   4  -6  -3   97.79    9.00
   4  -6  -3   89.99    7.70
   4  -6  -3   98.79    9.50
   3  -6  -3  506.25   30.40
   3  -6  -3  481.65   30.60
   3  -6  -3  478.05   29.30
  -3   6   3  466.25   31.20
  -3   6   3  482.65   29.80
  -3   6   3  495.15   30.90
   2  -6  -3  505.95   32.40
   2  -6  -3  463.35   32.50
   2  -6  -3  507.35   31.40
  -2   6   3  588.64   33.50
  -2   6   3  552.74   32.10
  -2   6   3  551.74   33.40
   1  -6  -3  719.33   39.10
   1  -6  -3  645.04   40.40
   1  -6  -3  678.73   40.00
  -1   6   3  636.94   39.60
  -1   6   3  671.73   41.00
  -1   6   3  621.84   40.70
   0  -6  -3  816.42   49.10
   0  -6  -3  766.22   49.70
   0  -6  -3  794.82   50.39
   0   6   3  833.92   50.89
   0   6   3  891.31   49.80
   0   6   3  888.31   48.90
   0   6   3  847.12   50.49
   0   6   3  866.41   50.79
  -1  -6  -3  665.23   39.80
  -1  -6  -3  664.93   40.40
  -1  -6  -3  705.93   39.50
   1   6   3  631.44   40.40
   1   6   3  680.63   40.00
   1   6   3  650.43   39.20
   1   6   3  653.23   41.00
   1   6   3  655.73   40.80
  -2  -6  -3 1025.90   62.69
  -2  -6  -3 1007.10   62.09
  -2  -6  -3  985.10   61.39
  -2  -6  -3 1024.10   61.69
   2   6   3 1041.90   62.79
   2   6   3 1038.60   62.79
   2   6   3 1051.29   62.19
   2   6   3 1059.49   61.79
   2   6   3 1065.29   61.59
   2   6   3 1093.69   61.49
   2   6   3 1078.59   61.99
  -3  -6  -3   46.00    6.40
  -3  -6  -3   43.30    5.50
  -3  -6  -3   46.90    4.90
  -3  -6  -3   50.39    6.60
   3   6   3   39.80    5.60
   3   6   3   41.10    6.10
   3   6   3   36.40    5.70
   3   6   3   37.90    6.10
   3   6   3   37.40    4.90
   3   6   3   34.60    6.10
   3   6   3   34.10    5.10
  -4  -6  -3  302.77   19.30
  -4  -6  -3  309.07   18.50
  -4  -6  -3  314.07   18.80
  -4  -6  -3  294.77   19.90
  -4  -6  -3  292.47   19.50
   4   6   3  267.87   20.20
   4   6   3  268.37   18.40
   4   6   3  270.07   18.60
   4   6   3  254.17   19.10
   4   6   3  260.17   18.70
   4   6   3  254.87   19.30
   4   6   3  267.97   19.30
  -5  -6  -3   44.00    6.50
  -5  -6  -3   48.50    6.80
  -5  -6  -3   51.49    7.70
   5   6   3   38.10    6.80
   5   6   3   44.30    6.70
   5   6   3   41.00    6.90
   5   6   3   48.30    7.50
  -6  -6  -3  111.89   11.20
  -6  -6  -3   97.39   10.40
   6   6   3   79.69   10.30
   6   6   3   83.59   11.10
   6   6   3   83.29   11.20
  -7  -6  -3   24.70    6.20
  -7  -6  -3   27.20    6.80
  -7  -6  -3   27.00    6.70
   7   6   3   22.50    7.30
   7   6   3   21.20    7.20
   7   6   3   26.50    6.90
  -8  -6  -3   78.19   11.30
  -8  -6  -3   64.69   10.10
  -8  -6  -3   78.89   10.90
   8   6   3   52.99    9.70
   8   6   3   59.09   10.50
   8  -7  -3   11.20    6.80
  -8   7   3    6.80    5.90
  -8   7   3    8.10    7.10
   7  -7  -3  144.69   13.80
  -7   7   3   95.49   14.00
  -7   7   3  114.09   12.30
   6  -7  -3    4.40    5.10
   6  -7  -3   -1.40    4.50
  -6   7   3    3.50    4.40
  -6   7   3    0.60    5.50
   5  -7  -3  329.77   21.20
   5  -7  -3  301.07   20.60
  -5   7   3  289.47   22.00
  -5   7   3  287.17   20.40
  -5   7   3  253.17   19.80
   4  -7  -3  332.77   21.70
   4  -7  -3  308.67   21.40
  -4   7   3  329.07   22.70
  -4   7   3  284.27   20.50
  -4   7   3  305.87   21.40
   3  -7  -3  624.64   38.70
   3  -7  -3  652.53   38.50
  -3   7   3  621.34   39.50
  -3   7   3  583.34   37.80
  -3   7   3  622.24   39.00
   2  -7  -3  552.24   34.50
   2  -7  -3  521.55   34.90
  -2   7   3  589.14   35.50
  -2   7   3  573.74   34.20
  -2   7   3  552.14   35.50
   1  -7  -3  200.98   13.80
   1  -7  -3  197.88   13.00
   1  -7  -3  180.18   14.20
  -1   7   3  198.38   15.00
  -1   7   3  196.28   13.60
  -1   7   3  209.58   15.20
   0  -7  -3  880.91   52.59
   0  -7  -3  880.61   53.39
   0  -7  -3  938.71   51.69
   0   7   3  842.02   53.89
   0   7   3  833.92   53.69
   0   7   3  911.81   52.69
  -1  -7  -3  298.67   19.10
  -1  -7  -3  280.37   19.60
  -1  -7  -3  272.07   20.40
  -1  -7  -3  282.47   21.10
   1   7   3  347.27   19.30
   1   7   3  332.77   21.50
   1   7   3  335.57   20.30
   1   7   3  340.97   21.60
  -2  -7  -3  707.43   42.80
  -2  -7  -3  696.33   43.60
  -2  -7  -3  700.93   44.40
  -2  -7  -3  707.43   42.80
   2   7   3  706.63   44.40
   2   7   3  736.43   42.70
   2   7   3  710.93   43.70
   2   7   3  714.83   43.40
   2   7   3  724.23   44.60
   2   7   3  730.93   42.90
  -3  -7  -3  135.89    9.70
  -3  -7  -3  152.18   11.40
   3   7   3  100.29   10.90
   3   7   3  103.29    9.20
   3   7   3  106.59   11.10
   3   7   3  109.69   10.20
   3   7   3  101.89    9.00
   3   7   3  105.29    9.60
  -4  -7  -3  368.26   24.70
  -4  -7  -3  364.76   24.60
  -4  -7  -3  372.56   25.90
  -4  -7  -3  363.96   25.60
  -4  -7  -3  375.36   25.10
   4   7   3  386.06   26.60
   4   7   3  384.56   26.00
   4   7   3  389.86   24.90
   4   7   3  409.76   25.50
   4   7   3  409.86   25.60
  -5  -7  -3  358.66   24.90
  -5  -7  -3  368.66   25.50
  -5  -7  -3  353.96   24.60
   5   7   3  362.76   25.00
   5   7   3  361.46   26.10
   5   7   3  368.96   24.60
   5   7   3  367.96   25.00
  -6  -7  -3  223.68   18.10
  -6  -7  -3  212.88   17.20
   6   7   3  210.48   17.10
   6   7   3  228.08   18.00
   6   7   3  215.38   18.00
  -7  -7  -3  161.88   14.80
  -7  -7  -3  159.78   14.10
  -7  -7  -3  177.08   15.60
   7   7   3  143.79   15.20
   7   7   3  132.59   14.60
   7   7   3  129.49   15.10
   7  -8  -3   30.50    7.60
  -7   8   3   25.90    8.40
  -7   8   3   24.70    6.60
   6  -8  -3  388.96   27.60
   6  -8  -3  396.26   28.10
  -6   8   3  412.86   27.40
  -6   8   3  419.66   29.90
   5  -8  -3   34.70    6.90
   5  -8  -3   35.30    6.80
  -5   8   3   29.70    6.10
  -5   8   3   31.80    7.60
  -5   8   3   23.90    5.60
   4  -8  -3  386.56   28.60
   4  -8  -3  387.96   28.50
  -4   8   3  492.15   30.60
  -4   8   3  473.05   29.10
  -4   8   3  447.06   28.10
   3  -8  -3   71.69    8.50
   3  -8  -3   74.49    8.30
  -3   8   3   60.49    9.50
  -3   8   3   58.59    7.20
  -3   8   3   68.49    8.90
   2  -8  -3  744.83   48.00
   2  -8  -3  759.62   47.40
  -2   8   3  822.32   48.70
  -2   8   3  786.52   48.90
  -2   8   3  787.52   47.20
   1  -8  -3   60.79    6.50
   1  -8  -3   52.29    7.40
  -1   8   3   37.30    6.70
  -1   8   3   44.10    7.10
  -1   8   3   40.20    6.20
   0  -8  -3  387.36   24.30
   0  -8  -3  384.06   22.60
   0  -8  -3  402.56   23.80
   0   8   3  303.57   23.80
   0   8   3  304.67   23.90
   0   8   3  321.67   22.60
  -1  -8  -3  175.58   12.00
  -1  -8  -3  168.78   13.90
  -1  -8  -3  172.38   13.20
   1   8   3  155.58   13.90
   1   8   3  167.28   12.70
   1   8   3  155.58   14.00
  -2  -8  -3  334.47   20.60
  -2  -8  -3  341.97   23.00
  -2  -8  -3  335.47   21.80
   2   8   3  302.97   22.80
   2   8   3  311.57   21.40
   2   8   3  313.67   20.40
   2   8   3  306.57   22.80
  -3  -8  -3  485.55   34.60
  -3  -8  -3  539.55   34.40
  -3  -8  -3  509.85   34.10
  -3  -8  -3  510.25   33.00
   3   8   3  528.45   34.50
   3   8   3  538.75   32.50
   3   8   3  546.05   33.50
   3   8   3  514.25   34.40
  -4  -8  -3   85.29    9.00
  -4  -8  -3   83.79   10.30
  -4  -8  -3   86.59   10.20
   4   8   3   88.19    9.20
   4   8   3   93.89   11.70
   4   8   3   90.69   10.20
  -5  -8  -3  349.57   25.00
  -5  -8  -3  373.76   26.00
  -5  -8  -3  349.67   25.40
   5   8   3  358.96   24.70
   5   8   3  369.46   25.50
   5   8   3  382.66   27.00
  -6  -8  -3    2.50    5.00
  -6  -8  -3   -0.30    5.10
   6   8   3   -1.10    5.70
   6   8   3    0.20    5.20
  -7  -8  -3   49.30    8.40
  -7  -8  -3   51.99    9.00
  -7  -8  -3   41.90    9.00
   7   8   3   49.70    8.90
   7   8   3   51.69    9.80
   7  -9  -3   37.70    8.60
  -7   9   3   25.50    7.90
  -7   9   3   25.90    8.60
   6  -9  -3   84.49   11.20
   6  -9  -3   85.49   12.00
  -6   9   3   92.09   10.70
  -6   9   3   84.49   12.60
   5  -9  -3   87.59   10.80
   5  -9  -3   84.19   10.70
  -5   9   3   60.59   10.20
  -5   9   3   53.19    8.00
  -5   9   3   61.09    9.70
   4  -9  -3   52.89    8.20
   4  -9  -3   48.60    7.70
  -4   9   3   69.69   10.00
  -4   9   3   72.29   10.40
  -4   9   3   61.79    8.20
  -3   9   3  135.39   13.40
  -3   9   3  122.29   11.00
  -3   9   3  124.49   12.70
   2  -9  -3  103.69   11.00
   2  -9  -3  113.29   10.20
   2  -9  -3  110.99   11.70
  -2   9   3  113.99   12.00
  -2   9   3  101.59    9.90
  -2   9   3  114.69   12.20
   1  -9  -3   88.59   10.40
   1  -9  -3  106.59    9.10
   1  -9  -3   92.99   10.10
  -1   9   3   88.09   10.80
  -1   9   3   98.49   11.30
  -1   9   3   96.89    9.50
   0  -9  -3   57.29    8.50
   0  -9  -3   62.19    7.00
   0  -9  -3   48.10    7.90
   0   9   3   74.19    9.60
   0   9   3   71.29    9.70
   0   9   3   69.39    7.80
  -1  -9  -3  301.07   20.50
  -1  -9  -3  289.47   22.60
  -1  -9  -3  303.07   21.90
   1   9   3  341.67   21.60
   1   9   3  334.07   23.30
   1   9   3  332.07   23.40
  -2  -9  -3  228.28   18.10
  -2  -9  -3  228.18   17.00
   2   9   3  213.78   18.00
   2   9   3  232.58   18.50
   2   9   3  221.48   16.70
  -3  -9  -3  258.17   18.30
  -3  -9  -3  237.48   19.30
  -3  -9  -3  241.98   19.40
   3   9   3  255.37   18.60
   3   9   3  250.57   19.90
   3   9   3  243.48   19.90
  -4  -9  -3  166.28   13.80
  -4  -9  -3  156.78   15.10
  -4  -9  -3  148.59   14.70
   4   9   3  180.28   13.80
   4   9   3  197.28   17.00
   4   9   3  186.08   15.40
  -5  -9  -3  270.97   21.90
  -5  -9  -3  255.37   21.20
  -5  -9  -3  293.07   21.00
   5   9   3  295.67   20.70
   5   9   3  271.17   22.70
   5   9   3  288.07   21.50
  -6  -9  -3   73.79   11.20
  -6  -9  -3   68.69    9.80
   6   9   3   70.89    9.50
   6   9   3   63.09   10.10
   6 -10  -3  231.68   19.60
   6 -10  -3  237.08   19.80
  -6  10   3  228.78   21.60
   5 -10  -3   56.69    9.40
   5 -10  -3   69.29    9.60
   5 -10  -3   53.29    8.80
  -5  10   3   65.49   11.20
  -5  10   3   55.59    8.20
  -5  10   3   58.89    9.30
   4 -10  -3  450.95   31.00
   4 -10  -3  436.66   31.50
   4 -10  -3  444.86   31.70
  -4  10   3  492.05   33.40
  -4  10   3  459.75   30.60
  -4  10   3  512.75   32.10
   3 -10  -3   98.49   11.80
   3 -10  -3  101.99   11.00
   3 -10  -3  100.19   11.80
  -3  10   3  110.79   13.40
  -3  10   3  101.69   10.30
  -3  10   3  103.29   12.20
   2 -10  -3  408.66   30.20
   2 -10  -3  403.86   30.40
   2 -10  -3  441.16   29.30
  -2  10   3  479.75   31.80
  -2  10   3  512.35   31.70
  -2  10   3  473.25   29.40
   1 -10  -3  158.08   15.00
   1 -10  -3  159.48   14.40
   1 -10  -3  159.38   13.10
  -1  10   3  175.58   13.60
  -1  10   3  184.18   16.10
  -1  10   3  169.18   15.70
   0 -10  -3   57.19    9.00
   0 -10  -3   60.89    7.40
   0 -10  -3   57.79    8.70
  -1 -10  -3  163.58   14.40
  -1 -10  -3  186.88   16.00
   1  10   3  163.28   14.00
   1  10   3  177.18   16.30
   1  10   3  160.98   16.10
  -2 -10  -3   10.60    6.00
  -2 -10  -3   12.00    4.90
   2  10   3    0.90    5.80
   2  10   3    3.00    6.00
   2  10   3    2.80    4.70
  -3 -10  -3   61.19    9.50
  -3 -10  -3   54.29    8.40
  -3 -10  -3   47.90    8.60
   3  10   3   38.90    8.80
   3  10   3   50.89    9.70
   3  10   3   52.79    8.10
  -4 -10  -3  172.38   15.80
  -4 -10  -3  174.68   15.80
   4  10   3  143.89   16.90
   4  10   3  163.28   15.40
  -5 -10  -3   96.49   11.50
  -5 -10  -3   82.99   12.00
  -5 -10  -3   76.99   11.30
   5  10   3   70.99   10.40
   5  10   3   67.49   11.80
  -5  11   3   98.49   15.00
   4 -11  -3   12.30    6.10
   4 -11  -3   12.50    6.80
   4 -11  -3   12.00    6.40
  -4  11   3   14.80    5.90
  -4  11   3   16.00    7.90
  -4  11   3   13.40    7.00
   3 -11  -3  170.48   14.80
   3 -11  -3  160.08   15.70
   3 -11  -3  167.48   16.10
  -3  11   3  188.08   17.20
  -3  11   3  166.38   14.60
  -3  11   3  196.78   18.20
   2 -11  -3   49.90    7.50
   2 -11  -3   39.90    8.20
   2 -11  -3   43.60    8.50
  -2  11   3   53.89    9.40
  -2  11   3   62.19    9.90
  -2  11   3   49.10    7.60
   1 -11  -3  364.16   26.30
   1 -11  -3  377.46   24.70
   1 -11  -3  377.56   27.10
  -1  11   3  341.27   25.00
  -1  11   3  363.06   27.50
  -1  11   3  380.96   27.40
   0 -11  -3  193.58   17.90
   0 -11  -3  187.98   16.80
   0  11   3  207.58   19.00
   0  11   3  209.78   16.50
   0  11   3  235.48   19.40
  -1 -11  -3  266.57   21.10
  -1 -11  -3  256.17   19.70
   1  11   3  248.58   21.40
   1  11   3  247.68   21.30
   1  11   3  238.68   19.10
  -2 -11  -3  181.18   16.80
  -2 -11  -3  177.28   15.60
   2  11   3  167.68   17.60
   2  11   3  173.68   17.50
   2  11   3  179.18   15.40
  -3 -11  -3   64.69   10.80
  -3 -11  -3   83.99   10.80
  -3 -11  -3   86.09   12.30
   3  11   3   98.49   13.70
   3  11   3   91.79   11.70
  -4 -11  -3   31.10    8.10
  -4 -11  -3   46.10    9.20
   4  11   3   27.00    9.10
   4  11   3   31.70    8.10
   3 -12  -3   35.00    7.50
   3 -12  -3   26.20    8.00
   3 -12  -3   36.80    8.50
  -3  12   3   42.20    9.10
  -3  12   3   34.60    9.30
   2 -12  -3   88.69   13.10
   2 -12  -3   93.39   12.70
   2 -12  -3   97.19   11.20
  -2  12   3   97.49   14.70
  -2  12   3   86.29   11.30
  -2  12   3   94.39   13.70
   1 -12  -3  161.18   15.60
   1 -12  -3  152.88   16.00
  -1  12   3  150.28   16.80
  -1  12   3  157.58   17.40
  -1  12   3  143.99   14.00
   0 -12  -3   69.29   10.10
   0 -12  -3   54.59   10.20
   0  12   3   60.19    8.90
   0  12   3   69.09   11.60
   0  12   3   59.29   10.90
  -1 -12  -3  158.98   16.60
  -1 -12  -3  154.88   15.10
   1  12   3  137.39   16.70
   1  12   3  143.39   14.40
   1  12   3  153.18   17.10
  -2 -12  -3   90.49   12.20
  -2 -12  -3  102.49   14.00
   2  12   3  106.59   12.40
   2  12   3  100.19   14.40
   2  12   3  102.39   14.60
   2  12  -4   26.90    8.70
   2  12  -4   29.40    7.50
  -2 -12   4   36.90    7.80
  -2 -12   4   26.20    8.40
  -2 -12   4   29.30    8.00
   1  12  -4  100.09   13.80
   1  12  -4  104.59   12.30
  -1 -12   4   78.39   12.60
  -1 -12   4   85.29   11.60
  -1 -12   4   77.99   12.40
   0  12  -4   22.30    8.00
   0  12  -4   17.60    6.60
   0 -12   4   18.70    7.20
   0 -12   4   23.30    7.20
  -1  12  -4   36.00    7.80
  -1  12  -4   31.60    8.30
   1 -12   4   20.80    7.60
   1 -12   4   29.50    7.90
  -2  12  -4   32.60    7.80
  -2  12  -4   48.00    9.50
   2 -12   4   27.80    8.20
   2 -12   4   30.60    7.70
   4  11  -4   78.49   11.90
   4  11  -4   71.29   10.10
   4  11  -4   87.09   13.40
  -4 -11   4   86.49   13.50
  -4 -11   4   88.19   13.10
   3  11  -4   89.59   13.40
   3  11  -4   86.39   11.40
   3  11  -4   71.59    9.40
  -3 -11   4   70.29   10.20
  -3 -11   4   79.99   12.30
  -3 -11   4   72.69   11.40
   2  11  -4  231.38   19.10
   2  11  -4  220.88   20.40
   2  11  -4  215.98   17.40
  -2 -11   4  247.38   20.90
  -2 -11   4  256.87   20.10
  -2 -11   4  262.77   18.90
   1  11  -4   91.49   10.90
   1  11  -4   91.59   12.50
  -1 -11   4   76.29   11.60
  -1 -11   4   83.29   10.70
  -1 -11   4   78.89   12.30
   0  11  -4  160.78   15.50
   0  11  -4  146.79   14.00
   0 -11   4  138.89   13.90
   0 -11   4  138.49   14.50
  -1  11  -4   21.10    7.00
  -1  11  -4   21.80    6.30
   1 -11   4   24.60    6.80
   1 -11   4   28.70    7.30
  -2  11  -4   24.60    6.90
  -2  11  -4   36.90    8.20
   2 -11   4   33.30    7.30
   2 -11   4   37.90    8.30
  -3  11  -4  113.59   13.20
  -3  11  -4  107.09   13.20
   3 -11   4   99.49   13.50
  -4  11  -4   53.99    9.50
   4 -11   4   48.50    9.70
   4 -11   4   69.89   10.40
   5  10  -4   57.89    8.40
   5  10  -4   57.59    9.40
  -5 -10   4   56.49   10.90
  -5 -10   4   65.49   10.70
   4  10  -4   39.30    6.80
   4  10  -4   32.50    8.90
   4  10  -4   45.90    8.10
  -4 -10   4   37.90    8.70
  -4 -10   4   41.00    8.60
   3  10  -4  203.78   15.50
   3  10  -4  204.68   16.90
   3  10  -4  198.38   18.40
  -3 -10   4  205.38   15.90
  -3 -10   4  181.68   17.90
  -3 -10   4  196.68   17.20
   2  10  -4   26.10    6.20
   2  10  -4   30.50    5.60
   2  10  -4   33.30    8.00
  -2 -10   4   27.50    6.10
  -2 -10   4   28.60    7.60
  -2 -10   4   29.00    7.10
   1  10  -4  283.17   20.50
   1  10  -4  297.47   22.20
   1  10  -4  296.97   19.20
  -1 -10   4  266.77   21.20
  -1 -10   4  265.27   20.30
  -1 -10   4  270.77   21.70
   0  10  -4  186.28   15.00
   0  10  -4  165.88   12.60
   0  10  -4  175.78   15.60
   0 -10   4  157.08   14.80
   0 -10   4  154.88   14.40
  -1  10  -4  502.75   33.00
  -1  10  -4  502.15   33.90
   1 -10   4  505.15   33.10
   1 -10   4  485.95   33.30
  -2  10  -4  299.57   21.50
  -2  10  -4  284.27   20.90
   2 -10   4  266.97   20.40
   2 -10   4  254.87   20.70
  -3  10  -4  132.39   13.50
  -3  10  -4  136.89   13.50
   3 -10   4  122.29   13.60
   3 -10   4  133.19   12.40
  -4  10  -4  120.69   13.50
  -4  10  -4  122.69   12.70
   4 -10   4   96.69   12.10
   4 -10   4  100.89   13.50
  -5  10  -4   33.30    8.20
   5 -10   4   24.40    8.30
   5 -10   4   28.70    7.70
   6   9  -4  215.98   18.10
   6   9  -4  219.28   18.80
  -6  -9   4  235.48   20.10
  -6  -9   4  218.58   20.70
   5   9  -4  269.77   20.10
   5   9  -4  290.77   21.20
  -5  -9   4  257.37   22.60
  -5  -9   4  280.07   22.20
   4   9  -4  125.69   12.20
   4   9  -4  130.29   14.30
   4   9  -4  116.39   11.30
  -4  -9   4  102.79   13.00
  -4  -9   4  125.19   13.30
   3   9  -4   24.80    7.30
   3   9  -4   31.70    5.70
   3   9  -4   24.90    6.00
  -3  -9   4   23.60    6.60
  -3  -9   4   23.50    7.00
  -3  -9   4   26.90    5.60
   2   9  -4  256.77   20.10
   2   9  -4  275.37   19.00
   2   9  -4  267.67   17.90
  -2  -9   4  235.28   19.90
  -2  -9   4  260.67   18.60
  -2  -9   4  241.18   19.40
   1   9  -4    2.10    3.10
   1   9  -4   -1.90    4.20
   1   9  -4    1.80    4.00
  -1  -9   4    1.20    4.60
  -1  -9   4    0.20    3.80
  -1  -9   4    5.20    4.70
   0   9  -4  100.59   11.40
   0   9  -4  100.69    9.20
   0   9  -4  100.69   10.90
   0  -9   4  130.69   11.40
   0  -9   4  131.49   11.70
  -1   9  -4  146.79   12.80
  -1   9  -4  148.69   13.30
  -1   9  -4  150.68   11.30
   1  -9   4  143.69   13.30
   1  -9   4  139.79   13.00
  -2   9  -4  183.18   16.50
  -2   9  -4  175.48   14.60
  -2   9  -4  193.38   16.80
   2  -9   4  240.58   17.50
   2  -9   4  257.07   16.00
   2  -9   4  254.97   17.00
  -3   9  -4   30.30    6.70
  -3   9  -4   28.80    6.40
   3  -9   4   34.60    7.40
   3  -9   4   30.60    6.10
   3  -9   4   36.40    6.40
  -4   9  -4   76.89   10.90
  -4   9  -4   81.09   10.20
   4  -9   4   92.79   10.80
   4  -9   4   86.39   11.80
  -5   9  -4   55.79    9.20
   5  -9   4   56.79    9.50
   5  -9   4   49.70    8.60
  -6   9  -4   30.90    8.20
   6  -9   4   35.60    8.60
   6  -9   4   31.90    8.50
   7   8  -4  133.09   13.10
   7   8  -4  127.09   13.80
  -7  -8   4   95.39   12.40
  -7  -8   4   77.69   12.90
  -7  -8   4   86.59   13.30
   6   8  -4   67.49    9.20
   6   8  -4   71.89    9.90
  -6  -8   4   60.89   10.90
  -6  -8   4   76.39   11.50
   5   8  -4  368.76   23.70
   5   8  -4  338.77   22.70
  -5  -8   4  299.47   23.80
  -5  -8   4  285.87   24.50
   4   8  -4    4.50    4.40
   4   8  -4    6.00    5.80
   4   8  -4   13.50    4.50
  -4  -8   4   10.70    5.30
  -4  -8   4    2.90    5.20
   3   8  -4  486.05   30.80
   3   8  -4  481.15   28.40
   3   8  -4  481.85   29.10
  -3  -8   4  413.36   28.10
  -3  -8   4  405.06   29.30
  -3  -8   4  378.06   29.70
   2   8  -4   40.80    6.10
   2   8  -4   38.90    7.10
   2   8  -4   44.70    6.00
  -2  -8   4   35.80    5.80
  -2  -8   4   37.90    7.10
  -2  -8   4   38.50    6.50
   1   8  -4  473.55   30.40
   1   8  -4  460.85   29.40
   1   8  -4  478.95   28.50
  -1  -8   4  437.96   29.20
  -1  -8   4  420.56   29.60
   0   8  -4  129.79   11.90
   0   8  -4  138.09   11.40
   0   8  -4  133.69   10.10
   0  -8   4  129.19   11.70
   0  -8   4  124.79   11.50
  -1   8  -4  727.23   43.60
  -1   8  -4  784.72   44.90
  -1   8  -4  745.73   45.20
   1  -8   4  701.43   44.90
   1  -8   4  680.33   44.50
   1  -8   4  693.83   43.40
  -2   8  -4  142.49   12.90
  -2   8  -4  143.49   12.80
  -2   8  -4  137.69   11.30
   2  -8   4  176.28   12.20
   2  -8   4  172.88   12.90
   2  -8   4  163.28   13.60
  -3   8  -4  488.65   29.60
  -3   8  -4  497.35   31.30
  -3   8  -4  502.25   31.10
   3  -8   4  464.45   30.30
   3  -8   4  448.16   31.20
   3  -8   4  436.76   30.00
  -4   8  -4   84.89   10.50
  -4   8  -4   83.29    9.80
  -4   8  -4   82.09    9.70
   4  -8   4   92.79   10.90
   4  -8   4   85.69   10.30
  -5   8  -4  356.36   28.30
   5  -8   4  425.56   28.80
   5  -8   4  442.96   28.40
  -6   8  -4   29.90    8.00
   6  -8   4   34.40    8.20
   6  -8   4   30.60    7.80
   8   7  -4   30.10    8.00
   8   7  -4   38.60    9.00
  -8  -7   4   45.00    8.60
  -8  -7   4   50.09   11.00
   7   7  -4   90.19   12.20
   7   7  -4   95.49   11.50
  -7  -7   4   84.09   13.10
  -7  -7   4   92.49   11.50
  -7  -7   4   83.99   12.20
   6   7  -4   41.30    7.50
   6   7  -4   38.00    7.20
  -6  -7   4   63.39   10.00
  -6  -7   4   72.79    9.20
  -5  -7   4   40.30    8.20
  -5  -7   4   47.80    8.00
   4   7  -4  145.89   15.50
   4   7  -4  155.78   13.50
   4   7  -4  149.19   13.80
  -4  -7   4  216.78   16.30
  -4  -7   4  196.48   13.20
  -4  -7   4  217.48   15.50
   3   7  -4  117.29   11.90
   3   7  -4  103.59    9.90
   3   7  -4  111.09   10.50
  -3  -7   4  135.69   11.70
  -3  -7   4  121.59   11.90
  -3  -7   4  131.29   10.10
   2   7  -4   72.39    7.60
   2   7  -4   64.09    9.00
   2   7  -4   74.99    8.30
  -2  -7   4   96.49    9.20
  -2  -7   4  102.59    8.40
  -2  -7   4  107.09    9.80
   1   7  -4  137.09   10.40
   1   7  -4  132.39   11.90
   1   7  -4  147.79   11.40
  -1  -7   4  146.49   11.40
  -1  -7   4  136.19   11.90
  -1  -7   4  137.09   11.60
   0   7  -4  276.37   19.50
   0   7  -4  286.07   18.90
   0   7  -4  273.97   18.20
   0  -7   4  272.97   19.20
   0  -7   4  286.37   17.70
   0  -7   4  284.07   19.30
  -1   7  -4  114.99   10.20
  -1   7  -4  123.49    9.10
  -1   7  -4  120.99   10.20
   1  -7   4  118.99   10.40
   1  -7   4  116.49    9.10
   1  -7   4  109.39   10.00
  -2   7  -4  424.46   27.90
  -2   7  -4  431.06   26.80
  -2   7  -4  455.25   28.10
   2  -7   4  432.36   27.60
   2  -7   4  426.46   28.30
   2  -7   4  422.06   27.20
  -3   7  -4   31.60    5.70
  -3   7  -4   33.10    5.60
  -3   7  -4   32.50    4.70
   3  -7   4   26.30    5.20
   3  -7   4   33.20    6.20
   3  -7   4   30.20    5.00
  -4   7  -4  195.28   14.70
  -4   7  -4  205.08   15.60
  -4   7  -4  196.78   13.80
   4  -7   4  177.18   14.90
   4  -7   4  159.48   15.10
  -5   7  -4   43.10    6.30
  -5   7  -4   39.80    6.80
  -5   7  -4   43.30    7.70
   5  -7   4   56.49    8.50
   5  -7   4   49.20    7.80
  -6   7  -4   30.60    7.50
   6  -7   4   19.80    6.50
   6  -7   4   26.40    7.30
  -7   7  -4   34.80    8.40
   7  -7   4   34.10    8.70
   8   6  -4   18.40    6.40
   8   6  -4   21.30    6.90
   8   6  -4   16.40    7.20
  -8  -6   4   21.00    8.40
  -8  -6   4   14.80    6.20
   7   6  -4  258.97   19.50
   7   6  -4  248.28   18.70
   7   6  -4  251.17   18.30
  -7  -6   4  224.28   18.70
  -7  -6   4  219.98   20.70
  -7  -6   4  242.88   19.60
   6   6  -4   26.20    5.80
   6   6  -4   24.60    5.90
   6   6  -4   26.90    5.40
  -6  -6   4   19.80    6.30
  -6  -6   4   16.00    6.70
  -6  -6   4   30.20    6.00
   5   6  -4  887.51   55.19
   5   6  -4  918.31   55.69
   5   6  -4  872.61   54.69
  -5  -6   4  978.50   56.59
  -5  -6   4  899.31   57.39
   4   6  -4  175.28   13.80
   4   6  -4  174.78   13.40
   4   6  -4  182.78   12.80
  -4  -6   4  194.38   12.90
  -4  -6   4  195.38   14.80
  -4  -6   4  172.28   15.10
   3   6  -4 1454.95   80.99
   3   6  -4 1373.76   80.59
   3   6  -4 1391.86   79.79
   3   6  -4 1415.06   82.29
  -3  -6   4 1249.28   81.89
  -3  -6   4 1301.07   80.29
   2   6  -4   46.70    6.90
   2   6  -4   52.19    4.30
   2   6  -4   48.90    6.00
   2   6  -4   48.20    5.30
  -2  -6   4   36.70    5.70
  -2  -6   4   39.30    5.60
  -2  -6   4   37.20    6.10
   1   6  -4 1469.75   81.99
   1   6  -4 1339.37   82.39
   1   6  -4 1388.16   80.39
   1   6  -4 1334.57   81.29
  -1  -6   4 1386.66   82.59
  -1  -6   4 1338.57   82.09
  -1  -6   4 1462.25   80.59
  -1  -6   4 1368.26   81.89
   0   6  -4  141.99   10.60
   0   6  -4  139.39    9.90
   0   6  -4  138.19    8.60
   0   6  -4  128.89   10.80
   0  -6   4  133.29   10.80
   0  -6   4  134.39   10.80
   0  -6   4  139.99    9.40
  -1   6  -4  508.15   29.60
  -1   6  -4  504.65   30.40
  -1   6  -4  532.85   28.60
  -1   6  -4  528.45   30.40
   1  -6   4  427.76   29.90
   1  -6   4  441.76   30.30
   1  -6   4  431.16   29.30
  -2   6  -4  357.56   23.50
  -2   6  -4  381.26   23.00
  -2   6  -4  396.96   22.40
  -2   6  -4  390.36   23.90
   2  -6   4  332.77   23.90
   2  -6   4  343.77   23.20
   2  -6   4  354.66   23.30
  -3   6  -4  356.76   22.00
  -3   6  -4  352.26   21.50
  -3   6  -4  334.87   20.60
  -3   6  -4  333.17   20.80
   3  -6   4  298.47   20.60
   3  -6   4  293.77   21.80
   3  -6   4  309.77   21.40
   3  -6   4  304.77   20.40
  -4   6  -4  579.64   34.20
  -4   6  -4  580.74   35.50
  -4   6  -4  570.64   34.40
   4  -6   4  520.45   34.60
   4  -6   4  500.35   34.80
   4  -6   4  537.45   34.10
  -5   6  -4  541.95   35.00
  -5   6  -4  580.04   35.30
  -5   6  -4  564.04   36.40
   5  -6   4  534.25   35.70
   5  -6   4  562.24   36.00
  -6   6  -4  343.37   24.40
  -6   6  -4  350.66   26.10
   6  -6   4  378.76   26.00
   6  -6   4  375.96   25.50
  -7   6  -4  238.68   20.30
  -7   6  -4  214.88   19.30
   7  -6   4  225.38   19.50
  -8   6  -4   27.10    8.30
   8  -6   4   43.60    9.50
   9   5  -4   87.89   12.70
   9   5  -4   83.89   12.50
  -9  -5   4   80.19   12.20
  -9  -5   4   86.39   13.40
   8   5  -4   61.89    9.60
   8   5  -4   53.69    8.40
   8   5  -4   49.70    8.20
  -8  -5   4   41.10    8.00
  -8  -5   4   32.10    9.30
   7   5  -4  158.68   15.10
   7   5  -4  170.58   14.40
   7   5  -4  165.88   14.60
  -7  -5   4  182.18   15.50
  -7  -5   4  184.08   17.20
  -7  -5   4  170.58   14.70
   6   5  -4  118.99   11.60
   6   5  -4  120.79   11.00
   6   5  -4  137.09   11.50
  -6  -5   4  115.39   11.20
  -6  -5   4  128.39   12.30
  -6  -5   4  103.59   12.70
   5   5  -4   20.20    4.90
   5   5  -4   20.70    4.60
   5   5  -4   17.70    4.30
  -5  -5   4   27.40    6.30
  -5  -5   4   28.50    5.90
   4   5  -4  231.18   15.00
   4   5  -4  235.48   15.70
   4   5  -4  229.08   15.70
  -4  -5   4  229.18   14.80
  -4  -5   4  196.88   16.80
  -4  -5   4  213.78   16.30
   3   5  -4   96.69    8.20
   3   5  -4   99.99    7.70
   3   5  -4   97.49    8.50
   3   5  -4   91.29    9.70
  -3  -5   4  110.79    8.10
  -3  -5   4  109.79    9.40
  -3  -5   4   96.89    9.70
   2   5  -4  169.38   11.70
   2   5  -4  157.58   13.40
   2   5  -4  163.98   12.40
   2   5  -4  160.28   12.60
  -2  -5   4  217.28   13.70
  -2  -5   4  214.88   14.10
  -2  -5   4  211.08   12.90
   1   5  -4    4.10    2.50
   1   5  -4    8.20    3.10
   1   5  -4    5.00    1.60
   1   5  -4    6.00    2.40
  -1  -5   4   10.20    1.90
  -1  -5   4   11.00    3.30
  -1  -5   4    8.60    2.90
  -1  -5   4   10.90    3.40
   0   5  -4  100.09    8.40
   0   5  -4   99.39    7.70
   0   5  -4   99.99    6.90
   0   5  -4  100.59    8.20
   0  -5   4  113.39    7.50
   0  -5   4  106.79    8.40
  -1   5  -4  394.16   24.90
  -1   5  -4  391.16   25.30
  -1   5  -4  405.06   25.40
  -1   5  -4  418.46   24.30
   1  -5   4  409.56   25.30
   1  -5   4  417.16   25.80
   1  -5   4  405.26   25.00
  -2   5  -4   14.40    3.00
  -2   5  -4   15.10    2.80
  -2   5  -4   10.20    3.00
  -2   5  -4    6.50    3.00
   2  -5   4   19.50    3.00
   2  -5   4   15.20    3.20
   2  -5   4   12.60    3.90
   2  -5   4   11.40    3.20
  -3   5  -4  332.17   21.70
  -3   5  -4  322.97   20.60
  -3   5  -4  321.37   20.80
  -3   5  -4  316.07   20.80
   3  -5   4  332.77   21.30
   3  -5   4  332.47   20.60
   3  -5   4  322.27   20.30
   3  -5   4  309.27   21.50
  -4   5  -4   45.10    6.40
  -4   5  -4   44.90    6.10
  -4   5  -4   43.30    6.70
   4  -5   4   69.39    6.90
   4  -5   4   63.79    7.90
   4  -5   4   64.29    7.80
  -5   5  -4  261.37   18.80
  -5   5  -4  276.77   20.20
  -5   5  -4  288.77   18.90
   5  -5   4  266.97   19.50
   5  -5   4  286.27   19.20
   5  -5   4  263.97   19.80
  -6   5  -4  104.89   12.80
  -6   5  -4   99.99   10.90
   6  -5   4  142.19   13.40
   6  -5   4  152.78   12.60
   6  -5   4  156.68   12.70
  -7   5  -4   26.40    5.80
  -7   5  -4   25.00    7.40
   7  -5   4   28.20    7.60
   7  -5   4   29.90    7.10
  -8   5  -4   18.90    5.80
  -8   5  -4   20.30    7.50
   8  -5   4   21.20    7.30
   8  -5   4   19.10    7.80
   9   4  -4   87.79   12.50
   9   4  -4   83.79   12.80
  -9  -4   4  102.19   14.50
  -9  -4   4  105.59   13.00
   8   4  -4   82.49   10.80
   8   4  -4   83.89   11.50
   8   4  -4   88.89   11.20
  -8  -4   4   76.19   10.50
  -8  -4   4   81.19   12.10
   7   4  -4  289.67   19.10
   7   4  -4  288.77   19.50
   7   4  -4  292.47   18.80
  -7  -4   4  207.98   18.30
  -7  -4   4  213.28   20.30
  -7  -4   4  223.28   18.80
   6   4  -4   99.99    9.90
   6   4  -4   98.89   10.10
   6   4  -4  107.09   10.50
  -6  -4   4  105.09   10.10
  -6  -4   4  112.19   12.00
  -6  -4   4  117.79   11.00
   5   4  -4  229.38   15.40
   5   4  -4  222.38   15.10
   5   4  -4  222.28   14.90
  -5  -4   4  189.58   14.80
  -5  -4   4  207.78   15.90
  -5  -4   4  190.28   16.40
   4   4  -4   11.60    3.40
   4   4  -4   11.80    3.10
   4   4  -4   12.10    3.60
  -4  -4   4   10.40    4.20
  -4  -4   4   17.30    2.90
  -4  -4   4   12.20    4.20
   3   4  -4 1959.00  102.89
   3   4  -4 1856.41  103.09
   3   4  -4 1835.82  103.09
  -3  -4   4 1665.03  102.69
  -3  -4   4 1589.64  103.99
  -3  -4   4 1666.43  103.69
   2   4  -4  817.02   50.59
   2   4  -4  845.92   49.80
   2   4  -4  844.12   49.70
   2   4  -4  861.21   49.30
  -2  -4   4  825.02   50.69
  -2  -4   4  842.32   49.80
  -2  -4   4  828.12   50.39
   1   4  -4 1788.12  106.39
   1   4  -4 1798.22  105.79
   1   4  -4 1865.81  105.29
   1   4  -4 1867.81  105.99
  -1  -4   4 1805.62  105.09
  -1  -4   4 1780.92  106.09
  -1  -4   4 1799.82  106.39
  -1  -4   4 1831.42  106.39
   0   4  -4 1321.37   75.59
   0   4  -4 1333.27   74.89
   0   4  -4 1271.37   75.39
   0   4  -4 1271.97   75.69
   0  -4   4 1305.67   75.79
   0  -4   4 1277.17   75.19
   0  -4   4 1238.68   75.79
  -1   4  -4 3754.42  216.68
  -1   4  -4 3704.33  216.88
  -1   4  -4 3959.60  216.28
  -1   4  -4 3657.03  216.68
   1  -4   4 3782.52  216.68
   1  -4   4 3740.93  216.68
   1  -4   4 3629.84  217.08
  -2   4  -4  988.30   58.79
  -2   4  -4  989.80   58.69
  -2   4  -4 1036.50   58.99
  -2   4  -4 1040.60   59.39
   2  -4   4  982.00   59.39
   2  -4   4  984.70   58.59
   2  -4   4  992.40   58.79
   2  -4   4  955.50   58.99
  -3   4  -4 2198.28  131.79
  -3   4  -4 2312.77  132.69
  -3   4  -4 2240.88  132.19
   3  -4   4 2252.67  132.49
   3  -4   4 2307.57  132.29
   3  -4   4 2270.47  131.99
   3  -4   4 2274.07  131.19
  -4   4  -4  313.57   18.60
  -4   4  -4  282.87   18.80
  -4   4  -4  290.97   19.70
   4  -4   4  267.37   19.20
   4  -4   4  268.67   18.80
   4  -4   4  264.57   19.10
  -5   4  -4  207.28   15.20
  -5   4  -4  197.08   14.00
  -5   4  -4  212.78   13.70
   5  -4   4  172.98   14.10
   5  -4   4  163.58   14.00
   5  -4   4  161.58   14.60
  -6   4  -4  243.68   16.80
  -6   4  -4  222.88   17.70
   6  -4   4  230.68   17.20
   6  -4   4  212.28   17.70
   6  -4   4  216.08   16.80
  -7   4  -4   82.69    9.30
  -7   4  -4   70.39    9.90
   7  -4   4   59.39    9.50
   7  -4   4   77.49   10.40
  -8   4  -4   81.29   11.90
  -8   4  -4   73.99    9.90
   8  -4   4   72.29   11.00
   8  -4   4   83.09   11.90
   9   3  -4  170.78   15.70
   9   3  -4  175.78   16.60
  -9  -3   4  186.78   18.60
  -9  -3   4  154.88   16.40
   8   3  -4    3.50    4.90
   8   3  -4    3.50    5.20
  -8  -3   4   15.60    7.30
  -8  -3   4   14.70    5.80
   7   3  -4  390.16   26.50
   7   3  -4  379.56   26.90
   7   3  -4  378.76   27.00
  -7  -3   4  407.26   27.10
  -7  -3   4  426.16   27.40
  -7  -3   4  425.26   29.00
   6   3  -4  179.28   14.80
   6   3  -4  195.38   14.80
   6   3  -4  190.18   15.00
  -6  -3   4  219.68   15.10
  -6  -3   4  204.78   16.80
  -6  -3   4  220.28   15.80
   5   3  -4  825.22   49.00
   5   3  -4  787.12   49.10
   5   3  -4  825.02   49.30
  -5  -3   4  789.92   50.79
  -5  -3   4  821.92   49.20
  -5  -3   4  833.12   49.90
   4   3  -4  109.29    8.80
   4   3  -4  112.19    8.80
   4   3  -4  112.99    7.10
   4   3  -4  112.49    8.90
   3   3  -4  176.98   13.00
   3   3  -4  167.28   12.90
   3   3  -4  188.08   13.00
  -3  -3   4  218.48   12.90
  -3  -3   4  207.38   14.40
  -3  -3   4  225.18   14.10
   2   3  -4  482.15   31.00
   2   3  -4  480.55   31.20
   2   3  -4  442.66   31.10
  -2  -3   4  580.84   31.60
  -2  -3   4  602.54   32.30
  -2  -3   4  545.35   32.30
   1   3  -4  211.78   12.60
   1   3  -4  192.28   13.30
   1   3  -4  200.08   12.90
   1   3  -4  200.68   12.90
  -1  -3   4  184.38   13.20
  -1  -3   4  203.68   13.30
  -1  -3   4  201.08   12.20
   0   3  -4   -0.20    1.40
   0   3  -4    2.50    1.80
   0   3  -4    2.00    1.80
   0   3  -4    0.90    1.80
   0  -3   4    8.90    2.50
   0  -3   4    6.70    2.50
   0  -3   4    7.60    2.10
  -1   3  -4   20.90    2.90
  -1   3  -4   22.30    3.10
  -1   3  -4   23.50    3.10
  -1   3  -4   19.10    2.90
   1  -3   4   13.10    2.80
   1  -3   4   13.20    2.70
   1  -3   4   12.90    3.30
   1  -3   4   14.40    2.60
  -2   3  -4  138.39   11.10
  -2   3  -4  143.79   11.40
  -2   3  -4  139.79   11.20
   2  -3   4  197.58   11.90
   2  -3   4  189.38   11.50
   2  -3   4  188.58   12.10
  -3   3  -4  182.78   12.60
  -3   3  -4  176.08   12.20
  -3   3  -4  177.98   11.40
   3  -3   4  156.28   12.30
   3  -3   4  171.48   12.40
   3  -3   4  165.68   12.10
   3  -3   4  164.88   10.80
  -4   3  -4  218.28   15.00
  -4   3  -4  220.98   15.60
  -4   3  -4  230.68   14.40
   4  -3   4  201.58   15.00
   4  -3   4  217.68   15.60
   4  -3   4  201.38   15.00
  -5   3  -4    8.30    3.10
  -5   3  -4    7.50    4.20
  -5   3  -4    5.70    3.40
   5  -3   4    5.00    4.10
   5  -3   4    1.40    3.70
   5  -3   4    9.20    3.90
  -6   3  -4  453.75   29.10
  -6   3  -4  439.76   28.10
  -6   3  -4  447.36   28.10
   6  -3   4  416.06   28.90
   6  -3   4  429.16   28.60
   6  -3   4  402.86   28.00
  -7   3  -4   97.89   10.50
  -7   3  -4   99.69   12.10
   7  -3   4  117.99   12.30
   7  -3   4  110.39   12.50
  -8   3  -4  165.38   14.80
  -8   3  -4  169.58   16.30
   8  -3   4  163.78   16.70
   8  -3   4  183.48   16.90
   9   2  -4  147.49   13.70
   9   2  -4  129.99   14.50
  -9  -2   4  116.29   14.30
  -9  -2   4  118.49   15.30
   8   2  -4   85.69   11.30
   8   2  -4   84.09   10.70
  -8  -2   4  104.19   13.20
  -8  -2   4   97.99   11.50
   7   2  -4  563.24   35.20
   7   2  -4  548.35   35.80
  -7  -2   4  547.55   35.90
  -7  -2   4  569.34   36.00
  -7  -2   4  558.74   37.50
   6   2  -4   19.40    4.90
   6   2  -4   10.00    4.20
   6   2  -4   10.30    3.80
  -6  -2   4   16.40    4.30
  -6  -2   4   20.90    5.20
  -6  -2   4    8.10    4.70
   5   2  -4 1587.74   99.09
   5   2  -4 1713.93   98.89
   5   2  -4 1725.73   99.29
   5   2  -4 1655.23   97.99
  -5  -2   4 1677.63  100.69
  -5  -2   4 1714.13   99.89
  -5  -2   4 1737.53   99.19
   4   2  -4  226.38   14.90
   4   2  -4  228.28   15.00
   4   2  -4  231.78   14.00
   4   2  -4  240.28   15.30
  -4  -2   4  214.08   16.30
  -4  -2   4  232.98   13.90
  -4  -2   4  213.48   15.70
  -4  -2   4  221.28   15.00
   3   2  -4 4931.31  283.57
   3   2  -4 5091.19  282.77
   3   2  -4 4893.01  283.57
   3   2  -4 4988.40  283.67
  -3  -2   4 5074.49  284.37
  -3  -2   4 4615.94  283.37
  -3  -2   4 4800.52  284.67
   2   2  -4  887.41   50.99
   2   2  -4  862.81   50.99
   2   2  -4  846.32   50.79
   2   2  -4  907.21   50.29
  -2  -2   4  836.92   51.69
  -2  -2   4  882.71   51.69
  -2  -2   4  837.62   51.29
   1   2  -4 3707.33  219.08
   1   2  -4 3845.42  219.18
   1   2  -4 3865.21  220.48
  -1  -2   4 3771.02  219.58
  -1  -2   4 3891.11  218.98
  -1  -2   4 3692.93  219.48
  -1  -2   4 3818.22  219.78
   0   2  -4  509.15   28.80
   0   2  -4  520.95   28.90
   0   2  -4  516.75   28.80
   0   2  -4  484.95   28.90
   0  -2   4  474.85   29.20
   0  -2   4  438.46   28.90
   0  -2   4  473.55   29.40
   0  -2   4  450.95   28.70
  -1   2  -4 3266.87  191.18
  -1   2  -4 3465.55  191.98
  -1   2  -4 3414.06  191.78
  -1   2  -4 3383.76  191.88
   1  -2   4 3231.78  192.08
   1  -2   4 3246.08  192.18
   1  -2   4 3247.07  191.78
   1  -2   4 3298.67  191.68
  -2   2  -4  207.78   15.90
  -2   2  -4  226.08   16.00
  -2   2  -4  231.38   16.10
  -2   2  -4  218.48   15.10
   2  -2   4  276.27   16.50
   2  -2   4  278.17   15.40
   2  -2   4  291.57   16.70
   2  -2   4  278.77   16.40
  -3   2  -4 2143.79  116.69
  -3   2  -4 2137.59  115.69
  -3   2  -4 2119.89  116.89
   3  -2   4 1840.92  116.39
   3  -2   4 1940.21  115.09
   3  -2   4 1898.91  116.49
   3  -2   4 1881.01  116.59
  -4   2  -4  447.46   29.00
  -4   2  -4  448.56   28.20
  -4   2  -4  467.45   29.50
   4  -2   4  464.95   29.30
   4  -2   4  491.35   29.20
   4  -2   4  467.45   29.40
  -5   2  -4  224.18   15.10
  -5   2  -4  220.48   15.80
  -5   2  -4  226.18   16.50
  -6   2  -4  413.26   28.50
  -6   2  -4  424.36   29.30
  -6   2  -4  442.66   30.00
   6  -2   4  480.55   29.90
   6  -2   4  465.65   30.20
   6  -2   4  500.75   30.30
  -7   2  -4   79.89    9.40
  -7   2  -4   69.29   10.40
   7  -2   4   76.49   10.90
   7  -2   4   73.99   10.70
  -8   2  -4  377.46   27.10
  -8   2  -4  408.66   28.50
   8  -2   4  405.86   28.60
   8  -2   4  384.36   28.50
  -9   2  -4    0.90    6.30
  -9   2  -4    7.30    5.70
   9  -2   4   17.80    8.00
   9  -2   4   18.20    8.00
   9   1  -4  103.69   13.30
   9   1  -4  114.59   11.90
  -9  -1   4   94.19   13.90
  -9  -1   4   92.69   12.80
   8   1  -4   29.90    6.00
   8   1  -4   29.70    6.80
  -8  -1   4   32.70    7.40
  -8  -1   4   33.10    8.00
   7   1  -4  346.17   22.80
   7   1  -4  349.37   23.90
  -7  -1   4  343.87   24.00
  -7  -1   4  340.47   25.20
  -7  -1   4  343.27   23.70
   6   1  -4  120.59    8.70
   6   1  -4  128.99    9.40
   6   1  -4  123.29   10.00
  -6  -1   4   85.99    9.80
  -6  -1   4   86.49   10.70
  -6  -1   4   81.89    9.50
   5   1  -4  226.98   13.70
   5   1  -4  217.28   14.80
   5   1  -4  227.18   14.20
   5   1  -4  222.88   14.80
  -5  -1   4  177.58   15.00
  -5  -1   4  182.78   14.40
   4   1  -4  226.38   13.90
   4   1  -4  225.68   14.90
   4   1  -4  224.18   14.60
   4   1  -4  209.78   14.30
   3   1  -4  674.03   42.80
   3   1  -4  701.83   42.20
   3   1  -4  690.33   42.60
   3   1  -4  685.73   42.60
  -3  -1   4  751.82   42.40
  -3  -1   4  749.62   43.70
  -3  -1   4  755.32   42.70
  -3  -1   4  751.92   43.80
   2   1  -4  431.86   25.00
   2   1  -4  430.26   25.20
   2   1  -4  426.66   24.70
   2   1  -4  448.36   24.70
  -2  -1   4  331.77   25.40
   1   1  -4  195.38   13.80
   1   1  -4  202.28   13.70
   1   1  -4  197.48   13.40
   1   1  -4  200.78   13.50
  -1  -1   4  251.87   14.20
  -1  -1   4  238.18   13.60
  -1  -1   4  254.37   14.70
  -1  -1   4  232.88   14.60
   0   1  -4  309.07   19.70
   0   1  -4  309.57   19.80
   0   1  -4  308.97   19.40
   0  -1   4  321.87   19.80
   0  -1   4  325.27   20.50
   0  -1   4  334.37   20.10
   0  -1   4  346.27   19.30
  -1   1  -4  454.45   28.60
  -1   1  -4  454.15   28.70
  -1   1  -4  477.65   28.40
   1  -1   4  470.25   28.90
   1  -1   4  480.65   28.70
   1  -1   4  497.65   28.50
   1  -1   4  486.95   29.30
  -2   1  -4 2116.89  132.99
  -2   1  -4 2119.69  132.89
  -2   1  -4 2109.69  131.89
   2  -1   4 2495.85  133.59
   2  -1   4 2500.15  132.39
   2  -1   4 2363.76  133.39
   2  -1   4 2314.07  133.19
  -3   1  -4  281.07   18.50
  -3   1  -4  284.97   17.50
  -3   1  -4  280.17   18.50
   3  -1   4  296.77   18.90
   3  -1   4  284.47   18.90
   3  -1   4  288.67   18.80
  -4   1  -4  289.47   21.20
  -4   1  -4  284.07   20.90
  -4   1  -4  299.67   20.20
   4  -1   4  349.67   21.70
   4  -1   4  357.76   21.70
   4  -1   4  382.86   21.60
  -5   1  -4  327.57   22.60
  -5   1  -4  343.67   21.90
  -5   1  -4  358.26   23.20
   5  -1   4  320.67   23.00
   5  -1   4  361.06   23.30
   5  -1   4  355.36   22.60
  -6   1  -4  163.08   13.10
  -6   1  -4  135.09   12.00
  -6   1  -4  140.99   11.10
   6  -1   4  134.59   12.80
   6  -1   4  140.99   12.90
  -7   1  -4  141.89   13.40
  -7   1  -4  122.69   12.20
   7  -1   4  152.88   14.10
   7  -1   4  142.59   14.10
  -8   1  -4   37.10    7.90
  -8   1  -4   40.40    7.40
   8  -1   4   38.00    8.50
   8  -1   4   44.70    8.70
  -9   1  -4    9.20    5.80
  -9   1  -4    9.40    6.80
   9  -1   4    2.70    7.20
   9  -1   4    9.00    7.40
   9   0  -4  213.38   18.50
   9   0  -4  205.08   16.70
  -9   0   4  201.58   18.60
  -9   0   4  214.28   19.90
   8   0  -4  106.29   10.80
   8   0  -4  119.99   12.40
  -8   0   4  116.69   13.80
  -8   0   4  116.39   12.60
   7   0  -4  447.86   27.90
   7   0  -4  443.26   28.90
   7   0  -4  413.96   27.50
  -7   0   4  435.36   29.40
  -7   0   4  440.86   30.30
  -7   0   4  439.86   28.70
   6   0  -4    1.90    2.80
   6   0  -4    0.10    2.80
   6   0  -4    1.50    3.70
  -6   0   4   -2.10    3.80
  -6   0   4   -0.30    3.40
  -6   0   4    3.00    3.50
   5   0  -4 1332.47   75.49
   5   0  -4 1260.07   74.69
   5   0  -4 1330.87   74.69
  -5   0   4 1258.97   75.99
  -5   0   4 1136.99   76.09
  -5   0   4 1307.97   75.59
   4   0  -4  112.69    8.30
   4   0  -4  123.59    9.20
   4   0  -4  117.59    8.50
  -4   0   4  118.69    7.70
  -4   0   4  114.39    9.90
  -4   0   4  124.29    9.00
   3   0  -4 2865.91  167.58
   3   0  -4 2934.31  167.98
   3   0  -4 2930.81  167.48
   3   0  -4 2789.92  167.38
  -3   0   4 2935.61  168.58
  -3   0   4 2841.52  167.28
  -3   0   4 2877.61  168.68
  -3   0   4 3008.90  167.68
   2   0  -4   40.40    3.50
   2   0  -4   37.40    4.20
   2   0  -4   35.10    3.60
   2   0  -4   39.00    3.30
  -2   0   4   38.50    3.30
  -2   0   4   39.90    3.80
  -2   0   4   37.60    5.30
  -2   0   4   42.10    4.50
   1   0  -4 3413.96  201.48
   1   0  -4 3506.05  202.08
   1   0  -4 3441.26  201.68
   1   0  -4 3493.95  202.18
  -1   0   4 3448.95  201.78
  -1   0   4 3589.04  201.98
  -1   0   4 3607.74  202.68
  -1   0   4 3487.95  202.98
   0   0  -4 1943.21  111.79
   0   0  -4 1957.20  112.29
   0   0  -4 1942.01  112.49
   0   0   4 1988.10  111.79
   0   0   4 1969.10  112.89
   0   0   4 1832.92  112.89
   0   0   4 1927.81  112.39
  -1   0  -4 1677.63   98.19
  -1   0  -4 1698.03   97.89
  -1   0  -4 1664.13   98.29
   1   0   4 1677.13   98.29
   1   0   4 1694.23   98.69
   1   0   4 1722.43   98.09
   1   0   4 1674.53   98.29
  -2   0  -4 3408.26  196.98
  -2   0  -4 3410.66  198.08
  -2   0  -4 3433.16  197.98
   2   0   4 3472.25  198.38
   2   0   4 3498.35  197.38
   2   0   4 3360.76  198.28
   2   0   4 3362.86  198.28
  -3   0  -4 2007.30  116.09
  -3   0  -4 1996.30  115.19
  -3   0  -4 1931.51  115.99
   3   0   4 1967.90  116.29
   3   0   4 2070.99  116.19
   3   0   4 1947.61  116.19
  -4   0  -4 2972.80  167.18
  -4   0  -4 2954.40  168.18
  -4   0  -4 2688.83  167.78
   4   0   4 2747.03  168.08
   4   0   4 2936.61  168.08
   4   0   4 3044.60  167.88
   4   0   4 2840.92  168.08
  -5   0  -4 1787.42  102.29
  -5   0  -4 1728.63  100.99
  -5   0  -4 1637.54  101.69
   5   0   4 1776.82  101.19
   5   0   4 1740.63  101.89
   5   0   4 1666.83  101.99
   5   0   4 1730.83  102.09
  -6   0  -4  740.43   43.80
  -6   0  -4  675.83   42.20
  -6   0  -4  662.93   43.00
   6   0   4  692.43   43.30
   6   0   4  689.13   43.50
   6   0   4  687.13   43.50
  -7   0  -4  571.74   38.10
  -7   0  -4  597.34   38.70
   7   0   4  601.14   39.00
   7   0   4  577.34   38.60
   7   0   4  631.14   38.70
  -8   0  -4  100.39   11.50
  -8   0  -4   98.79   12.40
   8   0   4  101.99   12.70
   8   0   4   97.89   12.70
   8   0   4  101.59   13.50
  -9   0  -4   24.50    7.40
  -9   0  -4   25.30    7.10
   9   0   4   35.00    9.30
   9   0   4   31.70    8.60
   9  -1  -4   90.19   12.70
   9  -1  -4  100.19   10.90
  -9   1   4  102.79   14.20
  -9   1   4  101.49   13.00
   8  -1  -4   35.00    6.30
   8  -1  -4   32.30    5.90
   8  -1  -4   40.00    7.70
  -8   1   4   27.10    7.90
  -8   1   4   25.00    6.80
   7  -1  -4  365.86   23.90
   7  -1  -4  329.57   22.60
   7  -1  -4  351.06   22.40
  -7   1   4  333.57   25.00
  -7   1   4  352.06   24.20
  -7   1   4  333.07   24.20
   6  -1  -4   79.09    8.10
   6  -1  -4   89.39    7.60
   6  -1  -4   76.79    8.60
  -6   1   4  104.19    9.60
   5  -1  -4  179.88   13.40
   5  -1  -4  191.68   14.10
   5  -1  -4  183.98   12.50
   5  -1  -4  173.08   12.90
  -5   1   4  232.18   14.90
  -5   1   4  218.68   15.40
  -5   1   4  232.28   14.70
   4  -1  -4  136.09   10.00
   4  -1  -4  124.09    8.90
   4  -1  -4  133.49    9.50
   4  -1  -4  135.89    8.90
   3  -1  -4  727.23   41.80
   3  -1  -4  754.82   42.60
   3  -1  -4  748.93   42.30
  -3   1   4  675.83   41.90
  -3   1   4  676.63   43.40
  -3   1   4  720.43   43.10
  -3   1   4  676.63   42.30
   2  -1  -4  308.17   23.50
  -2   1   4  426.26   23.60
  -2   1   4  401.26   24.80
  -2   1   4  418.86   23.20
   1  -1  -4  242.78   13.80
   1  -1  -4  245.18   14.30
   1  -1  -4  236.38   14.10
  -1   1   4  201.28   15.00
  -1   1   4  210.28   14.10
  -1   1   4  221.98   14.40
  -1   1   4  213.88   14.10
   0  -1  -4  336.37   20.00
   0  -1  -4  344.47   19.70
   0  -1  -4  330.57   19.10
   0   1   4  307.87   20.40
   0   1   4  317.07   19.90
   0   1   4  307.67   19.40
   0   1   4  319.07   20.20
  -1  -1  -4  503.75   27.90
  -1  -1  -4  484.55   28.20
  -1  -1  -4  483.65   28.50
   1   1   4  444.76   28.40
   1   1   4  459.85   28.40
   1   1   4  446.76   28.50
   1   1   4  461.95   28.30
   1   1   4  458.65   27.50
  -2  -1  -4 2375.36  131.69
  -2  -1  -4 2366.36  131.89
  -2  -1  -4 2476.55  130.99
  -2  -1  -4 2352.76  131.49
   2   1   4 2165.78  131.09
   2   1   4 2138.39  131.69
   2   1   4 2141.59  131.79
   2   1   4 2144.29  131.79
   2   1   4 2209.58  131.69
  -3  -1  -4  289.17   18.60
  -3  -1  -4  295.27   18.70
  -3  -1  -4  304.97   18.00
   3   1   4  295.37   18.80
   3   1   4  285.17   18.80
   3   1   4  278.17   19.00
   3   1   4  276.87   17.50
  -4  -1  -4  373.26   21.10
  -4  -1  -4  349.96   19.10
  -4  -1  -4  376.46   20.50
  -4  -1  -4  356.96   21.30
   4   1   4  267.57   20.60
   4   1   4  263.87   20.90
   4   1   4  282.37   21.10
   4   1   4  283.37   20.40
  -5  -1  -4  368.86   22.10
  -5  -1  -4  361.76   23.10
  -5  -1  -4  320.97   22.40
   5   1   4  342.27   23.10
   5   1   4  319.27   23.00
   5   1   4  349.96   22.90
   5   1   4  333.17   21.90
  -6  -1  -4  134.59   11.00
  -6  -1  -4  122.89   11.40
  -6  -1  -4  136.59   12.50
   6   1   4  144.79   12.70
   6   1   4  136.59   12.80
   6   1   4  146.09   12.40
  -7  -1  -4  150.28   13.90
  -7  -1  -4  153.98   13.00
   7   1   4  142.09   13.90
   7   1   4  143.79   13.90
   7   1   4  143.99   14.40
  -8  -1  -4   42.60    7.60
  -8  -1  -4   42.20    8.30
   8   1   4   43.90    8.60
   8   1   4   41.50    8.90
   8   1   4   42.40    8.30
  -9  -1  -4   10.40    6.60
  -9  -1  -4   11.60    6.20
   9   1   4   12.10    7.20
   9   1   4   12.60    8.00
   9   1   4   10.60    7.30
   9  -2  -4  122.69   14.00
   9  -2  -4  115.79   12.80
  -9   2   4  132.89   15.20
  -9   2   4  119.29   13.80
   8  -2  -4   93.59   11.70
   8  -2  -4   96.49   10.70
  -8   2   4   93.39   11.40
  -8   2   4   99.59   12.90
   7  -2  -4  570.04   34.90
   7  -2  -4  528.95   34.20
   7  -2  -4  559.94   33.60
  -7   2   4  529.65   35.30
  -7   2   4  515.55   36.30
   6  -2  -4   15.50    3.40
   6  -2  -4   12.70    4.40
   6  -2  -4   15.20    4.30
  -6   2   4   14.40    4.00
  -6   2   4   10.60    4.40
  -6   2   4   14.20    5.30
   5  -2  -4 1839.52  102.69
   5  -2  -4 1902.81  103.89
   5  -2  -4 1808.82  103.49
   5  -2  -4 1818.12  102.69
  -5   2   4 1681.53  103.89
  -5   2   4 1697.53  103.99
  -5   2   4 1597.94  104.59
   4  -2  -4  203.78   13.60
   4  -2  -4  205.78   14.20
   4  -2  -4  197.08   13.20
   4  -2  -4  203.68   14.30
  -4   2   4  231.08   14.50
  -4   2   4  219.58   15.40
  -4   2   4  221.18   15.10
  -4   2   4  217.28   13.60
   3  -2  -4 4850.71  285.27
   3  -2  -4 5240.68  286.17
   3  -2  -4 5014.70  285.87
   3  -2  -4 5057.09  286.07
  -3   2   4 4640.64  286.77
  -3   2   4 4834.62  285.77
  -3   2   4 4818.82  286.67
  -3   2   4 5178.18  285.77
   2  -2  -4  828.82   49.00
   2  -2  -4  832.22   48.90
   2  -2  -4  828.22   48.10
  -2   2   4  803.02   49.70
  -2   2   4  847.42   49.30
  -2   2   4  856.41   48.20
  -2   2   4  797.22   48.80
   1  -2  -4 3773.12  214.28
   1  -2  -4 3773.82  213.68
   1  -2  -4 3818.92  214.28
  -1   2   4 3765.72  214.38
  -1   2   4 3423.36  214.88
  -1   2   4 3704.13  214.48
   0  -2  -4  439.36   27.30
   0  -2  -4  461.05   28.10
   0  -2  -4  459.75   27.70
   0  -2  -4  432.86   28.10
   0   2   4  479.15   28.70
   0   2   4  505.75   27.30
   0   2   4  500.25   28.00
  -1  -2  -4 3277.87  192.68
  -1  -2  -4 3329.37  192.98
  -1  -2  -4 3234.68  193.08
   1   2   4 3397.76  192.28
   1   2   4 3480.55  192.98
   1   2   4 3387.06  192.48
   1   2   4 3264.47  192.98
   1   2   4 3373.46  193.08
   1   2   4 3267.47  192.98
  -2  -2  -4  277.27   15.80
  -2  -2  -4  278.37   14.90
   2   2   4  226.58   15.40
   2   2   4  215.08   14.70
   2   2   4  224.08   15.20
   2   2   4  223.88   14.80
   2   2   4  222.68   15.50
   2   2   4  225.38   15.00
   2   2   4  218.18   15.20
  -3  -2  -4 1897.81  119.49
  -3  -2  -4 1926.31  119.49
  -3  -2  -4 1930.91  119.29
   3   2   4 2131.09  119.19
   3   2   4 2196.18  120.29
   3   2   4 2083.89  119.99
   3   2   4 2153.88  119.69
   3   2   4 2097.29  119.69
  -4  -2  -4  487.75   28.70
  -4  -2  -4  501.05   27.80
  -4  -2  -4  476.65   29.00
  -4  -2  -4  488.75   28.90
   4   2   4  447.56   28.50
   4   2   4  419.56   29.20
   4   2   4  459.75   29.30
   4   2   4  439.96   28.80
   4   2   4  432.06   27.70
   5   2   4  210.18   15.40
   5   2   4  221.78   15.80
   5   2   4  202.48   14.30
  -6  -2  -4  490.25   30.10
  -6  -2  -4  477.55   29.40
  -6  -2  -4  499.35   29.20
   6   2   4  424.36   29.50
   6   2   4  408.36   29.30
   6   2   4  403.26   29.80
  -7  -2  -4   70.49   10.00
  -7  -2  -4   70.09    9.10
  -7  -2  -4   60.89    9.00
   7   2   4   77.39    9.80
   7   2   4   81.59   10.70
   7   2   4   72.89   10.30
  -8  -2  -4  379.46   27.30
  -8  -2  -4  377.46   28.00
   8   2   4  402.16   27.80
   8   2   4  394.76   28.70
   8   2   4  402.76   28.20
  -9  -2  -4   11.40    6.90
  -9  -2  -4   12.00    6.20
   9   2   4    4.40    6.90
   9   2   4    2.00    7.30
   9  -3  -4  182.08   15.80
   9  -3  -4  185.48   16.70
  -9   3   4  157.78   17.80
  -9   3   4  150.38   16.00
   8  -3  -4   13.50    6.10
   8  -3  -4   12.20    5.40
  -8   3   4    2.00    5.30
  -8   3   4    8.40    6.60
   7  -3  -4  429.36   26.60
   7  -3  -4  391.46   26.20
  -7   3   4  366.86   26.80
  -7   3   4  383.36   28.20
   6  -3  -4  213.58   13.90
   6  -3  -4  227.58   15.60
   6  -3  -4  226.48   15.60
  -6   3   4  182.38   15.30
  -6   3   4  205.58   15.20
  -6   3   4  185.48   16.60
   5  -3  -4  876.11   50.59
   5  -3  -4  910.71   51.19
   5  -3  -4  869.71   51.79
   5  -3  -4  852.81   51.79
  -5   3   4  845.62   51.99
  -5   3   4  788.42   52.79
  -5   3   4  859.81   51.79
  -4   3   4  114.59    9.80
  -4   3   4  126.39    9.00
  -4   3   4  111.59   10.10
  -4   3   4  115.99    8.70
   3  -3  -4  217.88   12.10
   3  -3  -4  220.98   13.40
   3  -3  -4  213.58   13.40
   3  -3  -4  217.08   13.60
  -3   3   4  181.18   13.90
  -3   3   4  176.58   13.00
  -3   3   4  187.28   14.10
  -3   3   4  182.28   12.70
   2  -3  -4  578.14   30.70
   2  -3  -4  559.54   30.50
   2  -3  -4  559.74   30.70
  -2   3   4  433.76   31.00
  -2   3   4  489.35   30.90
  -2   3   4  457.75   29.60
  -2   3   4  454.95   30.40
   1  -3  -4  190.68   12.70
   1  -3  -4  191.28   12.50
   1  -3  -4  189.38   11.50
  -1   3   4  192.78   12.90
  -1   3   4  200.78   13.60
  -1   3   4  197.58   11.80
  -1   3   4  191.88   12.90
   0  -3  -4    7.30    2.10
   0  -3  -4    5.10    1.50
   0  -3  -4    7.40    2.00
   0   3   4    1.70    2.10
   0   3   4    1.30    1.20
   0   3   4    1.50    2.00
   0   3   4   -0.20    2.30
   0   3   4    1.10    2.00
  -1  -3  -4   11.10    2.30
  -1  -3  -4   11.70    2.10
  -1  -3  -4   12.40    2.80
  -1  -3  -4    9.80    2.70
   1   3   4   18.40    3.10
   1   3   4   20.70    2.70
   1   3   4   18.70    3.00
   1   3   4   22.10    3.50
   1   3   4   19.30    3.50
   1   3   4   17.90    2.70
   1   3   4   18.80    3.00
   2   3   4  135.09    9.70
   2   3   4  132.59    9.70
   2   3   4  127.79    9.90
   2   3   4  132.79    9.20
   2   3   4  126.89    9.30
   2   3   4  129.59    9.40
   2   3   4  131.89    9.60
  -3  -3  -4  162.88   11.90
  -3  -3  -4  168.68   12.00
  -3  -3  -4  166.48   12.00
  -3  -3  -4  160.88   11.80
   3   3   4  190.48   13.10
   3   3   4  175.18   12.20
   3   3   4  172.98   12.20
   3   3   4  178.08   12.10
   3   3   4  191.98   12.30
   3   3   4  174.78   12.50
   3   3   4  179.08   12.30
  -4  -3  -4  210.68   14.40
  -4  -3  -4  211.78   14.90
  -4  -3  -4  217.88   15.00
  -4  -3  -4  212.08   15.00
   4   3   4  212.88   15.50
   4   3   4  220.18   15.20
   4   3   4  227.98   14.60
   4   3   4  236.48   14.90
   4   3   4  211.38   15.80
  -5  -3  -4    6.50    3.20
  -5  -3  -4    6.70    3.60
  -5  -3  -4    8.70    3.40
   5   3   4    5.20    3.70
   5   3   4    4.30    4.20
   5   3   4    6.30    4.00
   5   3   4    8.40    3.30
  -6  -3  -4  447.36   28.20
  -6  -3  -4  439.36   28.10
  -6  -3  -4  423.06   28.60
   6   3   4  422.56   28.30
   6   3   4  438.56   28.50
   6   3   4  403.26   28.80
  -7  -3  -4  115.59   11.30
  -7  -3  -4  119.89   11.20
  -7  -3  -4  106.49   12.00
   7   3   4  108.59   11.90
   7   3   4  105.19   12.70
   7   3   4  100.59   11.90
  -8  -3  -4  166.18   15.10
  -8  -3  -4  155.48   16.00
   8   3   4  156.18   16.60
   8   3   4  181.08   15.70
   8   3   4  168.38   16.20
   9  -4  -4  101.79   13.10
   9  -4  -4   91.09   12.10
  -9   4   4   78.89   12.20
  -9   4   4   78.89   12.60
   8  -4  -4   83.29   11.00
   8  -4  -4   75.19   10.50
  -8   4   4   83.09   12.70
  -8   4   4   70.39   10.70
   7  -4  -4  213.78   18.20
   7  -4  -4  233.88   18.30
  -7   4   4  283.57   21.00
  -7   4   4  272.97   19.00
   6  -4  -4  116.89   10.50
   6  -4  -4  118.59   11.10
  -6   4   4  117.19   12.20
  -6   4   4  111.89   10.50
  -6   4   4  111.99   10.20
   5  -4  -4  220.18   15.20
   5  -4  -4  203.88   15.90
   5  -4  -4  205.78   15.30
  -5   4   4  224.18   17.00
  -5   4   4  232.98   15.90
  -5   4   4  236.98   15.50
   4  -4  -4   11.10    3.60
   4  -4  -4   14.80    2.20
   4  -4  -4   11.90    3.30
   4  -4  -4   12.60    3.40
  -4   4   4   15.70    2.30
  -4   4   4   13.30    3.10
  -4   4   4   16.20    4.50
  -4   4   4   13.60    3.80
   3  -4  -4 1652.93  104.79
   3  -4  -4 1661.63  105.09
   3  -4  -4 1679.53  105.19
  -3   4   4 1882.21  105.29
  -3   4   4 1897.51  104.59
  -3   4   4 1931.01  106.09
  -3   4   4 1892.41  105.89
   2  -4  -4  843.12   50.59
   2  -4  -4  852.81   50.69
   2  -4  -4  846.92   50.19
  -2   4   4  877.31   51.39
  -2   4   4  844.12   50.99
  -2   4   4  840.42   49.80
  -2   4   4  846.12   50.69
   1  -4  -4 1732.73  106.39
   1  -4  -4 1774.82  106.19
   1  -4  -4 1828.52  105.89
  -1   4   4 1860.61  107.09
  -1   4   4 1886.01  106.69
  -1   4   4 1849.42  105.49
  -1   4   4 1828.92  106.59
   0  -4  -4 1309.67   75.19
   0  -4  -4 1299.57   75.89
   0  -4  -4 1310.07   75.59
   0  -4  -4 1274.57   76.19
   0   4   4 1266.27   76.59
   0   4   4 1301.67   75.89
   0   4   4 1292.17   76.09
   0   4   4 1302.47   75.29
  -1  -4  -4 3720.33  218.78
  -1  -4  -4 3839.42  218.78
  -1  -4  -4 3793.42  218.38
   1   4   4 3722.03  219.08
   1   4   4 3825.92  218.88
   1   4   4 3814.52  219.48
   1   4   4 3706.93  218.78
   1   4   4 3754.32  218.38
   1   4   4 3810.32  218.38
   1   4   4 3846.52  218.98
  -2  -4  -4  993.40   57.89
  -2  -4  -4  991.60   58.19
  -2  -4  -4  940.71   58.39
  -2  -4  -4  966.00   57.89
   2   4   4 1006.40   58.29
   2   4   4 1003.50   57.99
   2   4   4  987.00   58.69
   2   4   4 1010.70   58.49
   2   4   4  987.20   58.39
   2   4   4  969.80   57.89
   2   4   4  960.10   58.49
  -3  -4  -4 2207.28  129.19
  -3  -4  -4 2276.77  129.19
  -3  -4  -4 2228.48  129.39
  -3  -4  -4 2160.38  129.39
   3   4   4 2214.58  129.49
   3   4   4 2194.18  129.29
   3   4   4 2224.28  129.19
   3   4   4 2162.38  129.09
   3   4   4 2257.17  129.59
   3   4   4 2262.67  129.39
   3   4   4 2201.08  129.79
  -4  -4  -4  272.47   18.80
  -4  -4  -4  272.17   18.70
  -4  -4  -4  261.77   18.90
  -4  -4  -4  262.87   18.50
   4   4   4  302.77   18.80
   4   4   4  297.07   18.90
   4   4   4  302.17   19.90
   4   4   4  295.57   19.20
   4   4   4  292.07   19.00
   4   4   4  285.77   19.20
  -5  -4  -4  184.28   14.30
  -5  -4  -4  172.08   14.30
  -5  -4  -4  179.28   14.50
   5   4   4  209.38   14.80
   5   4   4  208.88   15.60
   5   4   4  196.48   15.00
   5   4   4  215.38   16.60
   5   4   4  203.48   15.00
  -6  -4  -4  223.18   16.80
  -6  -4  -4  225.58   17.20
  -6  -4  -4  216.88   16.90
   6   4   4  231.48   18.10
   6   4   4  231.18   17.40
   6   4   4  239.28   17.30
  -7  -4  -4   58.19    9.10
  -7  -4  -4   70.99    9.30
  -7  -4  -4   69.59    9.30
   7   4   4   77.49   10.20
   7   4   4   82.89   10.40
   7   4   4   77.49   11.60
  -8  -4  -4   87.19   12.20
  -8  -4  -4   86.79   11.10
   8   4   4   69.39   11.10
   8   4   4   75.89   10.80
   9  -5  -4   85.59   12.70
   9  -5  -4   84.99   11.20
  -9   5   4   78.49   12.70
  -9   5   4   73.69   11.20
   8  -5  -4   52.79    8.30
   8  -5  -4   45.60    8.40
  -8   5   4   43.20    9.60
  -8   5   4   43.50    8.30
   7  -5  -4  191.88   15.40
   7  -5  -4  196.58   14.90
  -7   5   4  163.78   14.90
  -7   5   4  150.68   16.20
   6  -5  -4  119.09   10.80
   6  -5  -4  115.49   11.70
   6  -5  -4  121.19   10.90
  -6   5   4  136.59   13.20
  -6   5   4  130.39   11.20
  -6   5   4  130.69   11.40
   5  -5  -4   30.50    5.00
   5  -5  -4   33.70    5.00
   5  -5  -4   34.70    5.80
  -5   5   4   16.40    5.30
  -5   5   4   20.00    4.90
  -5   5   4   21.10    4.50
   4  -5  -4  204.98   15.40
   4  -5  -4  208.08   15.10
   4  -5  -4  212.08   14.70
  -4   5   4  217.18   16.40
  -4   5   4  231.98   14.70
  -4   5   4  232.08   16.00
   3  -5  -4  108.29    8.80
   3  -5  -4  103.49    7.80
   3  -5  -4  104.29    8.70
  -3   5   4   93.79    7.60
  -3   5   4   92.29    8.50
  -3   5   4  103.59    9.40
  -3   5   4  101.69    9.30
   2  -5  -4  218.88   13.40
   2  -5  -4  226.28   13.30
  -2   5   4  170.28   13.60
  -2   5   4  169.88   12.10
  -2   5   4  164.88   13.00
  -2   5   4  175.78   13.50
   1  -5  -4   11.30    3.10
   1  -5  -4    9.90    2.30
   1  -5  -4    9.20    2.80
  -1   5   4    7.30    3.30
  -1   5   4    2.80    2.80
  -1   5   4    4.30    2.70
  -1   5   4    3.80    2.00
   0  -5  -4  112.49    8.70
   0  -5  -4  118.09    7.30
   0  -5  -4  108.29    8.30
   0  -5  -4  111.59    7.80
   0   5   4  108.49    7.30
   0   5   4   94.69    8.70
   0   5   4  105.19    7.80
   0   5   4  109.39    9.60
   0   5   4  104.79    8.80
  -1  -5  -4  418.26   26.10
  -1  -5  -4  436.06   25.60
  -1  -5  -4  436.66   25.10
  -1  -5  -4  411.86   25.60
   1   5   4  402.76   26.60
   1   5   4  415.66   25.50
   1   5   4  410.06   26.20
   1   5   4  415.96   25.10
   1   5   4  408.86   25.70
   1   5   4  408.36   25.30
   1   5   4  404.06   26.10
  -2  -5  -4   15.50    3.30
  -2  -5  -4   13.70    3.00
  -2  -5  -4   15.30    2.70
  -2  -5  -4   13.30    3.30
   2   5   4   12.00    3.70
   2   5   4   18.90    4.20
   2   5   4   13.10    3.10
   2   5   4   14.40    3.60
   2   5   4   14.10    3.50
   2   5   4   13.60    3.30
   2   5   4   16.50    3.10
  -3  -5  -4  336.17   20.90
  -3  -5  -4  331.27   21.20
  -3  -5  -4  338.57   21.70
  -3  -5  -4  321.77   21.60
  -3  -5  -4  332.37   21.10
  -3  -5  -4  329.17   21.50
  -3  -5  -4  345.47   21.20
   3   5   4  314.47   21.80
   3   5   4  336.27   21.20
   3   5   4  317.87   21.60
   3   5   4  326.57   21.80
   3   5   4  329.37   21.40
   3   5   4  314.77   20.90
   3   5   4  324.37   21.10
  -4  -5  -4   65.39    6.40
  -4  -5  -4   63.29    6.60
  -4  -5  -4   56.09    6.90
   4   5   4   44.40    6.60
   4   5   4   52.09    6.50
   4   5   4   41.90    6.60
   4   5   4   39.30    6.00
   4   5   4   45.90    6.90
   4   5   4   46.10    6.60
   4   5   4   42.30    6.60
  -5  -5  -4  277.77   19.10
  -5  -5  -4  280.87   18.90
  -5  -5  -4  285.37   19.60
  -5  -5  -4  258.97   18.60
   5   5   4  263.17   19.40
   5   5   4  274.87   19.20
   5   5   4  275.87   20.00
   5   5   4  271.47   19.20
  -6  -5  -4  150.18   12.20
  -6  -5  -4  149.99   12.60
  -6  -5  -4  158.28   12.70
   6   5   4  117.09   13.30
   6   5   4   98.39   12.10
  -7  -5  -4   39.70    7.40
  -7  -5  -4   31.20    7.10
  -7  -5  -4   33.80    6.90
   7   5   4   28.40    7.30
   7   5   4   30.40    7.60
  -8  -5  -4   18.30    6.50
  -8  -5  -4   21.40    7.20
   8   5   4   23.40    7.70
   8   5   4   26.10    8.20
   8  -6  -4   20.20    6.50
   8  -6  -4   17.90    7.10
  -8   6   4   22.90    6.90
  -8   6   4   22.90    8.20
   7  -6  -4  223.08   19.30
   7  -6  -4  251.67   18.50
  -7   6   4  268.17   19.30
  -7   6   4  240.88   20.90
   6  -6  -4   20.60    5.10
   6  -6  -4   25.90    5.50
   6  -6  -4   27.60    6.30
  -6   6   4   26.90    5.50
  -6   6   4   32.50    7.60
  -6   6   4   28.50    5.80
   5  -6  -4  947.21   57.49
   5  -6  -4  976.20   58.09
   5  -6  -4  939.21   56.79
  -5   6   4  945.11   57.69
  -5   6   4  970.90   59.19
  -5   6   4  922.21   57.09
   4  -6  -4  183.68   13.90
   4  -6  -4  189.08   12.80
   4  -6  -4  186.08   13.80
  -4   6   4  184.88   14.10
  -4   6   4  177.48   14.70
  -4   6   4  165.38   12.70
   3  -6  -4 1305.07   79.39
   3  -6  -4 1247.18   80.29
   3  -6  -4 1364.66   80.39
  -3   6   4 1441.36   81.09
  -3   6   4 1390.76   81.39
  -3   6   4 1389.96   79.59
   2  -6  -4   39.90    4.50
   2  -6  -4   38.00    5.80
   2  -6  -4   41.10    6.10
  -2   6   4   45.30    6.30
  -2   6   4   47.90    7.00
  -2   6   4   46.70    6.60
  -2   6   4   49.20    5.00
   1  -6  -4 1420.96   82.49
   1  -6  -4 1332.87   82.89
   1  -6  -4 1442.66   81.69
  -1   6   4 1433.66   81.99
  -1   6   4 1333.17   83.09
  -1   6   4 1385.96   82.99
  -1   6   4 1458.35   83.59
   0  -6  -4  131.09    9.90
   0  -6  -4  136.59    9.30
   0  -6  -4  132.69   10.60
   0  -6  -4  140.89    8.80
   0   6   4  145.29    9.80
   0   6   4  125.99   10.70
   0   6   4  127.49   11.20
   0   6   4  132.69   10.80
   0   6   4  137.89    8.80
  -1  -6  -4  445.16   29.30
  -1  -6  -4  447.26   30.20
  -1  -6  -4  433.56   29.60
  -1  -6  -4  459.75   29.00
   1   6   4  504.95   30.50
   1   6   4  510.85   30.80
   1   6   4  529.75   29.70
   1   6   4  533.65   29.20
   1   6   4  496.55   31.00
  -2  -6  -4  359.46   23.40
  -2  -6  -4  325.97   22.60
  -2  -6  -4  347.87   23.90
  -2  -6  -4  343.57   22.40
  -2  -6  -4  355.96   23.00
   2   6   4  391.06   23.10
   2   6   4  385.76   23.20
   2   6   4  374.86   24.00
   2   6   4  369.96   22.60
   2   6   4  365.66   23.10
   2   6   4  358.06   23.50
   2   6   4  370.66   24.20
  -3  -6  -4  310.47   21.20
  -3  -6  -4  307.67   20.70
  -3  -6  -4  307.27   21.80
  -3  -6  -4  322.37   21.10
  -3  -6  -4  308.37   21.20
  -3  -6  -4  321.77   20.90
  -3  -6  -4  305.67   21.80
   3   6   4  343.47   21.60
   3   6   4  344.07   21.70
   3   6   4  340.07   22.20
   3   6   4  330.07   20.90
   3   6   4  345.67   21.10
   3   6   4  325.27   21.30
   3   6   4  333.97   22.30
  -4  -6  -4  522.75   34.70
  -4  -6  -4  543.45   34.20
  -4  -6  -4  525.15   34.90
  -4  -6  -4  526.15   34.20
  -4  -6  -4  535.25   34.10
  -4  -6  -4  540.55   34.00
   4   6   4  566.44   35.00
   4   6   4  565.24   34.20
   4   6   4  561.14   34.30
   4   6   4  575.54   34.40
   4   6   4  575.54   35.60
   4   6   4  565.74   34.70
   4   6   4  542.75   35.00
  -5  -6  -4  551.54   34.80
  -5  -6  -4  535.75   35.50
  -5  -6  -4  529.95   35.00
  -5  -6  -4  524.75   34.80
   5   6   4  556.54   35.40
   5   6   4  586.84   36.00
   5   6   4  570.74   35.10
   5   6   4  559.24   34.80
  -6  -6  -4  383.26   25.10
  -6  -6  -4  392.36   26.00
  -6  -6  -4  373.86   25.40
   6   6   4  354.76   25.30
   6   6   4  342.77   25.90
   6   6   4  355.66   25.80
  -7  -6  -4  197.18   18.00
  -7  -6  -4  208.98   18.30
  -7  -6  -4  233.58   17.90
   7   6   4  246.88   18.90
   7   6   4  242.88   19.50
  -8  -6  -4   38.20    8.00
  -8  -6  -4   48.40    9.10
   8   6   4   43.20    9.00
   8   6   4   39.00    9.50
   8  -7  -4   50.49    9.30
  -8   7   4   31.80    9.40
   7  -7  -4   90.09   11.90
  -7   7   4   84.89   13.30
  -7   7   4   79.79   10.50
   6  -7  -4   69.69    8.80
   6  -7  -4   70.19   10.10
  -6   7   4   45.90    7.10
  -6   7   4   46.60    7.50
  -6   7   4   45.50    9.10
   5  -7  -4   49.80    8.00
   5  -7  -4   47.20    7.70
  -5   7   4   83.89   10.80
  -5   7   4   74.19    7.90
  -5   7   4   85.79    9.50
   4  -7  -4  209.78   14.40
   4  -7  -4  203.08   14.30
  -4   7   4  168.08   14.40
  -4   7   4  152.98   14.80
  -4   7   4  146.89   12.60
   3  -7  -4  129.59    9.20
   3  -7  -4  128.89   11.00
   3  -7  -4  128.99   10.70
  -3   7   4  117.79   11.40
  -3   7   4  111.39   11.20
  -3   7   4  108.09    9.50
   2  -7  -4  100.09    9.20
   2  -7  -4  111.69    7.30
   2  -7  -4  114.59    9.00
  -2   7   4   77.89    9.60
  -2   7   4   70.89    9.30
  -2   7   4   74.29    7.70
   1  -7  -4  146.69   11.30
   1  -7  -4  153.48   10.10
   1  -7  -4  138.59   11.80
  -1   7   4  150.58   10.90
  -1   7   4  144.69   12.40
  -1   7   4  150.08   12.60
  -1   7   4  148.79   12.10
   0  -7  -4  282.17   18.60
   0  -7  -4  293.77   19.50
   0  -7  -4  282.87   17.50
   0   7   4  280.57   19.90
   0   7   4  270.67   19.30
   0   7   4  288.47   18.40
   0   7   4  268.37   19.50
  -1  -7  -4  108.89    9.10
  -1  -7  -4  118.59    8.30
  -1  -7  -4  116.39    8.60
  -1  -7  -4  121.19   10.20
   1   7   4  114.09    8.40
   1   7   4  112.69   10.70
   1   7   4  116.29   11.20
   1   7   4  114.29   10.30
   1   7   4  116.49    9.50
  -2  -7  -4  419.46   26.80
  -2  -7  -4  408.26   28.20
  -2  -7  -4  436.76   27.00
  -2  -7  -4  438.36   27.80
   2   7   4  437.76   27.20
   2   7   4  434.96   27.10
   2   7   4  422.06   28.60
   2   7   4  444.06   26.60
   2   7   4  424.86   27.80
   2   7   4  437.56   28.40
  -3  -7  -4   35.00    6.00
  -3  -7  -4   29.40    5.00
  -3  -7  -4   26.60    5.80
  -3  -7  -4   26.10    4.30
  -3  -7  -4   26.10    5.00
   3   7   4   33.80    5.10
   3   7   4   35.80    5.70
   3   7   4   36.30    5.80
   3   7   4   31.20    4.80
   3   7   4   31.70    6.30
   3   7   4   29.40    5.30
   3   7   4   32.80    6.40
  -4  -7  -4  159.98   14.20
  -4  -7  -4  168.18   13.10
  -4  -7  -4  160.68   13.50
  -4  -7  -4  176.88   13.00
  -4  -7  -4  170.68   13.60
  -4  -7  -4  164.58   14.30
  -4  -7  -4  162.78   13.30
   4   7   4  189.28   14.40
   4   7   4  195.88   15.50
   4   7   4  185.98   14.30
   4   7   4  182.88   13.40
   4   7   4  204.08   14.10
   4   7   4  190.48   13.80
   4   7   4  168.48   14.70
  -5  -7  -4   47.00    6.70
  -5  -7  -4   54.69    8.50
  -5  -7  -4   53.19    7.60
  -5  -7  -4   53.39    7.90
   5   7   4   45.20    7.60
   5   7   4   57.39    8.20
   5   7   4   42.70    8.20
   5   7   4   54.09    7.60
  -6  -7  -4   20.80    5.80
  -6  -7  -4   25.00    6.70
  -6  -7  -4   24.10    6.20
   6   7   4   30.50    7.50
   6   7   4   29.90    6.80
   6   7   4   38.50    7.70
  -7  -7  -4   39.20    8.20
  -7  -7  -4   41.40    8.00
  -7  -7  -4   39.10    7.40
   7   7   4   32.70    8.50
   7   7   4   32.70    8.10
   7   7   4   42.50    8.70
   7  -8  -4   97.79   13.20
  -7   8   4  126.49   15.30
   6  -8  -4   71.39    9.70
   6  -8  -4   77.59   10.40
  -6   8   4   55.69   10.30
  -6   8   4   77.39    9.90
  -6   8   4   62.89   11.50
   5  -8  -4  317.67   23.70
   5  -8  -4  313.57   23.90
  -5   8   4  358.66   25.70
  -5   8   4  337.67   23.00
  -5   8   4  386.96   24.60
   4  -8  -4    6.90    4.90
   4  -8  -4    7.00    4.90
  -4   8   4    7.10    3.80
  -4   8   4   14.80    5.60
  -4   8   4    8.10    5.40
   3  -8  -4  413.56   28.60
   3  -8  -4  411.16   29.10
  -3   8   4  481.95   30.00
  -3   8   4  449.76   28.10
  -3   8   4  470.75   30.40
   2  -8  -4   34.50    5.50
   2  -8  -4   27.80    5.80
  -2   8   4   36.30    5.10
  -2   8   4   37.50    6.80
  -2   8   4   31.80    6.40
   1  -8  -4  451.95   30.30
   1  -8  -4  437.26   29.40
  -1   8   4  484.75   29.30
  -1   8   4  490.35   31.20
  -1   8   4  475.95   31.00
   0  -8  -4  129.79   11.40
   0  -8  -4  131.89   10.40
   0   8   4  137.29   12.50
   0   8   4  127.29   10.60
   0   8   4  136.59   12.40
  -1  -8  -4  749.33   45.80
  -1  -8  -4  721.13   46.50
  -1  -8  -4  720.73   44.70
   1   8   4  728.33   46.60
   1   8   4  765.92   46.50
   1   8   4  752.72   45.00
  -2  -8  -4  173.78   11.80
  -2  -8  -4  178.58   13.10
  -2  -8  -4  172.58   13.90
   2   8   4  135.59   12.30
   2   8   4  139.79   14.10
   2   8   4  129.69   13.50
  -3  -8  -4  467.05   31.90
  -3  -8  -4  469.85   30.30
  -3  -8  -4  477.85   32.20
  -3  -8  -4  482.85   31.20
   3   8   4  486.75   32.40
   3   8   4  523.35   31.40
   3   8   4  485.05   32.70
   3   8   4  484.45   30.30
  -4  -8  -4   88.59    8.60
  -4  -8  -4   88.19   10.10
  -4  -8  -4   79.59    9.80
  -4  -8  -4   88.99    9.10
  -4  -8  -4   91.39    9.50
   4   8   4   80.69   11.30
   4   8   4   75.79   11.10
   4   8   4   77.29    9.90
   4   8   4   74.39    8.80
  -5  -8  -4  452.55   26.80
  -5  -8  -4  417.66   27.60
  -5  -8  -4  425.46   27.30
  -5  -8  -4  414.26   28.00
   5   8   4  375.16   28.50
   5   8   4  356.66   26.60
   5   8   4  351.76   27.20
  -6  -8  -4   29.00    6.40
  -6  -8  -4   41.30    7.50
  -6  -8  -4   39.30    7.80
   6   8   4   32.30    7.20
   6   8   4   30.40    7.70
   6  -9  -4  243.28   19.70
   6  -9  -4  229.78   19.00
  -6   9   4  236.48   21.30
   5  -9  -4  267.67   20.90
   5  -9  -4  269.67   20.90
  -5   9   4  277.07   21.10
  -5   9   4  298.27   23.10
   4  -9  -4  125.99   12.60
   4  -9  -4  116.79   12.40
  -4   9   4  138.69   13.30
  -4   9   4  121.29   14.10
  -4   9   4  122.29   11.20
   3  -9  -4   25.90    6.20
   3  -9  -4   27.00    6.00
  -3   9   4   32.90    7.40
  -3   9   4   22.80    5.00
  -3   9   4   31.30    7.00
   2  -9  -4  255.67   18.60
   2  -9  -4  253.77   19.30
  -2   9   4  263.77   20.20
  -2   9   4  276.47   20.30
  -2   9   4  255.77   17.90
   1  -9  -4   -1.30    3.40
   1  -9  -4    2.90    4.30
   1  -9  -4    3.10    4.90
  -1   9   4    1.90    3.50
  -1   9   4    2.60    5.10
  -1   9   4    1.50    4.80
   0  -9  -4  133.39   10.30
   0  -9  -4  135.69   11.40
   0  -9  -4  139.39   12.70
   0   9   4   93.29   10.20
   0   9   4  104.79   12.10
   0   9   4   93.99   11.90
  -1  -9  -4  164.38   12.20
  -1  -9  -4  154.78   14.40
  -1  -9  -4  167.38   13.60
   1   9   4  157.88   12.80
   1   9   4  160.28   15.10
   1   9   4  145.39   14.40
  -2  -9  -4  241.48   17.00
  -2  -9  -4  258.37   15.80
  -2  -9  -4  261.67   18.80
   2   9   4  188.28   16.30
   2   9   4  187.88   17.50
   2   9   4  181.78   18.00
  -3  -9  -4   32.40    6.20
  -3  -9  -4   31.70    6.90
  -3  -9  -4   32.90    7.20
   3   9   4   35.40    7.60
   3   9   4   34.20    6.70
   3   9   4   31.80    7.70
  -4  -9  -4   95.99   10.20
  -4  -9  -4   95.89   11.30
  -4  -9  -4   95.39   10.00
  -4  -9  -4   85.49   10.80
  -4  -9  -4   90.59   13.00
   4   9   4   90.59   12.80
   4   9   4   73.29   11.80
   4   9   4   81.79   11.00
  -5  -9  -4   61.59    8.50
  -5  -9  -4   60.99    8.70
  -5  -9  -4   59.99    9.30
  -5  -9  -4   63.89    9.80
   5   9   4   60.49   10.30
   5   9   4   72.79   10.00
   5   9   4   60.99    9.30
  -6  -9  -4   29.70    7.80
  -6  -9  -4   43.20    7.90
  -6  -9  -4   28.20    6.70
   6   9   4   34.30    7.50
   6   9   4   28.20    8.10
   5 -10  -4   64.99    9.70
   5 -10  -4   66.89    9.70
  -5  10   4   56.99    9.70
  -5  10   4   57.79   10.90
   4 -10  -4   31.20    7.20
   4 -10  -4   39.10    7.90
  -4  10   4   41.60    9.20
  -4  10   4   43.20    8.50
   3 -10  -4  195.58   16.90
   3 -10  -4  167.88   16.20
   3 -10  -4  180.78   15.50
  -3  10   4  202.58   18.30
  -3  10   4  207.68   18.10
  -3  10   4  203.28   17.40
   2 -10  -4   33.70    7.10
   2 -10  -4   29.60    7.40
   2 -10  -4   32.40    6.20
  -2  10   4   36.60    8.10
  -2  10   4   31.50    6.00
  -2  10   4   40.20    8.40
   1 -10  -4  277.97   21.20
   1 -10  -4  265.87   19.70
   1 -10  -4  266.57   21.60
  -1  10   4  305.47   20.20
  -1  10   4  299.47   22.40
  -1  10   4  302.57   22.50
   0 -10  -4  176.38   15.10
   0 -10  -4  168.98   16.00
   0 -10  -4  172.08   13.60
   0  10   4  183.08   14.40
   0  10   4  185.38   16.40
   0  10   4  174.58   16.70
  -1 -10  -4  497.45   32.50
  -1 -10  -4  520.65   34.20
  -1 -10  -4  523.95   35.30
   1  10   4  517.05   35.50
   1  10   4  515.55   35.20
   1  10   4  529.25   33.40
  -2 -10  -4  257.87   22.00
  -2 -10  -4  300.47   21.30
   2  10   4  308.07   21.00
   2  10   4  287.77   22.60
   2  10   4  271.57   22.80
  -3 -10  -4  122.99   13.40
  -3 -10  -4  131.99   12.60
  -3 -10  -4  113.59   13.60
   3  10   4  130.59   13.10
   3  10   4  132.19   14.80
   3  10   4  131.89   14.60
  -4 -10  -4   99.69   12.30
  -4 -10  -4   87.89   12.30
   4  10   4  116.89   14.50
   4  10   4  126.29   12.80
  -5 -10  -4   24.00    6.70
  -5 -10  -4   16.70    6.90
  -5 -10  -4   25.70    7.50
   5  10   4   37.70    8.20
   5  10   4   31.60    9.00
   4 -11  -4   98.89   11.90
   4 -11  -4   96.19   12.50
   4 -11  -4   89.99   12.40
  -4  11   4   70.59   11.90
  -4  11   4   81.79   11.80
   3 -11  -4   83.49   11.80
   3 -11  -4   83.79   11.00
   3 -11  -4   83.99   12.00
  -3  11   4   89.79   12.90
  -3  11   4   71.79   11.50
   2 -11  -4  261.67   18.90
   2 -11  -4  253.87   20.40
   2 -11  -4  255.17   20.20
  -2  11   4  229.28   21.00
  -2  11   4  239.08   21.00
   1 -11  -4   90.59   11.80
   1 -11  -4   88.89    9.90
   1 -11  -4   77.79   12.10
  -1  11   4   99.19   13.70
  -1  11   4   95.39   13.50
  -1  11   4   91.99   13.20
   0 -11  -4  141.19   12.50
   0 -11  -4  151.48   14.40
   0 -11  -4  137.79   15.10
   0  11   4  144.09   15.90
   0  11   4  147.89   13.40
   0  11   4  152.58   16.20
  -1 -11  -4   23.80    6.70
  -1 -11  -4   27.10    7.80
   1  11   4   18.90    7.90
   1  11   4   21.60    6.10
   1  11   4   19.00    7.70
  -2 -11  -4   34.60    7.40
  -2 -11  -4   28.20    8.10
   2  11   4   27.00    6.80
   2  11   4   26.70    8.60
   2  11   4   31.70    8.70
  -3 -11  -4  112.19   14.00
  -3 -11  -4  111.49   13.50
  -3 -11  -4  124.59   12.60
   3  11   4  110.09   15.20
   3  11   4  110.29   14.80
   3  11   4  115.49   13.50
  -4 -11  -4   45.70    9.70
  -4 -11  -4   59.29   10.10
   4  11   4   74.69   12.00
   4  11   4   70.29   10.10
   2 -12  -4   22.20    7.90
   2 -12  -4   31.70    8.10
   2 -12  -4   36.10    7.40
  -2  12   4   27.60    8.80
  -2  12   4   40.40    9.60
   1 -12  -4   87.39   13.10
   1 -12  -4   89.69   12.70
  -1  12   4  104.09   14.60
  -1  12   4  115.49   15.20
   0 -12  -4   27.50    7.60
   0 -12  -4   19.60    7.60
   0  12   4   20.10    8.30
   0  12   4   22.60    8.60
  -1 -12  -4   25.80    8.30
  -1 -12  -4   23.70    7.20
   1  12   4   28.20    9.20
   1  12   4   31.50    9.00
  -2 -12  -4   44.40    8.80
  -2 -12  -4   45.30   10.00
   2  12   4   35.90    9.90
   2  12   4   40.50    9.90
   2  12  -5   37.90    8.10
   2  12  -5   31.50    8.80
  -2 -12   5   21.20    7.80
  -2 -12   5   23.90    7.90
  -2 -12   5   36.10    8.10
   1  12  -5   11.20    6.40
   1  12  -5   10.30    7.30
  -1 -12   5   13.60    6.50
  -1 -12   5    7.50    6.30
  -1 -12   5   10.50    7.00
   0  12  -5   85.99   12.70
   0  12  -5   64.19    9.80
   0 -12   5   62.49   10.10
   0 -12   5   67.39   11.20
   0 -12   5   59.39   10.00
  -1  12  -5    8.00    6.60
  -1  12  -5   14.90    6.60
   1 -12   5   10.10    6.80
   1 -12   5   10.20    6.50
   4  11  -5  128.49   14.30
   4  11  -5  139.89   13.20
   4  11  -5  143.39   16.80
  -4 -11   5  113.49   15.20
  -4 -11   5  116.19   15.40
   3  11  -5    7.80    4.80
   3  11  -5    8.10    6.90
   3  11  -5    4.20    5.60
  -3 -11   5   13.50    6.80
  -3 -11   5   14.50    7.10
  -3 -11   5    9.80    5.70
   2  11  -5   49.50    7.20
   2  11  -5   51.39   10.00
   2  11  -5   52.39    8.50
  -2 -11   5   53.39    8.40
  -2 -11   5   32.70    8.50
  -2 -11   5   42.30    8.80
   1  11  -5   47.70    8.60
   1  11  -5   41.60    6.70
   1  11  -5   57.09    9.90
  -1 -11   5   66.59   10.00
  -1 -11   5   51.09    9.60
  -1 -11   5   47.50    8.70
   0  11  -5   65.89    9.20
   0 -11   5   34.70    7.80
   0 -11   5   33.80    7.60
  -1  11  -5  109.09   12.80
  -1  11  -5   97.49   12.80
   1 -11   5  121.19   12.90
   1 -11   5  132.09   13.90
  -2  11  -5   38.20    7.60
  -2  11  -5   41.70    8.30
   2 -11   5   29.30    7.10
   2 -11   5   29.40    8.10
  -3  11  -5   70.19   10.50
   3 -11   5   70.19   11.00
   5  10  -5   29.30    7.00
   5  10  -5   27.90    7.60
  -5 -10   5   49.40    9.60
  -5 -10   5   40.30    9.70
   4  10  -5   48.00    7.60
   4  10  -5   49.30    8.50
   4  10  -5   50.19   10.40
  -4 -10   5   60.29   10.20
  -4 -10   5   51.59   10.30
   3  10  -5  148.29   16.40
   3  10  -5  158.58   13.70
   3  10  -5  150.58   14.60
  -3 -10   5  180.28   14.50
  -3 -10   5  180.28   15.90
  -3 -10   5  172.38   16.60
   2  10  -5    5.70    5.70
   2  10  -5    0.90    3.90
   2  10  -5    3.30    4.70
  -2 -10   5    8.90    5.70
  -2 -10   5    4.60    4.90
  -2 -10   5    7.50    5.90
   1  10  -5  119.99   11.00
   1  10  -5  128.69   13.60
   1  10  -5  125.09   12.40
  -1 -10   5  136.49   12.90
  -1 -10   5  141.09   13.40
  -1 -10   5  132.49   13.90
   0  10  -5   35.90    7.30
   0  10  -5   36.00    7.60
   0  10  -5   35.00    5.60
   0 -10   5   35.70    7.20
   0 -10   5   25.60    6.80
  -1  10  -5   85.09    9.00
  -1  10  -5   84.29   10.80
  -1  10  -5   93.59   11.40
   1 -10   5  108.39   12.20
   1 -10   5  107.79   11.30
  -2  10  -5  235.58   18.30
  -2  10  -5  220.38   17.90
   2 -10   5  208.48   18.40
   2 -10   5  211.88   17.20
  -3  10  -5   57.79    9.40
   3 -10   5   62.89   10.00
  -4  10  -5   70.29   10.20
   4 -10   5   52.49    9.70
   4 -10   5   62.59    9.30
   6   9  -5  152.28   15.10
   6   9  -5  155.38   14.80
  -6  -9   5  142.29   17.10
  -6  -9   5  146.29   16.40
   5   9  -5   89.09   11.00
   5   9  -5   88.09   11.40
  -5  -9   5  121.09   13.80
  -5  -9   5  105.79   14.00
   4   9  -5  374.96   25.40
   4   9  -5  357.46   24.50
   4   9  -5  355.86   27.40
  -4  -9   5  364.56   26.40
  -4  -9   5  336.97   26.90
   3   9  -5  103.79   10.60
   3   9  -5  101.79   12.80
   3   9  -5  100.19   11.40
  -3  -9   5  127.09   11.20
  -3  -9   5  110.29   13.00
  -3  -9   5  127.79   12.50
   2   9  -5 1050.89   61.19
   2   9  -5 1011.50   60.19
   2   9  -5 1014.60   62.59
  -2  -9   5  937.01   61.99
  -2  -9   5  939.61   61.49
  -2  -9   5 1034.80   61.09
   1   9  -5  304.67   19.80
   1   9  -5  305.87   21.00
   1   9  -5  296.67   21.80
  -1  -9   5  284.77   20.90
  -1  -9   5  270.97   21.10
  -1  -9   5  286.97   21.80
   0   9  -5  543.95   34.10
   0   9  -5  560.94   35.30
   0   9  -5  561.84   36.10
   0  -9   5  540.15   35.60
   0  -9   5  534.95   35.40
  -1   9  -5   36.80    6.40
  -1   9  -5   35.80    5.30
  -1   9  -5   39.90    7.00
   1  -9   5   28.00    6.20
   1  -9   5   33.80    7.10
  -2   9  -5  207.28   16.80
  -2   9  -5  208.08   15.20
  -2   9  -5  208.28   16.70
   2  -9   5  211.78   17.50
   2  -9   5  205.88   16.20
   2  -9   5  227.98   15.80
  -3   9  -5   38.20    6.90
  -3   9  -5   47.90    8.10
   3  -9   5   41.20    6.90
   3  -9   5   33.70    7.60
  -4   9  -5   58.69    9.50
   4  -9   5   76.79   11.50
   4  -9   5   68.69   10.00
  -5   9  -5   51.19    9.50
   5  -9   5   60.29   10.20
   5  -9   5   65.29    9.70
   7   8  -5   51.49    9.00
   7   8  -5   53.99    9.50
  -7  -8   5   63.29    9.70
  -7  -8   5   49.70   10.10
  -7  -8   5   54.79   11.10
   6   8  -5   24.40    6.50
   6   8  -5   20.40    6.70
  -6  -8   5   40.30    9.50
  -6  -8   5   42.80    8.90
   5   8  -5   41.80    7.10
   5   8  -5   45.70    7.50
  -5  -8   5   61.49    9.60
  -5  -8   5   46.90    9.30
   4   8  -5  196.18   14.90
   4   8  -5  181.68   14.50
  -4  -8   5  177.28   16.70
  -4  -8   5  166.38   16.00
   3   8  -5   33.80    7.50
   3   8  -5   35.30    6.20
   3   8  -5   34.80    5.80
  -3  -8   5   53.69    8.60
  -3  -8   5   51.89    7.80
  -3  -8   5   44.50    6.80
   2   8  -5   82.39    9.20
   2   8  -5   77.69    8.50
   2   8  -5   83.29   10.40
  -2  -8   5   95.79   10.60
  -2  -8   5  101.69   10.40
  -2  -8   5  104.59    9.60
   1   8  -5   28.30    4.90
   1   8  -5   28.90    5.60
   1   8  -5   35.10    6.60
  -1  -8   5   41.40    6.50
  -1  -8   5   46.10    6.60
  -1  -8   5   52.29    7.60
   0   8  -5  108.39    9.50
   0   8  -5  127.99   11.20
   0   8  -5  111.69   10.60
   0  -8   5  117.49   10.90
   0  -8   5  112.29   11.10
  -1   8  -5    9.00    4.40
  -1   8  -5    1.60    3.00
  -1   8  -5    3.10    3.90
   1  -8   5    2.60    3.90
   1  -8   5    2.30    3.20
   1  -8   5   -0.30    4.10
  -2   8  -5  299.37   20.20
  -2   8  -5  276.27   18.90
  -2   8  -5  288.87   20.30
   2  -8   5  275.97   20.70
   2  -8   5  289.07   19.30
   2  -8   5  273.77   19.60
  -3   8  -5   22.10    5.30
  -3   8  -5   21.70    5.90
  -3   8  -5   18.10    4.20
   3  -8   5   18.00    5.20
   3  -8   5   19.60    6.10
  -4   8  -5  117.09    9.70
  -4   8  -5  120.09   12.00
   4  -8   5   77.79   11.60
   4  -8   5   66.69   10.60
  -5   8  -5   41.10    8.10
   5  -8   5   42.60    8.40
   5  -8   5   38.30    7.90
  -6   8  -5  202.28   18.60
   6  -8   5  204.38   18.70
   6  -8   5  218.38   19.00
   8   7  -5  169.98   16.70
   8   7  -5  149.69   15.50
  -8  -7   5  157.58   15.60
  -8  -7   5  156.68   18.20
  -8  -7   5  162.38   17.00
   7   7  -5  356.56   25.10
   7   7  -5  351.36   25.50
  -7  -7   5  341.37   27.60
  -7  -7   5  347.27   26.30
  -7  -7   5  336.47   25.10
   6   7  -5  463.55   29.50
   6   7  -5  457.35   29.00
  -6  -7   5  386.76   31.00
  -6  -7   5  407.76   30.00
   5   7  -5  455.15   29.90
   5   7  -5  489.35   30.70
  -5  -7   5  438.16   32.30
  -5  -7   5  453.15   31.40
   4   7  -5  124.79   11.00
   4   7  -5  137.99   11.10
  -4  -7   5  109.29   11.60
  -4  -7   5  118.49   12.00
  -4  -7   5  110.59   12.40
   3   7  -5  145.49   11.40
   3   7  -5  144.49   13.00
   3   7  -5  139.29   11.00
  -3  -7   5  119.69   11.90
  -3  -7   5  130.79   10.80
  -3  -7   5  113.19   12.30
   2   7  -5  293.67   19.00
   2   7  -5  328.27   21.10
   2   7  -5  330.67   19.70
  -2  -7   5  254.37   19.70
  -2  -7   5  258.87   19.20
  -2  -7   5  248.58   20.10
   1   7  -5   23.40    4.10
   1   7  -5   24.50    4.80
   1   7  -5   30.90    5.60
  -1  -7   5   12.20    4.60
   0   7  -5   69.99    7.70
   0   7  -5   70.89    7.50
   0   7  -5   63.69    6.40
   0  -7   5   52.39    7.10
   0  -7   5   55.39    5.90
   0  -7   5   53.89    7.50
  -1   7  -5  133.99   11.70
  -1   7  -5  131.19   11.70
  -1   7  -5  123.59   10.80
   1  -7   5  174.98   12.10
   1  -7   5  183.48   12.90
  -2   7  -5  546.55   33.80
  -2   7  -5  588.44   35.10
  -2   7  -5  571.04   34.60
   2  -7   5  523.95   34.10
   2  -7   5  551.34   34.10
   2  -7   5  513.55   35.00
  -3   7  -5   74.29    9.40
  -3   7  -5   76.69    8.60
  -3   7  -5   72.29    8.10
   3  -7   5  108.79   10.70
   3  -7   5  110.29    9.70
   3  -7   5   98.19    8.60
  -4   7  -5  418.06   28.20
  -4   7  -5  419.66   26.80
   4  -7   5  418.46   27.70
   4  -7   5  394.36   28.00
  -5   7  -5   54.79    8.60
  -5   7  -5   56.09    8.00
   5  -7   5   77.69   10.40
   5  -7   5   69.79   10.40
  -6   7  -5  145.39   15.10
  -6   7  -5  140.49   13.40
   6  -7   5  145.29   15.10
   6  -7   5  142.39   14.70
  -7   7  -5   29.20    8.50
   7  -7   5   59.49   10.20
   8   6  -5    7.50    6.00
   8   6  -5    9.30    6.20
   8   6  -5   13.80    7.10
  -8  -6   5   24.60    8.70
  -8  -6   5   18.30    6.50
  -8  -6   5   15.80    8.40
   7   6  -5   36.50    6.80
   7   6  -5   39.70    7.80
   7   6  -5   31.10    7.00
  -7  -6   5   42.50    8.40
  -7  -6   5   46.30    9.70
  -7  -6   5   43.30    7.50
   6   6  -5   25.40    5.90
   6   6  -5   22.80    5.50
   6   6  -5   26.50    6.30
  -6  -6   5   47.00    6.90
  -6  -6   5   41.20    8.40
  -6  -6   5   36.10    7.70
   5   6  -5   48.90    6.60
   5   6  -5   48.60    7.10
   5   6  -5   48.60    6.50
  -5  -6   5   42.10    7.60
  -5  -6   5   42.90    8.30
   4   6  -5   87.99    9.40
   4   6  -5   87.49    8.30
   4   6  -5   91.19    9.20
  -4  -6   5  122.19   11.20
  -4  -6   5  118.89    9.00
  -4  -6   5  116.79   11.50
   3   6  -5  210.38   16.80
   3   6  -5  202.78   15.30
   3   6  -5  202.38   14.20
   3   6  -5  207.88   15.00
  -3  -6   5  243.98   16.60
  -3  -6   5  235.88   15.20
  -3  -6   5  213.28   16.70
   2   6  -5  388.56   24.80
   2   6  -5  386.76   25.00
   2   6  -5  404.76   26.30
   2   6  -5  402.36   23.90
  -2  -6   5  385.76   25.70
  -2  -6   5  383.16   26.00
  -2  -6   5  394.46   25.20
   1   6  -5  359.86   23.40
   1   6  -5  337.07   24.10
   1   6  -5  362.46   22.30
   1   6  -5  366.76   23.80
  -1  -6   5  351.96   24.10
  -1  -6   5  395.56   22.70
  -1  -6   5  382.96   24.10
  -1  -6   5  402.16   24.60
   0   6  -5 1024.10   60.29
   0   6  -5  973.40   59.79
   0   6  -5  988.90   60.49
   0   6  -5 1018.70   58.89
   0  -6   5 1065.99   59.59
   0  -6   5 1018.70   60.69
   0  -6   5  967.80   60.39
  -1   6  -5  203.68   14.40
  -1   6  -5  196.68   14.60
  -1   6  -5  208.98   13.10
  -1   6  -5  187.88   13.80
   1  -6   5  203.78   14.50
   1  -6   5  219.68   15.30
   1  -6   5  211.08   14.00
  -2   6  -5  795.02   45.70
  -2   6  -5  741.33   45.80
  -2   6  -5  753.22   45.60
  -2   6  -5  771.42   46.40
   2  -6   5  745.83   45.80
   2  -6   5  750.42   45.60
   2  -6   5  732.53   46.50
  -3   6  -5   92.49   10.10
  -3   6  -5   96.69    9.30
  -3   6  -5  100.59    9.40
   3  -6   5  122.99   10.90
   3  -6   5  135.79    9.50
   3  -6   5  128.59   11.30
   3  -6   5  134.89   10.70
  -4   6  -5  518.35   34.00
  -4   6  -5  549.35   34.50
  -4   6  -5  544.85   35.30
   4  -6   5  535.75   35.00
   4  -6   5  567.64   35.00
  -5   6  -5   34.30    7.10
  -5   6  -5   43.70    6.50
   5  -6   5   27.50    6.80
   5  -6   5   31.30    6.90
  -6   6  -5   93.89   10.90
  -6   6  -5   97.29   12.30
   6  -6   5  133.39   12.40
   6  -6   5  134.09   13.60
  -7   6  -5   10.30    5.30
  -7   6  -5    9.00    6.50
   7  -6   5    3.50    6.90
   8   5  -5  123.69   14.00
   8   5  -5  139.09   13.60
   8   5  -5  130.79   13.40
  -8  -5   5  110.19   13.00
  -8  -5   5  117.39   15.30
   7   5  -5  128.79   12.90
   7   5  -5  141.09   12.80
   7   5  -5  139.59   13.30
  -7  -5   5  111.79   14.70
  -7  -5   5  137.09   13.90
  -7  -5   5  138.29   12.90
   6   5  -5  112.99   10.80
   6   5  -5  110.99   11.00
   6   5  -5  114.79   11.30
  -6  -5   5  123.39   12.40
  -6  -5   5  120.49   13.40
  -6  -5   5  121.89   11.20
   5   5  -5  345.57   23.10
   5   5  -5  358.26   23.70
   5   5  -5  364.26   23.50
   4   5  -5  592.24   36.40
   4   5  -5  580.34   36.80
   4   5  -5  597.54   36.90
  -4  -5   5  626.04   38.10
  -4  -5   5  610.44   36.40
  -4  -5   5  577.44   38.60
   3   5  -5  162.88   11.50
   3   5  -5  165.88   12.30
   3   5  -5  145.79   11.90
  -3  -5   5  179.58   13.30
  -3  -5   5  181.28   12.20
  -3  -5   5  173.68   13.60
   2   5  -5  929.71   54.49
   2   5  -5  959.50   53.89
   2   5  -5  929.81   54.59
   2   5  -5  932.71   55.59
  -2  -5   5  888.01   54.59
  -2  -5   5  863.31   55.19
  -2  -5   5  898.51   55.49
   1   5  -5  100.99    7.80
   1   5  -5  106.89    7.00
   1   5  -5  102.09    8.60
   1   5  -5  104.89    8.20
  -1  -5   5   90.39    6.90
  -1  -5   5   88.89    8.60
  -1  -5   5   91.49    8.40
  -1  -5   5   91.59    8.40
   0   5  -5 1110.39   61.69
   0   5  -5 1076.19   62.79
   0   5  -5 1094.79   62.69
   0   5  -5 1106.29   62.49
   0  -5   5 1009.30   62.09
   0  -5   5  992.40   62.79
   0  -5   5  995.00   62.89
  -1   5  -5  297.77   20.30
  -1   5  -5  267.97   19.90
  -1   5  -5  287.27   20.00
  -1   5  -5  295.97   19.40
   1  -5   5  364.46   20.60
   1  -5   5  348.57   20.30
   1  -5   5  358.26   21.20
  -2   5  -5 1030.30   56.89
  -2   5  -5  987.40   56.09
  -2   5  -5  983.30   56.19
  -2   5  -5 1007.10   55.79
   2  -5   5  844.52   56.69
   2  -5   5  877.01   56.19
   2  -5   5  925.71   55.79
   2  -5   5  887.91   55.89
  -3   5  -5   33.50    5.20
  -3   5  -5   46.20    6.40
  -3   5  -5   35.50    5.20
  -3   5  -5   39.70    5.60
   3  -5   5   41.90    6.20
   3  -5   5   43.40    5.90
   3  -5   5   46.10    6.10
   3  -5   5   47.50    5.20
  -4   5  -5  256.27   16.20
  -4   5  -5  250.57   16.90
  -4   5  -5  261.97   16.60
  -4   5  -5  254.37   17.70
   4  -5   5  211.98   16.40
   4  -5   5  204.48   17.20
   4  -5   5  212.88   17.30
  -5   5  -5   47.80    8.00
  -5   5  -5   45.60    6.70
   5  -5   5   69.79    9.60
   5  -5   5   61.49    8.20
   5  -5   5   65.29    9.00
  -6   5  -5    8.70    5.60
  -6   5  -5    4.70    4.20
   6  -5   5   20.70    5.90
   6  -5   5   20.60    6.00
   6  -5   5   19.30    6.50
  -7   5  -5    2.60    4.50
  -7   5  -5    1.40    5.80
   7  -5   5   -1.20    6.20
   7  -5   5    3.90    5.60
  -8   5  -5   35.10    8.80
  -8   5  -5   36.20    7.30
   8  -5   5   52.89    9.50
   8  -5   5   45.70    9.60
   9   4  -5   13.80    6.70
   9   4  -5   11.70    6.70
  -9  -4   5   10.50    8.20
  -9  -4   5   15.70    6.90
   8   4  -5   57.29    9.40
   8   4  -5   60.99    8.90
   8   4  -5   63.09    9.10
  -8  -4   5   60.79   11.00
  -8  -4   5   74.99   10.40
   7   4  -5   14.40    5.20
   7   4  -5   11.60    5.50
   7   4  -5   15.40    5.50
  -7  -4   5   17.60    6.90
  -7  -4   5   12.30    5.00
  -7  -4   5   17.10    6.10
   6   4  -5  120.69   11.30
   6   4  -5  121.09   11.50
   6   4  -5  111.09   11.10
  -6  -4   5  147.59   13.90
  -6  -4   5  142.59   12.80
  -6  -4   5  145.39   11.60
   5   4  -5  145.79   11.20
   5   4  -5  146.39   11.10
   5   4  -5  137.49   10.80
  -5  -4   5  118.09   10.70
  -5  -4   5  135.29   12.20
  -5  -4   5  124.39   12.80
   4   4  -5  368.06   25.30
   4   4  -5  359.16   25.30
   4   4  -5  367.16   25.20
  -4  -4   5  416.96   27.30
  -4  -4   5  449.86   25.40
  -4  -4   5  460.15   26.90
   3   4  -5  295.17   18.50
   3   4  -5  271.57   18.60
   3   4  -5  294.67   18.70
  -3  -4   5  294.97   20.20
  -3  -4   5  302.67   19.80
  -3  -4   5  283.07   18.70
   2   4  -5  183.48   11.40
   2   4  -5  183.48   11.30
   2   4  -5  191.08   10.90
  -2  -4   5  133.79   11.20
  -2  -4   5  132.09   11.80
  -2  -4   5  130.09   11.70
   1   4  -5  346.27   22.00
   1   4  -5  381.16   21.60
   1   4  -5  360.46   22.50
   1   4  -5  368.26   22.10
  -1  -4   5  346.67   22.50
  -1  -4   5  337.87   22.50
  -1  -4   5  350.26   21.30
  -1  -4   5  336.57   22.60
   0   4  -5  399.96   21.50
   0   4  -5  394.46   22.10
   0   4  -5  388.46   22.00
   0   4  -5  378.46   22.00
   0  -4   5  303.97   22.20
   0  -4   5  316.87   22.10
   0  -4   5  318.27   21.80
   0  -4   5  309.67   21.60
  -1   4  -5   83.09    7.10
  -1   4  -5   88.89    6.70
  -1   4  -5   80.19    6.80
  -1   4  -5   95.89    7.50
   1  -4   5   90.39    7.30
   1  -4   5   94.89    7.50
   1  -4   5   85.49    7.90
  -2   4  -5  633.24   37.30
  -2   4  -5  659.23   38.00
  -2   4  -5  642.14   37.70
  -2   4  -5  656.03   38.30
   2  -4   5  624.34   37.50
   2  -4   5  584.24   37.60
   2  -4   5  598.14   38.40
   2  -4   5  600.54   38.00
  -3   4  -5  397.46   26.30
  -3   4  -5  383.66   26.80
  -3   4  -5  401.46   25.80
  -3   4  -5  377.76   26.50
   3  -4   5  468.85   27.20
   3  -4   5  454.85   26.60
   3  -4   5  441.56   27.20
   3  -4   5  440.06   25.60
  -4   4  -5  612.64   36.20
  -4   4  -5  648.64   35.30
  -4   4  -5  617.74   36.80
   4  -4   5  529.15   35.80
   4  -4   5  521.55   36.10
   4  -4   5  535.95   36.20
  -5   4  -5  128.19   11.20
  -5   4  -5  137.59   12.40
   5  -4   5  123.99   12.40
   5  -4   5  124.69   12.00
   5  -4   5  142.09   12.00
  -6   4  -5  448.76   30.10
  -6   4  -5  429.66   28.80
   6  -4   5  457.15   29.60
   6  -4   5  427.66   29.90
   6  -4   5  434.26   29.20
  -7   4  -5  142.79   14.70
  -7   4  -5  141.69   13.40
   7  -4   5  151.38   15.30
   7  -4   5  167.48   14.90
  -8   4  -5  171.68   15.10
  -8   4  -5  169.08   16.70
   8  -4   5  178.08   16.80
   8  -4   5  157.28   17.20
   9   3  -5  202.18   16.40
   9   3  -5  181.18   16.90
  -9  -3   5  168.88   16.80
  -9  -3   5  156.38   18.50
   8   3  -5   97.69   11.90
   8   3  -5   91.89   11.10
  -8  -3   5  103.99   11.70
  -8  -3   5  104.09   14.20
   7   3  -5  331.47   22.30
   7   3  -5  311.27   22.00
   7   3  -5  332.17   21.60
  -7  -3   5  296.77   21.80
  -7  -3   5  306.77   22.80
  -7  -3   5  276.17   23.50
   6   3  -5  304.87   21.00
   6   3  -5  287.07   20.80
   6   3  -5  303.57   20.60
  -6  -3   5  318.97   21.00
  -6  -3   5  300.27   22.80
  -6  -3   5  322.77   22.10
   5   3  -5   86.09    7.60
   5   3  -5   87.39    7.90
   5   3  -5   83.09    7.70
  -5  -3   5   56.69    7.10
  -5  -3   5   63.99    9.10
  -5  -3   5   62.79    8.50
   4   3  -5 1171.58   70.79
   4   3  -5 1167.48   70.79
   4   3  -5 1198.68   70.79
  -4  -3   5 1235.88   70.39
  -4  -3   5 1168.98   72.29
  -4  -3   5 1246.28   71.89
   3   3  -5  326.17   19.80
   3   3  -5  304.57   19.60
   3   3  -5  310.77   19.80
  -3  -3   5  308.47   20.80
  -3  -3   5  314.27   21.00
  -3  -3   5  306.17   19.90
   2   3  -5 1504.95   89.49
   2   3  -5 1456.45   88.59
   2   3  -5 1490.95   89.69
   2   3  -5 1442.36   89.49
  -2  -3   5 1593.34   90.49
  -2  -3   5 1602.14   90.59
  -2  -3   5 1650.53   88.69
  -2  -3   5 1537.45   89.99
   1   3  -5  706.73   43.10
   1   3  -5  705.93   43.50
   1   3  -5  715.13   43.00
  -1  -3   5  741.33   42.70
  -1  -3   5  747.93   43.60
  -1  -3   5  739.93   43.80
  -1  -3   5  734.33   43.90
   0   3  -5 1697.73  102.89
   0   3  -5 1725.13  102.99
   0   3  -5 1728.53  102.79
   0   3  -5 1761.52  102.79
   0  -3   5 1794.32  103.59
   0  -3   5 1799.02  102.99
   0  -3   5 1857.21  103.39
   0  -3   5 1789.62  102.79
  -1   3  -5  261.57   16.90
  -1   3  -5  272.57   17.60
  -1   3  -5  274.27   17.40
  -1   3  -5  254.77   17.50
   1  -3   5  296.37   18.00
   1  -3   5  301.57   17.70
   1  -3   5  281.17   18.30
  -2   3  -5  242.98   15.50
  -2   3  -5  248.58   15.70
  -2   3  -5  231.28   14.50
  -2   3  -5  244.88   15.60
   2  -3   5  226.68   15.80
   2  -3   5  222.08   15.50
   2  -3   5  234.48   15.00
   2  -3   5  227.68   16.10
  -3   3  -5   98.29    8.60
  -3   3  -5   83.69    8.50
  -3   3  -5   87.49    7.30
  -3   3  -5   91.19    8.80
   3  -3   5  121.59    9.50
   3  -3   5  118.19    7.50
   3  -3   5  116.79    9.00
   3  -3   5  127.09    9.60
  -4   3  -5   94.09    6.70
  -4   3  -5   87.49    7.80
  -4   3  -5   79.89    8.30
   4  -3   5   65.29    8.00
   4  -3   5   63.59    8.20
   4  -3   5   70.79    8.60
  -5   3  -5  157.78   13.20
  -5   3  -5  157.88   13.90
   5  -3   5  181.18   13.90
   5  -3   5  185.58   14.20
   5  -3   5  190.98   14.70
  -6   3  -5   93.19    9.20
  -6   3  -5   91.69   10.20
   6  -3   5   62.29    9.70
   6  -3   5   64.29    9.20
   6  -3   5   61.49    9.20
  -7   3  -5  149.29   14.70
  -7   3  -5  145.49   13.50
   7  -3   5  165.78   15.40
   7  -3   5  162.98   15.00
  -8   3  -5   24.80    6.40
  -8   3  -5   20.30    7.20
   8  -3   5   23.20    7.70
   8  -3   5   16.80    7.70
   9   2  -5    8.80    5.70
   9   2  -5    8.20    6.30
  -9  -2   5    1.50    6.90
  -9  -2   5    6.20    6.30
   8   2  -5   61.79    9.20
   8   2  -5   63.69    9.20
  -8  -2   5   72.29   11.10
  -8  -2   5   74.39   10.40
   7   2  -5   43.70    6.70
   7   2  -5   53.79    7.70
  -7  -2   5   54.19    7.80
  -7  -2   5   61.19    8.70
  -7  -2   5   44.00    8.70
   6   2  -5    2.00    3.70
   6   2  -5    2.90    3.80
   6   2  -5    7.00    3.60
  -6  -2   5    2.60    4.10
  -6  -2   5    1.30    3.30
  -6  -2   5    3.60    4.60
   5   2  -5   15.60    4.00
   5   2  -5   13.70    2.70
   5   2  -5   12.20    3.50
   5   2  -5   15.40    3.80
  -5  -2   5   20.70    5.20
  -5  -2   5   25.10    5.40
  -5  -2   5   26.50    4.30
   4   2  -5   33.10    5.00
   4   2  -5   36.10    5.10
   4   2  -5   39.40    4.00
   4   2  -5   37.50    5.40
  -4  -2   5   57.49    6.60
  -4  -2   5   53.89    4.40
  -4  -2   5   50.09    5.20
  -4  -2   5   56.49    7.00
   3   2  -5   73.39    6.70
   3   2  -5   78.89    5.80
   3   2  -5   76.39    6.60
   3   2  -5   73.79    6.80
  -3  -2   5   97.99    7.00
  -3  -2   5  101.79    8.30
  -3  -2   5  104.09    8.30
   2   2  -5  523.05   34.50
   2   2  -5  529.05   34.10
   2   2  -5  523.95   34.70
   2   2  -5  540.05   34.80
  -2  -2   5  650.03   34.30
  -2  -2   5  642.54   35.70
  -2  -2   5  645.14   35.90
  -2  -2   5  618.04   35.50
   1   2  -5  201.68   14.00
   1   2  -5  207.68   14.30
   1   2  -5  201.38   14.30
  -1  -2   5  242.08   15.40
  -1  -2   5  244.68   15.20
  -1  -2   5  238.98   14.00
  -1  -2   5  254.07   14.70
   0   2  -5  779.92   47.50
   0   2  -5  793.42   47.50
   0   2  -5  766.82   47.20
   0  -2   5  827.62   47.90
   0  -2   5  807.32   47.60
   0  -2   5  847.12   47.20
   0  -2   5  811.12   48.30
  -1   2  -5  373.06   23.10
  -1   2  -5  376.76   23.90
  -1   2  -5  376.46   24.10
  -1   2  -5  357.56   24.00
   1  -2   5  419.26   24.10
   1  -2   5  403.96   24.90
   1  -2   5  407.86   23.10
   1  -2   5  406.26   24.50
   1  -2   5  409.26   24.20
  -2   2  -5 1574.84   92.89
  -2   2  -5 1595.74   94.09
  -2   2  -5 1572.64   94.19
  -2   2  -5 1538.95   94.09
   2  -2   5 1637.04   94.69
   2  -2   5 1627.94   94.29
   2  -2   5 1698.53   93.59
   2  -2   5 1616.64   94.49
  -3   2  -5   61.29    6.40
  -3   2  -5   69.89    6.70
  -3   2  -5   64.19    4.90
   3  -2   5   57.29    7.10
   3  -2   5   67.49    6.90
   3  -2   5   57.49    7.20
   3  -2   5   60.89    4.90
  -4   2  -5  978.60   58.49
  -4   2  -5  939.81   58.09
  -4   2  -5 1016.80   57.09
   4  -2   5  949.60   58.59
   4  -2   5  971.20   58.49
   4  -2   5  952.00   58.39
  -5   2  -5   51.69    7.70
  -5   2  -5   48.40    6.70
   5  -2   5   55.59    8.40
   5  -2   5   57.89    8.20
   5  -2   5   67.79    7.90
  -6   2  -5  598.64   36.70
  -6   2  -5  551.14   35.80
   6  -2   5  580.14   36.60
   6  -2   5  553.74   35.80
   6  -2   5  536.85   36.60
  -7   2  -5   35.80    7.50
  -7   2  -5   34.80    6.90
   7  -2   5   52.29    9.00
   7  -2   5   45.40    8.20
  -8   2  -5  206.98   16.60
  -8   2  -5  212.78   17.80
   8  -2   5  163.58   17.90
   8  -2   5  194.98   18.10
   9   1  -5   81.79   10.70
   9   1  -5   67.69   10.40
  -9  -1   5   75.99   12.00
  -9  -1   5   84.49   12.00
   8   1  -5  430.46   31.00
   8   1  -5  450.25   30.00
  -8  -1   5  479.15   32.90
  -8  -1   5  484.15   31.80
   7   1  -5  312.47   22.90
   7   1  -5  331.07   22.20
  -7  -1   5  331.87   24.60
  -7  -1   5  355.06   23.90
  -7  -1   5  337.57   23.40
   6   1  -5  605.04   35.80
   6   1  -5  590.24   37.10
   6   1  -5  612.94   36.40
  -6  -1   5  598.64   37.20
  -6  -1   5  553.64   38.40
  -6  -1   5  585.74   38.00
   5   1  -5  810.62   50.09
   5   1  -5  794.82   50.89
   5   1  -5  802.52   51.19
   5   1  -5  805.32   50.49
  -5  -1   5  868.41   52.59
  -5  -1   5  970.60   51.39
  -5  -1   5  897.81   52.39
   4   1  -5 1225.88   72.39
   4   1  -5 1265.97   71.49
   4   1  -5 1223.38   71.99
   4   1  -5 1214.38   71.99
  -4  -1   5 1256.27   72.09
  -4  -1   5 1186.68   73.29
  -4  -1   5 1183.58   73.29
  -4  -1   5 1240.28   71.39
   3   1  -5  363.86   20.90
   3   1  -5  343.57   21.60
   3   1  -5  336.47   21.20
   3   1  -5  342.17   21.00
  -3  -1   5  347.37   21.10
  -3  -1   5  335.37   22.20
  -3  -1   5  342.97   22.60
  -3  -1   5  339.47   21.10
   2   1  -5 2544.15  142.09
   2   1  -5 2475.15  141.49
   2   1  -5 2596.84  141.89
   2   1  -5 2576.44  141.59
  -2  -1   5 2210.48  142.09
  -2  -1   5 2358.26  142.79
  -2  -1   5 2377.26  142.29
   1   1  -5  227.08   12.50
   1   1  -5  213.68   12.50
   1   1  -5  214.58   12.00
   1   1  -5  217.98   12.80
  -1  -1   5  157.88   13.10
  -1  -1   5  169.68   12.20
  -1  -1   5  174.98   12.40
  -1  -1   5  181.58   13.40
   0   1  -5 1473.35   80.59
   0   1  -5 1485.05   81.09
   0   1  -5 1517.35   81.29
   0  -1   5 1329.37   80.39
   0  -1   5 1348.77   81.49
   0  -1   5 1270.87   80.99
   0  -1   5 1306.07   81.79
  -1   1  -5  486.15   25.20
   1  -1   5  398.36   24.90
   1  -1   5  392.56   25.70
   1  -1   5  385.06   25.00
   1  -1   5  373.06   25.10
  -2   1  -5 1081.99   66.89
  -2   1  -5 1102.99   66.89
  -2   1  -5 1110.29   66.69
   2  -1   5 1179.98   66.29
   2  -1   5 1171.58   67.49
   2  -1   5 1147.09   67.09
   2  -1   5 1133.29   67.19
  -3   1  -5  144.19    9.60
  -3   1  -5  146.59    9.50
   3  -1   5   99.49    9.60
   3  -1   5  105.19    9.50
   3  -1   5  104.69    9.70
   3  -1   5  103.19    7.50
  -4   1  -5  780.22   47.50
  -4   1  -5  780.92   48.80
  -4   1  -5  737.93   48.60
   4  -1   5  812.52   49.20
   4  -1   5  880.41   49.40
   4  -1   5  841.82   49.10
  -5   1  -5   32.20    5.40
  -5   1  -5   29.20    5.70
  -5   1  -5   32.30    5.70
   5  -1   5   18.80    4.80
   5  -1   5   14.50    5.10
   5  -1   5   13.40    5.00
  -6   1  -5   10.10    4.40
  -6   1  -5   14.90    5.10
   6  -1   5   24.20    6.10
   6  -1   5   26.70    6.40
  -7   1  -5   10.50    4.70
  -7   1  -5    5.60    5.20
   7  -1   5   14.10    6.60
   7  -1   5   11.50    6.30
  -8   1  -5    2.50    5.80
  -8   1  -5    3.90    4.80
   8  -1   5    4.40    6.50
   8  -1   5    4.50    6.60
   9   0  -5   -0.70    5.90
   9   0  -5    2.80    5.10
  -9   0   5    6.90    6.20
  -9   0   5   -0.70    6.60
   8   0  -5    1.90    5.50
   8   0  -5    9.80    4.60
  -8   0   5    2.10    5.20
  -8   0   5    2.90    6.20
   7   0  -5   44.20    6.60
   7   0  -5   53.39    7.00
   7   0  -5   45.30    7.30
  -7   0   5   56.99    8.10
  -7   0   5   57.09    8.10
  -7   0   5   42.60    8.10
   6   0  -5  147.39   11.90
   6   0  -5  144.79   10.90
   6   0  -5  146.69   10.90
  -6   0   5  141.59   12.60
  -6   0   5  140.49   12.10
   5   0  -5   22.10    3.70
   5   0  -5   19.10    4.30
   5   0  -5   22.00    3.60
  -5   0   5   23.30    3.50
  -5   0   5   26.20    4.40
  -5   0   5   24.30    5.30
  -5   0   5   19.00    4.90
   4   0  -5  243.38   16.50
   4   0  -5  242.98   15.80
   4   0  -5  255.27   15.90
  -4   0   5  256.47   16.30
  -4   0   5  234.28   17.20
  -4   0   5  260.77   15.50
  -4   0   5  243.08   17.70
   3   0  -5  208.38   13.90
   3   0  -5  225.38   14.00
   3   0  -5  223.98   14.10
   3   0  -5  216.58   14.50
  -3   0   5  219.68   15.10
  -3   0   5  232.28   14.00
  -3   0   5  218.98   14.00
  -3   0   5  218.68   15.70
   2   0  -5 1784.52  105.69
   2   0  -5 1821.32  106.09
   2   0  -5 1825.12  105.69
   2   0  -5 1848.92  105.29
  -2   0   5 1780.92  106.09
  -2   0   5 1810.32  106.19
  -2   0   5 1845.02  105.29
  -2   0   5 1856.11  107.09
   1   0  -5   87.39    6.30
   1   0  -5   88.79    6.70
   1   0  -5   86.09    5.40
   1   0  -5   82.49    6.10
  -1   0   5   80.99    7.00
  -1   0   5   87.99    6.30
  -1   0   5   83.79    6.40
  -1   0   5   92.09    7.80
   0   0  -5 1370.26   78.59
   0   0  -5 1363.26   78.29
   0   0  -5 1330.27   77.69
   0   0   5 1264.37   78.99
   0   0   5 1399.46   79.09
   0   0   5 1372.56   78.59
   0   0   5 1314.07   77.69
  -1   0  -5  702.73   41.60
  -1   0  -5  695.33   41.30
  -1   0  -5  688.03   40.90
   1   0   5  698.73   41.40
   1   0   5  681.43   41.60
   1   0   5  697.53   42.00
   1   0   5  686.23   41.50
  -2   0  -5  235.48   15.50
  -2   0  -5  223.38   15.70
  -2   0  -5  227.18   15.10
   2   0   5  242.08   16.00
   2   0   5  237.88   14.90
   2   0   5  249.18   16.20
   2   0   5  233.08   15.80
  -3   0  -5   57.99    6.20
  -3   0  -5   66.19    4.80
  -3   0  -5   63.99    6.30
   3   0   5   65.09    7.00
   3   0   5   65.59    5.00
   3   0   5   65.89    7.00
   3   0   5   67.29    7.20
  -4   0  -5  516.05   31.30
  -4   0  -5  538.45   32.70
   4   0   5  523.65   33.00
   4   0   5  528.55   32.60
   4   0   5  499.55   33.00
  -5   0  -5 1015.30   58.59
  -5   0  -5 1026.40   59.99
  -5   0  -5  930.91   59.59
   5   0   5 1006.70   59.39
   5   0   5  951.20   60.09
   5   0   5  991.90   60.19
  -6   0  -5   35.00    6.50
  -6   0  -5   25.40    5.60
   6   0   5   38.40    7.30
   6   0   5   35.60    7.00
  -7   0  -5  172.08   15.20
  -7   0  -5  183.08   15.90
   7   0   5  188.38   16.50
   7   0   5  184.18   16.60
  -8   0  -5  130.59   13.00
  -8   0  -5  122.69   13.60
   8   0   5  123.49   15.00
   8   0   5  130.79   14.60
   9  -1  -5   88.69   12.40
  -9   1   5   66.89   11.60
  -9   1   5   80.99   12.00
   8  -1  -5  479.55   29.60
   8  -1  -5  450.05   29.70
   8  -1  -5  510.25   31.50
  -8   1   5  426.26   31.20
  -8   1   5  423.66   32.50
   7  -1  -5  354.06   23.20
   7  -1  -5  345.07   21.70
   7  -1  -5  339.97   22.00
  -7   1   5  325.57   22.80
  -7   1   5  308.17   24.30
  -7   1   5  299.67   23.10
   6  -1  -5  599.24   36.90
   6  -1  -5  602.94   36.50
   6  -1  -5  608.94   37.70
  -6   1   5  575.44   37.80
  -6   1   5  628.14   38.30
  -6   1   5  590.24   38.90
   5  -1  -5  958.40   51.69
   5  -1  -5  980.80   52.39
   5  -1  -5  933.31   50.79
   5  -1  -5  887.41   51.09
  -5   1   5  828.92   50.69
  -5   1   5  770.72   52.69
  -5   1   5  777.12   52.79
  -5   1   5  753.32   51.89
   4  -1  -5 1248.28   71.29
   4  -1  -5 1212.18   71.69
   4  -1  -5 1176.58   70.79
  -4   1   5 1196.18   72.79
  -4   1   5 1197.58   71.59
  -4   1   5 1199.98   70.79
  -4   1   5 1256.47   72.59
   3  -1  -5  334.87   20.80
   3  -1  -5  320.67   20.20
   3  -1  -5  321.77   21.00
  -3   1   5  339.47   20.60
  -3   1   5  357.36   21.70
  -3   1   5  334.07   20.60
  -3   1   5  335.47   22.30
   2  -1  -5 2276.67  139.79
   2  -1  -5 2307.77  140.39
   2  -1  -5 2288.37  140.19
  -2   1   5 2553.74  140.69
  -2   1   5 2488.35  141.59
  -2   1   5 2471.45  140.39
  -2   1   5 2553.74  139.59
   1  -1  -5  166.58   12.10
   1  -1  -5  162.18   12.50
   1  -1  -5  162.08   12.60
  -1   1   5  231.48   14.10
  -1   1   5  226.68   12.70
  -1   1   5  216.78   12.80
  -1   1   5  228.38   13.30
   0  -1  -5 1276.27   82.09
   0  -1  -5 1356.26   81.09
   0  -1  -5 1301.17   81.79
   0   1   5 1451.45   82.59
   0   1   5 1469.05   82.69
   0   1   5 1494.95   81.49
   0   1   5 1499.95   82.19
  -1  -1  -5  400.56   29.50
   1   1   5  534.05   30.10
   1   1   5  511.65   28.80
   1   1   5  510.35   30.50
   1   1   5  493.05   30.10
   1   1   5  504.15   30.00
  -2  -1  -5 1156.68   66.39
  -2  -1  -5 1146.39   66.09
  -2  -1  -5 1109.59   66.69
  -2  -1  -5 1167.08   65.39
   2   1   5 1091.89   66.69
   2   1   5 1113.39   66.89
   2   1   5 1120.49   65.99
   2   1   5 1092.39   66.69
  -3  -1  -5  101.89    8.40
  -3  -1  -5   96.69    9.40
  -3  -1  -5  103.79    9.30
   3   1   5  149.59   10.60
   3   1   5  144.79    8.80
   3   1   5  150.78   10.70
   3   1   5  151.08   10.40
  -4  -1  -5  836.82   48.20
  -4  -1  -5  880.11   47.20
  -4  -1  -5  865.51   48.30
   4   1   5  765.92   47.90
   4   1   5  738.63   48.20
   4   1   5  722.23   48.30
   4   1   5  729.33   48.00
  -5  -1  -5   16.60    3.60
  -5  -1  -5   14.20    4.50
  -5  -1  -5   13.10    4.30
   5   1   5   19.80    5.00
   5   1   5   28.10    5.70
   5   1   5   24.20    5.70
   5   1   5   29.00    4.90
  -6  -1  -5   24.20    5.60
  -6  -1  -5   20.90    5.00
   6   1   5   13.80    5.60
   6   1   5    2.60    5.00
   6   1   5    2.40    4.80
  -7  -1  -5   16.70    6.00
  -7  -1  -5   11.60    4.90
   7   1   5    4.50    5.60
   7   1   5    8.00    5.70
   7   1   5    5.00    6.00
  -8  -1  -5    5.20    5.20
  -8  -1  -5    4.20    5.70
   8   1   5    0.10    6.00
   8   1   5    2.00    6.40
   8   1   5    9.70    7.00
   9  -2  -5    3.10    6.30
   9  -2  -5    4.00    5.50
  -9   2   5   12.40    7.40
  -9   2   5    6.60    5.90
   8  -2  -5   76.39    9.40
   8  -2  -5   80.89   10.80
  -8   2   5   59.89    9.10
  -8   2   5   55.39   10.20
   7  -2  -5   43.10    6.70
   7  -2  -5   53.79    6.70
   7  -2  -5   47.10    7.50
  -7   2   5   50.79    7.70
  -7   2   5   57.49    9.30
  -7   2   5   53.89    7.90
   6  -2  -5   -0.50    3.40
   6  -2  -5    0.30    2.60
   6  -2  -5   -3.10    3.60
  -6   2   5    5.60    4.00
  -6   2   5    5.60    4.70
  -6   2   5    4.50    3.80
   5  -2  -5   25.20    4.40
   5  -2  -5   28.40    4.20
   5  -2  -5   26.70    4.80
   5  -2  -5   28.40    3.80
  -5   2   5   15.80    4.70
  -5   2   5   13.70    4.70
  -5   2   5   18.10    4.10
  -5   2   5   18.70    3.30
   4  -2  -5   47.80    4.10
   4  -2  -5   50.69    5.50
   4  -2  -5   49.00    5.70
   4  -2  -5   52.09    4.90
  -4   2   5   39.90    6.20
  -4   2   5   30.60    5.40
  -4   2   5   35.20    4.50
  -4   2   5   39.00    4.80
   3  -2  -5  115.49    7.70
   3  -2  -5  117.79    7.70
  -3   2   5   80.99    6.50
  -3   2   5   89.59    8.10
  -3   2   5   75.69    7.00
  -3   2   5   82.99    8.50
   2  -2  -5  627.34   34.00
   2  -2  -5  621.84   33.10
   2  -2  -5  633.64   34.10
  -2   2   5  514.45   33.90
  -2   2   5  503.25   34.90
  -2   2   5  512.15   32.80
  -2   2   5  536.35   34.10
   1  -2  -5  256.27   14.90
   1  -2  -5  256.17   14.90
   1  -2  -5  255.67   14.10
  -1   2   5  214.18   15.00
  -1   2   5  207.28   14.70
  -1   2   5  205.08   15.60
  -1   2   5  219.78   14.70
   0  -2  -5  817.52   46.70
   0  -2  -5  841.92   46.80
   0  -2  -5  836.42   46.30
   0   2   5  755.42   46.60
   0   2   5  745.73   46.20
   0   2   5  748.43   47.20
   0   2   5  766.02   47.00
  -1  -2  -5  413.46   23.20
  -1  -2  -5  410.96   24.10
  -1  -2  -5  405.76   23.70
   1   2   5  356.56   24.00
   1   2   5  377.46   23.10
   1   2   5  372.86   23.90
   1   2   5  380.96   24.20
   1   2   5  366.26   24.00
  -2  -2  -5 1668.23   94.39
  -2  -2  -5 1626.64   93.89
  -2  -2  -5 1636.34   93.59
  -2  -2  -5 1592.44   94.59
   2   2   5 1604.84   94.19
   2   2   5 1610.74   94.69
   2   2   5 1546.95   94.49
   2   2   5 1592.24   93.59
   2   2   5 1618.94   94.69
  -3  -2  -5   61.49    6.30
  -3  -2  -5   54.29    5.80
  -3  -2  -5   56.29    5.30
   3   2   5   63.99    6.60
   3   2   5   54.39    6.60
   3   2   5   61.89    5.70
   3   2   5   61.99    7.20
   3   2   5   59.29    7.00
  -4  -2  -5  927.11   57.19
  -4  -2  -5  963.80   56.49
  -4  -2  -5  963.60   57.29
  -4  -2  -5  990.00   55.99
   4   2   5  987.80   57.69
   4   2   5  935.31   55.99
   4   2   5  959.70   57.79
   4   2   5  919.11   57.09
   4   2   5  921.31   57.29
  -5  -2  -5   70.19    7.60
  -5  -2  -5   62.89    6.40
  -5  -2  -5   66.89    7.60
   5   2   5   39.60    6.60
   5   2   5   46.40    6.80
   5   2   5   55.19    8.40
   5   2   5   50.99    7.30
  -6  -2  -5  576.84   36.60
  -6  -2  -5  570.74   36.20
   6   2   5  589.34   36.70
   6   2   5  551.64   36.80
   6   2   5  544.25   36.30
  -7  -2  -5   48.90    7.90
   7   2   5   30.20    7.40
   7   2   5   23.80    6.90
   7   2   5   24.10    6.90
  -8  -2  -5  196.28   17.70
  -8  -2  -5  176.28   16.90
   8   2   5  215.78   18.40
   8   2   5  213.48   18.00
   8   2   5  204.08   19.00
   9  -3  -5  153.58   14.90
   9  -3  -5  179.88   16.50
  -9   3   5  167.98   18.30
  -9   3   5  161.78   16.30
   8  -3  -5  102.59   11.50
   8  -3  -5  109.79   12.10
  -8   3   5   86.39   13.50
  -8   3   5   91.39   11.60
   7  -3  -5  304.57   22.50
   7  -3  -5  302.67   22.30
  -7   3   5  347.87   25.00
  -7   3   5  346.47   22.70
  -7   3   5  325.07   22.80
   6  -3  -5  331.67   21.70
   6  -3  -5  309.57   21.30
  -6   3   5  292.47   22.90
  -6   3   5  304.67   21.40
  -6   3   5  337.87   22.00
   5  -3  -5   58.29    6.30
   5  -3  -5   58.69    5.30
   5  -3  -5   56.79    7.10
   5  -3  -5   58.79    7.30
  -5   3   5   84.39    8.90
   4  -3  -5 1241.18   71.69
   4  -3  -5 1234.38   70.29
   4  -3  -5 1245.78   71.29
   4  -3  -5 1241.68   71.59
  -4   3   5 1163.28   71.19
  -4   3   5 1171.78   72.39
  -4   3   5 1137.09   72.39
  -4   3   5 1240.68   71.09
   3  -3  -5  309.27   19.80
   3  -3  -5  306.07   18.50
   3  -3  -5  309.67   19.90
   3  -3  -5  296.67   19.70
  -3   3   5  308.77   19.80
  -3   3   5  328.07   20.60
  -3   3   5  321.37   19.00
  -3   3   5  311.97   21.00
   2  -3  -5 1556.14   87.59
   2  -3  -5 1568.44   86.49
   2  -3  -5 1582.64   87.79
  -2   3   5 1448.46   86.59
  -2   3   5 1440.26   87.69
  -2   3   5 1476.95   87.99
  -2   3   5 1405.66   88.59
   1  -3  -5  728.23   41.70
   1  -3  -5  721.73   42.60
   1  -3  -5  740.43   42.80
  -1   3   5  677.73   43.50
  -1   3   5  712.33   41.50
  -1   3   5  713.53   43.00
  -1   3   5  713.73   42.80
   0  -3  -5 1847.32  103.09
   0  -3  -5 1892.11  102.99
   0  -3  -5 1854.71  102.39
   0   3   5 1637.34  103.59
   0   3   5 1726.83  101.99
   0   3   5 1734.63  103.29
   0   3   5 1669.83  102.89
   0   3   5 1763.92  102.79
  -1  -3  -5  303.47   17.90
  -1  -3  -5  297.97   16.80
  -1  -3  -5  294.57   17.30
  -1  -3  -5  298.87   17.80
   1   3   5  260.77   17.60
   1   3   5  253.27   17.20
   1   3   5  269.17   17.80
   1   3   5  265.57   18.00
   1   3   5  248.08   18.00
   1   3   5  258.07   16.80
  -2  -3  -5  226.78   14.70
  -2  -3  -5  228.28   14.80
  -2  -3  -5  236.38   15.20
  -2  -3  -5  225.78   15.60
   2   3   5  226.78   15.80
   2   3   5  233.08   15.50
   2   3   5  222.68   14.90
   2   3   5  235.88   15.30
   2   3   5  237.48   15.70
   2   3   5  229.78   14.80
   2   3   5  226.68   15.50
  -3  -3  -5  115.39    8.10
  -3  -3  -5  119.39    8.10
  -3  -3  -5  119.39    9.10
  -3  -3  -5  123.29    8.60
   3   3   5   92.89    8.10
   3   3   5   85.69    8.70
   3   3   5   88.79    8.40
   3   3   5   85.09    8.90
   3   3   5   83.09    8.00
   3   3   5   84.19    8.50
  -4  -3  -5   67.69    7.50
  -4  -3  -5   65.49    7.20
  -4  -3  -5   67.99    7.10
  -4  -3  -5   66.79    6.70
   4   3   5   87.39    8.40
   4   3   5   86.49    8.60
   4   3   5   88.29    7.10
   4   3   5   87.79    7.90
   4   3   5   88.99    9.00
  -5  -3  -5  180.58   13.30
  -5  -3  -5  176.68   12.70
  -5  -3  -5  180.48   13.40
   5   3   5  154.68   13.50
   5   3   5  162.68   12.70
   5   3   5  152.48   14.10
   5   3   5  165.88   13.90
  -6  -3  -5   65.89    9.00
  -6  -3  -5   60.89    9.30
   6   3   5   89.89   10.20
   6   3   5   83.69   10.90
   6   3   5   97.59   10.50
  -7  -3  -5  164.78   14.00
  -7  -3  -5  172.48   14.90
   7   3   5  151.38   14.50
   7   3   5  144.09   14.40
   7   3   5  135.19   15.20
  -8  -3  -5   19.70    6.70
  -8  -3  -5   24.50    7.30
   8   3   5   27.60    7.90
   8   3   5   24.20    8.20
   8   3   5   14.70    6.80
   9  -4  -5   14.40    6.60
   9  -4  -5   19.20    7.30
  -9   4   5   20.70    8.70
   8  -4  -5   68.79    9.20
   8  -4  -5   77.19   10.70
  -8   4   5   51.29   10.30
  -8   4   5   47.60    8.20
   7  -4  -5   13.20    5.60
   7  -4  -5   19.30    5.70
  -7   4   5   16.80    5.20
  -7   4   5   18.10    7.00
   6  -4  -5  149.39   11.90
   6  -4  -5  147.89   11.70
  -6   4   5  110.79   10.80
  -6   4   5  127.79   11.70
  -6   4   5  115.29   12.80
   5  -4  -5  118.49   11.00
   5  -4  -5  126.09   10.40
   5  -4  -5  123.39   10.80
  -5   4   5  146.59   11.70
  -5   4   5  154.48   10.60
  -5   4   5  134.89   12.30
   4  -4  -5  432.76   25.90
   4  -4  -5  456.05   25.60
   4  -4  -5  459.75   25.60
  -4   4   5  366.36   26.30
  -4   4   5  377.06   24.70
  -4   4   5  362.96   25.20
  -4   4   5  366.56   26.20
   3  -4  -5  284.47   18.50
   3  -4  -5  287.87   18.90
   3  -4  -5  287.67   19.00
  -3   4   5  301.27   17.90
  -3   4   5  281.37   19.40
  -3   4   5  279.77   18.80
  -3   4   5  303.37   19.90
   2  -4  -5  135.39   12.30
  -2   4   5  189.58   13.00
  -2   4   5  197.08   11.40
  -2   4   5  189.68   12.80
  -2   4   5  187.08   13.60
   1  -4  -5  344.67   20.50
   1  -4  -5  336.47   21.60
   1  -4  -5  348.87   22.00
  -1   4   5  349.47   22.20
  -1   4   5  346.97   22.90
  -1   4   5  368.66   20.90
   0  -4  -5  322.47   22.90
   0  -4  -5  332.57   22.40
   0   4   5  387.96   24.30
   0   4   5  400.16   23.90
   0   4   5  400.16   23.50
   0   4   5  386.36   23.40
   0   4   5  395.56   22.40
  -1  -4  -5   92.29    7.30
  -1  -4  -5   84.39    7.10
  -1  -4  -5   91.69    6.60
   1   4   5   86.89    7.30
   1   4   5   84.39    7.10
   1   4   5   75.99    7.90
   1   4   5   84.99    7.60
   1   4   5   82.69    6.80
   1   4   5   78.49    7.30
   1   4   5   84.29    6.40
  -2  -4  -5  617.34   38.00
  -2  -4  -5  625.74   38.70
  -2  -4  -5  610.74   38.80
  -2  -4  -5  613.24   38.30
   2   4   5  640.64   38.10
   2   4   5  655.13   39.00
   2   4   5  643.44   39.10
   2   4   5  651.53   38.80
   2   4   5  663.43   39.20
   2   4   5  649.93   38.60
   2   4   5  634.94   38.40
  -3  -4  -5  460.75   26.30
  -3  -4  -5  450.05   25.60
  -3  -4  -5  444.76   25.60
  -3  -4  -5  446.36   25.40
   3   4   5  370.06   25.40
   3   4   5  389.76   25.60
   3   4   5  382.36   25.70
   3   4   5  373.86   25.20
   3   4   5  381.06   25.70
   3   4   5  372.06   25.70
   3   4   5  377.96   26.00
  -4  -4  -5  551.94   36.90
  -4  -4  -5  531.15   36.80
  -4  -4  -5  538.55   36.80
  -4  -4  -5  557.14   36.70
   4   4   5  652.63   37.20
   4   4   5  635.44   37.00
   4   4   5  653.63   37.50
   4   4   5  612.74   37.20
   4   4   5  643.54   38.10
   4   4   5  638.34   37.70
  -5  -4  -5  122.59   10.90
  -5  -4  -5  134.69   11.00
  -5  -4  -5  134.19   11.30
   5   4   5  123.49   10.70
   5   4   5  131.79   11.80
   5   4   5  124.69   11.80
   5   4   5  129.29   12.40
  -6  -4  -5  433.66   29.10
  -6  -4  -5  434.86   29.50
  -6  -4  -5  434.46   29.50
   6   4   5  444.46   30.40
   6   4   5  450.55   29.70
   6   4   5  459.95   29.80
  -7  -4  -5  144.69   14.40
  -7  -4  -5  175.38   14.30
   7   4   5  154.68   15.60
   7   4   5  145.39   14.60
   7   4   5  137.59   14.40
  -8  -4  -5  173.58   16.60
  -8  -4  -5  163.08   15.80
   8   4   5  175.18   17.70
   8   4   5  175.18   17.10
   8  -5  -5  132.99   13.80
   8  -5  -5  128.79   13.80
  -8   5   5  136.59   16.00
   7  -5  -5  142.79   12.70
   7  -5  -5  132.49   13.20
  -7   5   5  146.39   14.90
  -7   5   5  119.59   12.40
   6  -5  -5  120.39   11.60
   6  -5  -5  129.79   10.90
  -6   5   5  117.29   12.70
  -6   5   5  111.19   10.40
  -6   5   5  109.09   11.30
   5  -5  -5  246.28   18.00
   5  -5  -5  258.67   17.40
   5  -5  -5  247.68   17.40
   4  -5  -5  587.14   37.30
   4  -5  -5  613.44   37.00
   4  -5  -5  587.84   37.50
  -4   5   5  605.44   38.40
  -4   5   5  607.04   36.50
  -4   5   5  631.94   38.30
   3  -5  -5  167.48   11.40
   3  -5  -5  155.88   11.90
   3  -5  -5  158.18   12.00
  -3   5   5  165.18   12.20
  -3   5   5  158.18   10.80
  -3   5   5  164.28   13.10
  -3   5   5  151.68   12.60
   2  -5  -5  933.41   56.99
   2  -5  -5  929.11   56.49
   2  -5  -5  875.51   57.09
  -2   5   5 1003.70   56.09
  -2   5   5  959.40   57.59
  -2   5   5 1001.10   58.19
  -2   5   5  992.50   57.39
   1  -5  -5   96.49    7.90
   1  -5  -5   85.99    7.20
   1  -5  -5   85.49    8.00
  -1   5   5   97.89    8.40
  -1   5   5  100.99    8.60
  -1   5   5   99.69    6.90
  -1   5   5   90.09    9.00
   0  -5  -5 1025.20   61.79
   0  -5  -5 1014.10   60.79
   0  -5  -5 1026.10   62.19
   0  -5  -5 1008.90   61.39
   0   5   5 1108.39   61.09
   0   5   5 1011.20   62.69
   0   5   5 1042.30   62.29
   0   5   5 1106.69   62.29
  -1  -5  -5  354.66   19.90
  -1  -5  -5  329.77   19.10
   1   5   5  285.77   18.40
   1   5   5  276.37   20.00
   1   5   5  282.77   19.30
   1   5   5  282.87   18.50
   1   5   5  262.37   19.30
   1   5   5  282.27   19.10
  -2  -5  -5  861.81   57.29
  -2  -5  -5  876.01   56.69
  -2  -5  -5  876.51   56.69
  -2  -5  -5  925.01   57.19
   2   5   5 1004.50   56.89
   2   5   5  984.30   57.39
   2   5   5  983.00   57.69
   2   5   5 1002.70   57.69
   2   5   5 1017.30   57.09
   2   5   5 1025.00   57.69
   2   5   5 1012.90   58.19
  -3  -5  -5   43.00    5.10
  -3  -5  -5   48.00    6.00
  -3  -5  -5   47.30    5.40
  -3  -5  -5   44.40    5.70
  -3  -5  -5   48.30    6.10
  -3  -5  -5   43.40    6.20
   3   5   5   29.90    4.80
   3   5   5   29.80    5.00
   3   5   5   33.20    5.60
   3   5   5   28.90    4.80
   3   5   5   30.10    5.50
   3   5   5   28.20    5.10
   3   5   5   37.50    5.80
  -4  -5  -5  217.18   16.30
  -4  -5  -5  204.58   16.50
  -4  -5  -5  212.58   16.00
  -4  -5  -5  209.18   16.00
  -4  -5  -5  214.28   16.30
  -4  -5  -5  220.08   16.10
   4   5   5  240.98   17.40
   4   5   5  242.88   16.70
   4   5   5  259.47   17.20
   4   5   5  257.97   16.60
   4   5   5  237.68   16.80
   4   5   5  252.57   16.70
   4   5   5  246.68   16.70
  -5  -5  -5   69.59    7.70
  -5  -5  -5   72.79    7.80
   5   5   5   48.70    7.20
   5   5   5   43.70    7.60
   5   5   5   47.30    7.40
   5   5   5   46.00    7.40
  -6  -5  -5   14.00    4.90
  -6  -5  -5   17.00    5.10
  -6  -5  -5   20.20    5.70
   6   5   5    5.20    5.60
   6   5   5    9.30    5.40
   6   5   5    5.90    5.10
  -7  -5  -5    0.30    4.80
  -7  -5  -5    0.30    4.70
   7   5   5    0.70    6.30
   7   5   5    4.90    6.00
  -8  -5  -5   50.29    9.40
  -8  -5  -5   52.59    8.90
   8   5   5   33.60    9.30
   8   5   5   37.80    9.00
   8  -6  -5   20.70    6.90
   8  -6  -5   20.60    7.20
  -8   6   5   10.10    7.50
   7  -6  -5   49.99    7.60
   7  -6  -5   42.80    8.30
  -7   6   5   43.30    9.40
   6  -6  -5   50.79    7.30
   6  -6  -5   42.60    7.10
   6  -6  -5   45.70    6.70
  -6   6   5   26.30    7.50
  -6   6   5   27.40    6.30
  -6   6   5   29.30    6.50
   5  -6  -5   38.90    6.40
   5  -6  -5   40.80    6.90
   5  -6  -5   45.10    6.70
  -5   6   5   51.19    8.20
  -5   6   5   56.79    8.40
  -5   6   5   48.60    6.40
   4  -6  -5  112.09    8.80
   4  -6  -5  108.79    9.70
   4  -6  -5  116.89   10.00
  -4   6   5   82.09   10.40
  -4   6   5   95.09   10.30
  -4   6   5   88.69    8.20
   3  -6  -5  244.58   15.30
   3  -6  -5  246.68   16.30
   3  -6  -5  227.58   16.30
  -3   6   5  204.58   16.70
  -3   6   5  210.98   14.80
  -3   6   5  226.08   16.30
  -3   6   5  228.58   17.10
   2  -6  -5  377.26   25.50
   2  -6  -5  395.46   24.50
   2  -6  -5  395.16   25.30
  -2   6   5  406.46   26.30
  -2   6   5  395.56   24.20
  -2   6   5  386.66   26.00
  -2   6   5  416.66   25.80
   1  -6  -5  374.86   24.20
   1  -6  -5  386.46   23.90
   1  -6  -5  389.46   23.10
  -1   6   5  347.97   24.20
  -1   6   5  359.46   24.90
  -1   6   5  375.46   24.30
  -1   6   5  368.56   22.90
   0  -6  -5 1075.99   61.29
   0  -6  -5 1039.10   60.19
   0  -6  -5 1053.29   61.69
   0  -6  -5 1063.49   60.59
   0   6   5  963.70   61.59
   0   6   5 1044.30   60.49
   0   6   5  991.10   61.59
   0   6   5  979.70   62.19
  -1  -6  -5  219.78   14.60
  -1  -6  -5  223.68   13.70
  -1  -6  -5  225.78   15.20
  -1  -6  -5  226.48   14.30
   1   6   5  201.68   13.70
   1   6   5  196.28   15.60
   1   6   5  196.68   15.00
   1   6   5  205.48   14.00
   1   6   5  186.18   15.00
  -2  -6  -5  744.63   45.30
  -2  -6  -5  776.62   45.20
  -2  -6  -5  771.42   45.80
  -2  -6  -5  780.52   44.80
   2   6   5  729.93   44.80
   2   6   5  741.33   44.90
   2   6   5  751.92   45.40
   2   6   5  735.13   45.20
   2   6   5  726.63   46.30
   2   6   5  733.23   45.80
   2   6   5  723.43   45.70
  -3  -6  -5  132.99   10.60
  -3  -6  -5  138.39   10.50
  -3  -6  -5  142.69   10.20
  -3  -6  -5  136.99   10.10
  -3  -6  -5  134.19    9.60
   3   6   5   87.99   10.60
   3   6   5   94.29    9.40
   3   6   5   94.09   10.20
   3   6   5   93.99    9.70
   3   6   5   94.29   10.10
   3   6   5  101.69   10.10
   3   6   5   99.79    9.50
  -4  -6  -5  567.14   35.20
  -4  -6  -5  576.24   34.70
  -4  -6  -5  557.84   35.10
  -4  -6  -5  553.14   34.50
  -4  -6  -5  563.94   34.50
  -4  -6  -5  600.54   34.80
  -4  -6  -5  592.84   35.30
   4   6   5  521.35   35.20
   4   6   5  560.24   35.30
   4   6   5  530.95   34.70
   4   6   5  525.25   34.60
   4   6   5  527.95   34.60
   4   6   5  503.75   35.00
   4   6   5  536.65   34.70
  -5  -6  -5   25.40    5.60
  -5  -6  -5   22.70    5.70
  -5  -6  -5   30.00    6.10
  -5  -6  -5   29.10    5.60
   5   6   5   41.60    7.00
   5   6   5   40.90    7.30
   5   6   5   48.80    6.90
   5   6   5   41.00    6.80
  -6  -6  -5  123.89   11.80
  -6  -6  -5  121.89   12.00
  -6  -6  -5  129.59   12.10
   6   6   5  105.19   12.50
   6   6   5  120.89   13.30
  -7  -6  -5    4.70    5.10
  -7  -6  -5    7.80    5.60
   7   6   5   16.10    7.00
   7   6   5   16.80    7.20
   8  -7  -5  168.88   16.20
  -8   7   5  139.09   17.50
   7  -7  -5  333.87   25.90
  -7   7   5  388.76   28.10
   6  -7  -5  383.56   29.00
   6  -7  -5  396.96   28.50
  -6   7   5  478.45   31.60
  -6   7   5  478.35   29.60
   5  -7  -5  438.76   30.00
   5  -7  -5  433.36   30.30
  -5   7   5  495.85   30.90
  -5   7   5  473.25   32.00
   4  -7  -5  115.59   11.40
   4  -7  -5  115.49    9.80
   4  -7  -5  105.09   11.20
  -4   7   5  136.09   12.90
  -4   7   5  145.19   12.40
  -4   7   5  132.89   10.00
   3  -7  -5  123.09    9.80
   3  -7  -5  120.29   11.20
   3  -7  -5  117.19   11.40
  -3   7   5  151.98   12.80
  -3   7   5  146.49   12.70
  -3   7   5  136.79   10.00
   2  -7  -5  254.17   20.00
   2  -7  -5  268.67   19.70
   2  -7  -5  272.07   18.70
  -2   7   5  303.47   20.90
  -2   7   5  318.37   19.00
  -2   7   5  327.97   20.80
  -2   7   5  329.67   21.60
   1  -7  -5   11.40    3.80
  -1   7   5   22.20    5.10
  -1   7   5   26.80    6.00
  -1   7   5   20.40    5.00
  -1   7   5   20.90    3.70
   0  -7  -5   58.59    5.80
   0  -7  -5   62.39    7.80
   0  -7  -5   60.19    7.00
   0   7   5   70.29    8.30
   0   7   5   70.59    9.00
   0   7   5   76.29    6.80
   0   7   5   60.99    8.00
  -1  -7  -5  177.78   12.10
   1   7   5  129.19   12.60
   1   7   5  131.79   11.90
   1   7   5  132.59   10.50
   1   7   5  122.19   11.60
  -2  -7  -5  569.94   35.30
  -2  -7  -5  562.34   34.00
  -2  -7  -5  570.64   34.50
  -2  -7  -5  558.74   36.00
  -2  -7  -5  535.05   34.40
   2   7   5  542.95   34.00
   2   7   5  536.25   34.50
   2   7   5  558.74   35.70
   2   7   5  581.14   34.60
   2   7   5  536.95   36.00
   2   7   5  577.34   34.70
   2   7   5  561.34   35.40
  -3  -7  -5  107.89    8.90
  -3  -7  -5  105.49    8.40
  -3  -7  -5  102.89    9.50
  -3  -7  -5  110.89   10.00
   3   7   5   66.89    9.60
   3   7   5   57.49    8.50
   3   7   5   68.69    8.40
   3   7   5   70.29    8.10
   3   7   5   71.59    9.10
   3   7   5   74.49    8.50
   3   7   5   68.99   10.10
  -4  -7  -5  416.06   26.50
  -4  -7  -5  416.66   27.50
  -4  -7  -5  403.06   26.70
  -4  -7  -5  419.46   26.40
  -4  -7  -5  402.96   27.50
  -4  -7  -5  419.56   26.80
  -4  -7  -5  406.86   26.90
   4   7   5  396.46   27.80
   4   7   5  401.26   26.60
   4   7   5  405.66   27.00
   4   7   5  387.86   26.50
   4   7   5  410.36   27.00
   4   7   5  390.26   27.60
   4   7   5  422.76   27.50
  -5  -7  -5   79.49    9.10
  -5  -7  -5   93.49    8.90
  -5  -7  -5   85.39    9.60
  -5  -7  -5   77.49    9.60
   5   7   5   62.19    8.60
   5   7   5   58.49    8.70
   5   7   5   59.79    8.90
   5   7   5   58.19    9.40
  -6  -7  -5  134.39   13.20
  -6  -7  -5  143.99   13.80
  -6  -7  -5  143.19   13.70
  -6  -7  -5  143.29   13.90
   6   7   5  163.78   14.50
   6   7   5  161.88   15.20
   6   7   5  149.49   14.80
  -7  -7  -5   53.79    9.10
  -7  -7  -5   48.00    8.20
   7   7   5   34.60    8.90
   7   7   5   45.30    8.90
   7  -8  -5   55.09    9.40
  -7   8   5   39.00    9.90
   6  -8  -5   45.10    8.20
   6  -8  -5   46.90    7.80
  -6   8   5   23.80    8.20
  -6   8   5   27.50    7.20
   5  -8  -5   65.59    8.90
   5  -8  -5   61.79    8.50
  -5   8   5   45.70    8.20
  -5   8   5   41.80    8.50
   4  -8  -5  169.58   14.50
   4  -8  -5  169.38   14.70
  -4   8   5  188.78   15.70
  -4   8   5  173.38   15.80
   3  -8  -5   48.50    6.80
   3  -8  -5   39.90    6.80
  -3   8   5   32.60    7.30
  -3   8   5   46.60    8.00
   2  -8  -5   97.99    9.70
   2  -8  -5  108.19    9.40
  -2   8   5   79.99    8.00
  -2   8   5   79.79   10.60
  -2   8   5   75.59   10.20
   1  -8  -5   47.10    6.60
   1  -8  -5   42.00    6.60
  -1   8   5   35.10    7.10
  -1   8   5   33.90    6.60
  -1   8   5   33.00    5.00
   0  -8  -5  120.49   11.30
   0  -8  -5  127.99   10.40
   0   8   5  118.09    9.80
   0   8   5  110.29   11.90
   0   8   5  119.29   11.20
   0   8   5  107.79   11.60
  -1  -8  -5    0.50    3.80
  -1  -8  -5    0.40    3.10
  -1  -8  -5   -3.60    4.20
   1   8   5    5.80    3.60
   1   8   5    2.10    4.90
   1   8   5    3.10    4.80
   1   8   5    9.80    4.70
  -2  -8  -5  302.87   19.90
  -2  -8  -5  305.67   20.90
  -2  -8  -5  282.77   21.40
   2   8   5  291.07   22.10
   2   8   5  303.57   20.30
   2   8   5  292.77   21.10
   2   8   5  282.37   21.50
  -3  -8  -5   18.70    5.90
  -3  -8  -5   15.20    5.30
  -3  -8  -5   18.50    4.20
  -3  -8  -5   18.90    4.40
  -3  -8  -5   20.50    5.30
   3   8   5   19.20    5.80
   3   8   5   15.50    6.40
   3   8   5   17.70    5.50
   3   8   5   19.20    6.10
   3   8   5   16.10    5.10
  -4  -8  -5   81.79   10.80
  -4  -8  -5   77.39    9.60
  -4  -8  -5   71.89   10.10
  -4  -8  -5   84.69    9.00
  -4  -8  -5   78.49    9.40
   4   8   5  117.29   10.80
   4   8   5  107.79   10.20
   4   8   5  114.19   11.10
   4   8   5  108.79   12.30
   4   8   5  111.09   12.20
  -5  -8  -5   54.89    7.80
  -5  -8  -5   42.70    7.70
  -5  -8  -5   45.70    7.00
   5   8   5   35.50    7.20
   5   8   5   44.10    9.00
   5   8   5   43.00    7.80
  -6  -8  -5  203.68   18.20
  -6  -8  -5  218.98   17.80
  -6  -8  -5  225.38   17.30
   6   8   5  219.38   18.30
   6   8   5  212.38   18.90
   6  -9  -5  152.28   15.50
   6  -9  -5  157.48   15.30
  -6   9   5  152.08   15.30
  -6   9   5  175.48   17.80
   5  -9  -5  106.09   11.80
   5  -9  -5  129.89   13.00
  -5   9   5   75.29   12.00
  -5   9   5   93.89   12.10
   4  -9  -5  346.07   24.80
   4  -9  -5  339.97   25.10
  -4   9   5  363.16   26.50
  -4   9   5  381.36   26.00
   3  -9  -5  101.19   11.80
   3  -9  -5  130.39   11.50
  -3   9   5  109.19   13.00
  -3   9   5  111.09   12.80
   2  -9  -5  986.70   61.79
   2  -9  -5 1014.10   62.79
  -2   9   5 1069.89   63.69
  -2   9   5 1018.70   63.49
   1  -9  -5  292.77   20.80
   1  -9  -5  290.97   21.70
  -1   9   5  310.37   21.90
  -1   9   5  331.47   23.40
  -1   9   5  305.67   22.50
   0  -9  -5  552.84   34.70
   0  -9  -5  565.94   36.80
   0  -9  -5  581.34   36.00
   0   9   5  547.95   36.40
   0   9   5  539.05   34.50
   0   9   5  529.35   36.90
  -1  -9  -5   34.70    6.70
  -1  -9  -5   34.90    5.70
  -1  -9  -5   29.10    7.20
   1   9   5   45.50    8.30
   1   9   5   44.80    7.90
   1   9   5   36.00    5.90
  -2  -9  -5  210.28   17.70
  -2  -9  -5  219.28   15.30
  -2  -9  -5  223.68   16.70
   2   9   5  193.48   17.50
   2   9   5  209.78   16.00
   2   9   5  199.98   18.20
  -3  -9  -5   43.70    7.10
  -3  -9  -5   29.80    7.30
  -3  -9  -5   38.30    7.40
   3   9   5   43.30    7.20
   3   9   5   35.90    8.40
   3   9   5   36.00    7.90
  -4  -9  -5   73.99    9.20
  -4  -9  -5   76.29   10.40
  -4  -9  -5   79.39    9.40
  -4  -9  -5   73.09    9.80
   4   9   5   58.19   10.00
   4   9   5   47.20    8.20
   4   9   5   50.49    9.60
  -5  -9  -5   61.09    8.60
  -5  -9  -5   59.79    9.40
  -5  -9  -5   55.29   11.30
   5   9   5   55.89   10.00
   5   9   5   48.80    8.90
   5 -10  -5   49.80    8.80
   5 -10  -5   50.59    8.70
  -5  10   5   30.20    9.10
  -5  10   5   36.50    8.60
   4 -10  -5   58.09    8.70
   4 -10  -5   50.79    8.80
  -4  10   5   53.49   10.10
  -4  10   5   50.29    9.40
   3 -10  -5  162.58   15.00
   3 -10  -5  159.28   14.00
  -3  10   5  152.58   16.00
  -3  10   5  149.09   15.80
   2 -10  -5    9.80    5.50
   2 -10  -5   11.40    5.00
  -2  10   5    2.40    5.70
  -2  10   5    2.80    6.10
   1 -10  -5  153.78   14.00
   1 -10  -5  151.18   12.40
   1 -10  -5  134.99   14.30
  -1  10   5  127.19   14.50
  -1  10   5  127.19   14.70
   0 -10  -5   26.40    5.70
   0 -10  -5   22.30    7.00
   0 -10  -5   20.70    6.40
   0  10   5   32.40    8.00
   0  10   5   28.20    7.60
  -1 -10  -5  109.79   11.30
  -1 -10  -5  117.79   10.10
  -1 -10  -5  104.19   12.40
   1  10   5   87.09   12.40
   1  10   5   77.29   11.90
  -2 -10  -5  227.58   17.80
  -2 -10  -5  231.68   19.50
   2  10   5  225.68   17.30
   2  10   5  217.98   19.20
   2  10   5  210.28   19.70
  -3 -10  -5   67.59    9.40
  -3 -10  -5   57.99    9.90
  -3 -10  -5   65.29   10.00
   3  10   5   60.29    8.70
   3  10   5   52.29    9.70
   3  10   5   48.80   10.00
  -4 -10  -5   52.89    8.40
  -4 -10  -5   55.29    9.60
  -4 -10  -5   53.09    9.30
   4  10   5   75.09    9.80
   4  10   5   69.79   11.10
   4  10   5   65.19   10.80
   4 -11  -5  122.39   14.10
   4 -11  -5  118.09   14.10
   4 -11  -5  124.59   14.70
  -4  11   5  141.69   16.30
  -4  11   5  136.39   15.40
   3 -11  -5   10.10    6.40
   3 -11  -5   12.90    5.80
   3 -11  -5    7.90    6.50
  -3  11   5    7.10    7.20
  -3  11   5   -1.40    6.20
   2 -11  -5   56.99    9.30
   2 -11  -5   45.70    9.20
   2 -11  -5   45.50    7.60
  -2  11   5   52.29   10.20
  -2  11   5   55.89    9.90
   1 -11  -5   55.39    7.90
   1 -11  -5   51.99    9.40
   1 -11  -5   61.79    9.60
  -1  11   5   45.40    9.40
  -1  11   5   52.19   10.40
   0 -11  -5   34.80    8.00
   0 -11  -5   33.10    6.40
   0 -11  -5   34.20    8.40
   0  11   5   65.89   10.30
   0  11   5   63.09   10.60
  -1 -11  -5  125.29   14.80
  -1 -11  -5  139.39   13.50
   1  11   5  100.29   14.20
   1  11   5  105.49   15.10
  -2 -11  -5   31.60    7.60
  -2 -11  -5   33.30    8.70
   2  11   5   52.49    9.80
   2  11   5   50.09   10.40
  -3 -11  -5   87.09   12.40
  -3 -11  -5   72.99   11.40
  -3 -11  -5   75.39   10.70
   3  11   5   67.09   11.80
   3  11   5   64.59   11.30
   2 -12  -5   31.00    8.60
   2 -12  -5   26.10    7.80
   2 -12  -5   32.00    7.00
  -2  12   5   38.00    9.60
  -2  12   5   46.30   10.40
   1 -12  -5    9.30    6.90
   1 -12  -5   12.20    5.60
   1 -12  -5    8.70    6.60
  -1  12   5   10.50    7.80
  -1  12   5   23.30    8.70
   0 -12  -5   67.49   10.60
   0 -12  -5   66.59   11.30
   0  12   5   64.09   11.70
   0  12   5   76.29   12.10
  -1 -12  -5   10.50    6.30
  -1 -12  -5    9.80    7.40
   1  12   5   15.00    8.00
   1  12   5   21.50    9.00
   3  11  -6  325.07   22.20
   3  11  -6  312.67   23.40
   3  11  -6  335.07   25.60
  -3 -11   6  270.37   24.00
  -3 -11   6  279.77   24.60
   2  11  -6  121.39   12.80
   2  11  -6  111.89   13.80
   2  11  -6  105.99   10.90
  -2 -11   6   90.79   13.10
  -2 -11   6   80.19   13.00
  -2 -11   6   86.39   11.60
   1  11  -6  111.39   12.70
   1  11  -6  107.19   13.20
   1  11  -6  109.69   10.80
  -1 -11   6  105.09   12.40
  -1 -11   6  100.99   13.10
  -1 -11   6   99.69   13.10
   0  11  -6  132.89   13.60
   0  11  -6  123.89   13.60
   0 -11   6  109.99   13.10
   0 -11   6   96.39   12.90
   0 -11   6  100.89   13.30
  -1  11  -6  128.69   13.70
  -1  11  -6  119.19   14.10
   1 -11   6  131.29   14.50
   1 -11   6  110.39   13.10
  -2  11  -6   83.39   11.50
   2 -11   6   64.49   10.90
   5  10  -6   65.99   10.20
   5  10  -6   70.69    9.60
  -5 -10   6   82.09   12.30
  -5 -10   6   83.29   12.90
   4  10  -6   19.70    6.00
   4  10  -6   20.80    6.80
  -4 -10   6   26.80    8.50
  -4 -10   6   25.20    8.10
   3  10  -6   36.80    8.70
   3  10  -6   44.60    8.00
   3  10  -6   40.50    6.90
  -3 -10   6   43.90    7.60
  -3 -10   6   39.10    8.90
  -3 -10   6   42.70    8.90
   2  10  -6   78.49    9.00
   2  10  -6   65.89   10.00
   2  10  -6   67.99   10.70
  -2 -10   6   77.69   11.40
  -2 -10   6   69.59   11.00
  -2 -10   6   76.09   10.10
   1  10  -6   60.99    8.70
   1  10  -6   68.39    8.30
   1  10  -6   70.29   10.40
  -1 -10   6   62.79    9.80
  -1 -10   6   68.19    9.70
  -1 -10   6   68.09    9.90
   0  10  -6   38.30    6.10
   0  10  -6   47.10    8.10
   0  10  -6   42.10    7.90
   0 -10   6   34.80    7.50
   0 -10   6   42.10    8.10
   0 -10   6   39.10    7.70
  -1  10  -6   54.49    8.30
  -1  10  -6   51.19    7.40
  -1  10  -6   53.09    8.50
   1 -10   6   45.40    8.00
   1 -10   6   36.20    8.10
  -2  10  -6  134.99   14.10
   2 -10   6  157.08   15.30
   2 -10   6  137.59   13.60
  -3  10  -6   50.19    8.90
   3 -10   6   30.80    8.30
  -4  10  -6   63.89   10.50
   4 -10   6   74.19   11.30
   4 -10   6   77.79   11.50
   6   9  -6  273.67   20.50
   6   9  -6  257.87   19.80
  -6  -9   6  224.68   21.10
  -6  -9   6  219.18   22.00
   5   9  -6    0.10    4.90
   5   9  -6   -1.20    4.50
  -5  -9   6    2.80    6.60
  -5  -9   6    9.60    7.00
   4   9  -6  220.28   16.60
   4   9  -6  219.58   17.20
  -4  -9   6  186.58   18.40
  -4  -9   6  197.18   18.10
   3   9  -6   21.40    5.20
   3   9  -6   20.50    6.90
   3   9  -6   23.50    6.00
  -3  -9   6    8.90    6.10
  -3  -9   6   18.60    5.50
  -3  -9   6   13.10    6.30
   2   9  -6   98.49   10.50
   2   9  -6  104.49   11.60
   2   9  -6   96.39    9.50
  -2  -9   6   83.99   10.10
  -2  -9   6   75.99   11.00
  -2  -9   6   74.89   10.90
   1   9  -6  111.69   10.90
   1   9  -6  107.89   11.30
   1   9  -6  103.89    9.60
  -1  -9   6   87.49   11.00
  -1  -9   6   92.59   10.70
  -1  -9   6   85.09   11.00
   0   9  -6   10.10    4.20
   0   9  -6   12.30    5.00
   0   9  -6   11.20    5.20
   0  -9   6   11.80    5.20
   0  -9   6   11.30    5.40
   0  -9   6   10.40    5.20
  -1   9  -6  838.52   48.90
  -1   9  -6  796.22   48.60
  -1   9  -6  775.42   47.30
   1  -9   6  703.93   48.10
   1  -9   6  757.72   49.00
  -2   9  -6    0.50    3.50
  -2   9  -6    5.40    4.80
   2  -9   6    3.20    4.50
   2  -9   6   -1.60    5.00
  -3   9  -6  582.64   35.50
  -3   9  -6  592.44   37.40
   3  -9   6  542.65   36.00
   3  -9   6  519.95   37.20
  -4   9  -6   29.40    7.50
   4  -9   6   21.50    6.90
   4  -9   6   13.60    6.80
  -5   9  -6  285.27   24.00
   5  -9   6  312.87   24.60
   5  -9   6  321.97   23.70
   7   8  -6  233.58   19.90
   7   8  -6  226.38   19.20
  -7  -8   6  246.08   19.80
  -7  -8   6  241.28   21.40
  -7  -8   6  236.48   22.30
   6   8  -6  254.87   20.70
   6   8  -6  273.27   21.60
  -6  -8   6  314.17   23.50
  -6  -8   6  294.07   24.20
   5   8  -6  204.78   17.20
   5   8  -6  212.98   17.70
  -5  -8   6  234.48   20.40
  -5  -8   6  252.37   19.80
   4   8  -6  120.39   11.60
   4   8  -6  121.09   11.80
  -4  -8   6  134.19   14.10
  -4  -8   6  138.19   13.90
   3   8  -6  364.46   25.40
   3   8  -6  389.36   27.70
   3   8  -6  363.56   25.90
  -3  -8   6  395.16   27.60
  -3  -8   6  411.86   25.90
  -3  -8   6  396.46   27.20
   2   8  -6  155.48   14.30
   2   8  -6  140.29   12.40
   2   8  -6  143.19   13.20
  -2  -8   6  178.58   14.70
  -2  -8   6  187.38   14.60
  -2  -8   6  183.28   13.80
   1   8  -6   87.49    9.90
   1   8  -6   87.69    9.60
   1   8  -6   83.69    8.70
  -1  -8   6   87.39   10.10
  -1  -8   6   96.49   10.20
  -1  -8   6   96.79   10.00
   0   8  -6  131.39   11.70
   0   8  -6  127.79   12.50
   0   8  -6  141.59   12.50
   0  -8   6  169.48   13.30
   0  -8   6  171.98   13.60
   0  -8   6  169.28   13.30
  -1   8  -6   11.90    4.80
  -1   8  -6   12.10    3.80
  -1   8  -6   12.60    4.60
   1  -8   6   12.00    5.30
   1  -8   6   11.30    4.70
  -2   8  -6   45.70    6.60
  -2   8  -6   45.40    6.10
  -2   8  -6   40.50    7.10
  -3   8  -6  157.08   12.90
  -3   8  -6  152.88   14.40
   3  -8   6  174.38   14.10
   3  -8   6  169.08   15.30
  -4   8  -6   60.49    8.20
  -4   8  -6   51.09    8.80
   4  -8   6   87.29   11.30
  -5   8  -6    5.00    4.80
  -5   8  -6    5.90    6.00
   5  -8   6   15.50    7.20
   5  -8   6   17.40    6.80
  -6   8  -6   -1.90    6.10
   6  -8   6    8.00    6.70
   6  -8   6    5.80    6.90
   7   7  -6   23.10    6.60
   7   7  -6   30.50    7.50
  -7  -7   6    6.10    6.80
  -7  -7   6    5.90    7.50
  -7  -7   6    7.40    5.60
   6   7  -6  232.08   17.60
   6   7  -6  224.28   17.00
  -6  -7   6  187.28   18.90
  -6  -7   6  191.68   18.40
   5   7  -6  443.96   28.50
   5   7  -6  462.35   29.00
  -5  -7   6  408.26   29.80
  -5  -7   6  390.86   30.40
   4   7  -6  223.28   15.90
   4   7  -6  230.28   16.20
  -4  -7   6  179.38   17.30
  -4  -7   6  201.38   17.40
   3   7  -6 1083.39   64.89
   3   7  -6 1108.19   65.29
   3   7  -6 1132.99   66.99
  -3  -7   6 1052.09   66.19
  -3  -7   6 1087.89   65.19
  -3  -7   6 1027.60   66.49
   2   7  -6  696.73   41.10
   2   7  -6  663.83   39.50
   2   7  -6  678.23   39.90
  -2  -7   6  587.94   40.50
  -2  -7   6  585.94   40.30
  -2  -7   6  628.44   39.90
   1   7  -6 1047.70   61.09
   1   7  -6 1077.79   62.29
   1   7  -6 1068.29   61.69
  -1  -7   6  982.40   61.99
  -1  -7   6 1005.90   61.79
  -1  -7   6  940.31   61.79
   0   7  -6  405.66   26.00
   0   7  -6  396.16   25.40
   0   7  -6  423.16   26.30
   0  -7   6  363.36   26.10
   0  -7   6  402.36   26.20
   0  -7   6  400.06   26.50
  -1   7  -6  478.85   28.30
  -1   7  -6  485.35   28.10
  -1   7  -6  474.55   27.60
   1  -7   6  392.76   27.10
   1  -7   6  372.36   27.60
   1  -7   6  389.56   28.40
  -2   7  -6  215.88   14.90
  -2   7  -6  213.88   14.70
  -2   7  -6  218.18   15.90
   2  -7   6  189.68   15.00
   2  -7   6  197.08   15.00
   2  -7   6  188.08   15.90
  -3   7  -6  218.18   16.00
  -3   7  -6  236.48   17.20
   3  -7   6  207.68   17.40
   3  -7   6  220.98   16.60
  -4   7  -6   23.10    6.10
  -4   7  -6   18.50    4.90
   4  -7   6   14.90    6.30
   4  -7   6   24.80    6.20
  -5   7  -6   95.89   10.10
  -5   7  -6  106.09   11.90
   5  -7   6   81.99   11.90
   5  -7   6   88.59   11.90
  -6   7  -6   -1.20    4.40
  -6   7  -6    5.00    6.00
   6  -7   6    8.00    6.60
   6  -7   6   11.50    7.00
   8   6  -6  232.38   17.90
   8   6  -6  224.08   17.80
   8   6  -6  211.88   18.60
  -8  -6   6  194.58   17.70
  -8  -6   6  183.48   20.00
  -8  -6   6  191.98   19.00
   7   6  -6  217.48   17.00
   7   6  -6  192.08   16.50
   7   6  -6  210.98   17.50
  -7  -6   6  204.58   17.20
  -7  -6   6  215.68   18.60
  -7  -6   6  210.48   19.90
   6   6  -6  261.87   18.80
   6   6  -6  282.47   19.50
   6   6  -6  272.57   19.60
  -6  -6   6  261.57   20.80
  -6  -6   6  248.58   19.20
  -6  -6   6  238.48   21.40
   5   6  -6   72.69    9.20
   5   6  -6   71.29    7.80
   5   6  -6   74.09    9.00
  -5  -6   6   73.89   10.50
  -5  -6   6   74.39   10.90
   4   6  -6   27.10    4.90
  -4  -6   6   17.30    4.20
  -4  -6   6   15.90    5.80
  -4  -6   6   14.70    5.60
   3   6  -6  282.17   19.00
   3   6  -6  269.87   18.70
   3   6  -6  271.67   17.90
  -3  -6   6  287.77   20.20
  -3  -6   6  249.88   19.90
  -3  -6   6  299.27   19.10
   2   6  -6   52.09    6.40
   2   6  -6   53.09    5.20
   2   6  -6   52.79    7.50
   2   6  -6   57.09    6.60
   1   6  -6  192.08   14.30
   1   6  -6  192.28   12.80
   1   6  -6  186.98   14.50
   1   6  -6  184.98   13.80
  -1  -6   6  210.38   14.90
  -1  -6   6  207.18   14.80
  -1  -6   6  211.28   14.70
   0   6  -6  239.98   17.80
   0   6  -6  226.38   17.40
   0   6  -6  236.28   17.80
   0   6  -6  236.58   16.50
   0  -6   6  304.27   18.90
   0  -6   6  307.47   17.60
   0  -6   6  297.07   18.40
   0  -6   6  289.27   18.60
  -1   6  -6   96.99    9.10
  -1   6  -6  113.89    9.10
  -1   6  -6  104.29    9.20
  -1   6  -6  109.39    9.90
   1  -6   6  125.39    9.50
   1  -6   6  127.49   10.10
   1  -6   6  130.29   11.00
  -2   6  -6  118.59   11.10
  -2   6  -6  119.39   10.50
  -2   6  -6  113.89   10.10
   2  -6   6  162.48   12.40
   2  -6   6  166.78   11.50
  -3   6  -6  105.19    9.50
  -3   6  -6  106.49   10.50
   3  -6   6  105.89   11.20
   3  -6   6  105.99   10.30
  -4   6  -6  315.07   23.00
  -4   6  -6  286.97   21.80
   4  -6   6  352.16   23.20
   4  -6   6  348.97   23.50
  -5   6  -6  208.38   16.40
  -5   6  -6  215.48   17.70
   5  -6   6  217.38   17.70
   5  -6   6  225.08   17.90
  -6   6  -6   60.99    8.60
  -6   6  -6   65.59   10.00
   6  -6   6   76.59   10.60
   6  -6   6   84.79   11.20
  -7   6  -6  134.59   14.90
  -7   6  -6  141.39   13.70
   7  -6   6  155.18   16.40
   8   5  -6  175.98   16.40
   8   5  -6  173.48   15.50
   8   5  -6  175.38   15.60
  -8  -5   6  168.28   16.70
  -8  -5   6  153.08   15.20
  -8  -5   6  154.18   17.80
  -7  -5   6   39.60    7.20
  -7  -5   6   47.00    9.80
  -7  -5   6   35.00    8.00
   6   5  -6  419.86   27.10
   6   5  -6  427.76   27.40
   6   5  -6  408.06   26.80
  -6  -5   6  371.96   29.30
  -6  -5   6  396.86   28.40
  -6  -5   6  414.16   27.20
   5   5  -6   42.80    6.40
   5   5  -6   40.30    6.20
   5   5  -6   42.40    6.50
  -5  -5   6   61.89    8.60
  -5  -5   6   53.59    8.40
   4   5  -6  314.17   20.60
   4   5  -6  319.07   20.20
   4   5  -6  329.37   20.80
  -4  -5   6  279.27   22.00
  -4  -5   6  293.17   20.30
  -4  -5   6  311.97   21.90
   3   5  -6  585.54   35.80
   3   5  -6  628.34   35.50
   3   5  -6  628.44   36.00
  -3  -5   6  541.75   37.00
  -3  -5   6  564.74   36.80
  -3  -5   6  542.75   35.90
   2   5  -6  493.35   30.30
   2   5  -6  536.85   31.60
   2   5  -6  510.65   30.40
   2   5  -6  515.75   29.80
  -2  -5   6  449.26   31.10
  -2  -5   6  461.45   30.70
  -2  -5   6  462.05   31.20
   1   5  -6  762.12   45.40
   1   5  -6  720.63   44.70
   1   5  -6  758.12   44.90
   1   5  -6  743.03   44.20
  -1  -5   6  728.23   45.20
  -1  -5   6  737.33   45.60
  -1  -5   6  758.22   44.00
  -1  -5   6  746.13   45.50
   0   5  -6  267.27   15.20
   0   5  -6  260.57   16.00
   0   5  -6  246.68   15.90
   0   5  -6  265.07   16.10
   0  -5   6  212.78   15.40
   0  -5   6  207.38   16.10
   0  -5   6  208.08   15.70
   0  -5   6  209.58   16.40
  -1   5  -6 1503.55   83.99
  -1   5  -6 1402.96   84.49
  -1   5  -6 1474.35   84.79
  -1   5  -6 1447.26   84.29
   1  -5   6 1420.56   84.69
   1  -5   6 1430.76   85.39
   1  -5   6 1366.46   84.49
  -2   5  -6   32.10    4.60
  -2   5  -6   31.00    4.40
  -2   5  -6   31.00    4.80
  -2   5  -6   36.00    5.50
   2  -5   6   44.90    5.70
   2  -5   6   45.00    6.20
   2  -5   6   32.30    5.70
  -3   5  -6 1488.45   86.49
  -3   5  -6 1424.36   85.99
  -3   5  -6 1477.95   85.69
   3  -5   6 1457.75   85.59
   3  -5   6 1448.66   86.29
   3  -5   6 1404.56   86.59
  -4   5  -6  262.87   19.10
  -4   5  -6  263.57   20.20
  -4   5  -6  257.57   19.60
   4  -5   6  298.87   20.60
   4  -5   6  321.87   19.90
   4  -5   6  299.37   20.70
  -5   5  -6  644.54   40.10
  -5   5  -6  645.34   39.40
  -5   5  -6  643.94   39.00
   5  -5   6  586.84   39.70
   5  -5   6  613.84   39.00
   5  -5   6  581.44   39.80
  -6   5  -6   65.39    9.30
  -6   5  -6   66.59   10.10
   6  -5   6   67.19   10.00
   6  -5   6   78.39   10.10
   6  -5   6   82.69   10.70
  -7   5  -6  393.56   27.90
  -7   5  -6  379.36   26.30
   7  -5   6  375.76   26.90
   7  -5   6  364.36   28.10
   9   4  -6   22.00    6.90
   9   4  -6   17.50    7.20
  -9  -4   6   12.00    8.20
  -9  -4   6   21.70    7.40
   8   4  -6   71.09   10.50
   8   4  -6   75.79   10.70
   8   4  -6   80.59   10.50
  -8  -4   6   52.39    9.50
  -8  -4   6   43.40    8.30
  -8  -4   6   43.70   10.20
   7   4  -6  155.28   13.90
   7   4  -6  155.38   13.80
   7   4  -6  165.48   14.50
  -7  -4   6  165.98   14.00
  -7  -4   6  155.08   16.40
  -7  -4   6  172.68   15.80
   6   4  -6  158.48   12.60
   6   4  -6  153.08   12.50
   6   4  -6  169.28   13.00
  -6  -4   6  134.99   12.10
  -6  -4   6  137.99   13.70
  -6  -4   6  129.79   14.50
   5   4  -6  116.29   10.10
   5   4  -6  105.79   10.00
   5   4  -6  103.79    9.90
  -5  -4   6  125.29   12.20
  -5  -4   6  133.69   11.90
   4   4  -6  644.14   39.40
   4   4  -6  632.54   39.40
   4   4  -6  614.14   39.30
  -4  -4   6  700.13   40.90
  -4  -4   6  647.54   41.00
  -4  -4   6  635.64   39.40
   3   4  -6  118.89    9.80
   3   4  -6  126.99   10.00
   3   4  -6  124.69    9.70
  -3  -4   6  151.78   11.70
  -3  -4   6  138.99   10.50
  -3  -4   6  141.59   11.50
   2   4  -6  571.24   37.50
   2   4  -6  604.34   36.30
   2   4  -6  590.64   37.20
   2   4  -6  559.94   37.30
  -2  -4   6  621.14   38.50
  -2  -4   6  661.83   38.50
  -2  -4   6  659.73   38.20
  -2  -4   6  693.43   36.40
   1   4  -6  364.26   24.00
   1   4  -6  346.47   23.60
   1   4  -6  360.16   23.20
   1   4  -6  361.66   23.60
  -1  -4   6  398.26   24.50
  -1  -4   6  396.76   24.60
  -1  -4   6  415.36   23.10
  -1  -4   6  399.06   24.10
   0   4  -6  159.68   12.10
   0   4  -6  158.08   11.90
   0   4  -6  161.28   11.70
   0   4  -6  153.08   12.10
   0  -4   6  197.88   12.20
   0  -4   6  198.28   12.90
   0  -4   6  200.28   12.30
   0  -4   6  199.48   13.30
  -1   4  -6 1066.19   63.89
  -1   4  -6 1118.79   63.39
  -1   4  -6 1150.08   63.69
  -1   4  -6 1055.89   63.89
   1  -4   6 1092.69   63.99
   1  -4   6 1018.20   64.49
   1  -4   6 1047.00   64.09
  -2   4  -6  175.88   13.40
  -2   4  -6  166.98   13.10
  -2   4  -6  159.18   12.80
  -2   4  -6  175.98   12.20
   2  -4   6  206.58   13.40
   2  -4   6  206.18   14.40
   2  -4   6  205.08   13.90
   2  -4   6  212.48   13.10
  -3   4  -6  111.69    9.80
  -3   4  -6  113.89    9.50
  -3   4  -6  102.29    9.20
   3  -4   6  111.09    9.60
   3  -4   6  107.59    8.50
   3  -4   6  120.49   10.30
   3  -4   6  103.19   10.30
  -4   4  -6  141.39   12.50
  -4   4  -6  138.19   11.60
  -4   4  -6  119.99   11.60
   4  -4   6  148.59   12.80
   4  -4   6  162.88   13.00
   4  -4   6  162.48   12.30
  -5   4  -6  163.78   14.00
  -5   4  -6  176.48   13.40
   5  -4   6  164.18   13.70
   5  -4   6  142.99   13.70
   5  -4   6  152.28   14.30
  -6   4  -6   49.80    8.30
  -6   4  -6   46.30    7.30
   6  -4   6   68.39   10.20
   6  -4   6   78.79   10.40
   6  -4   6   66.69    9.50
  -7   4  -6   95.59   10.70
  -7   4  -6   87.49   12.10
   7  -4   6   90.89   13.10
   7  -4   6   85.69   12.00
  -8   4  -6   13.10    6.90
  -8   4  -6   15.60    6.00
   8  -4   6   29.10    9.00
   8  -4   6   24.30    8.10
   9   3  -6   33.70    7.70
   9   3  -6   26.80    8.00
  -9  -3   6   36.90   10.10
  -9  -3   6   52.89    9.20
   8   3  -6  338.97   24.90
   8   3  -6  364.86   24.60
  -8  -3   6  340.67   25.00
  -8  -3   6  355.66   25.90
  -8  -3   6  328.37   26.80
   7   3  -6  211.28   16.30
   7   3  -6  229.38   17.10
   7   3  -6  200.58   16.70
  -7  -3   6  218.08   16.70
  -7  -3   6  228.78   18.20
  -7  -3   6  194.48   18.70
   6   3  -6  757.52   45.40
   6   3  -6  764.42   45.10
   6   3  -6  808.42   45.60
  -6  -3   6  685.13   45.10
  -6  -3   6  697.93   46.50
  -6  -3   6  683.73   47.10
   5   3  -6  102.29    9.30
   5   3  -6  110.19    9.30
   5   3  -6  102.09    9.60
  -5  -3   6  110.99   10.80
  -5  -3   6  107.59    9.20
  -5  -3   6  107.79   11.40
   4   3  -6 1366.76   82.49
   4   3  -6 1433.26   82.49
   4   3  -6 1431.56   82.49
  -4  -3   6 1397.76   82.29
  -4  -3   6 1310.57   83.79
  -4  -3   6 1457.65   83.89
   3   3  -6  708.33   41.80
   3   3  -6  747.13   42.10
   3   3  -6  763.32   40.80
   3   3  -6  737.53   42.10
  -3  -3   6  601.64   42.20
  -3  -3   6  679.73   43.00
  -3  -3   6  640.34   42.90
   2   3  -6 1157.38   64.29
   2   3  -6 1112.69   64.09
   2   3  -6 1135.39   63.39
   2   3  -6 1128.99   64.39
  -2  -3   6 1031.10   64.89
  -2  -3   6 1017.70   64.99
  -2  -3   6 1079.29   64.89
  -2  -3   6 1054.69   63.39
   1   3  -6 1193.68   67.99
   1   3  -6 1195.28   68.29
   1   3  -6 1198.98   68.09
  -1  -3   6 1107.19   68.79
  -1  -3   6 1093.79   68.79
  -1  -3   6 1172.98   68.39
  -1  -3   6 1149.08   67.69
   0   3  -6  695.73   41.40
   0   3  -6  677.33   41.30
   0   3  -6  747.63   41.30
   0   3  -6  680.13   41.50
   0  -3   6  668.73   41.50
   0  -3   6  693.33   41.10
   0  -3   6  694.43   42.40
   0  -3   6  691.33   41.90
  -1   3  -6 3218.38  184.58
  -1   3  -6 3313.77  184.68
  -1   3  -6 3213.48  184.78
  -1   3  -6 3333.87  183.78
   1  -3   6 3129.89  184.58
   1  -3   6 3035.50  185.28
   1  -3   6 3196.98  183.78
   1  -3   6 3030.00  184.88
  -2   3  -6  323.77   20.10
  -2   3  -6  332.17   20.10
  -2   3  -6  337.07   18.60
  -2   3  -6  326.17   20.10
   2  -3   6  289.67   19.30
   2  -3   6  283.17   20.20
   2  -3   6  280.07   19.90
   2  -3   6  284.27   20.50
  -3   3  -6 1696.93  102.29
  -3   3  -6 1773.52  102.19
  -3   3  -6 1762.42  102.49
   3  -3   6 1793.02  102.39
   3  -3   6 1648.73  102.69
   3  -3   6 1740.13  101.09
   3  -3   6 1749.53  102.69
  -4   3  -6  832.42   51.79
  -4   3  -6  854.41   51.89
  -4   3  -6  878.61   52.29
   4  -3   6  869.31   52.59
   4  -3   6  823.52   52.39
   4  -3   6  861.91   51.99
  -5   3  -6  788.22   48.30
  -5   3  -6  787.62   48.70
   5  -3   6  784.12   49.20
   5  -3   6  797.82   48.70
   5  -3   6  763.22   48.80
  -6   3  -6    5.50    4.20
  -6   3  -6    4.60    4.70
   6  -3   6    4.50    5.50
   6  -3   6    4.40    5.40
   6  -3   6    5.00    5.10
  -7   3  -6  153.98   14.90
  -7   3  -6  154.08   13.90
   7  -3   6  156.88   15.40
   7  -3   6  152.78   16.00
  -8   3  -6   26.80    7.70
  -8   3  -6   25.30    6.70
   8  -3   6   27.80    8.70
   8  -3   6   28.70    8.40
   9   2  -6    4.50    5.50
   9   2  -6   -1.60    6.00
  -9  -2   6   -0.50    5.70
  -9  -2   6    1.70    7.10
   8   2  -6  103.59   11.00
   8   2  -6   90.59   11.70
  -8  -2   6   97.69   13.30
  -8  -2   6  103.19   11.80
  -8  -2   6   92.59   14.70
   7   2  -6  294.07   21.40
   7   2  -6  299.07   20.60
  -7  -2   6  297.07   21.30
  -7  -2   6  291.17   23.20
  -7  -2   6  307.37   22.60
   6   2  -6   36.00    5.50
   6   2  -6   29.20    5.70
   6   2  -6   35.20    5.80
   5   2  -6  116.19    9.60
   5   2  -6  107.99    9.60
   5   2  -6  109.79    9.80
  -5  -2   6  115.29   11.50
  -5  -2   6  125.89    9.80
  -5  -2   6  132.49   11.80
   4   2  -6  235.28   15.00
   4   2  -6  251.27   14.70
   4   2  -6  257.07   14.90
  -4  -2   6  186.88   15.80
  -4  -2   6  182.08   14.30
  -4  -2   6  189.68   14.00
   3   2  -6  372.86   24.90
   3   2  -6  413.86   24.50
   3   2  -6  393.56   25.40
   3   2  -6  386.16   25.20
  -3  -2   6  446.26   26.50
  -3  -2   6  412.26   25.60
  -3  -2   6  453.35   26.90
   2   2  -6   35.10    4.40
   2   2  -6   32.30    3.70
   1   2  -6  267.97   17.50
   1   2  -6  275.27   17.10
   1   2  -6  277.77   17.60
  -1  -2   6  274.17   17.10
  -1  -2   6  270.97   18.50
  -1  -2   6  291.77   17.50
  -1  -2   6  276.67   18.30
   0  -2   6  134.69    9.80
   0  -2   6  132.29   10.20
   0  -2   6  144.19    9.00
   0  -2   6  133.69   10.90
  -1   2  -6  839.82   47.70
  -1   2  -6  845.92   47.70
  -1   2  -6  832.42   47.30
   1  -2   6  770.82   47.50
   1  -2   6  750.82   48.40
   1  -2   6  737.33   47.70
  -2   2  -6  175.08   14.10
  -2   2  -6  180.18   13.80
  -2   2  -6  176.98   14.10
   2  -2   6  235.68   15.00
   2  -2   6  223.08   14.50
   2  -2   6  242.08   13.80
   2  -2   6  217.28   15.30
  -3   2  -6   88.49    8.90
  -3   2  -6   92.89    9.00
  -3   2  -6   86.89    8.90
   3  -2   6  122.39    8.00
   3  -2   6  131.59    9.90
   3  -2   6  120.99   10.20
   3  -2   6  125.79   10.50
  -4   2  -6  174.78   14.90
  -4   2  -6  196.28   15.40
  -4   2  -6  173.58   15.10
   4  -2   6  260.07   16.30
   4  -2   6  252.17   16.60
   4  -2   6  244.08   16.40
  -5   2  -6   60.39    7.50
  -5   2  -6   60.09    8.00
   5  -2   6   45.30    7.20
   5  -2   6   49.99    7.70
   5  -2   6   44.80    7.30
  -6   2  -6   33.70    6.20
  -6   2  -6   29.60    6.50
   6  -2   6   37.20    6.70
   6  -2   6   41.00    7.50
   6  -2   6   35.20    7.70
  -7   2  -6  187.98   16.50
  -7   2  -6  177.78   15.40
   7  -2   6  189.28   17.50
   7  -2   6  204.48   17.40
  -8   2  -6    4.30    5.10
  -8   2  -6    9.70    6.40
   8  -2   6    2.50    6.80
   8  -2   6    2.20    7.00
   9   1  -6    6.40    6.50
   9   1  -6   11.60    5.70
  -9  -1   6   16.80    8.40
  -9  -1   6    9.80    6.40
   8   1  -6  292.47   19.70
   8   1  -6  284.07   20.70
  -8  -1   6  261.77   21.00
  -8  -1   6  245.48   22.20
   7   1  -6   39.30    5.90
   7   1  -6   43.20    6.80
  -7  -1   6   26.00    6.10
  -7  -1   6   31.50    7.20
  -7  -1   6   29.00    7.40
   6   1  -6  512.55   30.20
   6   1  -6  530.35   31.30
   6   1  -6  532.95   30.90
  -6  -1   6  418.76   31.90
  -6  -1   6  437.76   30.60
  -6  -1   6  443.26   32.00
   5   1  -6  917.41   53.19
   5   1  -6  836.52   53.49
   5   1  -6  840.62   54.09
   5   1  -6  852.41   53.79
  -5  -1   6  928.61   55.49
  -5  -1   6  966.30   55.79
  -5  -1   6  954.60   54.09
   4   1  -6  750.12   46.40
   4   1  -6  803.42   45.60
   4   1  -6  776.52   46.00
   4   1  -6  803.12   46.00
  -4  -1   6  774.82   45.60
  -4  -1   6  758.32   45.90
  -4  -1   6  718.83   47.20
  -4  -1   6  770.02   47.70
   3   1  -6 1950.50  123.99
   3   1  -6 2019.50  123.79
   3   1  -6 2007.40  124.49
   3   1  -6 2110.29  123.79
  -3  -1   6 2178.38  125.69
  -3  -1   6 2279.67  123.99
  -3  -1   6 2288.77  125.29
  -3  -1   6 2262.77  124.49
   2   1  -6 1226.28   69.79
   2   1  -6 1213.48   69.59
   2   1  -6 1184.98   69.99
   2   1  -6 1215.98   70.39
  -2  -1   6 1085.49   70.49
  -2  -1   6 1216.88   71.39
  -2  -1   6 1176.48   69.79
  -2  -1   6 1248.88   70.59
   1   1  -6 2639.94  158.58
   1   1  -6 2658.23  159.18
   1   1  -6 2768.62  159.48
   1   1  -6 2812.72  159.18
  -1  -1   6 2839.02  159.08
  -1  -1   6 2716.13  160.18
  -1  -1   6 2722.83  159.08
  -1  -1   6 2840.12  160.28
   0   1  -6 2018.10  122.49
   0   1  -6 2031.70  122.99
   0   1  -6 2088.09  123.29
   0  -1   6 2112.69  123.19
   0  -1   6 2246.98  123.79
   0  -1   6 2153.98  124.19
   0  -1   6 2175.08  122.19
  -1   1  -6 1584.74   84.89
  -1   1  -6 1581.14   85.59
  -1   1  -6 1637.84   85.49
   1  -1   6 1270.87   85.29
   1  -1   6 1346.27   85.29
   1  -1   6 1305.17   85.99
  -2   1  -6  308.57   22.00
  -2   1  -6  332.87   22.50
  -2   1  -6  324.57   22.60
   2  -1   6  383.26   23.50
   2  -1   6  388.86   22.10
   2  -1   6  369.76   22.90
   2  -1   6  373.26   23.00
  -3   1  -6 1742.03   99.29
  -3   1  -6 1735.93   99.09
  -3   1  -6 1762.22   98.89
   3  -1   6 1642.84   99.49
   3  -1   6 1631.74   97.69
   3  -1   6 1611.34   99.09
   3  -1   6 1656.43   99.39
  -4   1  -6   36.00    5.30
  -4   1  -6   33.70    5.10
   4  -1   6   24.20    5.50
   4  -1   6   22.00    5.20
   4  -1   6   26.40    5.40
  -5   1  -6  548.75   33.60
  -5   1  -6  614.74   34.20
   5  -1   6  510.65   33.70
   5  -1   6  466.35   34.00
   5  -1   6  499.15   34.10
  -6   1  -6   43.50    7.10
  -6   1  -6   38.10    6.60
   6  -1   6   35.60    7.40
   6  -1   6   39.80    7.70
  -7   1  -6  410.46   29.10
  -7   1  -6  454.75   30.00
   7  -1   6  428.76   30.40
   7  -1   6  437.66   30.40
  -8   1  -6   18.90    7.00
  -8   1  -6   20.40    6.30
   8  -1   6   21.50    7.90
   8  -1   6   25.80    8.30
   9   0  -6   40.00    7.10
   9   0  -6   39.20    8.70
  -9   0   6   34.50    9.80
  -9   0   6   25.80    7.90
   8   0  -6  352.26   23.20
   8   0  -6  358.36   24.90
  -8   0   6  319.07   24.70
  -8   0   6  334.47   26.50
   7   0  -6   78.19    9.40
   7   0  -6   83.09    8.50
   7   0  -6   79.19    9.80
  -7   0   6   72.99   11.10
  -7   0   6   82.09    9.80
  -7   0   6   75.99   10.50
   6   0  -6  326.77   20.20
   6   0  -6  305.47   21.30
   6   0  -6  316.07   20.20
  -6   0   6  308.07   22.50
  -6   0   6  293.87   21.20
  -6   0   6  298.17   22.40
   5   0  -6    1.60    2.70
   5   0  -6   -0.20    3.10
   5   0  -6    0.20    2.40
  -5   0   6   -1.90    3.70
  -5   0   6    2.10    3.70
  -5   0   6    2.60    2.90
  -5   0   6   -1.10    1.90
   4   0  -6  195.58   14.20
   4   0  -6  213.38   13.70
   4   0  -6  204.68   13.50
  -4   0   6  218.28   13.50
  -4   0   6  208.48   15.10
  -4   0   6  187.38   15.50
  -4   0   6  206.78   13.80
   3   0  -6   10.20    2.20
   3   0  -6   10.30    2.60
   3   0  -6    8.20    2.30
   3   0  -6   11.00    3.10
  -3   0   6   12.10    3.30
  -3   0   6   11.90    4.10
  -3   0   6    9.50    2.60
  -3   0   6   12.20    2.30
   2   0  -6    8.50    2.20
   2   0  -6    6.50    2.50
   2   0  -6    9.50    1.60
   2   0  -6    9.10    2.10
  -2   0   6    7.50    1.50
  -2   0   6    8.20    2.70
  -2   0   6    6.30    3.50
  -2   0   6    8.60    2.60
   1   0  -6   37.60    2.80
   1   0  -6   36.20    4.40
   1   0  -6   38.60    4.10
   1   0  -6   37.30    3.90
  -1   0   6   38.40    5.80
  -1   0   6   39.60    5.20
  -1   0   6   40.10    4.40
  -1   0   6   38.10    3.80
   0   0  -6   16.50    3.00
   0   0  -6   19.40    2.90
   0   0  -6   17.80    2.10
   0   0   6   17.00    2.10
   0   0   6   14.30    3.60
   0   0   6   14.10    3.70
   0   0   6   14.00    3.00
  -1   0  -6    3.70    2.20
  -1   0  -6   -0.30    2.10
  -1   0  -6    4.20    1.80
   1   0   6   -0.80    2.70
   1   0   6    0.60    2.40
   1   0   6    2.90    2.50
   1   0   6    0.70    2.50
  -2   0  -6   12.90    2.80
  -2   0  -6   14.10    3.40
  -2   0  -6   14.80    3.30
   2   0   6   11.50    3.60
   2   0   6   13.20    3.00
   2   0   6   12.80    3.80
   2   0   6   12.50    3.60
  -3   0  -6  372.26   23.20
  -3   0  -6  336.57   23.30
  -3   0  -6  365.16   22.90
   3   0   6  356.46   23.60
   3   0   6  360.16   21.90
   3   0   6  377.36   23.70
   3   0   6  350.86   23.60
  -4   0  -6   19.00    4.20
  -4   0  -6   15.30    4.00
   4   0   6   18.60    4.90
   4   0   6   15.90    4.90
   4   0   6   17.80    4.60
  -5   0  -6  433.36   27.60
  -5   0  -6  411.16   27.40
   5   0   6  437.26   27.50
   5   0   6  407.56   28.10
   5   0   6  409.36   28.20
  -6   0  -6    0.80    4.20
  -6   0  -6    0.40    3.80
   6   0   6   -0.60    5.10
   6   0   6    0.70    5.20
  -7   0  -6  195.88   15.90
  -7   0  -6  172.78   15.20
   7   0   6  165.08   16.30
   7   0   6  181.18   16.70
  -8   0  -6   51.59    8.80
  -8   0  -6   51.49    8.50
   8   0   6   50.89    9.70
   8   0   6   50.79    9.90
   9  -1  -6    9.10    6.80
  -9   1   6   20.10    8.70
   8  -1  -6  221.48   21.30
   8  -1  -6  274.57   20.30
  -8   1   6  263.67   21.70
  -8   1   6  263.67   20.30
   7  -1  -6   30.60    5.10
   7  -1  -6   33.50    5.80
   7  -1  -6   25.90    6.30
  -7   1   6   43.10    8.50
  -7   1   6   35.90    6.90
  -7   1   6   40.60    6.80
   6  -1  -6  451.75   30.30
   6  -1  -6  434.76   29.30
   6  -1  -6  443.96   28.90
  -6   1   6  495.65   31.80
  -6   1   6  477.75   30.40
  -6   1   6  523.75   31.70
   5  -1  -6  962.10   53.59
   5  -1  -6  965.80   54.19
   5  -1  -6  918.21   53.59
   5  -1  -6 1012.10   55.09
  -5   1   6  819.12   55.69
  -5   1   6  818.92   54.39
  -5   1   6  844.52   55.49
  -5   1   6  900.71   53.49
   4  -1  -6  756.62   45.80
   4  -1  -6  723.33   44.80
   4  -1  -6  751.82   45.30
  -4   1   6  790.22   46.60
  -4   1   6  756.92   47.30
  -4   1   6  774.02   45.10
  -4   1   6  755.42   45.40
   3  -1  -6 2119.39  119.89
   3  -1  -6 2254.97  120.49
   3  -1  -6 2185.98  120.79
  -3   1   6 1948.01  119.79
  -3   1   6 1958.30  121.89
  -3   1   6 1997.70  120.29
  -3   1   6 2009.90  120.89
   2  -1  -6 1142.99   70.59
   2  -1  -6 1171.68   71.29
   2  -1  -6 1224.48   71.19
  -2   1   6 1239.18   72.69
  -2   1   6 1253.17   71.39
  -2   1   6 1251.67   71.59
   1  -1  -6 2734.83  158.88
   1  -1  -6 2728.23  158.78
   1  -1  -6 2736.33  158.38
  -1   1   6 2743.23  158.48
  -1   1   6 2766.32  159.88
  -1   1   6 2711.83  158.68
  -1   1   6 2752.22  159.28
   0  -1  -6 2128.09  121.19
   0  -1  -6 2196.58  121.69
   0   1   6 2080.79  122.09
   0   1   6 2058.89  120.69
   0   1   6 1985.70  121.99
   0   1   6 2073.09  121.49
  -1  -1  -6 1291.87   85.89
  -1  -1  -6 1260.27   86.09
  -1  -1  -6 1302.27   85.29
   1   1   6 1556.74   84.89
   1   1   6 1520.55   86.49
   1   1   6 1610.44   86.59
   1   1   6 1661.93   86.59
   1   1   6 1555.74   86.99
  -2  -1  -6  380.46   22.40
  -2  -1  -6  382.46   21.90
  -2  -1  -6  357.06   22.70
  -2  -1  -6  382.76   20.90
   2   1   6  322.27   22.90
   2   1   6  339.67   21.90
   2   1   6  315.27   22.60
   2   1   6  318.77   22.60
  -3  -1  -6 1514.25   99.89
  -3  -1  -6 1667.43   99.79
  -3  -1  -6 1638.44   99.59
  -3  -1  -6 1670.33   98.49
   3   1   6 1782.02  100.39
   3   1   6 1845.02   98.99
   3   1   6 1713.73  100.29
   3   1   6 1756.02  100.39
  -4  -1  -6   25.90    4.80
  -4  -1  -6   26.40    4.80
   4   1   6   29.50    5.60
   4   1   6   34.50    5.90
   4   1   6   37.50    5.70
  -5  -1  -6  467.75   33.70
  -5  -1  -6  479.75   33.80
   5   1   6  579.54   34.00
   5   1   6  594.34   35.00
   5   1   6  554.14   34.70
  -6  -1  -6   42.70    7.00
  -6  -1  -6   38.10    6.60
   6   1   6   45.00    7.90
   6   1   6   44.50    8.00
  -7  -1  -6  442.46   29.80
  -7  -1  -6  414.86   29.30
   7   1   6  427.76   30.00
   7   1   6  440.46   30.70
  -8  -1  -6   28.80    7.50
  -8  -1  -6   20.10    6.30
   8   1   6   13.90    7.70
   8   1   6   17.90    7.40
   9  -2  -6    3.70    6.50
  -9   2   6   -1.00    6.60
   8  -2  -6   98.59   11.80
   8  -2  -6   90.19   10.50
  -8   2   6   99.69   13.50
  -8   2   6   79.59   12.70
   7  -2  -6  303.07   20.80
   7  -2  -6  309.47   21.50
  -7   2   6  285.67   22.80
  -7   2   6  308.07   21.80
  -7   2   6  282.37   21.10
   6  -2  -6   79.29    9.30
   6  -2  -6   84.59    8.60
   6  -2  -6   71.39    6.90
   5  -2  -6  126.19   10.10
   5  -2  -6  113.99    8.60
   5  -2  -6  128.99   10.40
   5  -2  -6  122.19    9.20
  -5   2   6  114.39   11.10
  -5   2   6  116.69   11.40
  -5   2   6  116.39    9.00
  -5   2   6  121.29    9.70
   4  -2  -6  174.58   14.40
   4  -2  -6  179.68   14.80
  -4   2   6  233.88   16.60
  -4   2   6  248.88   14.50
  -4   2   6  248.28   16.00
   3  -2  -6  414.96   25.50
   3  -2  -6  410.76   24.30
   3  -2  -6  432.96   25.40
  -3   2   6  405.86   25.90
  -3   2   6  384.26   25.10
  -3   2   6  419.76   24.20
  -3   2   6  374.86   26.70
  -2   2   6   33.30    4.60
  -2   2   6   38.50    5.80
  -2   2   6   36.40    4.90
   1  -2  -6  270.67   17.40
   1  -2  -6  279.37   16.70
   1  -2  -6  255.97   17.30
  -1   2   6  277.47   17.20
  -1   2   6  278.87   17.90
  -1   2   6  271.07   17.50
  -1   2   6  275.67   18.70
   0   2   6   68.09    6.60
   0   2   6   76.79    5.80
   0   2   6   78.29    7.20
   0   2   6   79.79    7.50
  -1  -2  -6  780.02   47.60
  -1  -2  -6  751.12   48.60
  -1  -2  -6  754.72   48.10
   1   2   6  859.91   48.90
   1   2   6  827.22   48.70
   1   2   6  846.62   47.60
   1   2   6  858.41   48.70
  -2  -2  -6  229.18   12.40
  -2  -2  -6  225.28   13.10
  -2  -2  -6  217.18   14.10
   2   2   6  169.68   13.80
   2   2   6  174.38   13.70
   2   2   6  173.38   13.90
   2   2   6  179.68   13.30
   2   2   6  178.78   12.40
  -3  -2  -6  128.49    8.20
  -3  -2  -6  119.99    9.30
  -3  -2  -6  135.09   10.00
  -3  -2  -6  118.79    9.00
   3   2   6   86.89    9.60
   3   2   6  105.39    8.60
   3   2   6   92.99    9.70
   3   2   6   95.09    9.80
  -4  -2  -6  242.68   16.00
  -4  -2  -6  233.48   16.10
  -4  -2  -6  246.48   15.00
  -4  -2  -6  263.17   16.90
   4   2   6  177.98   16.30
   4   2   6  182.38   16.30
  -5  -2  -6   50.59    7.30
  -5  -2  -6   45.80    6.90
   5   2   6   51.49    7.70
   5   2   6   57.79    7.70
   5   2   6   48.50    7.40
   5   2   6   58.99    8.70
  -6  -2  -6   39.10    6.80
  -6  -2  -6   37.10    6.60
   6   2   6   36.00    7.20
   6   2   6   38.20    7.30
   6   2   6   40.50    7.70
  -7  -2  -6  215.58   17.00
  -7  -2  -6  192.88   16.30
   7   2   6  193.18   17.20
   7   2   6  178.88   17.20
   7   2   6  177.58   17.00
  -8  -2  -6    4.00    5.30
  -8  -2  -6    1.60    5.70
   8   2   6   13.40    7.10
   8   2   6    8.20    7.30
   9  -3  -6   50.39    9.10
   9  -3  -6   41.50    7.80
  -9   3   6   22.10    9.00
   8  -3  -6  317.57   23.50
   8  -3  -6  347.37   24.40
  -8   3   6  341.27   26.60
   7  -3  -6  213.58   16.70
   7  -3  -6  200.48   16.30
  -7   3   6  205.38   18.40
  -7   3   6  202.08   18.40
  -7   3   6  223.78   17.10
   6  -3  -6  752.92   47.50
   6  -3  -6  744.43   47.70
  -6   3   6  774.42   49.30
  -6   3   6  818.62   48.60
  -6   3   6  778.52   47.30
   5  -3  -6  106.99    9.70
   5  -3  -6  109.29    8.80
   5  -3  -6  102.79    9.60
  -5   3   6  105.09   10.70
  -5   3   6  111.69    8.70
  -5   3   6  101.99    8.60
  -5   3   6  106.89   10.90
   4  -3  -6 1407.26   81.49
   4  -3  -6 1359.76   79.99
   4  -3  -6 1343.57   81.29
   4  -3  -6 1351.76   81.09
  -4   3   6 1400.46   80.49
  -4   3   6 1365.46   82.69
  -4   3   6 1388.16   81.19
  -4   3   6 1407.96   82.29
   3  -3  -6  633.54   41.20
   3  -3  -6  641.54   40.00
   3  -3  -6  614.74   41.20
  -3   3   6  720.73   41.40
  -3   3   6  709.63   42.80
  -3   3   6  738.53   40.20
  -3   3   6  735.43   42.10
   2  -3  -6  990.50   62.49
   2  -3  -6  990.80   62.49
   2  -3  -6 1066.59   61.39
  -2   3   6 1158.48   62.99
  -2   3   6 1079.79   63.99
  -2   3   6 1067.59   62.79
   1  -3  -6 1120.39   68.39
   1  -3  -6 1096.09   68.19
   1  -3  -6 1142.09   67.39
  -1   3   6 1189.48   68.49
  -1   3   6 1167.78   69.49
  -1   3   6 1198.58   68.89
  -1   3   6 1205.28   68.39
   0  -3  -6  686.53   42.10
   0  -3  -6  704.63   41.30
   0  -3  -6  719.13   40.70
   0  -3  -6  718.73   42.10
   0   3   6  714.13   40.70
   0   3   6  658.93   41.90
   0   3   6  710.03   41.70
   0   3   6  677.63   42.80
  -1  -3  -6 3164.38  185.88
  -1  -3  -6 3122.49  185.38
  -1  -3  -6 3143.89  185.98
  -1  -3  -6 3174.48  184.78
   1   3   6 3281.97  185.18
   1   3   6 3247.07  186.28
   1   3   6 3245.48  185.88
   1   3   6 3232.18  186.28
  -2  -3  -6  293.87   20.20
  -2  -3  -6  311.87   19.90
  -2  -3  -6  306.17   19.80
  -2  -3  -6  297.17   20.90
   2   3   6  333.17   20.80
   2   3   6  326.97   21.20
   2   3   6  325.57   21.00
   2   3   6  345.17   21.40
   2   3   6  336.07   20.00
  -3  -3  -6 1729.53  101.89
  -3  -3  -6 1761.72  102.49
  -3  -3  -6 1715.13  101.59
  -3  -3  -6 1717.93  101.19
   3   3   6 1752.52  101.69
   3   3   6 1746.93  102.39
   3   3   6 1743.63  102.09
   3   3   6 1661.13  102.29
   3   3   6 1785.82  101.39
   3   3   6 1726.83  102.49
  -4  -3  -6  867.61   51.49
  -4  -3  -6  876.21   52.39
  -4  -3  -6  871.61   51.49
  -4  -3  -6  859.51   52.09
  -4  -3  -6  876.51   52.79
   4   3   6  850.91   52.39
   4   3   6  844.42   52.69
   4   3   6  828.92   52.29
   4   3   6  866.31   52.89
  -5  -3  -6  772.62   47.60
  -5  -3  -6  795.72   47.70
   5   3   6  774.52   48.30
   5   3   6  753.52   47.80
   5   3   6  782.52   48.00
   5   3   6  740.53   47.20
  -6  -3  -6    3.00    4.30
  -6  -3  -6    3.70    4.50
   6   3   6    3.60    5.30
   6   3   6    1.80    5.40
   6   3   6    4.30    5.20
  -7  -3  -6  148.19   14.50
  -7  -3  -6  152.68   14.40
   7   3   6  149.09   15.10
   7   3   6  150.68   14.80
   7   3   6  159.18   16.10
  -8  -3  -6   22.40    7.40
  -8  -3  -6   23.70    7.10
   8   3   6   26.90    8.40
   8   3   6   32.90    9.00
   8   3   6   24.90    7.90
   9  -4  -6   19.40    7.00
   9  -4  -6   17.10    7.40
  -9   4   6   14.20    8.30
   8  -4  -6   39.30    7.70
   8  -4  -6   42.80    8.20
  -8   4   6   62.19   10.80
   7  -4  -6  166.78   14.00
   7  -4  -6  175.08   14.40
  -7   4   6  152.58   14.00
  -7   4   6  143.69   15.70
   6  -4  -6  141.29   12.90
   6  -4  -6  140.19   12.80
  -6   4   6  152.58   13.40
  -6   4   6  170.88   14.60
   5  -4  -6  122.19   10.70
   5  -4  -6  141.99   10.70
   5  -4  -6  132.09   10.20
  -5   4   6  113.79   11.40
  -5   4   6  113.19    9.40
  -5   4   6  106.79    9.70
  -5   4   6  107.69   11.50
   4  -4  -6  669.93   39.80
   4  -4  -6  671.63   40.10
   4  -4  -6  664.53   39.80
  -4   4   6  632.94   40.80
  -4   4   6  629.94   41.00
  -4   4   6  632.54   38.80
  -4   4   6  651.73   39.70
   3  -4  -6  135.19   10.30
   3  -4  -6  157.88   10.40
   3  -4  -6  134.89   10.50
  -3   4   6  127.09   11.40
  -3   4   6  125.39   10.30
  -3   4   6  126.19   10.90
  -3   4   6  124.39    8.70
   2  -4  -6  644.24   37.90
   2  -4  -6  654.33   37.40
   2  -4  -6  636.34   37.70
  -2   4   6  593.04   36.10
  -2   4   6  590.44   37.80
  -2   4   6  590.24   37.70
   1  -4  -6  382.36   23.40
   1  -4  -6  403.86   23.90
   1  -4  -6  406.76   22.30
  -1   4   6  365.26   23.70
  -1   4   6  365.06   24.00
  -1   4   6  330.87   24.60
  -1   4   6  366.56   22.20
   0  -4  -6  195.08   11.80
   0   4   6  152.78   11.60
   0   4   6  159.08   11.40
   0   4   6  151.08   10.10
   0   4   6  153.18   12.70
   0   4   6  153.48   11.90
  -1  -4  -6 1097.39   64.19
  -1  -4  -6 1101.99   64.79
  -1  -4  -6 1123.49   63.69
  -1  -4  -6 1077.19   64.79
   1   4   6 1091.89   63.69
   1   4   6 1084.39   64.79
   1   4   6 1098.59   64.49
   1   4   6 1060.19   65.39
   1   4   6 1076.09   65.19
  -2  -4  -6  211.18   13.20
  -2  -4  -6  217.38   12.70
  -2  -4  -6  221.78   14.00
  -2  -4  -6  222.48   14.10
   2   4   6  172.58   13.90
   2   4   6  166.38   13.50
   2   4   6  169.58   13.00
   2   4   6  181.28   12.70
   2   4   6  155.58   13.60
   2   4   6  172.38   13.80
  -3  -4  -6  111.99    9.40
  -3  -4  -6  116.49    8.80
  -3  -4  -6  112.99    8.90
  -3  -4  -6  114.59   10.00
   3   4   6  109.39    9.70
   3   4   6  109.99    9.30
   3   4   6  109.49   10.00
   3   4   6  107.49   10.00
   3   4   6  100.59   10.20
   3   4   6  109.09    9.70
   3   4   6  110.39    9.20
  -4  -4  -6  156.38   12.50
  -4  -4  -6  166.28   11.60
  -4  -4  -6  157.98   11.30
  -4  -4  -6  153.18   11.70
  -4  -4  -6  165.58   11.30
   4   4   6  129.59   11.30
   4   4   6  123.39   11.90
   4   4   6  123.69   12.20
   4   4   6  126.89   12.00
   4   4   6  130.09   12.40
  -5  -4  -6  146.19   13.10
  -5  -4  -6  154.38   13.90
  -5  -4  -6  175.98   13.60
   5   4   6  167.08   13.40
   5   4   6  177.38   15.00
   5   4   6  170.68   14.20
   5   4   6  178.68   14.60
  -6  -4  -6   80.99    9.60
  -6  -4  -6   76.19    9.30
   6   4   6   49.80    8.40
   6   4   6   47.50    8.70
   6   4   6   51.19    8.60
  -7  -4  -6   91.19   11.20
  -7  -4  -6   88.69   11.50
   7   4   6   91.39   12.20
   7   4   6  103.39   12.80
   7   4   6   98.49   13.20
  -8  -4  -6   24.00    7.60
  -8  -4  -6   26.00    7.20
   8   4   6   13.70    7.80
   8   4   6   16.70    7.50
   8  -5  -6  162.58   15.70
   8  -5  -6  163.98   15.20
  -8   5   6  171.38   17.80
   7  -5  -6   35.60    6.80
   7  -5  -6   44.10    7.50
  -7   5   6   18.20    6.00
  -7   5   6   18.10    7.10
   6  -5  -6  435.46   27.80
   6  -5  -6  417.46   28.30
  -6   5   6  422.26   28.50
  -6   5   6  408.66   29.60
   5  -5  -6   65.29    8.20
   5  -5  -6   59.49    7.40
   5  -5  -6   66.59    7.70
  -5   5   6   40.70    7.20
  -5   5   6   41.70    7.50
   4  -5  -6  305.97   20.40
   4  -5  -6  297.17   21.00
   4  -5  -6  304.37   20.80
  -4   5   6  320.87   22.00
  -4   5   6  314.67   21.90
  -4   5   6  328.87   21.00
   3  -5  -6  571.44   36.10
   3  -5  -6  532.15   36.40
   3  -5  -6  524.05   36.50
  -3   5   6  630.24   35.50
  -3   5   6  620.14   37.40
  -3   5   6  637.74   36.90
  -3   5   6  634.14   38.00
   2  -5  -6  423.46   30.20
   2  -5  -6  490.85   30.50
   2  -5  -6  453.85   29.70
  -2   5   6  516.85   31.80
  -2   5   6  509.55   28.90
  -2   5   6  492.95   30.80
  -2   5   6  515.85   30.80
   1  -5  -6  742.73   44.20
   1  -5  -6  725.33   43.70
   1  -5  -6  697.63   44.50
  -1   5   6  762.92   42.90
  -1   5   6  735.23   44.60
  -1   5   6  744.13   44.40
  -1   5   6  691.63   45.30
   0  -5  -6  221.48   15.60
   0  -5  -6  217.78   15.90
   0  -5  -6  217.28   14.70
   0   5   6  253.87   14.80
   0   5   6  248.98   16.70
   0   5   6  245.78   17.40
   0   5   6  251.47   16.30
  -1  -5  -6 1427.26   82.59
  -1  -5  -6 1419.56   83.29
  -1  -5  -6 1413.36   82.29
  -1  -5  -6 1381.36   83.19
   1   5   6 1353.86   84.19
   1   5   6 1392.56   83.29
   1   5   6 1441.56   82.39
   1   5   6 1395.06   83.79
   1   5   6 1474.25   83.39
  -2  -5  -6   45.50    5.90
  -2  -5  -6   43.80    5.10
  -2  -5  -6   44.70    5.90
  -2  -5  -6   41.10    4.70
   2   5   6   25.90    5.60
   2   5   6   29.90    5.10
   2   5   6   33.40    5.30
   2   5   6   33.30    5.00
   2   5   6   35.30    5.70
   2   5   6   35.10    5.60
   2   5   6   33.20    5.00
  -3  -5  -6 1480.55   85.39
  -3  -5  -6 1452.75   84.69
  -3  -5  -6 1425.46   84.99
  -3  -5  -6 1415.86   85.49
  -3  -5  -6 1462.35   85.09
   3   5   6 1416.06   85.59
   3   5   6 1407.46   85.29
   3   5   6 1449.06   85.09
   3   5   6 1464.15   85.59
   3   5   6 1407.16   85.69
   3   5   6 1433.66   84.79
   3   5   6 1434.06   85.09
  -4  -5  -6  310.57   19.50
  -4  -5  -6  315.17   19.90
  -4  -5  -6  318.57   19.70
  -4  -5  -6  304.67   19.70
  -4  -5  -6  315.37   20.50
   4   5   6  255.37   19.90
   4   5   6  266.67   19.70
   4   5   6  274.17   19.90
   4   5   6  267.67   19.80
   4   5   6  265.07   19.60
   4   5   6  266.47   19.60
   4   5   6  263.67   20.30
  -5  -5  -6  588.44   39.00
  -5  -5  -6  563.44   38.40
  -5  -5  -6  576.84   38.40
   5   5   6  661.83   39.10
   5   5   6  654.53   39.70
   5   5   6  626.84   39.20
  -6  -5  -6   79.59    9.60
  -6  -5  -6   76.19    9.40
   6   5   6   59.79    9.50
   6   5   6   73.59   10.60
   6   5   6   56.89    9.20
  -7  -5  -6  375.96   26.80
  -7  -5  -6  382.76   27.40
   7   5   6  402.56   27.90
   7   5   6  381.36   28.30
   7   5   6  348.97   31.30
   8  -6  -6  177.48   17.30
   8  -6  -6  196.78   17.30
  -8   6   6  226.78   20.30
   7  -6  -6  215.38   16.60
   7  -6  -6  199.28   17.20
  -7   6   6  194.58   18.90
   6  -6  -6  249.88   18.50
   6  -6  -6  247.48   19.70
   6  -6  -6  242.78   19.00
  -6   6   6  265.47   21.20
  -6   6   6  289.27   20.10
   5  -6  -6   81.09    9.20
   5  -6  -6   87.79    8.70
   5  -6  -6   76.09    9.60
  -5   6   6   88.09   10.50
  -5   6   6   77.09   10.70
   4  -6  -6   12.20    4.60
   4  -6  -6    8.00    4.40
   4  -6  -6   12.10    3.90
  -4   6   6   29.60    6.30
  -4   6   6   26.80    6.00
   3  -6  -6  278.87   19.00
   3  -6  -6  256.37   18.90
   3  -6  -6  285.67   18.10
  -3   6   6  268.67   19.10
  -3   6   6  278.67   20.10
  -3   6   6  271.07   19.70
   2  -6  -6   81.09    8.00
   2  -6  -6   83.59    8.30
   2  -6  -6   91.49    7.00
  -2   6   6   52.89    7.70
  -2   6   6   61.99    8.90
  -2   6   6   51.49    7.80
   1  -6  -6  198.98   14.60
   1  -6  -6  214.58   13.50
   1  -6  -6  218.38   14.40
  -1   6   6  165.98   15.00
  -1   6   6  182.18   14.50
  -1   6   6  197.88   12.80
  -1   6   6  184.58   14.60
   0  -6  -6  304.27   17.30
   0  -6  -6  299.87   18.50
   0  -6  -6  309.17   18.00
   0   6   6  241.98   16.40
   0   6   6  225.48   18.00
   0   6   6  210.68   18.50
   0   6   6  230.88   17.80
  -1  -6  -6  116.99    9.80
  -1  -6  -6  121.59    9.40
  -1  -6  -6  117.69    9.00
  -1  -6  -6  122.39    8.30
   1   6   6   87.39    9.20
   1   6   6   94.89    9.90
   1   6   6   90.19   10.60
   1   6   6   99.69    9.60
   1   6   6   96.89    8.30
   2   6   6  111.59   10.00
   2   6   6  118.29    9.60
   2   6   6  118.39    9.30
   2   6   6  114.59   11.40
   2   6   6  102.89    9.90
   2   6   6  116.09   10.70
   2   6   6  120.49   10.50
  -3  -6  -6  108.59   10.30
  -3  -6  -6  114.09   10.60
  -3  -6  -6  116.49   10.30
  -3  -6  -6  112.79    9.40
  -3  -6  -6  122.39   10.10
  -3  -6  -6  118.89    9.50
  -3  -6  -6  109.39   10.00
   3   6   6  109.89    9.80
   3   6   6  100.29    9.90
   3   6   6  112.49   10.90
   3   6   6  112.89   10.70
   3   6   6  110.09   11.20
   3   6   6  110.89   10.70
   3   6   6  111.69   10.50
  -4  -6  -6  367.16   22.90
  -4  -6  -6  376.96   22.50
  -4  -6  -6  356.36   22.90
  -4  -6  -6  354.76   23.10
  -4  -6  -6  351.36   22.40
  -4  -6  -6  369.96   23.10
  -4  -6  -6  348.67   22.70
   4   6   6  300.77   22.40
   4   6   6  299.87   22.80
   4   6   6  324.57   22.80
   4   6   6  291.07   22.50
   4   6   6  308.47   22.90
   4   6   6  301.47   22.40
   4   6   6  309.07   23.20
  -5  -6  -6  212.18   19.00
  -5  -6  -6  233.98   17.30
  -5  -6  -6  243.88   18.10
  -5  -6  -6  231.98   17.50
  -5  -6  -6  232.58   17.20
   5   6   6  238.18   17.90
   5   6   6  223.08   17.80
   5   6   6  226.68   18.30
   5   6   6  233.18   18.00
  -6  -6  -6   80.49   10.00
  -6  -6  -6   81.69    9.90
  -6  -6  -6   87.89   10.60
   6   6   6   49.99    9.10
   6   6   6   58.49    9.50
   6   6   6   70.49    9.80
  -7  -6  -6  157.78   15.60
  -7  -6  -6  159.18   14.70
  -7  -6  -6  156.18   15.00
   7   6   6  139.39   16.00
   7   6   6  161.78   16.20
   7  -7  -6   11.30    6.60
  -7   7   6   30.20    8.60
   6  -7  -6  194.28   16.50
   6  -7  -6  204.58   17.90
  -6   7   6  225.38   19.50
  -6   7   6  234.78   17.90
   5  -7  -6  436.16   28.00
   5  -7  -6  419.56   28.80
   5  -7  -6  393.86   28.70
  -5   7   6  455.95   30.70
  -5   7   6  464.35   29.80
   4  -7  -6  178.48   15.60
   4  -7  -6  192.48   15.90
   4  -7  -6  192.58   14.50
  -4   7   6  238.18   17.60
  -4   7   6  232.88   17.10
   3  -7  -6 1034.10   65.29
   3  -7  -6 1070.59   63.99
   3  -7  -6 1061.49   64.99
  -3   7   6 1092.39   66.19
  -3   7   6 1108.29   66.09
  -3   7   6 1105.19   65.39
   2  -7  -6  614.24   41.40
   2  -7  -6  640.64   40.00
   2  -7  -6  632.74   40.90
  -2   7   6  670.43   41.90
  -2   7   6  712.63   41.80
  -2   7   6  717.03   42.80
   1  -7  -6 1039.40   61.89
   1  -7  -6  939.11   62.19
   1  -7  -6 1016.00   60.99
  -1   7   6 1083.79   62.69
  -1   7   6 1063.59   62.69
  -1   7   6 1035.50   63.39
   0  -7  -6  374.56   25.70
   0  -7  -6  400.46   26.60
   0  -7  -6  397.06   25.10
   0   7   6  422.66   25.40
   0   7   6  411.76   26.70
   0   7   6  393.36   27.60
   0   7   6  413.16   26.80
  -1  -7  -6  394.46   26.80
  -1  -7  -6  382.16   27.30
  -1  -7  -6  384.66   27.90
   1   7   6  480.85   27.00
   1   7   6  466.55   28.60
   1   7   6  441.46   29.20
   1   7   6  453.85   28.40
  -2  -7  -6  193.28   14.00
  -2  -7  -6  202.88   15.40
  -2  -7  -6  196.08   14.60
  -2  -7  -6  195.08   14.60
  -2  -7  -6  174.68   14.40
   2   7   6  209.98   15.90
   2   7   6  212.88   16.90
   2   7   6  204.68   14.40
   2   7   6  218.98   15.80
   2   7   6  210.98   15.10
  -3  -7  -6  225.78   16.30
  -3  -7  -6  222.18   16.60
  -3  -7  -6  226.88   16.00
  -3  -7  -6  240.18   16.70
  -3  -7  -6  218.18   17.00
  -3  -7  -6  222.98   15.50
  -3  -7  -6  212.38   15.40
   3   7   6  212.18   15.80
   3   7   6  223.88   16.00
   3   7   6  209.38   16.50
   3   7   6  215.88   16.90
   3   7   6  213.78   17.50
   3   7   6  218.48   16.90
   3   7   6  216.08   16.20
  -4  -7  -6   14.10    5.40
  -4  -7  -6   21.90    5.10
  -4  -7  -6   19.60    5.30
  -4  -7  -6   19.70    4.90
  -4  -7  -6   18.80    4.70
  -4  -7  -6   23.50    5.70
  -4  -7  -6   18.40    5.30
   4   7   6   15.70    5.50
   4   7   6   18.70    6.00
   4   7   6   17.40    5.20
   4   7   6   19.70    5.40
   4   7   6   21.60    6.20
   4   7   6   17.30    6.00
   4   7   6   23.10    5.80
  -5  -7  -6   86.79    9.80
  -5  -7  -6   76.89    9.70
  -5  -7  -6   92.49   10.60
  -5  -7  -6   83.09   10.80
  -5  -7  -6   85.99   10.10
   5   7   6  107.79   11.30
   5   7   6  118.49   17.70
   5   7   6  101.29   12.00
   5   7   6  101.59   11.50
   5   7   6  101.79   11.20
  -6  -7  -6    6.80    5.00
  -6  -7  -6    9.10    5.30
  -6  -7  -6    9.00    5.50
   6   7   6    3.90    6.10
   6   7   6    2.30    6.00
   7  -8  -6  252.07   20.60
  -7   8   6  244.78   22.70
   6  -8  -6  306.97   22.20
   6  -8  -6  307.27   21.50
  -6   8   6  262.47   21.80
  -6   8   6  263.57   23.40
   5  -8  -6  246.48   18.40
   5  -8  -6  231.98   18.00
  -5   8   6  222.08   18.80
  -5   8   6  203.78   19.30
   4  -8  -6  145.59   13.10
   4  -8  -6  143.79   12.90
  -4   8   6  130.39   14.00
  -4   8   6  122.79   14.00
   3  -8  -6  403.56   26.90
   3  -8  -6  402.26   26.50
  -3   8   6  394.56   28.00
  -3   8   6  379.36   27.40
   2  -8  -6  155.88   13.10
   2  -8  -6  172.18   14.00
  -2   8   6  155.58   14.00
  -2   8   6  154.98   14.20
  -2   8   6  156.48   15.00
   1  -8  -6  105.49   10.20
   1  -8  -6   97.29    9.50
  -1   8   6   80.29   10.00
  -1   8   6   83.19   11.40
  -1   8   6   88.09   10.50
   0  -8  -6  175.78   13.70
   0  -8  -6  174.98   12.40
   0   8   6  124.79   14.00
   0   8   6  127.79   13.20
   0   8   6  136.99   13.20
  -1  -8  -6   12.80    4.90
  -1  -8  -6    7.20    3.80
   1   8   6   12.30    5.40
   1   8   6   17.70    6.30
   1   8   6   12.00    5.40
   2   8   6   39.90    6.10
   2   8   6   48.90    7.80
   2   8   6   39.90    7.40
   2   8   6   47.20    8.40
  -3  -8  -6  177.18   13.20
  -3  -8  -6  175.78   13.90
  -3  -8  -6  171.58   13.00
  -3  -8  -6  173.98   14.10
  -3  -8  -6  176.78   14.80
   3   8   6  155.18   14.50
   3   8   6  143.89   13.40
   3   8   6  151.78   13.20
   3   8   6  134.69   14.90
   3   8   6  152.28   14.30
  -4  -8  -6  100.29   10.80
  -4  -8  -6   99.79    9.50
  -4  -8  -6   84.49   10.10
  -4  -8  -6  104.49   10.20
  -4  -8  -6   90.69    9.00
  -4  -8  -6   93.69    9.20
   4   8   6   74.09   10.40
   4   8   6   69.49   10.10
   4   8   6   54.49    9.60
   4   8   6   60.89    9.80
   4   8   6   58.39    9.90
   4   8   6   65.19    9.70
  -5  -8  -6   15.00    5.10
  -5  -8  -6   20.90    5.70
  -5  -8  -6   16.10    5.80
   5   8   6   11.20    6.20
   5   8   6   12.30    5.80
   5   8   6   10.90   10.50
  -6  -8  -6    1.90    5.00
  -6  -8  -6    1.50    5.20
   6   8   6    0.10    6.00
   6   8   6    1.00    6.40
   6  -9  -6  222.98   19.80
   6  -9  -6  231.58   19.50
  -6   9   6  255.57   22.10
  -6   9   6  255.07   20.60
   5  -9  -6    7.50    5.80
   5  -9  -6    5.80    6.00
  -5   9   6   -2.70    5.70
  -5   9   6    3.20    6.50
   4  -9  -6  193.28   16.90
   4  -9  -6  205.68   17.40
  -4   9   6  229.28   18.80
  -4   9   6  210.58   18.50
   3  -9  -6   26.00    6.20
   3  -9  -6   17.20    6.00
  -3   9   6   29.90    7.80
  -3   9   6   25.60    7.40
   2  -9  -6   83.59   10.80
   2  -9  -6   81.69    9.90
  -2   9   6  107.49   12.20
  -2   9   6  107.79   12.80
   1  -9  -6  101.19   11.40
   1  -9  -6   96.79   10.20
  -1   9   6  105.19   12.00
  -1   9   6  115.59   12.90
   0  -9  -6   14.80    4.70
   0  -9  -6   14.80    5.50
   0   9   6    7.40    5.50
   0   9   6    7.30    6.10
   0   9   6   16.60    6.10
  -1  -9  -6  782.92   48.50
  -1  -9  -6  749.62   47.10
  -1  -9  -6  749.42   49.20
   1   9   6  776.52   48.60
   1   9   6  761.02   49.50
   1   9   6  777.62   48.60
  -2  -9  -6    0.40    4.50
  -2  -9  -6    1.80    3.80
  -2  -9  -6    0.90    5.00
   2   9   6    2.50    5.50
   2   9   6    1.40    6.00
   2   9   6    4.30    5.40
  -3  -9  -6  536.65   37.40
  -3  -9  -6  582.74   36.80
  -3  -9  -6  557.94   36.80
  -3  -9  -6  555.34   35.50
   3   9   6  583.14   37.10
   3   9   6  546.15   37.80
   3   9   6  547.05   37.20
  -4  -9  -6   17.20    6.00
  -4  -9  -6   18.20    7.40
  -4  -9  -6   22.30    6.80
  -4  -9  -6   21.00    6.00
   4   9   6   25.10    7.00
   4   9   6   26.70    7.80
   4   9   6   20.70    7.40
  -5  -9  -6  276.07   22.30
  -5  -9  -6  291.17   22.00
   5   9   6  272.17   27.80
   5 -10  -6   81.99   11.80
   5 -10  -6   87.89   12.60
  -5  10   6   86.19   13.00
  -5  10   6   71.99   11.20
   4 -10  -6   40.00    7.70
   4 -10  -6   33.50    7.80
  -4  10   6   20.00    7.70
  -4  10   6   23.10    8.30
   3 -10  -6   46.10    8.50
   3 -10  -6   37.90    7.20
  -3  10   6   47.70    9.50
  -3  10   6   30.10    8.20
   2 -10  -6   69.29    9.80
   2 -10  -6   85.09   11.30
  -2  10   6   76.49   11.40
  -2  10   6   76.09   11.10
   1 -10  -6   69.69    9.20
   1 -10  -6   64.69   10.00
  -1  10   6   76.09   10.90
  -1  10   6   78.79   11.80
   0 -10  -6   44.50    7.90
   0 -10  -6   44.40    6.90
   0 -10  -6   39.80    8.70
   0  10   6   39.00    9.00
   0  10   6   28.10    7.70
  -1 -10  -6   40.90    7.70
  -1 -10  -6   48.60    9.00
  -1 -10  -6   42.50    6.70
   1  10   6   48.30    9.20
   1  10   6   39.90    9.20
  -2 -10  -6  177.28   16.20
  -2 -10  -6  183.18   14.90
  -2 -10  -6  162.78   14.20
   2  10   6  108.49   15.50
   2  10   6  121.39   15.00
  -3 -10  -6   28.40    7.20
  -3 -10  -6   29.30    8.00
  -3 -10  -6   36.10    7.40
   3  10   6   34.70    9.10
   3  10   6   38.70    8.80
  -4 -10  -6   72.19   10.90
  -4 -10  -6   68.99   10.70
   4  10   6   70.29   11.20
   4  10   6   66.79   11.20
   3 -11  -6  274.57   23.10
   3 -11  -6  278.57   22.30
  -3  11   6  348.97   25.60
  -3  11   6  315.87   24.90
   2 -11  -6   74.89   12.10
   2 -11  -6   86.49   12.90
   2 -11  -6   91.99   11.10
  -2  11   6  108.09   14.80
  -2  11   6  108.19   14.10
   1 -11  -6  107.79   14.00
   1 -11  -6  110.39   13.10
   1 -11  -6  107.09   11.70
  -1  11   6  106.79   15.00
  -1  11   6  114.39   14.70
   0 -11  -6  112.49   14.50
   0 -11  -6  124.59   13.90
   0 -11  -6  100.79   11.60
   0  11   6  145.89   15.30
   0  11   6  137.69   16.10
  -1 -11  -6  114.59   14.70
  -1 -11  -6  131.59   13.90
   1  11   6  127.89   15.40
   1  11   6  125.89   16.20
  -2 -11  -6   71.29   11.00
  -2 -11  -6   61.69   11.20
   2  11   6   67.29   11.70
   2  11   6   72.19   11.30
   3  11   6   44.30   10.40
   3  11  -7   13.00    7.60
   3  11  -7   20.60    7.10
   3  11  -7   10.20    5.50
  -3 -11   7   12.90    7.30
  -3 -11   7   13.60    7.30
   2  11  -7  119.89   13.40
   2  11  -7  108.19   11.50
   2  11  -7  110.89   13.70
  -2 -11   7  100.49   14.10
  -2 -11   7   94.79   13.50
  -2 -11   7  125.29   13.20
   1  11  -7    9.20    6.10
   1  11  -7    6.00    4.50
   1  11  -7   11.10    6.30
  -1 -11   7    9.50    6.20
  -1 -11   7    4.80    5.70
  -1 -11   7    6.10    6.50
   0  11  -7  170.68   16.00
   0  11  -7  154.68   13.60
   0 -11   7  160.38   16.20
   0 -11   7  160.98   16.10
  -1  11  -7   47.30    8.70
   1 -11   7   40.30    9.10
   1 -11   7   28.30    7.90
  -2  11  -7  194.38   17.20
   2 -11   7  176.38   18.00
   4  10  -7   77.29   10.70
   4  10  -7   84.39   11.60
  -4 -10   7   91.39   12.60
  -4 -10   7   73.49   12.10
   3  10  -7   49.10    8.30
   3  10  -7   44.00    9.30
   3  10  -7   49.60    7.40
  -3 -10   7   39.70    7.80
  -3 -10   7   43.20    9.20
  -3 -10   7   31.40    8.60
   2  10  -7  173.18   15.80
   2  10  -7  180.58   14.80
   2  10  -7  194.08   17.10
  -2 -10   7  181.38   17.10
  -2 -10   7  187.38   16.00
  -2 -10   7  179.68   16.90
   1  10  -7  100.69    9.90
   1  10  -7  112.39   12.20
   1  10  -7  105.59   11.50
  -1 -10   7   66.59   10.50
  -1 -10   7   73.09   11.00
  -1 -10   7   87.19   11.30
   0  10  -7  314.07   22.50
   0  10  -7  350.56   25.20
   0  10  -7  337.57   24.30
   0 -10   7  331.57   24.40
   0 -10   7  310.17   24.10
  -1  10  -7  187.18   15.80
  -1  10  -7  179.18   14.00
   1 -10   7  162.08   16.30
   1 -10   7  140.59   15.20
  -2  10  -7  202.08   17.70
  -2  10  -7  190.08   15.50
   2 -10   7  206.78   18.40
  -3  10  -7  112.19   13.40
   3 -10   7   91.09   13.70
   6   9  -7   17.50    6.50
   6   9  -7   24.30    7.40
  -6  -9   7   22.40    8.80
  -6  -9   7   26.20    9.10
   5   9  -7    3.40    5.30
   5   9  -7   -0.80    5.00
  -5  -9   7   -1.10    6.40
  -5  -9   7    1.00    6.70
   4   9  -7  138.49   13.10
   4   9  -7  136.89   12.50
  -4  -9   7  108.89   14.40
  -4  -9   7  113.79   14.40
   3   9  -7  116.29   13.20
   3   9  -7  104.09   11.60
   3   9  -7  102.29   10.70
  -3  -9   7   95.99   12.60
  -3  -9   7   98.79   12.70
  -3  -9   7  104.69   11.50
   2   9  -7  127.59   12.50
   2   9  -7  118.59   11.40
   2   9  -7  100.39   10.10
  -2  -9   7   91.99   11.00
  -2  -9   7   86.09   11.60
  -2  -9   7   79.79   11.80
   1   9  -7  241.18   17.30
   1   9  -7  255.27   18.90
   1   9  -7  244.88   18.20
  -1  -9   7  224.88   18.40
  -1  -9   7  226.18   18.30
  -1  -9   7  227.48   18.90
   0   9  -7   81.99    9.80
   0   9  -7   92.99    9.10
   0   9  -7   85.79   10.00
   0  -9   7   61.69    9.40
   0  -9   7   57.79    9.10
   0  -9   7   65.99   10.30
  -1   9  -7  192.28   15.80
  -1   9  -7  182.98   14.50
   1  -9   7  193.78   15.90
   1  -9   7  181.18   16.30
  -2   9  -7    5.90    4.30
  -2   9  -7    7.80    5.40
   2  -9   7   21.60    9.20
   2  -9   7   17.50    6.60
  -3   9  -7   56.99    8.40
  -3   9  -7   65.99    9.70
   3  -9   7   59.89    9.10
   3  -9   7   69.19   10.60
  -4   9  -7   64.09    9.60
  -4   9  -7   55.89    9.60
   4  -9   7   37.70    9.20
   4  -9   7   36.50    7.80
   6   8  -7   21.30    6.90
   6   8  -7   25.00    6.80
  -6  -8   7   23.00    8.20
  -6  -8   7   27.10    8.80
   5   8  -7  317.17   22.90
   5   8  -7  315.67   22.80
  -5  -8   7  310.37   25.10
  -5  -8   7  321.57   24.80
   4   8  -7   86.99   10.50
   4   8  -7   82.59   10.00
  -4  -8   7   99.19   12.40
  -4  -8   7   98.29   12.60
   3   8  -7  146.99   13.30
   3   8  -7  160.28   13.90
  -3  -8   7  183.48   14.30
  -3  -8   7  168.08   15.60
  -3  -8   7  174.78   15.60
   2   8  -7  387.76   26.40
   2   8  -7  394.16   26.90
   2   8  -7  417.26   28.00
  -2  -8   7  428.96   27.50
  -2  -8   7  416.06   28.20
  -2  -8   7  383.26   27.70
   1   8  -7  323.07   23.50
   1   8  -7  316.17   23.00
   1   8  -7  303.57   22.30
  -1  -8   7  350.16   24.00
  -1  -8   7  360.26   23.80
  -1  -8   7  371.06   23.90
   0   8  -7  226.98   16.00
   0   8  -7  217.88   15.80
   0   8  -7  207.48   14.90
   0  -8   7  180.38   15.90
   0  -8   7  186.78   16.00
   0  -8   7  182.98   15.40
  -1   8  -7  145.59   11.90
  -1   8  -7  143.39   12.70
   1  -8   7  134.09   12.60
   1  -8   7  139.19   13.60
  -2   8  -7  246.68   17.80
  -2   8  -7  252.37   18.90
   2  -8   7  241.98   19.60
   2  -8   7  260.67   18.10
   2  -8   7  236.48   18.20
  -3   8  -7   43.90    7.80
  -3   8  -7   49.40    6.90
   3  -8   7   34.10    7.90
   3  -8   7   37.90    7.00
  -4   8  -7   11.30    4.90
  -4   8  -7   16.30    6.40
   4  -8   7   14.70    6.20
   4  -8   7   12.00    6.90
  -5   8  -7   63.49   10.30
  -5   8  -7   56.89    8.50
   5  -8   7   72.49   10.50
   5  -8   7   68.39   10.50
   7   7  -7   36.70    7.90
   7   7  -7   28.70    7.20
  -7  -7   7   23.40    8.30
  -7  -7   7   27.80    7.10
  -7  -7   7   35.40    9.90
   6   7  -7  115.79   12.70
   6   7  -7  123.19   13.20
  -6  -7   7  161.18   15.60
  -6  -7   7  151.78   16.10
   5   7  -7   15.80    5.40
   5   7  -7   15.40    5.30
  -5  -7   7   12.90    6.70
  -5  -7   7   12.30    6.70
   4   7  -7   50.09    7.30
   4   7  -7   54.59    8.30
  -4  -7   7   65.89    9.80
  -4  -7   7   77.49   10.30
   3   7  -7  113.09   10.50
   3   7  -7  118.59   10.30
  -3  -7   7   91.89   11.60
  -3  -7   7  107.29   10.60
  -3  -7   7  105.89   11.70
   2   7  -7   88.09    9.80
   2   7  -7   77.49    8.50
   2   7  -7   74.89    8.60
  -2  -7   7   83.79   10.30
  -2  -7   7   86.79    9.30
  -2  -7   7   74.79    9.40
   1   7  -7   50.69    7.20
   1   7  -7   44.80    6.00
   1   7  -7   47.00    7.30
  -1  -7   7   37.60    6.80
  -1  -7   7   41.10    6.60
  -1  -7   7   33.00    6.40
   0   7  -7  452.05   27.80
   0   7  -7  452.35   28.20
   0   7  -7  471.75   28.30
   0  -7   7  415.36   28.00
   0  -7   7  399.56   28.40
   0  -7   7  405.36   28.70
  -1   7  -7   36.10    5.60
  -1   7  -7   42.40    7.30
  -1   7  -7   39.00    6.20
   1  -7   7   31.60    6.00
   1  -7   7   33.10    6.70
   1  -7   7   27.80    5.30
  -2   7  -7  951.90   56.99
  -2   7  -7  911.21   56.09
   2  -7   7  917.01   56.19
   2  -7   7  935.71   56.39
   2  -7   7  913.61   57.39
  -3   7  -7  112.29   10.50
  -3   7  -7  113.69   11.50
   3  -7   7  104.49   10.90
   3  -7   7  100.99   12.20
  -4   7  -7  543.75   34.50
  -4   7  -7  546.95   35.60
   4  -7   7  530.75   35.20
   4  -7   7  518.15   35.70
  -5   7  -7   50.49    8.00
  -5   7  -7   48.00    8.90
   5  -7   7   56.79    9.30
   5  -7   7   69.09   10.20
  -6   7  -7  179.88   15.70
  -6   7  -7  180.88   17.40
   6  -7   7  194.98   18.00
   6  -7   7  183.48   18.00
   8   6  -7   32.10    7.80
   8   6  -7   29.80    7.40
   8   6  -7   31.40    8.20
  -8  -6   7   33.40    9.10
  -8  -6   7   39.20    8.10
  -8  -6   7   23.30    9.20
   7   6  -7  481.15   32.50
   7   6  -7  523.65   33.40
   7   6  -7  509.65   32.90
  -7  -6   7  485.95   34.60
  -7  -6   7  467.05   35.60
  -7  -6   7  483.65   33.00
   6   6  -7  313.67   22.50
   6   6  -7  306.77   21.80
   6   6  -7  330.67   22.70
  -6  -6   7  294.67   24.80
  -6  -6   7  327.97   24.40
  -6  -6   7  321.47   22.50
   5   6  -7  589.74   39.30
   5   6  -7  652.23   40.40
   5   6  -7  659.53   40.20
  -5  -6   7  694.33   42.20
  -5  -6   7  599.44   42.00
   4   6  -7  290.97   20.10
   4   6  -7  300.77   20.30
   4   6  -7  287.47   19.50
  -4  -6   7  302.47   20.70
  -4  -6   7  272.47   21.80
  -4  -6   7  305.07   22.10
   3   6  -7  938.01   56.19
   3   6  -7  916.31   55.39
   3   6  -7  907.71   55.99
  -3  -6   7  983.20   56.69
  -3  -6   7  899.41   57.19
  -3  -6   7  930.31   57.49
   2   6  -7  345.07   21.30
   2   6  -7  334.37   22.20
   2   6  -7  348.87   22.30
  -2  -6   7  313.67   23.20
  -2  -6   7  334.37   22.80
  -2  -6   7  348.57   23.30
   1   6  -7  558.54   34.50
   1   6  -7  598.24   35.10
   1   6  -7  599.84   34.90
   1   6  -7  595.24   33.70
  -1  -6   7  508.85   34.70
  -1  -6   7  499.95   35.20
  -1  -6   7  520.75   35.20
   0   6  -7  197.08   13.80
   0   6  -7  208.08   13.90
   0   6  -7  216.98   14.00
   0   6  -7  215.08   13.10
   0  -6   7  163.18   14.50
   0  -6   7  164.48   13.40
   0  -6   7  165.38   13.00
   0  -6   7  163.28   14.30
   1  -6   7  149.99   11.60
   1  -6   7  136.59   11.20
   1  -6   7  138.19   11.90
   1  -6   7  153.28   13.00
  -2   6  -7   70.59    7.60
  -2   6  -7   74.99    8.20
   2  -6   7   57.69    9.10
   2  -6   7   58.09    8.00
   2  -6   7   54.29    7.60
  -3   6  -7   66.49    9.10
  -3   6  -7   69.59    8.40
   3  -6   7   86.79   10.40
   3  -6   7   98.99    9.80
  -4   6  -7  161.88   14.10
  -4   6  -7  146.69   13.10
   4  -6   7  155.88   14.30
   4  -6   7  161.98   14.80
  -5   6  -7   32.40    6.60
  -5   6  -7   31.50    7.40
   5  -6   7   54.79    8.90
  -6   6  -7   95.29   11.20
  -6   6  -7   98.99   12.80
   6  -6   7  123.69   13.70
   6  -6   7  113.09   14.00
   8   5  -7   12.60    6.40
   8   5  -7   12.30    6.60
   8   5  -7   16.10    6.50
  -8  -5   7   15.90    6.10
  -8  -5   7    7.00    7.60
  -8  -5   7   11.00    7.40
   7   5  -7   10.60    5.50
   7   5  -7   21.60    6.40
   7   5  -7   14.30    5.50
  -7  -5   7   10.90    7.30
  -7  -5   7   17.60    7.10
  -7  -5   7   18.80    5.90
   6   5  -7   59.19    8.70
   6   5  -7   54.99    7.50
   6   5  -7   53.59    7.80
  -6  -5   7   42.50    6.90
  -6  -5   7   41.60    8.40
  -6  -5   7   34.80    8.50
   5   5  -7   71.59    8.10
   5   5  -7   77.19    8.90
   5   5  -7   75.89    8.60
  -5  -5   7   70.59   10.40
  -5  -5   7   70.39   10.50
   4   5  -7  163.48   12.10
   4   5  -7  165.38   12.20
   4   5  -7  156.58   11.70
  -4  -5   7  133.89   11.90
  -4  -5   7  131.79   13.30
  -4  -5   7  142.19   13.60
   3   5  -7  260.47   17.40
   3   5  -7  279.07   17.40
   3   5  -7  255.67   16.80
  -3  -5   7  242.88   17.70
  -3  -5   7  226.38   18.50
  -3  -5   7  245.28   18.40
   2   5  -7  363.06   24.90
   2   5  -7  368.56   25.10
   2   5  -7  380.16   24.60
  -2  -5   7  426.76   26.10
  -2  -5   7  437.66   26.20
  -2  -5   7  401.86   26.40
   1   5  -7  208.18   14.40
   1   5  -7  206.78   13.40
   1   5  -7  191.68   13.90
   1   5  -7  204.68   14.10
  -1  -5   7  187.28   14.90
  -1  -5   7  188.78   14.20
  -1  -5   7  209.68   13.20
  -1  -5   7  193.08   14.90
   0   5  -7  484.15   30.40
   0   5  -7  468.05   30.50
   0   5  -7  491.55   30.60
   0   5  -7  493.65   30.00
   0  -5   7  484.95   31.10
   0  -5   7  499.25   31.60
   0  -5   7  497.65   30.30
   0  -5   7  510.95   30.50
  -1   5  -7  300.17   18.20
  -1   5  -7  300.87   18.10
  -1   5  -7  296.57   19.00
  -1   5  -7  286.97   18.70
   1  -5   7  269.07   18.00
   1  -5   7  256.57   18.80
   1  -5   7  266.17   18.70
   1  -5   7  256.07   19.60
  -2   5  -7 1021.20   58.09
  -2   5  -7  981.90   58.39
  -2   5  -7 1064.59   58.89
   2  -5   7  883.21   58.99
   2  -5   7  937.71   57.99
   2  -5   7  930.81   58.59
  -3   5  -7   40.90    5.80
  -3   5  -7   39.40    6.10
  -3   5  -7   40.30    6.40
   3  -5   7   46.30    7.10
   3  -5   7   39.90    7.00
   3  -5   7   49.70    6.50
  -4   5  -7  470.45   31.80
  -4   5  -7  452.35   31.20
  -4   5  -7  483.35   30.90
   4  -5   7  474.75   32.20
   4  -5   7  514.95   31.30
   4  -5   7  499.75   32.20
  -5   5  -7   81.79   10.50
  -5   5  -7   88.79    9.30
  -5   5  -7   79.09    9.60
   5  -5   7   88.09   10.40
   5  -5   7   77.19   11.40
   5  -5   7   72.59   11.00
  -6   5  -7  311.87   22.30
  -6   5  -7  302.47   23.40
  -6   5  -7  307.77   22.50
   6  -5   7  299.17   24.10
   6  -5   7  335.57   23.00
   6  -5   7  311.67   24.00
  -7   5  -7    2.10    5.10
  -7   5  -7    8.00    6.50
   7  -5   7    8.10    7.20
   7  -5   7    1.20    7.20
   8   4  -7    2.70    5.50
   8   4  -7    9.80    5.90
   8   4  -7    5.40    5.60
  -8  -4   7   12.10    7.20
  -8  -4   7    3.40    7.10
  -8  -4   7    5.10    5.30
   7   4  -7  461.05   29.70
   7   4  -7  517.05   30.30
   7   4  -7  454.45   29.30
  -7  -4   7  382.26   31.60
  -7  -4   7  404.46   29.30
  -7  -4   7  423.56   31.40
   6   4  -7  148.69   12.70
   6   4  -7  158.18   12.70
   6   4  -7  163.08   13.00
  -6  -4   7  140.99   12.30
  -6  -4   7  120.99   14.40
  -6  -4   7  140.29   14.30
   5   4  -7  517.85   33.10
   5   4  -7  545.95   33.20
   5   4  -7  505.15   33.10
  -5  -4   7  501.85   34.90
  -5  -4   7  556.24   35.00
   4   4  -7  138.39   11.20
   4   4  -7  138.09   10.90
   4   4  -7  133.39   10.90
  -4  -4   7  152.28   13.00
  -4  -4   7  138.99   12.80
  -4  -4   7  149.69   11.50
   3   4  -7  385.56   24.40
   3   4  -7  394.56   24.40
   3   4  -7  420.96   24.80
  -3  -4   7  349.87   25.10
  -3  -4   7  393.76   26.00
  -3  -4   7  376.96   25.60
   2   4  -7  614.64   38.10
   2   4  -7  630.04   39.50
   2   4  -7  620.64   39.10
   2   4  -7  586.44   39.00
  -2  -4   7  656.63   40.40
  -2  -4   7  710.73   38.30
  -2  -4   7  689.63   40.50
  -2  -4   7  684.23   40.20
   1   4  -7  663.83   38.90
   1   4  -7  637.04   39.20
   1   4  -7  647.64   39.00
  -1  -4   7  661.83   38.50
  -1  -4   7  658.83   39.30
  -1  -4   7  631.84   40.00
  -1  -4   7  614.34   39.90
   0   4  -7 1276.77   78.49
   0   4  -7 1235.78   78.59
   0   4  -7 1388.16   78.39
   0   4  -7 1319.37   78.29
   0  -4   7 1360.56   78.29
   0  -4   7 1366.06   78.59
   0  -4   7 1350.86   79.69
   0  -4   7 1374.36   79.19
  -1   4  -7 1557.64   96.49
  -1   4  -7 1538.55   96.59
  -1   4  -7 1609.64   96.39
  -1   4  -7 1635.34   95.69
   1  -4   7 1690.53   96.89
   1  -4   7 1696.83   95.69
   1  -4   7 1702.53   97.69
   1  -4   7 1723.63   96.79
  -2   4  -7  479.05   31.80
  -2   4  -7  473.55   32.00
  -2   4  -7  492.55   32.00
   2  -4   7  557.94   32.70
   2  -4   7  553.14   31.80
   2  -4   7  524.05   33.00
  -3   4  -7  769.92   48.30
  -3   4  -7  767.62   48.60
  -3   4  -7  715.73   48.30
   3  -4   7  792.12   49.30
   3  -4   7  865.01   48.70
   3  -4   7  856.01   49.20
  -4   4  -7  134.99   12.30
  -4   4  -7  154.48   12.10
  -4   4  -7  138.59   12.30
   4  -4   7  136.99   13.30
   4  -4   7  141.69   13.30
   4  -4   7  148.79   12.60
  -5   4  -7  193.18   15.80
  -5   4  -7  182.18   15.80
  -5   4  -7  195.78   16.60
   5  -4   7  215.28   17.70
   5  -4   7  228.78   17.80
   5  -4   7  237.78   16.70
  -6   4  -7  113.39   11.70
  -6   4  -7  127.99   12.20
  -6   4  -7  125.19   12.60
   6  -4   7  109.99   12.80
   6  -4   7  115.79   14.10
   6  -4   7  111.39   12.90
  -7   4  -7   18.00    6.10
  -7   4  -7   18.70    6.90
  -7   4  -7   26.80    6.70
   7  -4   7   39.80    8.20
   7  -4   7   36.10    9.10
   9   3  -7   11.10    6.30
   9   3  -7   15.60    7.00
  -9  -3   7   16.20    6.90
  -9  -3   7    5.60    7.80
   8   3  -7   42.90    8.20
   8   3  -7   45.00    7.70
  -8  -3   7   58.59    8.70
  -8  -3   7   58.79   10.90
  -8  -3   7   58.99   10.00
   7   3  -7   30.60    6.60
   7   3  -7   39.10    7.10
   7   3  -7   26.90    5.90
  -7  -3   7   22.80    7.70
  -7  -3   7   32.60    6.30
  -7  -3   7   26.00    7.60
   6   3  -7   80.89    9.30
   6   3  -7   81.09    9.20
   6   3  -7   75.29    9.60
  -6  -3   7  103.09    9.50
  -6  -3   7  106.49   11.90
  -6  -3   7  108.19   12.10
   5   3  -7   25.50    4.80
   5   3  -7   25.50    5.00
   5   3  -7   27.70    4.80
  -5  -3   7   18.30    5.80
  -5  -3   7   23.00    4.50
  -5  -3   7   20.90    6.00
   4   3  -7  165.88   13.00
   4   3  -7  169.08   12.70
   4   3  -7  168.48   12.90
  -4  -3   7  198.18   13.10
  -4  -3   7  193.48   14.80
  -4  -3   7  188.98   14.80
   3   3  -7  136.19    8.90
   3   3  -7  132.39   10.20
   3   3  -7  134.29   10.30
   3   3  -7  132.89    9.80
  -3  -3   7  143.69   11.40
  -3  -3   7  128.49   10.90
  -3  -3   7  137.79   11.70
   2   3  -7 1150.78   64.79
   2   3  -7 1149.29   65.69
   2   3  -7 1121.49   65.29
   2   3  -7 1138.19   65.59
  -2  -3   7 1124.29   66.09
  -2  -3   7 1014.40   66.39
  -2  -3   7 1041.50   66.49
  -2  -3   7 1124.69   64.69
   1   3  -7  470.75   29.60
   1   3  -7  460.55   30.00
   1   3  -7  476.55   29.90
  -1  -3   7  479.85   31.20
  -1  -3   7  507.15   31.00
  -1  -3   7  514.05   30.10
  -1  -3   7  519.75   29.70
   0   3  -7 1240.38   66.59
   0   3  -7 1235.58   66.49
   0   3  -7 1169.38   66.09
   0  -3   7 1025.10   66.19
   0  -3   7 1088.49   65.69
   0  -3   7 1071.09   67.49
   0  -3   7 1028.90   66.69
  -1   3  -7  225.08   15.90
  -1   3  -7  238.28   16.30
   1  -3   7  259.47   15.00
   1  -3   7  251.57   16.50
   1  -3   7  229.98   17.50
   1  -3   7  253.77   16.70
  -2   3  -7  654.43   37.60
  -2   3  -7  682.63   37.50
  -2   3  -7  642.24   37.60
   2  -3   7  558.84   38.30
   2  -3   7  594.54   37.00
   2  -3   7  582.64   37.80
   2  -3   7  545.65   37.30
  -3   3  -7  245.48   18.00
  -3   3  -7  258.67   17.90
  -3   3  -7  251.57   18.00
   3  -3   7  261.67   18.10
   3  -3   7  253.27   19.00
   3  -3   7  281.57   18.80
  -4   3  -7  706.33   40.70
  -4   3  -7  674.63   40.70
  -4   3  -7  679.13   40.80
   4  -3   7  590.84   41.20
   4  -3   7  637.94   41.30
   4  -3   7  611.84   40.60
  -5   3  -7   16.20    4.80
  -5   3  -7   14.90    5.20
  -5   3  -7   17.10    5.10
   5  -3   7   17.30    6.30
   5  -3   7   15.30    5.60
   5  -3   7   15.20    5.90
  -6   3  -7  698.33   43.90
  -6   3  -7  679.23   43.50
  -6   3  -7  676.43   43.30
   6  -3   7  704.43   44.00
   6  -3   7  666.23   43.80
   6  -3   7  686.33   44.70
  -7   3  -7    6.60    6.00
  -7   3  -7    4.80    4.90
   7  -3   7   12.40    7.40
   7  -3   7    5.40    6.40
   9   2  -7  312.87   21.60
   9   2  -7  308.07   22.80
  -9  -2   7  266.57   23.50
  -9  -2   7  230.98   23.60
   8   2  -7   11.00    5.30
   8   2  -7    8.80    5.90
  -8  -2   7    9.00    5.50
  -8  -2   7   10.30    6.80
  -8  -2   7    8.20    6.80
   7   2  -7  930.01   53.59
   7   2  -7  886.21   54.19
  -7  -2   7  850.41   53.99
  -7  -2   7  869.71   55.79
  -7  -2   7  833.32   55.79
   6   2  -7   44.60    6.20
   6   2  -7   50.89    6.90
   6   2  -7   39.60    6.70
  -6  -2   7   47.30    7.00
  -6  -2   7   57.49    8.80
  -6  -2   7   48.10    8.30
   5   2  -7 1141.89   71.99
   5   2  -7 1276.67   71.79
   5   2  -7 1234.58   71.69
  -5  -2   7 1187.08   73.39
  -5  -2   7 1180.48   71.69
  -5  -2   7 1221.68   73.69
   4   2  -7   61.99    5.40
   4   2  -7   62.29    6.10
   4   2  -7   57.49    6.70
   4   2  -7   58.49    6.40
  -4  -2   7   60.19    8.80
  -4  -2   7   64.19    8.00
  -4  -2   7   62.59    6.10
  -4  -2   7   61.99    6.20
   3   2  -7  938.91   55.29
   3   2  -7  953.60   54.99
   3   2  -7  914.41   55.99
   3   2  -7  941.81   55.69
  -3  -2   7  970.60   57.39
  -3  -2   7  870.81   55.99
  -3  -2   7  973.10   56.69
   2   2  -7  577.54   33.80
   2   2  -7  570.64   33.80
   2   2  -7  572.84   34.40
   2   2  -7  569.84   34.50
  -2  -2   7  585.94   34.80
  -2  -2   7  551.44   33.80
  -2  -2   7  563.94   35.60
  -2  -2   7  543.55   35.30
   1   2  -7 1051.49   65.19
   1   2  -7 1036.40   65.69
   1   2  -7 1026.20   65.79
  -1  -2   7 1204.98   65.69
  -1  -2   7 1140.29   67.09
  -1  -2   7 1162.88   65.59
  -1  -2   7 1197.48   66.99
   0   2  -7  821.52   50.29
   0   2  -7  866.91   49.80
   0   2  -7  895.01   50.49
   0  -2   7  859.01   49.40
   0  -2   7  800.62   50.29
   0  -2   7  816.42   51.49
   0  -2   7  847.92   50.99
  -1   2  -7  479.55   27.10
  -1   2  -7  472.75   26.50
  -1   2  -7  502.95   27.20
   1  -2   7  359.56   27.70
   1  -2   7  367.96   26.90
   1  -2   7  400.26   26.80
  -2   2  -7  312.87   20.30
  -2   2  -7  304.07   20.20
  -2   2  -7  313.47   19.80
   2  -2   7  307.57   19.70
   2  -2   7  312.87   20.60
   2  -2   7  288.47   21.10
   2  -2   7  301.37   20.50
  -3   2  -7  263.87   17.00
  -3   2  -7  264.77   17.20
  -3   2  -7  254.87   17.00
   3  -2   7  223.78   17.10
   3  -2   7  212.98   17.60
   3  -2   7  231.88   17.60
  -4   2  -7  325.17   22.60
  -4   2  -7  332.97   22.80
  -4   2  -7  329.17   22.70
   4  -2   7  329.67   23.40
   4  -2   7  367.26   23.90
   4  -2   7  354.86   23.30
  -5   2  -7   13.30    4.70
  -5   2  -7   10.90    4.70
  -5   2  -7   12.00    4.70
   5  -2   7   13.80    5.50
   5  -2   7   14.60    6.10
   5  -2   7   20.90    5.90
  -6   2  -7  106.49   11.80
  -6   2  -7  104.59   11.40
   6  -2   7  110.79   13.20
   6  -2   7  128.29   12.30
   6  -2   7  118.19   12.80
  -7   2  -7   43.70    7.70
  -7   2  -7   48.90    8.60
   7  -2   7   65.49    9.80
   7  -2   7   62.89   10.30
  -8   2  -7   45.80    8.90
  -8   2  -7   40.70    7.90
   8  -2   7   44.90   10.10
   8  -2   7   43.50    9.70
   9   1  -7   26.50    7.70
   9   1  -7   25.10    6.70
  -9  -1   7   23.70    9.10
   8   1  -7    4.70    4.90
   8   1  -7    6.80    5.70
  -8  -1   7    9.30    6.30
  -8  -1   7    3.70    5.50
  -8  -1   7    6.60    6.70
   7   1  -7   11.90    4.40
   7   1  -7    8.70    5.00
  -7  -1   7    7.00    5.80
  -7  -1   7    3.10    5.70
  -7  -1   7    8.10    4.80
   6   1  -7   44.70    6.90
   6   1  -7   49.99    6.50
  -6  -1   7   39.80    6.10
  -6  -1   7   44.30    7.80
  -6  -1   7   34.00    7.70
   5   1  -7   97.39    8.20
   5   1  -7   85.19    7.40
   5   1  -7   86.79    8.90
   5   1  -7   89.59    8.10
  -5  -1   7   74.69    7.80
  -5  -1   7   87.29    9.60
  -5  -1   7   86.39   10.50
   4   1  -7  185.88   12.10
   4   1  -7  177.68   12.20
   4   1  -7  166.28   12.80
   4   1  -7  186.28   11.90
  -4  -1   7  167.88   13.50
  -4  -1   7  168.18   12.00
  -4  -1   7  174.38   14.50
  -4  -1   7  161.78   11.90
   3   1  -7  408.56   26.70
   3   1  -7  416.76   26.30
   3   1  -7  449.86   25.90
   3   1  -7  449.66   26.00
  -3  -1   7  401.86   26.70
  -3  -1   7  428.66   27.20
  -3  -1   7  433.36   28.30
  -3  -1   7  430.66   25.90
   2   1  -7  337.27   21.50
   2   1  -7  356.86   21.20
   2   1  -7  350.36   20.90
   2   1  -7  352.56   20.40
  -2  -1   7  344.07   22.70
  -2  -1   7  332.27   20.90
  -2  -1   7  334.37   21.40
  -2  -1   7  299.27   21.80
   1   1  -7 1332.97   75.09
   1   1  -7 1297.97   74.29
   1   1  -7 1304.07   75.09
   1   1  -7 1296.07   75.39
  -1  -1   7 1272.67   74.69
  -1  -1   7 1229.88   74.89
  -1  -1   7 1211.68   76.09
  -1  -1   7 1291.07   76.29
   0   1  -7  585.04   33.70
   0   1  -7  579.84   33.90
   0   1  -7  587.14   32.90
   0  -1   7  543.65   32.40
   0  -1   7  528.55   34.80
   0  -1   7  515.85   33.70
   0  -1   7  543.75   34.40
  -1   1  -7  440.66   26.00
  -1   1  -7  438.56   26.70
  -1   1  -7  430.96   26.90
   1  -1   7  426.46   27.80
   1  -1   7  399.36   26.90
   1  -1   7  428.26   26.90
  -2   1  -7 2182.98  137.89
  -2   1  -7 2266.17  137.29
  -2   1  -7 2245.98  137.79
   2  -1   7 2476.15  138.19
   2  -1   7 2399.56  138.69
   2  -1   7 2490.95  138.29
   2  -1   7 2457.15  137.39
  -3   1  -7  413.86   26.10
  -3   1  -7  382.26   26.10
  -3   1  -7  388.06   25.60
   3  -1   7  410.96   25.20
   3  -1   7  388.76   26.70
   3  -1   7  424.06   26.70
   3  -1   7  423.06   26.50
  -4   1  -7  694.53   45.00
  -4   1  -7  745.23   45.00
  -4   1  -7  722.93   45.30
   4  -1   7  739.53   45.50
   4  -1   7  744.33   45.80
   4  -1   7  750.02   45.80
  -5   1  -7  246.88   18.20
  -5   1  -7  231.98   18.40
  -5   1  -7  234.28   18.20
   5  -1   7  273.97   19.40
   5  -1   7  259.07   18.80
   5  -1   7  277.87   19.70
  -6   1  -7  560.44   37.00
  -6   1  -7  585.34   37.30
   6  -1   7  565.24   37.90
   6  -1   7  601.24   40.10
   6  -1   7  572.14   38.10
  -7   1  -7   97.19   11.70
  -7   1  -7  100.09   11.40
   7  -1   7   92.69   13.30
   7  -1   7   97.79   13.30
  -8   1  -7  261.37   20.10
  -8   1  -7  220.88   19.00
   8  -1   7  216.28   20.50
   8  -1   7  238.68   21.00
   9   0  -7   40.00    8.70
  -9   0   7   30.60    9.60
   8   0  -7   37.40    6.30
   8   0  -7   20.90    6.60
  -8   0   7   39.20    8.40
  -8   0   7   27.10    8.50
   7   0  -7  425.96   29.10
   7   0  -7  440.76   27.70
  -7   0   7  444.16   30.90
  -7   0   7  402.76   28.90
  -7   0   7  450.05   30.60
   6   0  -7  326.67   22.60
   6   0  -7  337.77   21.40
   6   0  -7  331.97   21.50
  -6   0   7  330.77   24.00
  -6   0   7  335.77   24.40
  -6   0   7  314.47   22.30
   5   0  -7  316.87   22.30
   5   0  -7  344.87   21.40
   5   0  -7  342.17   21.40
  -5   0   7  331.77   23.30
  -5   0   7  330.27   21.80
  -5   0   7  341.07   21.60
  -5   0   7  342.57   24.20
   4   0  -7  236.38   15.10
   4   0  -7  224.68   14.90
   4   0  -7  218.88   15.90
  -4   0   7  217.48   17.50
  -4   0   7  235.88   16.50
  -4   0   7  219.78   15.00
  -4   0   7  244.98   15.30
   3   0  -7 1272.47   76.89
   3   0  -7 1249.77   77.59
   3   0  -7 1330.77   76.59
   3   0  -7 1322.37   77.09
  -3   0   7 1359.36   77.59
  -3   0   7 1298.27   76.59
  -3   0   7 1323.67   79.09
  -3   0   7 1361.76   77.99
   2   0  -7 1077.99   61.89
   2   0  -7 1057.39   62.79
   2   0  -7 1020.50   62.59
   2   0  -7 1052.39   63.19
  -2   0   7 1071.09   63.59
  -2   0   7 1076.79   64.49
  -2   0   7 1095.59   61.99
  -2   0   7 1053.09   62.79
  -2   0   7 1099.89   63.09
   1   0  -7 2472.15  146.29
   1   0  -7 2486.95  146.49
   1   0  -7 2511.75  146.79
   1   0  -7 2547.25  145.29
  -1   0   7 2597.24  147.79
  -1   0   7 2511.05  145.99
  -1   0   7 2511.25  147.49
  -1   0   7 2550.54  146.49
   0   0  -7  668.03   38.50
   0   0  -7  672.83   40.00
   0   0  -7  665.73   39.50
   0   0   7  645.54   38.40
   0   0   7  632.44   40.60
   0   0   7  657.43   39.80
   0   0   7  669.63   40.50
  -1   0  -7   40.30    5.30
  -1   0  -7   42.80    4.10
  -1   0  -7   42.50    5.20
   1   0   7   42.30    5.80
   1   0   7   38.50    5.60
   1   0   7   34.10    5.50
  -2   0  -7  200.68   14.80
  -2   0  -7  196.68   13.70
  -2   0  -7  207.68   14.50
   2   0   7  203.48   15.00
   2   0   7  209.48   15.20
   2   0   7  216.38   15.30
   2   0   7  214.58   14.20
  -3   0  -7   61.39    6.50
  -3   0  -7   64.59    7.10
  -3   0  -7   65.09    7.40
   3   0   7   59.59    5.80
   3   0   7   58.39    7.90
   3   0   7   65.59    7.90
   3   0   7   65.19    8.10
  -4   0  -7  323.87   23.20
  -4   0  -7  350.76   22.80
  -4   0  -7  358.16   23.10
   4   0   7  349.47   23.50
   4   0   7  340.17   23.40
   4   0   7  342.57   23.70
  -5   0  -7   44.20    6.50
  -5   0  -7   34.30    6.50
  -5   0  -7   41.70    6.40
   5   0   7   39.00    7.20
   5   0   7   41.10    7.40
   5   0   7   42.10    6.90
  -6   0  -7   16.50    5.20
  -6   0  -7   15.00    5.40
   6   0   7   19.10    6.70
   6   0   7   20.90    6.70
  -7   0  -7   15.40    5.60
  -7   0  -7   18.90    6.40
   7   0   7   17.00    7.40
   7   0   7   16.70    7.10
  -8   0  -7    3.00    5.10
  -8   0  -7    7.50    6.40
   8   0   7   10.10    7.50
   8   0   7    9.50    7.70
   9  -1  -7   31.50    8.20
  -9   1   7   24.30    8.90
   8  -1  -7    7.10    6.00
  -8   1   7    3.00    6.50
   7  -1  -7    9.90    4.50
   7  -1  -7    9.30    3.90
   7  -1  -7    9.50    5.30
  -7   1   7   12.70    5.80
  -7   1   7    8.80    6.20
   6  -1  -7   46.60    7.10
   6  -1  -7   49.50    7.00
   6  -1  -7   40.60    5.90
  -6   1   7   58.89    8.80
  -6   1   7   45.70    6.60
  -6   1   7   56.09    8.70
   5  -1  -7   79.09    7.80
   5  -1  -7   71.99    8.30
   5  -1  -7   83.39    7.10
  -5   1   7   87.79   10.30
  -5   1   7   80.39    7.00
  -5   1   7   88.69    9.80
  -5   1   7   84.39    7.80
   4  -1  -7  155.88   12.30
   4  -1  -7  153.38   11.20
   4  -1  -7  164.68   12.00
  -4   1   7  173.38   14.30
  -4   1   7  178.78   11.90
  -4   1   7  168.28   11.50
  -4   1   7  177.78   13.20
   3  -1  -7  407.76   26.50
   3  -1  -7  402.06   25.90
   3  -1  -7  429.26   27.00
  -3   1   7  453.05   27.30
  -3   1   7  425.66   26.80
  -3   1   7  450.65   25.70
  -3   1   7  440.06   28.70
   2  -1  -7  321.97   20.70
   2  -1  -7  321.37   21.20
   2  -1  -7  319.67   21.50
  -2   1   7  368.46   22.00
  -2   1   7  350.26   23.10
  -2   1   7  357.36   21.50
   1  -1  -7 1276.37   76.19
   1  -1  -7 1262.57   75.69
   1  -1  -7 1266.07   76.29
  -1   1   7 1313.47   77.39
  -1   1   7 1315.97   76.19
  -1   1   7 1320.07   75.69
  -1   1   7 1318.57   76.89
   0  -1  -7  540.95   33.50
   0  -1  -7  539.45   34.10
   0  -1  -7  523.45   33.90
   0   1   7  583.64   34.80
   0   1   7  589.14   34.20
   0   1   7  571.44   32.90
   0   1   7  553.84   34.70
  -1  -1  -7  405.56   26.20
  -1  -1  -7  434.26   25.50
  -1  -1  -7  410.56   26.70
   1   1   7  432.96   26.80
   1   1   7  453.85   26.90
   1   1   7  403.96   27.30
  -2  -1  -7 2229.58  135.19
  -2  -1  -7 2469.25  134.99
  -2  -1  -7 2481.65  134.29
   2   1   7 2354.46  134.59
   2   1   7 2278.97  135.29
   2   1   7 2189.58  135.49
   2   1   7 2161.98  135.19
  -3  -1  -7  373.26   25.90
  -3  -1  -7  396.26   25.60
  -3  -1  -7  409.26   25.20
   3   1   7  407.16   24.80
   3   1   7  405.06   26.40
   3   1   7  410.96   26.40
   3   1   7  393.16   26.30
  -4  -1  -7  746.63   44.20
  -4  -1  -7  710.73   44.30
  -4  -1  -7  672.93   44.60
   4   1   7  742.23   45.00
   4   1   7  714.53   44.90
   4   1   7  733.53   44.80
  -5  -1  -7  241.78   18.90
  -5  -1  -7  282.47   18.80
  -5  -1  -7  277.87   18.70
   5   1   7  245.78   18.70
   5   1   7  256.07   19.60
   5   1   7  243.58   19.40
  -6  -1  -7  596.54   37.80
  -6  -1  -7  606.14   37.90
   6   1   7  560.24   38.40
   6   1   7  584.54   38.60
  -7  -1  -7   98.49   11.70
  -7  -1  -7   94.49   11.40
   7   1   7   88.69   12.60
   7   1   7   94.49   13.40
  -8  -1  -7  213.68   18.80
  -8  -1  -7  222.38   19.40
   8   1   7  255.67   21.20
   8   1   7  249.97   21.00
   9  -2  -7  265.57   21.40
  -9   2   7  255.07   23.00
   8  -2  -7    6.30    6.00
   8  -2  -7    6.10    5.10
  -8   2   7    1.40    6.30
   7  -2  -7  863.41   54.79
   7  -2  -7  816.02   53.79
  -7   2   7  873.11   56.19
  -7   2   7  999.10   56.19
   6  -2  -7   55.39    8.30
   6  -2  -7   49.20    6.70
  -6   2   7   48.40    8.10
  -6   2   7   45.40    8.20
   5  -2  -7 1137.79   69.39
   5  -2  -7 1198.28   70.89
   5  -2  -7 1181.98   70.49
   5  -2  -7 1180.08   69.89
  -5   2   7 1182.58   71.69
  -5   2   7 1190.78   72.39
  -5   2   7 1217.28   69.99
   4  -2  -7   58.39    6.80
   4  -2  -7   59.89    7.10
   4  -2  -7   58.79    5.40
  -4   2   7   71.49    7.80
  -4   2   7   60.29    8.90
  -4   2   7   62.49    7.70
  -4   2   7   59.79    6.10
   3  -2  -7  904.81   54.59
   3  -2  -7  930.91   55.59
   3  -2  -7  945.51   55.89
  -3   2   7  940.71   55.79
  -3   2   7  890.01   57.19
  -3   2   7  961.70   56.09
  -3   2   7  956.20   54.99
   2  -2  -7  552.44   33.50
   2  -2  -7  548.75   34.40
   2  -2  -7  546.35   34.60
  -2   2   7  585.74   34.90
  -2   2   7  595.34   34.50
   1  -2  -7 1143.59   63.89
   1  -2  -7 1088.19   63.59
   1  -2  -7 1146.39   62.99
  -1   2   7 1030.90   63.19
  -1   2   7 1031.40   64.09
  -1   2   7 1045.70   63.69
  -1   2   7 1042.70   64.89
   0  -2  -7  814.92   49.80
   0  -2  -7  803.62   50.39
   0  -2  -7  823.82   50.59
   0   2   7  869.61   50.59
   0   2   7  898.71   51.39
   0   2   7  846.32   49.60
   0   2   7  848.32   51.09
  -1  -2  -7  389.46   26.30
  -1  -2  -7  390.76   27.60
  -1  -2  -7  368.46   27.00
   1   2   7  491.15   26.40
   1   2   7  486.15   28.00
   1   2   7  460.65   28.50
   1   2   7  509.35   28.20
  -2  -2  -7  316.67   19.80
  -2  -2  -7  284.57   20.20
  -2  -2  -7  318.47   19.10
  -2  -2  -7  293.17   18.30
   2   2   7  293.67   20.40
   2   2   7  314.97   19.90
   2   2   7  306.67   18.50
   2   2   7  290.47   20.70
   2   2   7  296.47   20.40
  -3  -2  -7  223.18   16.70
  -3  -2  -7  217.68   16.20
  -3  -2  -7  221.68   17.20
   3   2   7  262.97   18.00
   3   2   7  260.47   17.90
   3   2   7  256.37   17.90
   3   2   7  276.87   16.50
  -4  -2  -7  365.16   23.20
  -4  -2  -7  362.76   22.40
  -4  -2  -7  331.27   22.50
   4   2   7  322.57   23.20
   4   2   7  314.17   23.10
   4   2   7  318.27   23.00
  -5  -2  -7   15.10    4.70
  -5  -2  -7   11.10    4.50
  -5  -2  -7   11.70    5.00
   5   2   7   10.80    5.30
   5   2   7   10.60    5.50
   5   2   7    8.80    4.90
  -6  -2  -7  118.39   11.70
  -6  -2  -7  120.79   11.70
   6   2   7   99.19   12.40
   6   2   7   99.39   12.70
  -7  -2  -7   72.59   10.50
  -7  -2  -7   60.19    8.80
   7   2   7   55.59    9.60
   7   2   7   52.29    9.90
  -8  -2  -7   47.50    9.00
  -8  -2  -7   53.39    9.00
   8   2   7   37.20    9.70
   8   2   7   54.49   10.00
   9  -3  -7   12.70    7.00
   9  -3  -7   17.20    7.40
  -9   3   7    6.50    7.50
   8  -3  -7   62.19    8.60
   8  -3  -7   61.29    9.40
  -8   3   7   47.70   10.20
   7  -3  -7   24.50    6.00
   7  -3  -7   27.70    6.70
  -7   3   7   26.30    7.60
  -7   3   7   30.40    7.00
   6  -3  -7  109.39   10.50
   6  -3  -7  106.49   10.20
  -6   3   7   76.69   10.90
  -6   3   7   88.99   11.60
   5  -3  -7   24.00    4.50
   5  -3  -7   26.00    5.20
   5  -3  -7   21.70    4.90
  -5   3   7   33.90    6.70
  -5   3   7   24.00    5.90
  -5   3   7   28.20    4.70
   4  -3  -7  185.38   13.30
   4  -3  -7  191.58   13.10
   4  -3  -7  182.98   13.30
  -4   3   7  167.28   12.70
  -4   3   7  158.18   14.60
  -4   3   7  170.08   13.90
   3  -3  -7  135.59   10.20
   3  -3  -7  131.59   10.30
   3  -3  -7  123.89    8.40
  -3   3   7  129.39   10.30
  -3   3   7  124.19   11.80
  -3   3   7  124.39   10.50
   2  -3  -7 1072.69   64.29
   2  -3  -7 1095.79   63.09
   2  -3  -7 1016.60   64.29
  -2   3   7 1158.08   64.89
  -2   3   7 1134.09   64.49
  -2   3   7 1023.10   65.59
   1  -3  -7  447.06   29.20
   1  -3  -7  483.35   29.30
   1  -3  -7  496.15   28.20
  -1   3   7  493.65   30.00
  -1   3   7  463.85   29.00
  -1   3   7  479.15   29.40
  -1   3   7  442.66   30.40
   0  -3  -7 1075.69   65.69
   0  -3  -7  990.50   66.29
   0  -3  -7 1045.70   66.39
   0   3   7 1219.98   65.99
   0   3   7 1176.28   66.69
   0   3   7 1180.18   67.49
   0   3   7 1162.18   67.19
  -1  -3  -7  262.27   17.00
  -1  -3  -7  261.87   16.90
  -1  -3  -7  255.57   16.10
  -1  -3  -7  258.47   15.30
   1   3   7  239.58   17.20
   1   3   7  227.88   15.60
   1   3   7  224.58   17.10
   1   3   7  231.58   16.70
  -2  -3  -7  591.64   38.20
  -2  -3  -7  596.84   37.50
  -2  -3  -7  576.74   38.90
  -2  -3  -7  586.74   37.70
   2   3   7  657.93   37.60
   2   3   7  646.04   39.40
   2   3   7  648.84   39.00
   2   3   7  699.73   39.00
   2   3   7  661.03   39.30
  -3  -3  -7  277.47   18.60
  -3  -3  -7  278.57   17.40
  -3  -3  -7  273.87   17.90
   3   3   7  253.57   17.70
   3   3   7  236.88   18.50
   3   3   7  263.57   18.80
   3   3   7  235.98   18.40
  -4  -3  -7  636.24   40.80
  -4  -3  -7  635.34   41.50
  -4  -3  -7  641.34   41.00
   4   3   7  676.73   41.70
   4   3   7  695.23   42.00
   4   3   7  689.83   41.90
  -5  -3  -7    9.00    4.50
  -5  -3  -7   14.10    4.50
  -5  -3  -7   17.50    5.40
   5   3   7   14.40    5.20
   5   3   7   10.00    5.60
   5   3   7   18.90    6.10
  -6  -3  -7  695.13   44.30
  -6  -3  -7  690.33   43.70
  -6  -3  -7  676.83   43.70
   6   3   7  700.73   44.30
   6   3   7  675.23   44.50
  -7  -3  -7   10.90    5.80
  -7  -3  -7    7.60    5.70
   7   3   7    7.50    6.80
   7   3   7   10.90    6.70
   8  -4  -7   11.10    6.10
   8  -4  -7    4.50    5.80
  -8   4   7   12.20    7.50
   7  -4  -7  427.36   29.80
   7  -4  -7  399.36   29.40
  -7   4   7  513.45   31.00
  -7   4   7  446.86   31.60
   6  -4  -7  140.19   12.90
   6  -4  -7  144.29   13.00
  -6   4   7  164.38   14.40
  -6   4   7  162.88   14.80
   5  -4  -7  511.55   32.50
   5  -4  -7  518.55   33.10
   5  -4  -7  539.05   33.00
  -5   4   7  526.95   32.60
  -5   4   7  504.25   34.20
  -5   4   7  521.15   34.40
   4  -4  -7  149.99   11.70
   4  -4  -7  139.99   11.30
   4  -4  -7  145.39   11.40
  -4   4   7  146.29   11.40
  -4   4   7  140.09   12.40
  -4   4   7  131.19   12.90
   3  -4  -7  377.46   24.50
   3  -4  -7  377.26   24.80
   3  -4  -7  357.86   24.50
  -3   4   7  405.66   24.90
  -3   4   7  384.46   26.20
  -3   4   7  398.36   25.20
   2  -4  -7  637.74   38.70
   2  -4  -7  674.53   38.70
  -2   4   7  601.84   40.10
  -2   4   7  630.74   39.00
  -2   4   7  622.54   39.10
   1  -4  -7  670.23   38.20
   1  -4  -7  638.04   39.40
   1  -4  -7  627.44   39.60
  -1   4   7  655.03   39.50
  -1   4   7  674.23   40.10
  -1   4   7  623.64   40.70
   0  -4  -7 1393.96   76.79
   0  -4  -7 1401.36   77.79
   0  -4  -7 1351.96   77.79
   0   4   7 1203.98   78.49
   0   4   7 1265.67   78.29
   0   4   7 1254.77   77.79
   0   4   7 1321.07   77.39
  -1  -4  -7 1790.42   97.49
  -1  -4  -7 1779.72   96.09
  -1  -4  -7 1751.02   97.49
  -1  -4  -7 1782.62   96.79
   1   4   7 1551.34   97.29
   1   4   7 1578.84   96.69
   1   4   7 1548.84   97.79
   1   4   7 1565.44   97.79
   1   4   7 1524.75   95.89
  -2  -4  -7  538.55   32.40
  -2  -4  -7  544.35   31.70
  -2  -4  -7  580.14   32.60
  -2  -4  -7  570.24   31.20
   2   4   7  481.35   32.20
   2   4   7  477.15   31.20
   2   4   7  446.06   32.20
   2   4   7  476.15   32.10
   2   4   7  478.45   32.50
  -3  -4  -7  834.22   48.50
  -3  -4  -7  848.82   48.30
  -3  -4  -7  846.92   48.90
  -3  -4  -7  858.81   49.70
   3   4   7  731.73   49.40
   3   4   7  791.82   48.50
   3   4   7  770.72   49.50
   3   4   7  808.92   49.10
   3   4   7  744.33   49.30
  -4  -4  -7  140.49   11.10
  -4  -4  -7  129.69   11.40
  -4  -4  -7  143.89   12.30
   4   4   7  139.59   12.30
   4   4   7  139.29   13.00
   4   4   7  120.09   12.50
  -5  -4  -7  244.88   17.00
  -5  -4  -7  220.58   16.00
  -5  -4  -7  225.08   16.00
   5   4   7  167.08   15.70
   5   4   7  187.28   16.30
   5   4   7  195.98   16.90
   5   4   7  180.28   16.50
  -6  -4  -7  121.09   12.80
  -6  -4  -7  103.19   11.80
  -6  -4  -7  114.19   11.90
   6   4   7  126.59   13.30
   6   4   7  120.69   13.70
   6   4   7  124.59   13.20
  -7  -4  -7   29.60    7.20
  -7  -4  -7   45.60    8.50
  -7  -4  -7   41.40    8.00
   7   4   7   31.30    8.20
   7   4   7   25.80    8.00
   7   4   7   28.30    8.10
   8  -5  -7   13.80    6.50
   8  -5  -7   10.50    6.20
  -8   5   7    6.60    7.40
   7  -5  -7   11.90    5.90
   7  -5  -7   11.70    5.60
  -7   5   7   13.40    6.10
  -7   5   7   14.90    7.30
   6  -5  -7   44.90    7.30
   6  -5  -7   52.49    7.80
  -6   5   7   49.00    8.70
  -6   5   7   57.89    8.80
   5  -5  -7   66.79    8.40
   5  -5  -7   66.69    8.10
   5  -5  -7   62.99    8.70
  -5   5   7   73.49    8.30
  -5   5   7   68.79    9.90
  -5   5   7   62.29    9.70
   4  -5  -7  129.89   11.70
   4  -5  -7  132.69   12.00
   4  -5  -7  129.99   11.40
  -4   5   7  162.18   13.90
  -4   5   7  164.58   12.20
  -4   5   7  164.48   13.40
   3  -5  -7  230.68   17.60
   3  -5  -7  244.18   17.70
   3  -5  -7  242.48   17.10
  -3   5   7  263.57   18.40
  -3   5   7  280.57   18.20
  -3   5   7  279.37   19.70
   2  -5  -7  417.26   25.20
   2  -5  -7  388.66   25.60
   2  -5  -7  411.16   26.10
  -2   5   7  390.36   25.90
  -2   5   7  401.26   26.10
  -2   5   7  382.76   27.10
   1  -5  -7  197.78   14.30
   1  -5  -7  202.28   13.80
  -1   5   7  191.58   14.20
  -1   5   7  183.18   15.50
  -1   5   7  203.58   14.80
   0  -5  -7  529.45   29.40
   0  -5  -7  517.85   30.60
   0  -5  -7  493.65   30.70
   0   5   7  453.35   31.80
   0   5   7  458.15   30.60
   0   5   7  473.95   31.30
   0   5   7  486.35   30.60
  -1  -5  -7  278.67   19.10
  -1  -5  -7  263.77   18.90
  -1  -5  -7  269.47   18.10
  -1  -5  -7  279.17   17.70
   1   5   7  285.27   19.80
   1   5   7  289.47   19.30
   1   5   7  285.77   20.20
   1   5   7  296.87   19.00
   1   5   7  298.27   18.50
  -2  -5  -7  956.70   58.79
  -2  -5  -7  919.91   58.29
  -2  -5  -7  956.30   59.49
  -2  -5  -7  931.71   59.59
   2   5   7  986.00   59.79
   2   5   7 1017.10   60.29
   2   5   7 1045.20   59.29
   2   5   7  999.60   60.09
   2   5   7 1028.50   59.79
   2   5   7 1035.40   58.59
  -3  -5  -7   48.90    6.20
  -3  -5  -7   51.49    6.50
  -3  -5  -7   51.19    7.50
  -3  -5  -7   50.89    5.90
  -3  -5  -7   50.09    7.30
   3   5   7   44.10    6.40
   3   5   7   38.90    6.50
   3   5   7   43.20    6.90
   3   5   7   43.50    6.80
   3   5   7   45.70    6.90
   3   5   7   38.60    6.80
  -4  -5  -7  486.05   31.90
  -4  -5  -7  488.85   31.00
  -4  -5  -7  500.75   32.80
  -4  -5  -7  488.65   31.40
   4   5   7  487.05   31.80
   4   5   7  492.55   31.70
   4   5   7  471.75   32.00
   4   5   7  489.05   32.30
  -5  -5  -7   83.09    9.40
  -5  -5  -7   85.89    9.80
  -5  -5  -7   83.99   10.50
   5   5   7   87.69   11.50
   5   5   7  100.39   11.20
   5   5   7   82.29   10.90
  -6  -5  -7  311.07   22.80
  -6  -5  -7  310.77   22.80
  -6  -5  -7  320.77   23.40
   6   5   7  301.87   23.50
   6   5   7  323.27   24.00
   6   5   7  315.07   23.50
  -7  -5  -7    7.60    5.80
  -7  -5  -7    1.20    5.90
  -7  -5  -7    0.80    5.40
   7   5   7    3.80    6.50
   7   5   7    5.00    6.70
   7   5   7    3.10    6.80
   8  -6  -7   34.30    8.30
   8  -6  -7   27.20    7.50
  -8   6   7   23.00    8.50
   7  -6  -7  504.35   32.30
   7  -6  -7  474.05   32.90
  -7   6   7  500.95   33.60
  -7   6   7  479.15   34.90
   6  -6  -7  363.16   23.60
   6  -6  -7  325.07   23.90
  -6   6   7  329.57   25.60
  -6   6   7  327.07   24.80
   5  -6  -7  666.03   39.70
   5  -6  -7  608.34   39.80
   5  -6  -7  610.74   40.00
  -5   6   7  640.54   41.50
  -5   6   7  646.74   41.50
   4  -6  -7  286.87   20.60
   4  -6  -7  276.27   20.60
   4  -6  -7  308.37   20.10
  -4   6   7  308.57   21.00
  -4   6   7  303.77   22.30
  -4   6   7  293.77   21.70
   3  -6  -7  887.91   57.19
   3  -6  -7  994.50   56.69
   3  -6  -7  884.31   56.99
  -3   6   7  960.30   57.99
  -3   6   7  973.10   58.79
  -3   6   7  957.50   57.49
   2  -6  -7  298.87   22.20
   2  -6  -7  328.87   21.30
   2  -6  -7  332.37   22.20
  -2   6   7  340.27   22.70
  -2   6   7  334.77   23.80
  -2   6   7  344.07   22.60
   1  -6  -7  481.25   34.00
   1  -6  -7  511.75   33.70
   1  -6  -7  542.35   33.30
  -1   6   7  608.14   34.90
  -1   6   7  567.24   34.30
  -1   6   7  535.35   35.40
   0  -6  -7  166.58   13.00
   0  -6  -7  154.08   14.10
   0  -6  -7  173.68   13.80
   0   6   7  208.88   14.10
   0   6   7  189.58   15.40
   0   6   7  212.28   14.80
   1   6   7   68.19    8.00
   1   6   7   68.49    8.80
   1   6   7   69.39    8.30
   1   6   7   70.59    9.40
  -2  -6  -7   58.29    7.60
  -2  -6  -7   57.69    6.60
  -2  -6  -7   61.89    8.30
  -2  -6  -7   65.59    7.80
  -2  -6  -7   58.39    7.00
   2   6   7   67.39    8.80
   2   6   7   62.59    9.30
   2   6   7   68.99    8.30
   2   6   7   70.79    8.10
  -3  -6  -7   86.09    9.30
  -3  -6  -7   91.79    9.40
  -3  -6  -7   95.69    8.40
  -3  -6  -7   98.39    8.70
  -3  -6  -7   95.39    8.00
  -3  -6  -7   94.89    9.20
   3   6   7   73.59    9.50
   3   6   7   59.59    9.30
   3   6   7   65.19    8.60
   3   6   7   64.59    9.00
   3   6   7   62.89    8.10
   3   6   7   73.89    9.50
   3   6   7   60.79    9.80
  -4  -6  -7  161.28   13.30
  -4  -6  -7  158.08   12.90
  -4  -6  -7  150.78   13.20
  -4  -6  -7  167.48   13.40
  -4  -6  -7  171.58   13.90
  -4  -6  -7  150.18   12.40
   4   6   7  136.89   13.90
   4   6   7  154.18   14.40
   4   6   7  155.48   13.40
   4   6   7  153.68   13.10
   4   6   7  145.29   13.50
   4   6   7  158.98   13.80
  -5  -6  -7   63.99    8.60
  -5  -6  -7   70.19    8.90
  -5  -6  -7   77.69    9.70
  -5  -6  -7   62.89    9.10
   5   6   7   44.40    8.60
   5   6   7   39.90    8.00
  -6  -6  -7  120.59   13.00
  -6  -6  -7  127.59   12.10
  -6  -6  -7  109.59   11.90
   6   6   7   80.99   12.60
   6   6   7  118.99   13.70
   6   6   7  109.59   13.50
   7  -7  -7   31.40    7.70
  -7   7   7   36.50    9.50
  -7   7   7   34.50    9.90
   6  -7  -7  164.08   14.70
   6  -7  -7  169.78   14.40
  -6   7   7  127.39   14.70
  -6   7   7  115.09   15.50
   5  -7  -7   17.30    4.90
   5  -7  -7    4.10    4.90
   5  -7  -7   12.10    5.60
  -5   7   7   16.30    6.80
  -5   7   7   16.40    6.50
   4  -7  -7   70.69    9.10
   4  -7  -7   57.89    8.70
   4  -7  -7   65.29    7.50
  -4   7   7   53.29    8.00
  -4   7   7   52.19    8.80
  -4   7   7   51.09    8.70
   3  -7  -7  112.49   10.90
   3  -7  -7   95.49   10.80
   3  -7  -7  101.59    9.30
  -3   7   7  112.69   11.60
  -3   7   7  118.59   12.60
  -3   7   7  122.89   11.50
   2  -7  -7   77.39    9.40
   2  -7  -7   81.89    7.80
   2  -7  -7   80.09    9.00
  -2   7   7   77.19    9.60
  -2   7   7   75.89   10.80
  -2   7   7   90.09   10.10
   1  -7  -7   39.50    6.20
   1  -7  -7   46.30    5.90
   1  -7  -7   35.10    6.40
  -1   7   7   46.30    7.20
  -1   7   7   44.70    7.90
  -1   7   7   40.10    6.80
   0  -7  -7  417.06   27.90
   0  -7  -7  404.66   28.50
   0  -7  -7  415.66   27.10
   0   7   7  462.55   28.90
   0   7   7  430.76   29.80
   0   7   7  458.35   28.50
  -1  -7  -7   28.20    5.00
  -1  -7  -7   35.20    5.90
  -1  -7  -7   26.80    5.70
   1   7   7   37.90    7.80
   1   7   7   35.30    6.60
   1   7   7   38.90    6.40
  -2  -7  -7  943.31   57.79
  -2  -7  -7  979.20   57.19
  -2  -7  -7  963.40   57.09
   2   7   7  958.60   58.09
   2   7   7  900.61   57.39
   2   7   7  924.61   57.19
   2   7   7  909.71   58.39
  -3  -7  -7  102.29   10.30
  -3  -7  -7  107.29   10.80
  -3  -7  -7   98.69   10.20
  -3  -7  -7  107.89   11.20
  -3  -7  -7  122.19   10.60
  -3  -7  -7  104.79    9.60
   3   7   7  109.19   12.10
   3   7   7   95.69   11.10
   3   7   7  107.79   10.90
   3   7   7  109.19   10.90
   3   7   7  106.69   11.20
   3   7   7  105.59   11.60
  -4  -7  -7  599.04   36.60
  -4  -7  -7  574.14   35.70
  -4  -7  -7  557.14   36.00
  -4  -7  -7  546.95   36.20
  -4  -7  -7  521.05   39.40
  -4  -7  -7  557.54   36.20
   4   7   7  572.04   36.70
   4   7   7  553.94   36.70
   4   7   7  544.55   36.20
   4   7   7  571.64   36.70
   4   7   7  551.24   35.90
  -5  -7  -7   66.09    8.90
  -5  -7  -7   62.39    9.20
  -5  -7  -7   77.29   10.30
  -5  -7  -7   69.39    9.50
   5   7   7   63.09    9.30
   5   7   7   59.99    9.60
   5   7   7   64.09    9.30
  -6  -7  -7  200.88   17.20
  -6  -7  -7  196.68   16.90
  -6  -7  -7  198.38   17.50
   6   7   7  225.48   18.50
   6   7   7  213.68   18.90
   6  -8  -7   19.80    6.50
   6  -8  -7   24.50    7.40
  -6   8   7   21.70    7.60
  -6   8   7   31.20    8.80
   5  -8  -7  306.87   23.20
   5  -8  -7  309.67   23.20
  -5   8   7  322.67   24.90
  -5   8   7  342.77   24.70
   4  -8  -7   93.69   11.20
   4  -8  -7  108.69   11.50
  -4   8   7   80.59   11.70
  -4   8   7  102.89   12.80
   3  -8  -7  163.58   14.40
   3  -8  -7  168.18   13.90
  -3   8   7  154.88   14.50
  -3   8   7  153.58   15.40
  -3   8   7  157.08   14.90
   2  -8  -7  403.16   27.70
   2  -8  -7  400.36   26.90
  -2   8   7  397.86   28.00
  -2   8   7  411.36   29.10
  -2   8   7  413.66   27.90
   1  -8  -7  349.27   23.20
   1  -8  -7  344.47   22.40
  -1   8   7  296.17   22.90
  -1   8   7  306.47   24.00
  -1   8   7  312.27   23.00
   0  -8  -7  190.78   16.50
   0  -8  -7  196.98   15.70
   0   8   7  226.48   17.00
   0   8   7  205.18   18.10
   0   8   7  220.78   17.10
  -1  -8  -7  156.88   13.40
  -1  -8  -7  138.39   12.30
   1   8   7  145.49   13.80
   1   8   7  145.49   13.40
   1   8   7  143.79   14.80
  -2  -8  -7  255.27   19.00
  -2  -8  -7  264.77   18.30
   2   8   7  232.48   20.10
   2   8   7  238.08   19.20
   2   8   7  245.78   19.00
  -3  -8  -7   44.70    7.90
  -3  -8  -7   36.40    7.00
  -3  -8  -7   51.39    7.30
  -3  -8  -7   43.30    7.30
  -3  -8  -7   33.50    9.90
   3   8   7   53.29    7.70
   3   8   7   43.50    8.70
   3   8   7   47.50    8.10
   3   8   7   52.99    8.40
  -4  -8  -7   11.90    5.00
  -4  -8  -7   16.90    5.60
  -4  -8  -7   13.20    6.10
  -4  -8  -7   11.80    5.90
   4   8   7   13.00    6.10
   4   8   7    7.50    6.20
   4   8   7   17.50    6.10
  -5  -8  -7   73.19   12.60
   6  -9  -7   20.90    7.50
   6  -9  -7   24.80    7.40
  -6   9   7   21.10    7.90
  -6   9   7   22.40    8.30
   5  -9  -7    5.00    5.90
   5  -9  -7   -1.30    5.40
  -5   9   7   -0.50    6.00
  -5   9   7   -3.30    6.10
   4  -9  -7  112.69   13.40
   4  -9  -7  110.09   13.00
  -4   9   7  158.18   15.60
  -4   9   7  147.79   15.20
   3  -9  -7   91.39   11.70
   3  -9  -7   95.49   11.20
  -3   9   7  115.19   13.90
  -3   9   7   91.89   12.60
   2  -9  -7   85.79   11.30
   2  -9  -7   90.89   10.70
  -2   9   7  108.99   12.60
  -2   9   7  115.79   13.80
   1  -9  -7  232.08   17.60
   1  -9  -7  235.28   18.90
  -1   9   7  228.58   18.90
  -1   9   7  235.78   20.20
  -1   9   7  237.68   19.00
   0  -9  -7   67.19   10.40
   0  -9  -7   65.09    9.20
   0   9   7   75.69   11.30
   0   9   7   77.69   10.90
   0   9   7   85.99   11.10
  -1  -9  -7  196.68   16.80
  -1  -9  -7  196.98   15.50
   1   9   7  182.98   18.50
   1   9   7  205.18   17.20
   1   9   7  204.18   17.40
  -2  -9  -7   19.00    5.30
  -2  -9  -7   10.90    5.80
  -2  -9  -7   19.40    6.90
   2   9   7    3.50    6.30
   2   9   7    5.60    6.00
   2   9   7    5.20    5.90
  -3  -9  -7   70.79   10.00
  -3  -9  -7   75.79    9.40
  -3  -9  -7   69.59   10.20
  -3  -9  -7   69.19    9.80
   3   9   7   54.89    9.40
   3   9   7   71.49   11.00
   3   9   7   51.39   10.00
  -4  -9  -7   40.10    8.40
  -4  -9  -7   36.20    7.70
   4   9   7   42.80    9.00
   4   9   7   55.59    9.20
   4 -10  -7   77.59   11.00
   4 -10  -7   77.59   10.50
  -4  10   7   90.79   13.50
  -4  10   7   65.39   11.30
   3 -10  -7   37.10    7.60
   3 -10  -7   37.90    8.20
  -3  10   7   50.99   10.20
  -3  10   7   58.29   10.20
   2 -10  -7  191.18   17.00
   2 -10  -7  193.58   16.00
  -2  10   7  189.58   17.90
  -2  10   7  196.78   18.60
   1 -10  -7   85.09   10.60
   1 -10  -7   94.89   12.20
  -1  10   7  101.09   13.20
  -1  10   7   98.39   14.20
   0 -10  -7  332.87   24.30
   0 -10  -7  318.57   22.90
   0  10   7  314.27   26.00
   0  10   7  342.57   25.10
  -1 -10  -7  157.58   15.60
  -1 -10  -7  165.58   16.70
  -1 -10  -7  169.58   14.50
   1  10   7  166.08   16.30
   1  10   7  170.18   17.80
  -2 -10  -7  192.58   18.00
  -2 -10  -7  204.08   17.30
  -2 -10  -7  197.38   15.70
   2  10   7  177.88   18.80
   2  10   7  186.58   17.50
   2  10   7  183.38   17.50
  -3 -10  -7   93.89   11.90
  -3 -10  -7  108.99   12.50
  -3 -10  -7  101.39   13.90
   3  10   7  102.79   14.50
   3  10   7  103.89   13.80
   3 -11  -7   12.80    6.90
   3 -11  -7   20.50    6.70
  -3  11   7   14.00    7.80
  -3  11   7   18.70    8.50
   2 -11  -7  109.19   13.70
   2 -11  -7  119.09   12.70
  -2  11   7  105.69   14.70
  -2  11   7  124.29   16.30
   1 -11  -7    9.80    5.50
   1 -11  -7    5.40    6.70
   1 -11  -7    8.40    6.20
  -1  11   7   11.50    8.10
  -1  11   7   11.10    7.40
   0 -11  -7  158.08   14.40
   0 -11  -7  176.78   17.70
   0 -11  -7  173.98   16.20
   0  11   7  158.48   17.10
   0  11   7  146.19   17.90
  -1 -11  -7   36.30    9.40
  -1 -11  -7   37.60    8.30
  -1 -11  -7   35.00    7.10
   1  11   7   41.20   10.30
   1  11   7   37.90    9.40
  -2 -11  -7  187.88   17.60
  -2 -11  -7  189.78   19.00
   2  11   7  200.48   18.90
   2  11   7  191.38   20.00
   1  11  -8   83.29   12.30
   1  11  -8   85.99   10.60
  -1 -11   8  120.69   13.60
  -1 -11   8   96.19   13.70
   0  11  -8   19.30    7.00
   0  11  -8   17.60    5.70
   0 -11   8   19.90    7.50
   0 -11   8   28.10    8.10
   4  10  -8   65.79    9.90
   4  10  -8   70.79    9.50
  -4 -10   8   75.29   11.90
  -4 -10   8   57.49   10.80
   3  10  -8   41.60    8.10
   3  10  -8   35.90    7.10
  -3 -10   8   40.70    9.50
  -3 -10   8   46.60    9.40
  -3 -10   8   42.80    8.30
   2  10  -8   87.79   11.30
   2  10  -8   92.79   12.40
   2  10  -8   91.59   10.40
  -2 -10   8   77.69   11.40
  -2 -10   8   74.09   10.90
  -2 -10   8   69.39   11.00
   1  10  -8   19.80    6.30
   1  10  -8   21.80    5.70
  -1 -10   8   18.80    7.40
  -1 -10   8   24.30    7.20
   0  10  -8   49.80    7.70
   0  10  -8   46.60    8.60
   0 -10   8   61.79   10.00
   0 -10   8   57.89    9.60
  -1  10  -8  108.29   11.50
  -1  10  -8  131.99   13.40
   1 -10   8  116.99   14.50
   1 -10   8  100.09   12.80
  -2  10  -8   41.20    7.20
  -2  10  -8   48.20    8.70
   2 -10   8   44.50    9.60
   5   9  -8   28.30    7.30
   5   9  -8   19.10    6.60
  -5  -9   8   42.00    9.90
  -5  -9   8   38.30    9.60
   4   9  -8  126.49   12.40
   4   9  -8  121.59   13.10
  -4  -9   8  113.59   14.60
  -4  -9   8  112.79   14.30
   3   9  -8  147.39   13.90
   3   9  -8  153.28   14.60
  -3  -9   8  174.28   15.10
  -3  -9   8  180.08   16.30
  -3  -9   8  177.58   16.50
   2   9  -8  139.19   12.60
   2   9  -8  161.48   14.80
   2   9  -8  146.89   13.50
  -2  -9   8  135.39   14.90
  -2  -9   8  130.99   13.90
  -2  -9   8  148.39   14.20
   1   9  -8  166.98   17.70
   1   9  -8  166.48   14.30
   1   9  -8  148.29   13.20
  -1  -9   8  164.78   15.10
  -1  -9   8  148.99   15.30
   0   9  -8  118.99   11.50
   0   9  -8  122.49   12.30
   0  -9   8  112.69   12.80
   0  -9   8  118.19   12.90
  -1   9  -8   80.19   10.50
  -1   9  -8   74.29    9.30
   1  -9   8   79.59   12.10
   1  -9   8   93.29   11.20
  -2   9  -8    4.10    5.30
  -2   9  -8    5.70    4.70
   2  -9   8   13.50    6.80
  -3   9  -8  131.29   12.30
  -3   9  -8  127.29   13.90
   3  -9   8  109.19   14.40
  -4   9  -8   59.49   10.20
  -4   9  -8   68.89    9.60
   4  -9   8   71.79   10.50
   4  -9   8   63.89   10.90
   6   8  -8  173.38   15.50
   6   8  -8  192.88   16.30
  -6  -8   8  155.68   17.40
  -6  -8   8  143.09   17.70
   5   8  -8   27.20    6.60
   5   8  -8   22.50    6.20
  -5  -8   8   15.40    7.40
  -5  -8   8   18.40    8.00
   4   8  -8  301.37   20.60
   4   8  -8  262.17   19.90
  -4  -8   8  282.87   22.40
  -4  -8   8  244.88   21.80
   3   8  -8   32.00    6.40
   3   8  -8   41.50    6.60
  -3  -8   8   25.60    7.40
  -3  -8   8   23.50    6.90
  -3  -8   8   26.40    6.50
   2   8  -8  429.66   26.40
   2   8  -8  369.96   24.70
   2   8  -8  400.46   25.20
  -2  -8   8  333.77   26.00
  -2  -8   8  326.87   25.20
  -2  -8   8  333.67   25.50
   1   8  -8   49.60    7.50
   1   8  -8   54.19    7.60
   1   8  -8   50.99    7.10
  -1  -8   8   43.30    7.80
  -1  -8   8   39.00    7.70
  -1  -8   8   49.00    7.70
   0   8  -8  230.98   16.90
   0   8  -8  234.88   16.30
   0  -8   8  200.18   17.40
   0  -8   8  193.68   17.30
  -1   8  -8   58.99    8.00
  -1   8  -8   57.09    8.00
   1  -8   8   37.30    8.20
   1  -8   8   46.20    7.80
  -2   8  -8  249.28   18.50
  -2   8  -8  242.08   17.50
   2  -8   8  201.78   18.80
  -3   8  -8  195.08   15.90
  -3   8  -8  204.08   17.30
   3  -8   8  185.38   17.70
   3  -8   8  220.18   17.30
  -4   8  -8   85.39   11.70
  -4   8  -8   83.39   10.30
   4  -8   8   82.99   11.80
   4  -8   8   80.59   12.80
  -5   8  -8   77.99   10.90
  -5   8  -8   89.39   12.60
   5  -8   8   71.19   11.90
   5  -8   8  103.29   13.80
   7   7  -8   12.50    6.80
   7   7  -8   13.30    6.60
  -7  -7   8   36.00    9.70
  -7  -7   8   28.50    7.20
  -7  -7   8   39.50    9.70
   6   7  -8  109.59   12.10
   6   7  -8   99.99   12.00
  -6  -7   8  110.59   14.20
  -6  -7   8   97.89   14.10
   5   7  -8   60.19    8.40
   5   7  -8   64.49    9.50
  -5  -7   8   55.39    9.90
  -5  -7   8   69.69   10.40
   4   7  -8   34.10    6.50
   4   7  -8   33.20    6.20
  -4  -7   8   47.50    8.50
  -4  -7   8   56.39    9.30
   3   7  -8  178.38   15.00
   3   7  -8  163.98   14.50
  -3  -7   8  211.18   17.10
  -3  -7   8  198.18   16.50
  -3  -7   8  219.78   16.00
   2   7  -8    0.80    3.50
   2   7  -8    3.40    3.70
  -2  -7   8   -1.40    4.80
  -2  -7   8    6.00    4.60
  -2  -7   8    1.70    4.40
   1   7  -8   85.39    9.30
   1   7  -8   74.89    9.10
   1   7  -8   78.89    9.30
  -1  -7   8   99.29    9.70
  -1  -7   8  112.39   11.00
  -1  -7   8  101.29   10.70
   0   7  -8    8.20    4.00
   0   7  -8    7.40    4.10
   0  -7   8    6.90    4.90
   0  -7   8    5.10    4.90
  -1   7  -8  245.58   18.30
  -1   7  -8  237.48   18.60
   1  -7   8  269.37   19.00
   1  -7   8  282.87   20.20
  -2   7  -8   26.20    6.00
  -2   7  -8   31.30    5.60
   2  -7   8   20.10    6.40
   2  -7   8   28.40    6.00
   2  -7   8   21.40    8.30
  -3   7  -8   16.50    5.20
  -3   7  -8   14.30    5.50
   3  -7   8   36.00    7.70
   3  -7   8   36.00    7.00
  -4   7  -8   19.30    6.40
  -4   7  -8   21.50    5.80
   4  -7   8   21.10    7.50
   4  -7   8   23.50    7.20
  -5   7  -8   14.90    6.60
  -5   7  -8   20.30    6.30
   5  -7   8   34.20    8.40
   5  -7   8   32.30    8.50
   7   6  -8   35.70    7.60
   7   6  -8   33.80    7.00
   7   6  -8   34.20    7.60
  -7  -6   8   34.50    8.90
  -7  -6   8   38.50    9.90
  -7  -6   8   31.90    7.20
   6   6  -8   84.49   10.40
   6   6  -8   73.09    9.30
   6   6  -8   73.59    9.80
  -6  -6   8   78.49   12.20
  -6  -6   8   70.59    9.50
  -6  -6   8   61.39   10.70
   5   6  -8    2.60    3.80
   5   6  -8   11.60    5.00
   5   6  -8    0.50    4.20
  -5  -6   8   11.50    6.40
  -5  -6   8    3.80    5.70
   4   6  -8  154.48   12.60
   4   6  -8  151.58   11.90
   4   6  -8  146.69   12.60
  -4  -6   8  152.58   14.40
  -4  -6   8  140.39   14.40
   3   6  -8  114.19   10.30
   3   6  -8  104.89   10.10
   3   6  -8  101.29    9.30
  -3  -6   8  123.19   12.30
  -3  -6   8  128.39   11.50
  -3  -6   8  127.39   11.90
   2   6  -8  699.83   43.70
   2   6  -8  698.23   44.50
   2   6  -8  729.53   44.50
  -2  -6   8  762.22   45.60
  -2  -6   8  746.13   45.40
  -2  -6   8  726.43   45.80
   1   6  -8  330.57   22.40
   1   6  -8  366.16   23.60
   1   6  -8  342.27   23.30
   1   6  -8  315.67   23.10
  -1  -6   8  383.16   24.70
  -1  -6   8  356.86   24.40
  -1  -6   8  386.26   23.80
   0   6  -8  632.44   37.30
   0   6  -8  641.84   37.40
   0  -6   8  568.24   37.70
   0  -6   8  587.24   38.30
   0  -6   8  554.24   38.20
  -1   6  -8  178.08   13.40
  -1   6  -8  185.88   13.70
   1  -6   8  156.58   13.60
   1  -6   8  167.78   13.30
  -2   6  -8  569.64   35.40
  -2   6  -8  547.25   35.10
   2  -6   8  529.25   36.10
   2  -6   8  575.74   35.40
   2  -6   8  540.25   34.80
  -3   6  -8   83.49   10.00
  -3   6  -8   96.89    9.90
   3  -6   8   99.09   11.60
   3  -6   8  103.89   11.20
  -4   6  -8  190.28   15.90
  -4   6  -8  178.68   15.10
   4  -6   8  185.78   16.80
   4  -6   8  182.58   16.40
  -5   6  -8   94.79   11.10
  -5   6  -8   74.19    9.70
   5  -6   8   68.09   10.50
   5  -6   8   54.39   10.00
  -6   6  -8    3.10    4.90
  -6   6  -8    1.10    5.60
   6  -6   8    3.90    7.10
   6  -6   8    6.20    7.40
   8   5  -8  101.39   13.20
   8   5  -8  106.79   12.40
   8   5  -8  108.09   13.00
  -8  -5   8   81.79   13.60
  -8  -5   8  115.69   15.20
  -8  -5   8  104.39   12.30
   7   5  -8   75.59   10.90
   7   5  -8   63.89    9.90
   7   5  -8   70.09    9.60
  -7  -5   8   86.89   10.50
  -7  -5   8   83.69   12.90
  -7  -5   8  101.29   13.90
   6   5  -8  326.47   23.00
   6   5  -8  356.76   23.20
   6   5  -8  309.17   22.60
  -6  -5   8  329.37   23.00
  -6  -5   8  325.07   25.00
  -6  -5   8  326.57   25.50
   5   5  -8   38.70    6.30
   5   5  -8   39.80    6.20
   5   5  -8   48.90    6.80
  -5  -5   8   37.60    7.90
  -5  -5   8   31.60    7.60
   4   5  -8  444.46   29.00
   4   5  -8  469.65   29.50
   4   5  -8  452.35   29.20
  -4  -5   8  456.45   30.90
  -4  -5   8  452.85   31.00
  -4  -5   8  467.35   30.00
   3   5  -8   52.89    6.80
   3   5  -8   39.30    5.70
  -3  -5   8   29.40    6.20
  -3  -5   8   25.90    5.90
  -3  -5   8   28.00    6.40
   2   5  -8  302.17   19.70
   2   5  -8  318.97   20.10
   2   5  -8  317.07   20.40
  -2  -5   8  306.07   20.90
  -2  -5   8  301.07   21.40
  -2  -5   8  277.47   21.40
   1   5  -8   23.40    4.30
   1   5  -8   23.20    4.30
  -1  -5   8   11.10    4.60
  -1  -5   8   10.30    4.60
  -1  -5   8    9.40    3.70
   0   5  -8  156.48   11.90
   0   5  -8  155.38   12.50
   0   5  -8  154.98   12.20
   0  -5   8  169.88   13.30
   0  -5   8  178.48   12.40
   0  -5   8  183.78   14.20
  -1   5  -8  223.08   14.10
  -1   5  -8  219.48   14.60
  -1   5  -8  220.18   14.80
   1  -5   8  169.98   15.50
   1  -5   8  179.68   14.40
   1  -5   8  167.78   14.40
  -2   5  -8    2.10    3.40
  -2   5  -8   -2.10    3.20
  -2   5  -8    3.90    3.30
   2  -5   8    6.00    4.30
   2  -5   8    0.20    4.50
   2  -5   8    1.40    3.50
  -3   5  -8   58.19    8.20
  -3   5  -8   67.89    8.30
  -3   5  -8   57.89    7.50
   3  -5   8   56.19    8.60
   3  -5   8   73.19    9.60
  -4   5  -8   31.40    6.40
  -4   5  -8   38.70    7.10
  -4   5  -8   28.70    5.80
   4  -5   8   37.60    8.00
   4  -5   8   40.80    6.90
   4  -5   8   36.00    7.50
  -5   5  -8  109.89   11.80
  -5   5  -8  102.49   12.20
  -5   5  -8  123.89   11.70
   5  -5   8  137.89   12.60
   5  -5   8  127.79   13.80
   5  -5   8  131.99   14.40
  -6   5  -8   27.90    6.70
  -6   5  -8   25.70    6.80
  -6   5  -8   27.40    7.40
   6  -5   8   41.60    8.80
   6  -5   8   40.80    8.10
   6  -5   8   34.50    9.00
   8   4  -8  138.79   13.60
   8   4  -8  129.99   14.00
   8   4  -8  136.69   13.90
  -8  -4   8  124.69   16.40
  -8  -4   8  131.09   16.20
  -8  -4   8  123.29   13.40
   7   4  -8    3.10    4.90
   7   4  -8    4.60    5.10
   7   4  -8    6.00    5.00
  -7  -4   8    4.60    4.60
  -7  -4   8    5.20    6.40
  -7  -4   8    6.30    6.60
   6   4  -8  660.03   41.20
   6   4  -8  608.44   41.20
   6   4  -8  681.33   41.40
  -6  -4   8  698.63   43.70
  -6  -4   8  656.43   43.50
  -6  -4   8  642.24   41.10
   5   4  -8   34.30    5.60
   5   4  -8   32.00    5.70
   5   4  -8   29.10    5.40
  -5  -4   8   23.80    7.00
  -5  -4   8   25.30    6.80
   4   4  -8  610.04   40.90
   4   4  -8  679.83   41.20
   4   4  -8  667.23   40.90
  -4  -4   8  694.43   42.90
  -4  -4   8  699.33   42.70
  -4  -4   8  664.53   41.60
   3   4  -8  104.09    8.60
   3   4  -8  106.39    8.30
   3   4  -8   91.29    8.30
  -3  -4   8   80.79    9.10
  -3  -4   8   75.89    9.20
  -3  -4   8   74.49    9.60
   2   4  -8  599.14   37.70
   2   4  -8  597.84   38.00
   2   4  -8  621.14   38.30
  -2  -4   8  600.94   39.30
  -2  -4   8  656.53   38.70
  -2  -4   8  667.63   39.70
  -1  -4   8    8.80    3.30
  -1  -4   8   10.70    3.00
  -1  -4   8    7.20    4.10
  -1  -4   8   12.00    4.70
   0   4  -8  351.16   21.90
   0   4  -8  354.76   21.50
   0   4  -8  358.66   21.60
   0  -4   8  315.27   23.20
   0  -4   8  301.07   22.10
   0  -4   8  323.57   21.60
  -1   4  -8  404.26   25.00
  -1   4  -8  413.96   25.00
  -1   4  -8  388.16   25.20
   1  -4   8  387.16   25.30
   1  -4   8  376.26   26.50
   1  -4   8  371.86   25.20
  -2   4  -8   53.99    7.00
  -2   4  -8   61.89    7.10
  -2   4  -8   51.09    6.60
   2  -4   8   57.79    7.00
   2  -4   8   53.09    7.70
   2  -4   8   57.59    9.10
  -3   4  -8  669.93   44.30
  -3   4  -8  618.84   44.20
  -3   4  -8  652.33   43.90
   3  -4   8  781.12   45.30
   3  -4   8  781.32   46.10
   3  -4   8  811.82   44.90
  -4   4  -8  166.98   12.70
  -4   4  -8  156.68   12.90
  -4   4  -8  156.58   13.00
   4  -4   8  135.19   13.70
   4  -4   8  133.39   12.90
   4  -4   8  120.29   14.00
  -5   4  -8  521.55   34.80
  -5   4  -8  516.25   34.30
  -5   4  -8  503.35   34.30
   5  -4   8  509.45   35.50
   5  -4   8  582.84   35.00
   5  -4   8  540.05   35.70
  -6   4  -8   30.00    6.70
  -6   4  -8   38.80    7.30
  -6   4  -8   33.10    7.60
   6  -4   8   38.70    8.00
   6  -4   8   43.60    8.60
   6  -4   8   49.20    9.50
  -7   4  -8  191.78   17.40
  -7   4  -8  201.08   17.70
  -7   4  -8  215.08   18.60
   7  -4   8  232.88   20.60
   7  -4   8  221.58   19.00
   8   3  -8   77.49   11.60
   8   3  -8   95.39   11.10
  -8  -3   8   87.79   12.90
  -8  -3   8   82.79   13.00
   7   3  -8   20.10    5.80
   7   3  -8   19.70    5.80
   7   3  -8   12.40    5.30
  -7  -3   8   17.30    7.30
  -7  -3   8   22.10    5.80
  -7  -3   8   21.50    7.70
   6   3  -8  142.29   12.10
   6   3  -8  135.19   12.00
   6   3  -8  134.89   12.50
  -6  -3   8  139.99   11.90
  -6  -3   8  145.39   14.80
  -6  -3   8  136.49   14.40
   5   3  -8   18.90    4.80
   5   3  -8   13.90    4.30
   5   3  -8   18.40    4.40
  -5  -3   8   27.50    6.90
  -5  -3   8   28.40    4.70
  -5  -3   8   27.60    6.30
   4   3  -8   96.19    9.80
   4   3  -8  117.69    9.90
   4   3  -8  101.49    9.20
  -4  -3   8  128.99   12.20
  -4  -3   8  140.79   11.70
  -4  -3   8  123.89    9.90
   3   3  -8   61.59    7.00
   3   3  -8   61.09    6.70
   3   3  -8   55.99    5.90
   2   3  -8   62.29    6.70
   2   3  -8   64.39    6.10
   2   3  -8   63.39    6.60
   2   3  -8   68.09    5.80
  -2  -3   8   73.09    8.30
  -2  -3   8   66.79    5.90
  -2  -3   8   71.29    7.00
  -2  -3   8   71.49    8.30
  -1  -3   8  125.19    9.20
  -1  -3   8  117.69    9.10
  -1  -3   8  125.59   11.30
  -1  -3   8  116.29   10.70
   0   3  -8  702.63   41.50
   0   3  -8  700.63   40.90
   0   3  -8  676.03   41.30
   0  -3   8  652.43   41.90
   0  -3   8  698.43   42.90
   0  -3   8  657.43   41.30
  -1   3  -8   69.59    7.20
  -1   3  -8   76.09    7.50
  -1   3  -8   76.99    6.90
  -2   3  -8   61.19    7.20
  -2   3  -8   72.29    7.00
  -2   3  -8   69.19    7.30
   2  -3   8   54.79    6.80
   2  -3   8   53.79    8.10
   2  -3   8   51.39    7.80
  -3   3  -8   93.39    9.50
  -3   3  -8   96.59    9.70
  -3   3  -8   87.99    9.70
   3  -3   8  111.69   11.60
   3  -3   8  110.19   10.40
   3  -3   8  131.49   11.30
  -4   3  -8   44.20    6.80
  -4   3  -8   40.30    6.50
  -4   3  -8   43.00    6.60
   4  -3   8   39.90    7.00
   4  -3   8   36.40    7.30
   4  -3   8   45.40    8.10
  -5   3  -8   21.60    5.70
  -5   3  -8   17.30    5.60
  -5   3  -8   15.50    5.30
   5  -3   8   28.10    6.80
   5  -3   8   25.40    6.80
   5  -3   8   30.60    7.60
  -6   3  -8   56.49    8.50
  -6   3  -8   54.89    8.40
  -6   3  -8   56.49    8.90
   6  -3   8   59.99   10.20
   6  -3   8   53.99    9.00
   6  -3   8   67.09    9.50
  -7   3  -8   -1.50    4.80
  -7   3  -8    1.30    5.40
  -7   3  -8   -0.10    5.50
   7  -3   8    6.50    7.30
   7  -3   8    5.80    6.60
   8   2  -8   18.90    5.90
   8   2  -8   14.90    6.60
  -8  -2   8   24.00    8.30
  -8  -2   8   34.40    8.80
   7   2  -8    9.10    5.40
   7   2  -8    8.20    4.60
  -7  -2   8    9.60    6.80
  -7  -2   8    5.50    6.20
   6   2  -8  656.43   37.70
   6   2  -8  662.23   38.10
   6   2  -8  635.24   38.50
  -6  -2   8  568.34   40.10
  -6  -2   8  546.85   39.40
  -6  -2   8  547.05   37.60
   5   2  -8   50.09    6.40
   5   2  -8   44.30    6.40
   5   2  -8   50.99    6.60
  -5  -2   8   49.10    8.40
  -5  -2   8   41.70    7.20
  -5  -2   8   44.00    6.20
   4   2  -8  859.71   50.89
   4   2  -8  819.02   51.59
   4   2  -8  871.71   51.29
   4   2  -8  877.11   51.59
  -4  -2   8  823.12   52.39
  -4  -2   8  855.31   53.39
  -4  -2   8  864.51   50.99
  -4  -2   8  851.81   51.39
   3   2  -8  396.66   24.70
   3   2  -8  406.06   24.70
   3   2  -8  375.56   25.50
   3   2  -8  385.26   25.30
  -3  -2   8  402.16   26.00
  -3  -2   8  445.66   26.30
  -3  -2   8  417.66   27.40
   2   2  -8 1443.66   81.29
   2   2  -8 1290.47   81.79
   2   2  -8 1421.76   81.09
   2   2  -8 1376.66   81.69
  -2  -2   8 1386.56   83.19
  -2  -2   8 1439.56   81.99
  -2  -2   8 1370.76   82.89
  -2  -2   8 1384.96   81.29
   1   2  -8  362.66   25.20
   1   2  -8  369.36   24.30
   1   2  -8  350.96   25.00
  -1  -2   8  423.36   26.50
  -1  -2   8  440.46   24.80
  -1  -2   8  431.96   25.10
  -1  -2   8  449.56   26.90
   0   2  -8 2186.38  130.29
   0   2  -8 2179.98  131.09
   0   2  -8 2233.88  130.99
   0  -2   8 2357.66  130.79
   0  -2   8 2320.27  131.79
   0  -2   8 2151.08  130.99
   0  -2   8 2289.77  132.49
  -1   2  -8  439.56   28.20
  -1   2  -8  484.95   28.30
  -1   2  -8  452.95   27.40
   1  -2   8  413.76   29.20
   1  -2   8  452.05   28.40
   1  -2   8  432.76   28.40
  -2   2  -8  810.22   50.99
  -2   2  -8  777.32   51.59
  -2   2  -8  860.11   51.69
   2  -2   8  882.01   51.89
   2  -2   8  902.91   52.09
   2  -2   8  881.21   51.19
   2  -2   8  850.51   52.79
  -3   2  -8  370.86   23.80
  -3   2  -8  361.36   23.70
  -3   2  -8  380.06   23.40
   3  -2   8  346.37   24.20
   3  -2   8  321.07   24.40
   3  -2   8  342.07   23.80
  -4   2  -8  674.83   45.00
  -4   2  -8  669.63   44.90
  -4   2  -8  717.43   44.90
   4  -2   8  784.92   45.70
   4  -2   8  759.32   46.20
   4  -2   8  755.12   45.90
  -5   2  -8  213.28   16.00
  -5   2  -8  200.38   15.40
  -5   2  -8  217.88   15.80
   5  -2   8  173.88   16.20
   5  -2   8  182.48   16.10
   5  -2   8  171.78   16.70
  -6   2  -8   74.49    9.90
  -6   2  -8   83.09   10.50
  -6   2  -8   89.99   10.70
   6  -2   8   82.59   11.10
   6  -2   8   68.09   10.10
   6  -2   8   83.89   12.20
  -7   2  -8  154.48   15.00
  -7   2  -8  161.28   15.10
  -7   2  -8  156.48   14.50
   7  -2   8  142.39   15.80
   7  -2   8  151.68   16.50
   9   1  -8   11.80    6.70
   9   1  -8   12.30    6.10
  -9  -1   8   12.70    8.40
   8   1  -8  308.47   21.70
   8   1  -8  296.97   22.90
  -8  -1   8  306.67   24.70
  -8  -1   8  319.77   25.30
   7   1  -8   30.90    5.80
   7   1  -8   24.80    6.70
  -7  -1   8   47.20    8.80
  -7  -1   8   51.19    9.40
   6   1  -8  301.37   21.30
   6   1  -8  308.17   20.30
  -6  -1   8  293.37   22.40
  -6  -1   8  298.67   23.30
   5   1  -8   62.69    7.00
   5   1  -8   54.39    6.80
   5   1  -8   56.89    8.00
   5   1  -8   57.29    6.80
  -5  -1   8   83.69    9.40
  -5  -1   8   82.39    7.30
  -5  -1   8   91.89   11.00
   4   1  -8  595.44   35.20
   4   1  -8  591.04   34.70
   4   1  -8  556.64   35.70
   4   1  -8  600.14   34.80
  -4  -1   8  543.65   36.10
  -4  -1   8  556.94   34.70
  -4  -1   8  584.74   37.60
  -4  -1   8  565.44   35.20
   3   1  -8  173.08   14.20
   3   1  -8  186.98   13.80
   3   1  -8  186.18   13.10
   3   1  -8  182.38   13.50
  -3  -1   8  224.48   14.80
  -3  -1   8  235.98   14.90
  -3  -1   8  233.28   13.30
  -3  -1   8  230.28   16.50
   2   1  -8  368.86   20.10
   2   1  -8  354.56   21.60
   2   1  -8  361.46   20.90
   2   1  -8  360.66   21.10
  -2  -1   8  288.77   22.50
  -2  -1   8  290.47   21.90
  -2  -1   8  302.77   20.80
  -2  -1   8  316.17   21.00
   1   1  -8   12.50    3.40
   1   1  -8   13.40    3.10
   1   1  -8   15.60    3.30
   1   1  -8   13.30    2.10
  -1  -1   8    4.10    3.80
  -1  -1   8    6.20    3.70
   0   1  -8  341.27   19.40
   0   1  -8  344.37   20.40
   0   1  -8  333.77   20.80
   0  -1   8  306.17   21.70
   0  -1   8  277.17   20.40
   0  -1   8  290.57   21.10
  -1   1  -8   86.99    7.80
  -1   1  -8   92.69    6.80
  -1   1  -8   86.59    8.10
   1  -1   8   86.89    9.40
   1  -1   8   74.79    8.40
   1  -1   8   80.49    8.30
  -2   1  -8   58.29    6.30
  -2   1  -8   51.49    7.20
  -2   1  -8   51.89    7.10
   2  -1   8   65.09    8.00
   2  -1   8   76.19    8.60
   2  -1   8   67.79    8.20
   2  -1   8   76.29    7.10
  -3   1  -8  160.78   11.40
  -3   1  -8  147.69   11.60
  -3   1  -8  161.08   10.90
   3  -1   8  100.79   11.70
   3  -1   8  108.59   11.60
   3  -1   8   97.09   11.20
  -4   1  -8  136.79   12.50
  -4   1  -8  146.29   12.30
  -4   1  -8  144.09   12.90
   4  -1   8  173.88   14.30
   4  -1   8  164.68   13.90
   4  -1   8  166.48   13.80
  -5   1  -8   89.79    9.90
  -5   1  -8   77.19    9.20
  -5   1  -8   85.59    9.40
   5  -1   8   70.09    9.90
   5  -1   8   66.69    9.70
   5  -1   8   65.39    9.60
  -6   1  -8  114.89   11.90
  -6   1  -8  105.19   12.10
  -6   1  -8  120.59   11.70
   6  -1   8  109.29   14.30
   6  -1   8  105.69   13.10
   6  -1   8  112.89   13.40
  -7   1  -8  176.28   16.30
  -7   1  -8  156.68   15.60
  -7   1  -8  161.28   15.60
   7  -1   8  200.48   17.80
   7  -1   8  202.98   17.70
   9   0  -8   40.40    8.50
  -9   0   8   39.50   10.40
   8   0  -8   65.19    9.40
  -8   0   8   52.79    9.90
  -8   0   8   62.99   11.10
   7   0  -8  126.39   10.90
   7   0  -8  117.89   12.70
  -7   0   8  129.79   14.40
  -7   0   8  132.19   14.50
   6   0  -8  281.87   19.60
   6   0  -8  294.07   19.50
   6   0  -8  292.07   21.00
  -6   0   8  305.37   22.40
  -6   0   8  305.27   23.20
   5   0  -8   51.39    6.10
   5   0  -8   46.10    6.00
   5   0  -8   40.80    6.30
  -5   0   8   57.19    8.00
  -5   0   8   48.60    8.50
  -5   0   8   48.90    7.20
   4   0  -8  362.16   23.00
   4   0  -8  349.96   23.80
   4   0  -8  357.86   23.10
  -4   0   8  381.36   26.00
  -4   0   8  381.26   23.40
  -4   0   8  370.86   24.50
   3   0  -8   17.60    3.40
   3   0  -8   14.50    3.90
   3   0  -8   15.60    3.10
  -3   0   8   12.30    3.70
  -3   0   8   14.30    5.20
  -3   0   8   14.90    3.70
   2   0  -8 1082.09   65.09
   2   0  -8 1095.69   64.59
   2   0  -8 1091.19   63.59
   2   0  -8 1072.19   64.39
  -2   0   8 1077.79   66.39
  -2   0   8 1078.69   65.39
  -2   0   8 1109.09   63.99
  -2   0   8 1127.49   64.59
  -2   0   8 1103.69   64.59
   1   0  -8  360.96   22.90
   1   0  -8  357.16   22.60
   1   0  -8  347.07   23.20
  -1   0   8  379.26   24.50
  -1   0   8  370.76   24.10
  -1   0   8  370.66   23.10
  -1   0   8  362.36   22.20
   0   0  -8 1566.94   94.89
   0   0  -8 1615.84   94.49
   0   0  -8 1656.53   93.39
   0   0   8 1661.83   95.69
   0   0   8 1582.14   94.79
   0   0   8 1581.04   93.29
   0   0   8 1633.64   95.89
  -1   0  -8  660.63   38.30
  -1   0  -8  617.24   39.60
  -1   0  -8  646.74   39.30
   1   0   8  648.94   40.50
   1   0   8  645.54   39.60
   1   0   8  645.54   39.80
  -2   0  -8  521.55   31.60
  -2   0  -8  514.05   32.40
  -2   0  -8  482.55   32.50
   2   0   8  545.35   32.20
   2   0   8  524.55   33.10
   2   0   8  523.65   33.00
   2   0   8  509.25   33.30
  -3   0  -8  915.11   54.89
  -3   0  -8  865.31   55.69
  -3   0  -8  941.21   55.49
   3   0   8  942.41   56.19
   3   0   8  908.11   55.89
   3   0   8  925.01   56.29
  -4   0  -8  477.85   30.80
  -4   0  -8  490.35   30.40
  -4   0  -8  442.76   31.00
   4   0   8  495.55   31.60
   4   0   8  473.55   31.50
   4   0   8  486.65   31.70
  -5   0  -8  309.77   21.70
  -5   0  -8  300.97   21.40
  -5   0  -8  301.97   22.10
   5   0   8  313.07   22.90
   5   0   8  316.57   22.70
   5   0   8  309.37   22.20
  -6   0  -8    7.20    4.90
  -6   0  -8    8.70    5.50
  -6   0  -8    8.80    5.10
   6   0   8    9.40    6.30
   6   0   8    8.90    6.30
  -7   0  -8  304.27   23.90
  -7   0  -8  307.77   23.30
  -7   0  -8  323.07   23.50
   7   0   8  322.87   24.70
   7   0   8  326.57   24.90
   9  -1  -8    5.20    6.50
  -9   1   8   17.20    8.40
   8  -1  -8  318.37   23.10
  -8   1   8  295.67   24.90
  -8   1   8  312.97   24.30
   7  -1  -8   49.80    8.20
   7  -1  -8   40.20    6.90
  -7   1   8   30.10    7.70
  -7   1   8   33.10    8.10
   6  -1  -8  278.37   19.90
   6  -1  -8  297.67   21.10
   6  -1  -8  293.17   19.30
  -6   1   8  317.97   22.50
  -6   1   8  300.47   22.90
   5  -1  -8   80.29    7.70
   5  -1  -8   80.29    8.40
   5  -1  -8   81.89    7.00
  -5   1   8   62.69    6.80
  -5   1   8   49.10    8.90
  -5   1   8   59.09    9.00
   4  -1  -8  532.65   34.50
   4  -1  -8  549.45   35.10
   4  -1  -8  553.44   35.70
  -4   1   8  615.34   35.40
  -4   1   8  596.34   37.80
  -4   1   8  604.54   36.40
   3  -1  -8  210.18   13.20
   3  -1  -8  207.88   13.90
   3  -1  -8  229.48   14.80
  -3   1   8  177.88   15.80
  -3   1   8  193.58   14.20
  -3   1   8  182.78   14.10
   2  -1  -8  297.07   20.70
   2  -1  -8  286.67   19.70
   2  -1  -8  280.37   20.30
  -2   1   8  367.96   20.50
  -2   1   8  366.36   21.50
   1  -1  -8    5.00    2.80
   1  -1  -8    6.60    3.10
  -1   1   8   11.50    3.30
  -1   1   8   13.20    4.10
  -1   1   8   10.10    4.20
  -1   1   8   13.90    2.70
   0  -1  -8  271.67   19.80
   0  -1  -8  275.27   19.90
   0  -1  -8  278.57   19.30
   0   1   8  309.27   20.90
   0   1   8  353.36   20.40
   0   1   8  334.27   21.10
   0   1   8  321.97   18.50
  -1  -1  -8   78.99    8.00
  -1  -1  -8   80.39    7.70
  -1  -1  -8   85.79    6.40
   1   1   8   96.19    8.60
   1   1   8   88.99    8.70
   1   1   8   93.39    9.20
  -2  -1  -8   67.39    7.40
  -2  -1  -8   69.99    7.10
  -2  -1  -8   69.49    6.00
   2   1   8   64.59    8.20
   2   1   8   59.29    7.00
   2   1   8   56.99    8.30
   2   1   8   60.59    8.00
  -3  -1  -8  110.19   10.40
  -3  -1  -8  103.19   10.90
  -3  -1  -8  104.19    9.60
   3   1   8  164.58   12.50
   3   1   8  153.38   12.20
   3   1   8  153.68   12.10
  -4  -1  -8  169.18   12.10
  -4  -1  -8  157.58   12.70
  -4  -1  -8  152.68   13.00
   4   1   8  137.79   13.50
   4   1   8  143.89   13.60
   4   1   8  145.89   13.30
  -5  -1  -8   61.19    9.50
  -5  -1  -8   71.99    8.80
  -5  -1  -8   68.79    9.10
   5   1   8   86.09   10.30
   5   1   8   93.99   11.20
   5   1   8   94.59   11.20
  -6  -1  -8  114.39   11.50
  -6  -1  -8  100.59   12.10
  -6  -1  -8  105.69   11.20
   6   1   8  105.99   13.30
   6   1   8  104.99   12.90
  -7  -1  -8  207.38   16.80
  -7  -1  -8  195.68   17.60
  -7  -1  -8  200.18   16.80
   7   1   8  177.88   18.30
   7   1   8  189.88   18.30
   8  -2  -8   26.00    7.30
  -8   2   8   20.30    7.50
  -8   2   8   17.20    7.80
   7  -2  -8    6.90    5.40
   7  -2  -8    5.60    4.70
  -7   2   8    8.20    6.20
  -7   2   8    8.40    6.10
   6  -2  -8  555.04   37.60
   6  -2  -8  571.74   38.40
  -6   2   8  635.54   39.80
  -6   2   8  673.03   40.70
   5  -2  -8   46.20    6.30
   5  -2  -8   53.09    6.30
   5  -2  -8   50.99    7.60
  -5   2   8   45.20    6.30
  -5   2   8   55.89    8.90
  -5   2   8   53.19    8.00
   4  -2  -8  787.42   49.90
   4  -2  -8  814.02   48.90
   4  -2  -8  825.92   50.29
  -4   2   8  831.92   52.19
  -4   2   8  877.51   51.09
  -4   2   8  834.82   49.90
   3  -2  -8  423.26   26.60
   3  -2  -8  422.86   25.50
   3  -2  -8  446.96   27.00
  -3   2   8  426.06   26.90
  -3   2   8  395.26   28.40
  -3   2   8  408.46   26.80
   2  -2  -8 1346.27   82.69
   2  -2  -8 1404.96   81.89
   2  -2  -8 1419.86   83.09
  -2   2   8 1448.06   83.39
  -2   2   8 1382.56   84.39
  -2   2   8 1422.16   82.69
   1  -2  -8  440.56   24.30
   1  -2  -8  417.06   25.20
   1  -2  -8  412.06   25.00
  -1   2   8  360.86   26.10
  -1   2   8  395.06   25.70
  -1   2   8  379.16   25.00
  -1   2   8  354.76   24.20
   0  -2  -8 2262.57  129.99
   0  -2  -8 2261.67  129.19
   0  -2  -8 2189.88  129.79
   0   2   8 2180.58  130.59
   0   2   8 2144.99  128.69
   0   2   8 2253.87  129.99
   0   2   8 2253.97  130.69
  -1  -2  -8  425.56   28.30
  -1  -2  -8  431.96   27.60
  -1  -2  -8  434.26   26.50
   1   2   8  472.15   28.60
   1   2   8  472.65   28.60
   1   2   8  433.66   29.10
  -2  -2  -8  917.51   50.09
  -2  -2  -8  885.31   51.59
  -2  -2  -8  904.31   50.99
   2   2   8  797.32   51.59
   2   2   8  783.62   51.89
   2   2   8  767.02   51.39
   2   2   8  841.72   50.99
  -3  -2  -8  346.87   22.90
  -3  -2  -8  337.37   24.20
  -3  -2  -8  353.46   23.60
   3   2   8  368.66   24.90
   3   2   8  386.86   23.30
   3   2   8  370.36   24.70
   3   2   8  354.86   24.50
  -4  -2  -8  754.52   45.10
  -4  -2  -8  774.22   45.80
  -4  -2  -8  768.32   44.70
   4   2   8  693.63   45.80
   4   2   8  696.93   45.70
   4   2   8  679.53   45.60
  -5  -2  -8  197.98   15.20
  -5  -2  -8  179.68   15.20
  -5  -2  -8  186.98   16.00
   5   2   8  191.48   16.60
   5   2   8  213.18   17.00
   5   2   8  218.88   16.60
  -6  -2  -8   79.39   10.30
  -6  -2  -8   78.39   10.10
  -6  -2  -8   76.69   11.00
   6   2   8   84.19   12.00
   6   2   8   81.19   11.90
  -7  -2  -8  156.08   14.90
  -7  -2  -8  152.18   15.70
  -7  -2  -8  150.48   14.70
   7   2   8  152.88   16.50
   7   2   8  164.78   16.30
   8  -3  -8   75.89   10.70
   8  -3  -8   76.99   11.50
  -8   3   8   78.99   12.00
   7  -3  -8   16.10    5.70
   7  -3  -8   22.60    6.60
  -7   3   8   15.50    6.70
  -7   3   8   15.40    7.10
   6  -3  -8  139.09   12.80
   6  -3  -8  140.79   12.40
  -6   3   8  141.99   14.30
  -6   3   8  138.39   14.00
   5  -3  -8   23.20    5.00
   5  -3  -8   26.90    5.40
   5  -3  -8   25.60    4.60
  -5   3   8   16.80    4.40
  -5   3   8   13.20    5.40
  -5   3   8   12.40    6.00
   4  -3  -8  146.69   11.10
   4  -3  -8  137.29   10.90
  -4   3   8  113.89   10.20
  -4   3   8  116.39   11.30
  -4   3   8  118.19   12.90
   3  -3  -8   98.59    7.00
   3  -3  -8  101.39    8.70
   3  -3  -8  112.09    9.00
  -3   3   8   64.79    8.20
  -3   3   8   63.09   10.00
   2  -3  -8   63.39    7.30
   2  -3  -8   76.39    7.50
   2  -3  -8   67.99    5.50
  -2   3   8   73.99    8.00
  -2   3   8   68.09    7.10
  -2   3   8   64.29    8.80
  -1   3   8   67.99    8.60
  -1   3   8   71.49    7.50
  -1   3   8   60.29    7.70
  -1   3   8   67.69    6.50
   0  -3  -8  645.84   41.10
   0  -3  -8  656.83   40.20
   0  -3  -8  655.43   41.20
   0   3   8  695.43   40.40
   0   3   8  679.93   42.10
   0   3   8  709.83   41.40
   0   3   8  668.83   41.90
   1   3   8   75.79    8.50
   1   3   8   72.99    7.80
   1   3   8   70.59    6.30
   1   3   8   76.49    8.50
  -2  -3  -8   57.99    7.40
  -2  -3  -8   49.20    6.40
  -2  -3  -8   55.59    5.70
   2   3   8   66.09    8.40
   2   3   8   68.29    8.20
   2   3   8   71.19    7.80
   2   3   8   67.69    8.00
  -3  -3  -8  111.99   10.20
  -3  -3  -8  110.89    8.70
  -3  -3  -8  103.79    9.20
   3   3   8   90.39   10.50
   3   3   8   97.79    9.50
   3   3   8   90.09   10.60
   3   3   8   92.39   10.60
  -4  -3  -8   35.90    6.60
  -4  -3  -8   33.70    5.80
  -4  -3  -8   43.80    6.30
   4   3   8   29.50    6.80
   4   3   8   28.90    6.80
   4   3   8   34.30    7.10
  -5  -3  -8   23.80    5.80
  -5  -3  -8   24.40    5.50
  -5  -3  -8   22.70    6.20
   5   3   8   24.70    6.90
   5   3   8   12.60    6.20
   5   3   8   13.50    5.90
  -6  -3  -8   63.39    9.30
  -6  -3  -8   53.29    8.10
  -6  -3  -8   59.29    8.40
   6   3   8   49.00    9.20
   6   3   8   51.59    9.10
  -7  -3  -8    1.10    5.90
  -7  -3  -8    2.40    5.20
  -7  -3  -8    7.50    5.60
   7   3   8    2.50    6.70
   7   3   8   -5.40    6.30
   8  -4  -8  134.49   13.60
   8  -4  -8  133.69   13.80
  -8   4   8  106.09   15.10
   7  -4  -8    0.30    5.20
   7  -4  -8    7.50    5.70
  -7   4   8    7.50    6.50
  -7   4   8    7.30    6.10
   6  -4  -8  652.83   42.10
   6  -4  -8  687.53   42.50
  -6   4   8  676.83   43.90
  -6   4   8  669.63   43.80
   5  -4  -8   20.90    5.20
   5  -4  -8   19.50    4.80
   5  -4  -8   20.50    5.10
  -5   4   8   28.20    5.30
  -5   4   8   25.40    6.40
  -5   4   8   38.50    7.80
   4  -4  -8  675.73   41.30
   4  -4  -8  653.63   41.20
   4  -4  -8  681.13   41.40
  -4   4   8  674.23   42.20
  -4   4   8  655.23   43.20
  -4   4   8  667.13   41.30
   3  -4  -8   75.19    8.40
   3  -4  -8   70.39    8.50
  -3   4   8   93.49    9.10
  -3   4   8   95.49    9.00
  -3   4   8   98.89   10.70
   2  -4  -8  645.04   37.00
   2  -4  -8  579.44   36.80
  -2   4   8  544.25   38.20
  -2   4   8  600.84   37.00
  -2   4   8  610.64   37.40
   1  -4  -8    6.30    3.30
   1  -4  -8    5.10    3.30
   1  -4  -8    9.50    2.30
  -1   4   8   25.10    5.80
   0  -4  -8  325.37   22.50
   0  -4  -8  314.57   22.40
   0  -4  -8  333.17   21.40
   0   4   8  367.86   22.10
   0   4   8  355.86   23.40
   0   4   8  358.96   23.90
   0   4   8  357.86   22.90
  -1  -4  -8  389.56   24.50
  -1  -4  -8  387.46   25.40
  -1  -4  -8  396.26   25.50
   1   4   8  381.16   24.40
   1   4   8  411.56   26.40
   1   4   8  387.26   25.60
   1   4   8  379.86   26.20
  -2  -4  -8   70.29    6.90
  -2  -4  -8   56.99    7.60
  -2  -4  -8   64.69    8.00
   2   4   8   55.79    8.10
   2   4   8   56.49    8.70
   2   4   8   59.49    7.90
  -3  -4  -8  728.43   43.10
  -3  -4  -8  810.82   43.60
  -3  -4  -8  795.02   44.50
   3   4   8  655.23   44.10
   3   4   8  622.44   44.00
   3   4   8  676.83   43.50
   3   4   8  644.54   44.30
  -4  -4  -8  137.59   12.10
  -4  -4  -8  137.99   13.00
  -4  -4  -8  128.19   11.40
   4   4   8  142.89   13.90
   4   4   8  163.58   13.70
   4   4   8  156.38   13.60
  -5  -4  -8  544.95   33.70
  -5  -4  -8  537.95   33.90
  -5  -4  -8  544.25   34.60
   5   4   8  496.65   34.70
   5   4   8  484.65   34.10
   5   4   8  505.65   34.80
  -6  -4  -8   44.40    7.60
  -6  -4  -8   36.70    7.90
  -6  -4  -8   40.10    7.40
   6   4   8   29.10    8.00
   6   4   8   36.40    8.60
  -7  -4  -8  216.98   18.30
  -7  -4  -8  211.08   18.20
  -7  -4  -8  235.18   19.40
   7   4   8  214.78   19.50
   7   4   8  214.58   19.80
   8  -5  -8  113.39   13.10
   8  -5  -8  109.29   13.00
  -8   5   8  103.49   15.30
   7  -5  -8   86.29   10.80
   7  -5  -8   97.69   11.90
  -7   5   8   62.49   11.00
  -7   5   8   71.39   10.80
   6  -5  -8  344.17   23.10
   6  -5  -8  304.57   23.00
  -6   5   8  329.07   24.90
  -6   5   8  333.97   24.70
   5  -5  -8   37.00    6.60
   5  -5  -8   41.10    6.50
   5  -5  -8   31.40    6.00
  -5   5   8   46.60    8.40
  -5   5   8   42.30    7.80
  -5   5   8   42.10    6.70
   4  -5  -8  455.65   29.50
   4  -5  -8  454.05   29.10
   4  -5  -8  446.16   29.60
  -4   5   8  451.75   31.30
  -4   5   8  460.55   30.40
  -4   5   8  464.25   29.60
   3  -5  -8   30.60    5.70
   3  -5  -8   25.10    5.40
   3  -5  -8   31.70    5.30
  -3   5   8   45.80    6.60
  -3   5   8   45.60    6.60
  -3   5   8   47.30    8.00
   2  -5  -8  272.17   20.10
   2  -5  -8  274.77   19.70
   2  -5  -8  282.07   19.30
  -2   5   8  305.47   20.00
  -2   5   8  296.77   21.80
  -2   5   8  313.67   20.50
  -1   5   8   22.90    6.20
  -1   5   8   31.70    6.00
  -1   5   8   28.30    5.00
   0  -5  -8  186.98   12.80
   0  -5  -8  176.18   12.90
   0   5   8  151.58   13.20
   0   5   8  153.78   12.40
   0   5   8  151.28   13.90
   0   5   8  159.08   12.80
  -1  -5  -8  178.28   14.20
  -1  -5  -8  177.08   14.30
  -1  -5  -8  168.48   12.90
   1   5   8  203.58   13.90
   1   5   8  203.18   14.80
   1   5   8  203.68   15.40
   1   5   8  203.78   15.60
  -2  -5  -8    2.00    3.70
  -2  -5  -8    4.10    3.00
  -2  -5  -8    3.00    3.80
   2   5   8    2.50    4.40
   2   5   8    6.10    5.70
   2   5   8   -0.60    4.60
   2   5   8    4.60    4.40
  -3  -5  -8   65.19    8.50
  -3  -5  -8   84.79    7.90
  -3  -5  -8   77.19    9.00
   3   5   8   56.19    8.30
   3   5   8   61.39    9.20
   3   5   8   55.19    8.60
   3   5   8   64.19    9.00
  -4  -5  -8   43.00    7.30
  -4  -5  -8   36.30    6.00
   4   5   8   28.10    6.80
   4   5   8   35.70    7.40
   4   5   8   26.90    6.90
  -5  -5  -8  146.39   13.20
  -5  -5  -8  138.79   12.30
  -5  -5  -8  120.89   14.20
   5   5   8  108.39   13.50
   5   5   8  107.59   13.20
  -6  -5  -8   39.20    7.60
  -6  -5  -8   38.80    7.90
  -6  -5  -8   37.80    8.30
   6   5   8   33.80    8.50
   6   5   8   30.00    8.10
   7  -6  -8   39.70    8.10
   7  -6  -8   32.60    7.30
  -7   6   8   28.30    8.10
  -7   6   8   29.30    8.80
   6  -6  -8   71.79   10.50
   6  -6  -8   73.09    9.90
  -6   6   8   88.09   12.10
  -6   6   8   73.39   11.00
   5  -6  -8    4.50    5.00
   5  -6  -8    8.50    4.90
   5  -6  -8   16.00    5.00
  -5   6   8    4.30    5.70
  -5   6   8    1.20    5.40
  -5   6   8    9.00    5.00
   4  -6  -8  131.69   12.50
   4  -6  -8  144.09   12.00
   4  -6  -8  141.59   12.80
  -4   6   8  153.38   13.90
  -4   6   8  144.39   14.70
  -4   6   8  158.28   13.20
   3  -6  -8  127.89   11.60
   3  -6  -8  136.29   10.50
   3  -6  -8  118.99   11.20
  -3   6   8  113.19   11.60
  -3   6   8  114.49   13.30
  -3   6   8  110.79   11.70
   2  -6  -8  709.63   45.90
   2  -6  -8  799.12   45.90
   2  -6  -8  763.52   45.10
  -2   6   8  687.03   47.20
  -2   6   8  731.33   45.90
  -2   6   8  736.63   46.20
   1  -6  -8  385.16   23.40
   1  -6  -8  369.66   24.50
   1  -6  -8  374.06   23.80
  -1   6   8  310.87   25.00
  -1   6   8  336.17   23.70
  -1   6   8  344.87   24.30
   0  -6  -8  615.74   38.20
   0  -6  -8  609.34   39.30
   0  -6  -8  620.74   38.80
   0   6   8  621.74   39.40
   0   6   8  638.04   38.50
   0   6   8  600.74   39.90
  -1  -6  -8  166.38   13.30
  -1  -6  -8  162.78   13.00
   1   6   8  162.88   13.70
   1   6   8  173.68   15.20
   1   6   8  164.88   14.30
   1   6   8  169.48   13.20
  -2  -6  -8  571.54   34.90
  -2  -6  -8  563.54   35.90
  -2  -6  -8  592.14   36.10
   2   6   8  575.74   37.00
   2   6   8  550.64   36.10
   2   6   8  553.04   35.60
   2   6   8  547.25   36.60
  -3  -6  -8   94.29   10.20
  -3  -6  -8   93.39   10.20
  -3  -6  -8   98.49    9.10
   3   6   8   88.39   10.60
   3   6   8   93.49   11.10
   3   6   8   82.89   11.00
   3   6   8   81.69   10.80
  -4  -6  -8  190.88   16.10
  -4  -6  -8  200.38   15.40
  -4  -6  -8  193.48   16.20
   4   6   8  210.38   16.90
   4   6   8  206.28   17.00
   4   6   8  191.68   16.50
  -5  -6  -8   70.69    9.40
  -5  -6  -8   63.39    9.50
  -5  -6  -8   69.39   10.30
   5   6   8   78.39   11.50
   5   6   8   84.59   10.90
  -6  -6  -8    0.50    4.90
  -6  -6  -8    2.70    5.30
  -6  -6  -8    1.60    5.50
   6   6   8    1.70    6.50
   6   6   8    5.60    6.80
   7  -7  -8   30.80    8.00
  -7   7   8   19.40    8.40
  -7   7   8   25.10    8.00
   6  -7  -8  110.19   13.80
   6  -7  -8  110.89   12.70
  -6   7   8  123.29   14.00
  -6   7   8   99.59   14.20
   5  -7  -8   68.99    9.50
   5  -7  -8   72.09    8.90
   5  -7  -8   67.39    9.10
  -5   7   8   65.39   10.20
  -5   7   8   52.99    9.50
   4  -7  -8   53.79    7.60
   4  -7  -8   43.70    7.60
   4  -7  -8   51.29    7.70
  -4   7   8   44.40    7.60
  -4   7   8   39.60    7.90
  -4   7   8   55.89    9.50
   3  -7  -8  222.98   15.90
   3  -7  -8  217.28   14.80
   3  -7  -8  196.88   15.90
  -3   7   8  181.78   16.10
  -3   7   8  174.18   17.40
  -3   7   8  176.88   16.00
   2  -7  -8    3.80    3.50
   2  -7  -8   -0.30    4.20
   2  -7  -8    3.30    4.30
  -2   7   8   -2.20    4.40
  -2   7   8    4.10    5.60
  -2   7   8    0.70    4.40
   1  -7  -8   97.39    9.80
   1  -7  -8  109.29    8.90
   1  -7  -8  103.19   10.30
  -1   7   8   75.29   11.70
  -1   7   8   71.09    9.70
  -1   7   8   67.89   10.30
   0  -7  -8    4.70    4.30
   0  -7  -8    4.20    4.60
   0  -7  -8    6.60    3.70
   0   7   8    4.60    5.90
   0   7   8    8.60    5.20
   0   7   8    8.70    4.70
  -1  -7  -8  297.37   18.70
  -1  -7  -8  290.67   19.30
  -1  -7  -8  267.67   19.70
   1   7   8  241.38   19.70
   1   7   8  230.98   18.80
   1   7   8  238.78   20.50
  -2  -7  -8   26.00    5.60
  -2  -7  -8   27.00    6.20
  -2  -7  -8   29.20    5.80
   2   7   8   32.00    7.20
   2   7   8   24.50    5.90
   2   7   8   25.20    6.20
   2   7   8   26.60    7.20
  -3  -7  -8   38.00    7.10
  -3  -7  -8   42.20    7.20
  -3  -7  -8   42.00    7.00
   3   7   8   22.40    6.50
  -4  -7  -8   29.80    5.90
  -4  -7  -8   22.70    5.90
  -4  -7  -8   24.60    6.20
  -4  -7  -8   25.30    6.40
   4   7   8   21.90    7.10
   4   7   8   21.80    6.60
   4   7   8   27.20    7.20
  -5  -7  -8   35.00    7.20
  -5  -7  -8   32.60    7.30
  -5  -7  -8   32.70    6.60
   5   7   8   12.20    6.80
   5   7   8   13.60    7.00
   6  -8  -8  138.29   17.10
   6  -8  -8  144.29   15.70
  -6   8   8  189.78   17.30
  -6   8   8  185.28   17.90
   5  -8  -8   15.80    6.20
   5  -8  -8   13.90    6.20
  -5   8   8   20.90    7.70
  -5   8   8   27.10    7.90
   4  -8  -8  257.67   19.90
   4  -8  -8  257.57   20.00
  -4   8   8  267.97   21.10
  -4   8   8  259.37   21.60
   3  -8  -8   18.00    5.90
   3  -8  -8   18.00    6.40
  -3   8   8   32.60    8.30
  -3   8   8   32.10    7.20
  -3   8   8   38.00    7.70
   2  -8  -8  341.17   24.90
   2  -8  -8  324.07   25.30
  -2   8   8  401.26   26.20
  -2   8   8  394.06   27.60
  -2   8   8  371.26   26.00
   1  -8  -8   40.10    7.10
   1  -8  -8   38.70    7.50
  -1   8   8   53.19    8.10
  -1   8   8   48.00    8.20
  -1   8   8   48.10    9.50
   0  -8  -8  201.18   17.50
   0  -8  -8  194.28   16.30
   0   8   8  244.58   17.90
   0   8   8  223.38   19.50
   0   8   8  227.78   18.00
  -1  -8  -8   44.10    7.40
  -1  -8  -8   43.20    8.00
   1   8   8   65.39    9.40
   1   8   8   50.99    7.90
   1   8   8   52.69    9.70
  -2  -8  -8  228.48   17.30
  -2  -8  -8  200.48   18.70
  -2  -8  -8  214.98   17.80
   2   8   8  227.58   18.60
   2   8   8  230.78   17.90
   2   8   8  221.58   19.40
  -3  -8  -8  208.78   17.30
  -3  -8  -8  189.98   17.40
  -3  -8  -8  215.78   17.80
  -3  -8  -8  222.98   16.90
   3   8   8  194.28   18.00
   3   8   8  216.38   17.30
   3   8   8  215.38   18.10
  -4  -8  -8   78.09   10.10
  -4  -8  -8   72.49   11.30
  -4  -8  -8   84.29   10.80
   4   8   8   86.79   11.70
   4   8   8   81.69   12.00
  -5  -8  -8   77.09   13.10
   5  -9  -8   34.50    8.00
   5  -9  -8   42.50    8.10
  -5   9   8   26.00    8.50
  -5   9   8   17.80    8.20
   4  -9  -8  118.89   13.30
   4  -9  -8  112.79   13.20
  -4   9   8  127.09   15.60
  -4   9   8  127.89   14.70
   3  -9  -8  182.68   15.40
   3  -9  -8  171.28   15.90
  -3   9   8  157.88   16.40
  -3   9   8  178.78   17.90
   2  -9  -8  132.99   14.00
   2  -9  -8  147.29   13.60
  -2   9   8  153.98   15.10
  -2   9   8  159.58   16.40
  -2   9   8  138.39   14.70
   1  -9  -8  161.28   14.00
   1  -9  -8  158.98   15.20
  -1   9   8  169.78   15.40
  -1   9   8  153.38   15.50
  -1   9   8  148.69   16.80
   0  -9  -8  115.89   12.00
   0  -9  -8  119.59   13.30
   0   9   8  126.09   13.30
   0   9   8  115.19   14.60
   0   9   8  128.59   13.50
  -1  -9  -8   86.29   11.30
  -1  -9  -8   77.69    9.80
   1   9   8   80.99   11.20
   1   9   8   59.89   10.90
   1   9   8   82.99   12.00
  -2  -9  -8    8.40    5.70
  -2  -9  -8    5.10    5.90
  -2  -9  -8    7.70    5.00
   2   9   8   -2.60    5.40
   2   9   8    4.80    6.40
   2   9   8    4.30    6.80
  -3  -9  -8  119.39   13.60
  -3  -9  -8  117.29   12.40
  -3  -9  -8  119.39   12.90
   3   9   8  122.79   14.20
   3   9   8  104.19   14.50
  -4  -9  -8   69.69   10.60
   4   9   8   60.39   10.60
   4 -10  -8   61.49    9.40
   4 -10  -8   67.49   10.50
  -4  10   8   57.79   10.70
  -4  10   8   67.99   11.80
   3 -10  -8   40.80    8.00
   3 -10  -8   44.60    8.60
  -3  10   8   43.40   10.20
  -3  10   8   39.00    9.20
   2 -10  -8   75.89   10.90
   2 -10  -8   72.89   11.60
  -2  10   8   82.79   12.60
  -2  10   8   80.79   12.30
   1 -10  -8   22.10    6.30
   1 -10  -8   20.30    7.20
  -1  10   8   17.20    7.40
  -1  10   8   27.00    8.60
   0 -10  -8   47.80    9.10
   0 -10  -8   51.19    7.80
   0  10   8   35.10    9.70
   0  10   8   35.00    8.70
   0  10   8   40.40    8.80
  -1 -10  -8  109.69   12.30
  -1 -10  -8  108.49   13.70
  -1 -10  -8  109.89   14.20
   1  10   8  122.19   14.50
   1  10   8  126.89   14.20
   1  10   8  116.49   15.80
  -2 -10  -8   41.60    7.40
  -2 -10  -8   48.30    9.20
  -2 -10  -8   47.20    9.00
   2  10   8   40.40    9.20
   2  10   8   36.30    9.90
   2  10   8   42.30    9.10
   3  10   8  141.49   17.00
   1 -11  -8  117.89   12.40
   1 -11  -8   97.69   13.00
  -1  11   8   70.59   12.80
  -1  11   8   78.59   12.30
   0 -11  -8   26.90    7.80
   0 -11  -8   22.70    8.40
   0 -11  -8   23.80    6.60
   0  11   8   18.50    9.10
   0  11   8   19.40    8.10
   3  10  -9    4.90    5.70
   3  10  -9    8.50    5.50
  -3 -10   9    5.80    7.00
   2  10  -9   27.20    6.60
   2  10  -9   36.00    7.80
  -2 -10   9   41.00    9.10
  -2 -10   9   45.00    8.90
   1  10  -9   75.69   10.00
   1  10  -9   63.99    8.70
  -1 -10   9   45.40    9.60
  -1 -10   9   49.00    9.40
   0  10  -9   55.39    8.50
   0  10  -9   60.69    9.60
   0 -10   9   65.99   10.60
   0 -10   9   59.89   10.00
  -1  10  -9   73.39   10.10
  -1  10  -9   64.49    9.80
   1 -10   9   70.09   11.40
   4   9  -9   30.60    7.10
   4   9  -9   28.40    6.80
  -4  -9   9   16.50    7.40
  -4  -9   9   24.70    8.50
   3   9  -9   45.10    7.90
   3   9  -9   44.70    7.50
  -3  -9   9   23.80    7.10
  -3  -9   9   30.90    8.70
  -3  -9   9   27.00    7.90
   2   9  -9   66.69    8.80
   2   9  -9   63.79    9.10
  -2  -9   9   72.89   11.10
  -2  -9   9   64.79   10.40
   1   9  -9  160.28   14.70
   1   9  -9  176.48   15.60
  -1  -9   9  194.38   16.80
  -1  -9   9  194.38   16.90
   0   9  -9  296.37   22.70
   0   9  -9  291.57   22.00
   0  -9   9  331.87   24.00
   0  -9   9  317.37   23.50
  -1   9  -9  152.18   14.20
  -1   9  -9  135.69   12.90
   1  -9   9  126.39   13.80
   1  -9   9  136.89   15.10
  -2   9  -9  167.28   16.30
  -2   9  -9  171.08   15.30
   2  -9   9  202.18   18.10
  -3   9  -9  206.98   18.40
  -3   9  -9  216.28   17.40
   3  -9   9  208.78   19.80
   5   8  -9   91.69   11.50
   5   8  -9   73.19   11.00
  -5  -8   9  101.19   13.70
  -5  -8   9   92.59   13.50
   4   8  -9   95.69   11.10
   4   8  -9   82.89   10.60
  -4  -8   9   97.69   12.70
  -4  -8   9   98.29   13.50
   3   8  -9  168.48   14.60
   3   8  -9  156.28   14.10
  -3  -8   9  167.58   16.60
  -3  -8   9  178.78   16.10
  -3  -8   9  180.98   15.70
   2   8  -9   12.50    5.10
   2   8  -9   10.30    5.10
  -2  -8   9   19.00    6.90
  -2  -8   9   24.80    6.70
   1   8  -9  253.77   18.30
   1   8  -9  229.08   17.80
  -1  -8   9  238.28   19.40
  -1  -8   9  237.88   19.40
   0   8  -9    6.90    4.50
   0   8  -9    7.70    4.70
   0  -8   9   12.70    6.20
   0  -8   9   17.20    6.50
  -1   8  -9  236.88   17.90
  -1   8  -9  250.27   17.70
   1  -8   9  208.98   17.80
   1  -8   9  205.08   19.00
  -2   8  -9    1.50    4.30
  -2   8  -9   -2.00    4.50
   2  -8   9    1.10    6.10
  -3   8  -9  156.18   13.80
  -3   8  -9  160.68   15.20
   3  -8   9  140.59   16.10
   3  -8   9  145.39   15.00
  -4   8  -9   10.30    6.30
  -4   8  -9    2.20    5.00
   4  -8   9   13.80    6.90
   4  -8   9   13.10    7.70
   6   7  -9   24.90    7.00
   6   7  -9   28.80    7.20
  -6  -7   9   17.50    8.20
  -6  -7   9   13.10    7.60
   5   7  -9  402.16   26.20
   5   7  -9  384.46   26.00
  -5  -7   9  335.07   27.40
  -5  -7   9  359.66   27.90
   4   7  -9   53.69    7.60
   4   7  -9   57.59    7.90
  -4  -7   9   43.60    8.60
  -4  -7   9   40.40    8.60
   3   7  -9  875.91   50.99
   3   7  -9  804.52   50.69
  -3  -7   9  805.32   51.89
  -3  -7   9  783.92   52.19
  -3  -7   9  842.02   51.99
   2   7  -9   23.90    5.40
   2   7  -9   22.90    5.30
  -2  -7   9   23.30    6.80
  -2  -7   9   12.20    6.60
  -2  -7   9   14.30    5.80
   1   7  -9  623.54   39.00
   1   7  -9  649.43   39.20
  -1  -7   9  594.64   40.00
  -1  -7   9  604.54   40.20
   0   7  -9  393.16   25.70
   0   7  -9  410.26   26.00
   0  -7   9  367.96   27.10
   0  -7   9  362.06   26.40
  -1   7  -9  250.17   18.00
  -1   7  -9  249.08   17.80
   1  -7   9  227.78   19.40
   1  -7   9  219.18   18.00
  -2   7  -9  161.88   14.10
  -2   7  -9  178.38   14.80
   2  -7   9  159.38   15.90
   2  -7   9  178.28   14.60
  -3   7  -9   36.30    7.00
  -3   7  -9   30.20    6.50
   3  -7   9   13.50    7.10
   3  -7   9   17.00    6.60
  -4   7  -9  104.89   12.70
  -4   7  -9  110.49   12.30
   4  -7   9  128.99   14.00
   4  -7   9  129.79   15.00
  -5   7  -9    4.70    5.30
  -5   7  -9   -2.00    5.40
   5  -7   9    3.00    6.70
   5  -7   9   -0.20    7.20
   7   6  -9   35.00    7.80
   7   6  -9   26.20    6.70
   7   6  -9   33.20    7.50
  -7  -6   9   29.80    7.20
  -7  -6   9   37.40    9.80
  -7  -6   9   20.90    8.70
   6   6  -9   12.60    5.90
   6   6  -9   12.50    5.10
   6   6  -9    9.20    5.60
  -6  -6   9   16.30    7.50
  -6  -6   9   22.00    5.90
  -6  -6   9   20.00    7.90
   5   6  -9   48.80    7.50
   5   6  -9   45.50    7.30
   5   6  -9   38.10    6.50
  -5  -6   9   39.10    8.40
  -5  -6   9   42.60    9.00
   4   6  -9   28.40    5.80
   4   6  -9   30.70    6.10
   4   6  -9   26.60    5.30
  -4  -6   9   40.40    8.40
  -4  -6   9   42.80    7.60
   3   6  -9  141.59   10.50
   3   6  -9  139.19   11.30
   3   6  -9  129.89   11.00
  -3  -6   9  102.39   12.70
  -3  -6   9  101.79   11.90
  -3  -6   9   93.79   11.50
   2   6  -9  129.29   12.20
   2   6  -9  137.59   12.00
   2   6  -9  135.49   11.70
  -2  -6   9  170.58   13.20
  -2  -6   9  166.78   14.30
  -2  -6   9  178.68   14.60
   1   6  -9   90.59    9.20
   1   6  -9  100.79    9.30
  -1  -6   9   85.49   10.60
  -1  -6   9   87.59   10.90
   0   6  -9  141.49   12.40
   0   6  -9  142.19   12.90
   0  -6   9  190.88   14.20
   0  -6   9  177.88   15.00
   1  -6   9   88.19   11.10
   1  -6   9   83.99    9.80
   1  -6   9   97.39    9.60
  -2   6  -9   78.69    9.80
  -2   6  -9   87.79   10.00
   2  -6   9  100.69   12.00
   2  -6   9  105.89   10.80
  -3   6  -9  242.08   18.20
  -3   6  -9  240.68   18.40
   3  -6   9  227.28   19.70
   3  -6   9  239.48   18.80
  -4   6  -9  225.58   18.40
  -4   6  -9  199.28   17.70
   4  -6   9  255.97   19.60
   4  -6   9  244.88   20.60
  -5   6  -9  226.78   18.70
  -5   6  -9  220.68   18.30
   5  -6   9  234.88   19.90
   5  -6   9  218.98   20.60
   7   5  -9   63.89    9.30
   7   5  -9   59.39   12.70
   7   5  -9   68.89    9.30
  -7  -5   9   89.29   13.60
  -7  -5   9   72.89   11.70
   6   5  -9   46.50    7.60
   6   5  -9   44.80    7.30
   6   5  -9   56.79    7.80
  -6  -5   9   35.80    6.70
  -6  -5   9   31.00    8.40
  -6  -5   9   46.00    9.80
   5   5  -9  271.27   19.90
   5   5  -9  275.07   20.00
   5   5  -9  290.37   20.00
  -5  -5   9  294.17   22.70
  -5  -5   9  275.37   21.80
   4   5  -9  185.38   14.90
   4   5  -9  194.98   15.30
   4   5  -9  192.48   15.10
  -4  -5   9  223.58   17.70
  -4  -5   9  216.48   17.10
  -4  -5   9  219.98   16.50
   3   5  -9  744.03   43.50
   3   5  -9  787.02   43.30
   3   5  -9  709.63   43.00
  -3  -5   9  644.74   43.90
  -3  -5   9  642.54   44.70
  -3  -5   9  684.13   44.50
   2   5  -9  110.79   10.70
   2   5  -9  112.59   10.10
   2   5  -9  104.09    9.90
  -2  -5   9  142.69   12.60
  -2  -5   9  149.49   12.70
  -2  -5   9  137.99   11.10
   1   5  -9  898.61   54.39
   1   5  -9  996.00   54.39
   1   5  -9  919.11   53.89
  -1  -5   9  866.01   55.79
  -1  -5   9  803.52   54.99
   0   5  -9    4.40    3.20
   0   5  -9    6.00    3.80
   0   5  -9    1.10    3.10
   0  -5   9    8.40    4.60
   0  -5   9    9.70    3.90
   0  -5   9    8.30    5.30
  -1   5  -9  811.02   46.90
  -1   5  -9  811.62   47.20
  -1   5  -9  788.62   47.40
   1  -5   9  690.43   47.10
   1  -5   9  765.42   47.10
   1  -5   9  738.83   48.70
  -2   5  -9   17.00    4.80
  -2   5  -9   17.40    4.60
  -2   5  -9   21.40    5.20
   2  -5   9   29.20    7.40
   2  -5   9   29.90    5.90
  -3   5  -9  127.69   11.50
  -3   5  -9  136.29   12.20
  -3   5  -9  129.29   12.10
   3  -5   9  125.09   14.20
   3  -5   9  129.99   13.00
  -4   5  -9   49.60    8.00
  -4   5  -9   51.39    8.20
  -4   5  -9   57.39    8.40
   4  -5   9   68.09    9.90
   4  -5   9   78.69   11.20
   4  -5   9   71.59    9.90
  -5   5  -9   36.70    7.10
  -5   5  -9   32.70    7.30
  -5   5  -9   35.10    7.00
   5  -5   9   47.60    9.60
   5  -5   9   43.20    8.90
   5  -5   9   51.79    8.30
  -6   5  -9   32.90    7.30
  -6   5  -9   37.90    8.00
   6  -5   9   36.70    9.20
   6  -5   9   42.20    9.70
   8   4  -9    3.80    5.60
   8   4  -9    5.40    5.90
  -8  -4   9    2.20    7.20
  -8  -4   9    4.00    8.00
   7   4  -9   39.60    7.50
   7   4  -9   41.30    7.50
  -7  -4   9   62.89   11.00
  -7  -4   9   53.69   10.40
   6   4  -9   25.80    6.10
   6   4  -9   24.40    6.00
   6   4  -9   32.20    6.60
  -6  -4   9   40.40    8.80
  -6  -4   9   31.00    7.90
   5   4  -9   26.80    5.40
   5   4  -9   24.50    5.30
   5   4  -9   25.70    5.50
  -5  -4   9   21.90    4.90
  -5  -4   9   23.80    6.70
  -5  -4   9   23.30    7.50
   4   4  -9   54.79    7.50
   4   4  -9   57.99    7.10
   4   4  -9   58.69    7.60
   3   4  -9  146.59   10.60
   3   4  -9  144.39   11.10
   3   4  -9  133.09   11.10
  -3  -4   9  122.99   11.50
  -3  -4   9  123.09   12.10
  -3  -4   9  117.79   12.60
   2   4  -9   72.59    7.20
   2   4  -9   70.09    7.70
   2   4  -9   69.89    7.90
  -2  -4   9   98.99   10.10
   1   4  -9  740.03   45.80
   1   4  -9  718.83   46.10
   1   4  -9  737.73   46.40
  -1  -4   9  748.33   47.30
  -1  -4   9  819.32   45.90
  -1  -4   9  806.82   48.20
   0   4  -9   73.29    7.50
   0   4  -9   73.09    7.20
   0   4  -9   71.69    7.90
  -1   4  -9  892.21   53.89
  -1   4  -9  845.42   54.29
  -1   4  -9  873.71   54.09
   1  -4   9  931.31   56.09
   1  -4   9  934.01   54.49
   1  -4   9  895.81   54.49
  -2   4  -9   14.60    4.40
  -2   4  -9   17.20    4.60
  -2   4  -9   14.80    4.30
   2  -4   9    5.10    4.00
   2  -4   9    8.30    4.60
   2  -4   9    8.30    5.60
  -3   4  -9  404.36   27.60
  -3   4  -9  411.46   27.60
  -3   4  -9  366.86   27.50
   3  -4   9  476.15   28.80
   3  -4   9  440.26   29.60
  -4   4  -9   51.49    7.50
  -4   4  -9   55.79    8.00
  -4   4  -9   56.59    7.60
   4  -4   9   39.70    8.70
   4  -4   9   30.00    7.10
   4  -4   9   34.60    7.60
  -5   4  -9  171.28   14.70
  -5   4  -9  179.18   14.80
  -5   4  -9  176.38   14.60
   5  -4   9  153.68   16.10
   5  -4   9  144.19   16.00
   5  -4   9  153.18   14.90
  -6   4  -9   21.10    6.90
  -6   4  -9   34.70    7.20
  -6   4  -9   35.40    7.40
   6  -4   9   25.50    7.60
   6  -4   9   20.00    7.70
   6  -4   9   30.70    8.70
   8   3  -9   52.49    8.30
   8   3  -9   41.80    8.40
  -8  -3   9   45.80   10.60
  -8  -3   9   42.00   10.00
   7   3  -9  645.64   40.40
   7   3  -9  636.54   41.20
  -7  -3   9  635.94   43.20
  -7  -3   9  634.74   43.70
   6   3  -9   76.69    9.70
   6   3  -9   75.79    9.00
  -6  -3   9   71.09   11.00
  -6  -3   9   71.49   10.60
   5   3  -9 1182.48   72.29
   5   3  -9 1173.98   71.09
   5   3  -9 1204.58   70.79
  -5  -3   9 1161.08   72.29
  -5  -3   9 1183.48   73.19
   4   3  -9  176.28   12.40
   4   3  -9  177.58   13.00
   4   3  -9  176.88   13.30
  -4  -3   9  162.98   15.50
  -4  -3   9  158.48   13.20
  -4  -3   9  155.98   13.90
   3   3  -9  416.56   23.80
   3   3  -9  407.76   24.60
   3   3  -9  414.16   24.50
  -3  -3   9  329.07   25.10
  -3  -3   9  353.46   26.20
  -3  -3   9  327.97   24.50
   2   3  -9   99.69    7.50
   2   3  -9   99.89    8.60
   2   3  -9   98.89    7.40
   2   3  -9   97.99    8.30
  -2  -3   9   76.39   10.00
  -2  -3   9   77.49    8.00
  -2  -3   9   72.09    7.20
  -2  -3   9   62.59    9.20
   1   3  -9  487.65   31.20
   1   3  -9  499.65   30.50
   1   3  -9  498.45   31.30
  -1  -3   9  522.45   30.90
  -1  -3   9  506.95   32.90
  -1  -3   9  485.45   32.50
   0   3  -9  166.98   12.40
   0   3  -9  147.79   11.30
   0   3  -9  153.98   12.10
   0  -3   9  168.58   13.40
   0  -3   9  171.18   12.40
   0  -3   9  163.88   14.30
  -1   3  -9  145.69   11.80
  -1   3  -9  156.38   12.00
  -1   3  -9  155.08   11.10
   1  -3   9  139.39   12.00
   1  -3   9  130.29   13.50
   1  -3   9  154.18   12.30
  -2   3  -9   33.60    5.90
  -2   3  -9   34.70    5.90
  -2   3  -9   38.10    5.60
   2  -3   9   51.69    8.20
   2  -3   9   49.00    7.00
   2  -3   9   61.89    8.20
  -3   3  -9  318.77   22.20
  -3   3  -9  317.97   22.60
  -3   3  -9  285.87   22.40
   3  -3   9  362.06   23.60
   3  -3   9  349.57   23.20
   3  -3   9  354.36   24.30
  -4   3  -9   77.79    9.60
  -4   3  -9   73.69    9.70
  -4   3  -9   81.89    9.30
   4  -3   9   83.49   11.50
   4  -3   9  103.89   11.70
   4  -3   9   86.79   10.70
  -5   3  -9  155.78   14.30
  -5   3  -9  151.98   14.30
  -5   3  -9  169.98   14.50
   5  -3   9  167.18   15.30
   5  -3   9  178.78   16.20
   5  -3   9  163.28   15.90
  -6   3  -9   27.30    6.90
  -6   3  -9   22.80    6.70
  -6   3  -9   33.30    7.10
   6  -3   9   21.60    8.10
   6  -3   9   24.40    7.80
   6  -3   9   30.10    8.00
  -7   3  -9    4.50    5.50
  -7   3  -9    7.70    6.00
  -7   3  -9    4.20    6.00
   7  -3   9    3.80    7.10
   7  -3   9   13.00    8.10
   8   2  -9   29.10    6.60
   8   2  -9   21.40    6.90
  -8  -2   9   26.90    9.00
  -8  -2   9   23.30    8.50
   7   2  -9   16.00    6.20
   7   2  -9   17.20    5.30
  -7  -2   9   17.40    7.70
  -7  -2   9   18.40    7.10
   6   2  -9  205.18   16.90
   6   2  -9  214.08   16.00
  -6  -2   9  239.58   19.90
  -6  -2   9  211.58   18.10
   5   2  -9   55.49    7.60
   5   2  -9   54.89    8.20
  -5  -2   9   78.49   11.00
  -5  -2   9   70.49    9.50
   4   2  -9   94.89    9.80
   4   2  -9   98.09    9.50
  -4  -2   9  120.79   10.90
  -4  -2   9  126.39   10.20
  -4  -2   9  141.49   13.40
   3   2  -9  208.78   16.40
   3   2  -9  205.48   16.30
   3   2  -9  216.68   15.90
   3   2  -9  224.28   15.30
  -3  -2   9  274.97   16.90
  -3  -2   9  257.67   17.30
  -3  -2   9  263.07   18.60
   2   2  -9   16.60    4.10
   2   2  -9   18.90    3.70
   2   2  -9   18.10    4.00
   2   2  -9   18.00    3.10
  -2  -2   9   27.80    5.50
  -2  -2   9   24.30    5.80
  -2  -2   9   32.20    4.10
   1   2  -9  225.68   14.80
   1   2  -9  204.68   15.10
   1   2  -9  213.18   14.90
   1   2  -9  216.78   13.80
  -1  -2   9  210.58   14.80
  -1  -2   9  211.88   16.40
  -1  -2   9  222.58   16.80
   0   2  -9  102.79    7.90
   0   2  -9  107.79    9.20
   0   2  -9  102.69    9.20
  -1   2  -9  654.73   39.60
  -1   2  -9  699.53   39.70
  -1   2  -9  666.23   38.60
   1  -2   9  614.84   39.60
   1  -2   9  575.24   40.50
   1  -2   9  611.14   39.70
  -2   2  -9  398.26   28.90
  -2   2  -9  442.16   29.00
  -2   2  -9  426.76   28.20
   2  -2   9  494.75   29.70
   2  -2   9  472.65   28.80
   2  -2   9  467.75   30.50
  -3   2  -9  517.35   31.40
  -3   2  -9  466.95   31.70
  -3   2  -9  515.85   32.10
   3  -2   9  466.95   32.80
   3  -2   9  496.35   32.30
   3  -2   9  498.05   32.50
  -4   2  -9   77.39    9.50
  -4   2  -9   81.09    9.10
  -4   2  -9   82.69    9.70
  -5   2  -9  283.57   21.60
  -5   2  -9  320.17   21.70
  -5   2  -9  293.07   21.70
   5  -2   9  300.27   22.40
   5  -2   9  281.77   22.60
   5  -2   9  319.17   23.20
  -6   2  -9  100.39   12.30
  -6   2  -9   88.89   11.80
  -6   2  -9  103.19   12.20
   6  -2   9  147.89   15.10
   6  -2   9  141.39   14.40
   6  -2   9  135.99   13.30
  -7   2  -9  248.58   19.70
  -7   2  -9  258.27   20.00
  -7   2  -9  234.68   20.00
   7  -2   9  237.68   21.50
   7  -2   9  248.08   21.30
   8   1  -9  200.58   17.90
   8   1  -9  205.58   16.40
  -8  -1   9  220.88   20.30
  -8  -1   9  223.58   20.60
   7   1  -9  201.98   14.80
   7   1  -9  187.18   16.40
  -7  -1   9  178.48   17.60
  -7  -1   9  180.88   18.60
   6   1  -9   77.69    9.80
   6   1  -9   74.79    8.20
  -6  -1   9   70.09   10.90
  -6  -1   9   70.99   10.60
   5   1  -9  577.34   35.60
   5   1  -9  540.45   36.30
  -5  -1   9  605.34   37.40
  -5  -1   9  583.24   38.90
   4   1  -9  108.59    8.70
   4   1  -9   99.29    9.70
   4   1  -9  107.99    8.50
  -4  -1   9   97.59    9.30
  -4  -1   9   97.59   12.10
  -4  -1   9   90.89    9.70
   3   1  -9 1009.40   61.09
   3   1  -9  982.10   61.79
   3   1  -9 1014.40   60.89
  -3  -1   9 1036.40   63.59
  -3  -1   9 1058.09   62.19
  -3  -1   9 1072.19   61.69
   2   1  -9   24.00    4.20
   2   1  -9   27.80    4.50
  -2  -1   9   45.20    6.60
  -2  -1   9   43.00    5.20
  -2  -1   9   37.00    6.60
  -2  -1   9   40.80    5.30
   1   1  -9 1391.76   85.99
   1   1  -9 1518.05   85.79
   1   1  -9 1456.35   85.59
  -1  -1   9 1425.16   87.09
  -1  -1   9 1455.45   87.09
  -1  -1   9 1491.25   85.19
  -1  -1   9 1442.66   85.69
   0   1  -9  722.53   45.10
   0   1  -9  728.13   43.90
   0   1  -9  692.53   45.40
   0  -1   9  768.02   45.50
   0  -1   9  803.02   46.80
   0  -1   9  762.22   46.20
  -1   1  -9  848.82   48.60
  -1   1  -9  805.62   48.80
  -1   1  -9  843.72   47.40
   1  -1   9  756.72   49.50
   1  -1   9  759.62   48.70
   1  -1   9  762.62   48.70
  -2   1  -9  246.08   17.90
  -2   1  -9  241.28   16.80
  -2   1  -9  213.98   17.80
   2  -1   9  264.37   19.10
   2  -1   9  274.17   17.60
   2  -1   9  287.27   18.80
  -3   1  -9  368.46   22.10
  -3   1  -9  376.46   22.90
  -3   1  -9  352.46   23.00
   3  -1   9  289.97   23.00
   3  -1   9  295.27   23.30
   3  -1   9  304.67   23.10
  -4   1  -9   55.49    7.60
  -4   1  -9   48.50    7.50
  -4   1  -9   44.30    6.50
   4  -1   9   52.09    8.20
   4  -1   9   47.90    7.80
   4  -1   9   54.09    8.60
  -5   1  -9  125.19   11.00
  -5   1  -9  120.39   11.30
  -5   1  -9  112.09   11.50
   5  -1   9   82.29   11.60
   5  -1   9   73.49   11.90
   5  -1   9   86.99   12.50
  -6   1  -9   96.29   11.70
  -6   1  -9   95.89   10.90
  -6   1  -9   90.89   11.00
   6  -1   9   96.29   14.70
   6  -1   9   85.89   13.00
   6  -1   9   92.09   13.00
  -7   1  -9    5.30    5.90
  -7   1  -9    6.00    5.50
  -7   1  -9    4.50    5.90
   7  -1   9   11.70    7.30
   7  -1   9   14.10    8.00
   8   0  -9   34.40    7.90
  -8   0   9   29.50    9.00
  -8   0   9   32.80    9.10
   7   0  -9   12.80    4.50
   7   0  -9   15.80    6.10
  -7   0   9   13.20    6.80
  -7   0   9   13.90    7.50
   6   0  -9    4.80    3.70
   6   0  -9    3.60    4.70
  -6   0   9    3.90    5.40
  -6   0   9    7.20    6.60
   5   0  -9   85.19    7.90
   5   0  -9   72.79    9.00
   5   0  -9   75.99    7.70
  -5   0   9   80.49   10.00
  -5   0   9   75.99   11.10
   4   0  -9   18.90    5.00
   4   0  -9   31.50    4.70
   4   0  -9   26.60    4.40
  -4   0   9   26.30    7.20
  -4   0   9   32.40    5.70
  -4   0   9   34.20    5.30
   3   0  -9  836.52   52.19
   3   0  -9  879.41   51.69
   3   0  -9  856.41   51.39
  -3   0   9  835.42   53.99
  -3   0   9  886.51   52.49
  -3   0   9  875.91   52.09
   2   0  -9    7.00    3.00
   2   0  -9    7.40    2.90
   2   0  -9    7.20    3.50
  -2   0   9    4.50    3.70
  -2   0   9    9.20    5.00
  -2   0   9    7.40    3.40
  -2   0   9    8.20    2.90
   1   0  -9  985.00   59.99
   1   0  -9 1006.40   59.39
   1   0  -9  997.10   59.59
  -1   0   9  979.90   58.59
  -1   0   9 1012.20   61.19
  -1   0   9 1033.80   59.79
  -1   0   9  985.10   60.89
   0   0  -9   55.99    7.00
   0   0  -9   65.49    6.40
   0   0   9   63.19    8.00
   0   0   9   53.39    8.40
   0   0   9   61.09    7.30
  -1   0  -9  630.34   40.00
  -1   0  -9  654.13   38.50
  -1   0  -9  626.84   39.50
   1   0   9  657.83   40.20
   1   0   9  631.84   40.90
   1   0   9  662.23   40.00
  -2   0  -9   12.20    4.40
  -2   0  -9   13.80    4.20
  -2   0  -9   13.50    3.30
   2   0   9   12.40    5.00
   2   0   9   17.80    5.50
   2   0   9   14.50    4.30
  -3   0  -9  798.62   51.99
  -3   0  -9  849.72   51.69
  -3   0  -9  845.32   50.79
   3   0   9  852.21   52.79
   3   0   9  840.12   52.29
   3   0   9  884.11   52.49
  -4   0  -9  109.99   11.50
  -4   0  -9  117.29   10.90
  -4   0  -9  118.89   10.50
   4   0   9  118.79   12.70
   4   0   9  126.19   12.50
   4   0   9  116.39   12.50
  -5   0  -9  193.68   15.00
  -5   0  -9  199.18   15.40
  -5   0  -9  176.38   15.80
   5   0   9  190.08   16.80
   5   0   9  195.08   16.90
   5   0   9  178.48   16.00
  -6   0  -9  160.38   14.40
  -6   0  -9  156.88   15.10
  -6   0  -9  166.48   14.90
   6   0   9  168.68   16.50
   6   0   9  164.58   16.50
  -7   0  -9  123.19   14.10
  -7   0  -9  114.79   13.30
  -7   0  -9  129.99   13.50
   7   0   9  123.79   15.70
   7   0   9  138.09   15.80
   8  -1  -9  214.88   18.20
  -8   1   9  219.68   20.10
  -8   1   9  200.18   19.50
   7  -1  -9  184.98   16.10
  -7   1   9  179.58   17.80
  -7   1   9  201.58   17.90
   6  -1  -9   78.79    9.90
   6  -1  -9   71.59    8.40
  -6   1   9   59.79   10.40
  -6   1   9   82.29   11.00
   5  -1  -9  551.54   35.60
   5  -1  -9  606.44   36.80
   5  -1  -9  599.14   35.20
  -5   1   9  581.04   37.20
  -5   1   9  572.64   35.50
  -5   1   9  533.15   38.50
   4  -1  -9   92.89    8.20
   4  -1  -9   98.19    9.00
   4  -1  -9   98.79    9.90
  -4   1   9  107.19   10.00
  -4   1   9  112.09    9.60
  -4   1   9  114.29   12.60
   3  -1  -9 1073.39   61.79
   3  -1  -9 1041.00   60.49
   3  -1  -9 1012.70   61.09
  -3   1   9 1052.39   61.79
  -3   1   9 1028.30   61.39
  -3   1   9  933.61   63.09
   2  -1  -9   37.80    5.40
   2  -1  -9   37.90    5.50
   2  -1  -9   35.60    4.60
  -2   1   9   19.30    6.00
  -2   1   9   24.90    5.20
  -2   1   9   24.10    4.60
  -2   1   9   24.80    4.10
   1  -1  -9 1427.46   84.49
   1  -1  -9 1447.46   85.39
   1  -1  -9 1410.36   85.09
  -1   1   9 1429.96   84.09
  -1   1   9 1457.15   86.19
  -1   1   9 1499.75   85.19
  -1   1   9 1417.06   86.29
   0  -1  -9  710.63   44.10
   0  -1  -9  764.12   43.40
   0  -1  -9  728.13   44.00
   0   1   9  718.23   44.00
   0   1   9  706.63   44.70
   0   1   9  675.73   44.80
  -1  -1  -9  742.43   47.50
  -1  -1  -9  693.63   47.90
   1   1   9  842.72   48.50
   1   1   9  875.61   48.50
   1   1   9  780.22   49.00
  -2  -1  -9  266.07   18.30
  -2  -1  -9  240.58   18.30
  -2  -1  -9  269.87   17.50
   2   1   9  245.88   17.40
   2   1   9  232.08   18.50
   2   1   9  234.18   18.30
  -3  -1  -9  289.77   20.70
  -3  -1  -9  263.07   21.90
  -3  -1  -9  292.47   21.60
   3   1   9  373.96   23.20
   3   1   9  373.16   23.50
   3   1   9  372.26   23.40
  -4  -1  -9   54.99    7.80
  -4  -1  -9   53.79    7.10
  -4  -1  -9   46.80    7.00
   4   1   9   50.39    8.00
   4   1   9   47.60    8.00
   4   1   9   51.49    8.30
  -5  -1  -9   85.49    9.90
  -5  -1  -9   73.79   10.70
  -5  -1  -9   79.49   10.00
   5   1   9  115.79   12.90
   5   1   9  127.69   13.00
   5   1   9  112.59   11.70
  -6  -1  -9   82.29   11.30
  -6  -1  -9   87.29   10.50
  -6  -1  -9   93.09   11.30
   6   1   9   88.49   13.10
   6   1   9   92.69   13.20
  -7  -1  -9   16.80    6.50
  -7  -1  -9   10.40    6.10
  -7  -1  -9    7.80    6.20
   7   1   9   10.50    7.60
   7   1   9    8.40    7.70
   8  -2  -9   29.80    7.80
  -8   2   9   26.00    8.00
  -8   2   9   20.30    8.10
   7  -2  -9   16.40    5.60
   7  -2  -9   14.40    6.10
  -7   2   9   11.80    7.20
  -7   2   9   13.10    6.90
   6  -2  -9  211.58   15.60
   6  -2  -9  212.28   16.60
  -6   2   9  193.78   18.50
  -6   2   9  197.48   17.40
   5  -2  -9   62.19    7.70
   5  -2  -9   68.59    8.80
  -5   2   9   45.70    9.20
  -5   2   9   54.79    8.30
  -5   2   9   50.59    7.00
   4  -2  -9  120.49   10.80
   4  -2  -9  117.89    8.70
   4  -2  -9  116.69   10.00
  -4   2   9  110.79   10.20
  -4   2   9  108.69   12.60
  -4   2   9  107.99   10.70
   3  -2  -9  246.88   15.10
   3  -2  -9  246.28   16.30
   3  -2  -9  262.77   16.80
  -3   2   9  223.18   16.70
  -3   2   9  199.48   16.10
  -3   2   9  211.88   18.30
   2  -2  -9   31.20    5.00
   2  -2  -9   31.80    5.20
   2  -2  -9   29.00    3.80
  -2   2   9   23.70    5.30
  -2   2   9   22.80    6.10
  -2   2   9   18.50    4.10
   1  -2  -9  219.88   15.50
   1  -2  -9  220.68   15.80
   1  -2  -9  213.28   14.60
  -1   2   9  229.48   15.90
  -1   2   9  210.88   14.60
  -1   2   9  229.58   17.30
  -1   2   9  237.88   16.90
   0  -2  -9  151.88   10.60
   0   2   9  115.89   10.60
   0   2   9   97.49   11.00
   0   2   9  115.69   11.30
  -1  -2  -9  628.34   39.60
  -1  -2  -9  597.64   40.10
  -1  -2  -9  620.64   40.30
   1   2   9  689.13   40.60
   1   2   9  699.73   40.60
  -2  -2  -9  479.35   29.50
  -2  -2  -9  490.35   28.60
   2   2   9  408.06   29.80
   2   2   9  405.56   29.20
   2   2   9  441.86   28.60
  -3  -2  -9  499.05   32.60
  -3  -2  -9  492.55   31.80
   3   2   9  486.25   32.90
   3   2   9  524.15   33.60
   3   2   9  504.55   33.00
  -4  -2  -9  135.89   12.50
  -4  -2  -9  129.39   11.40
  -4  -2  -9  136.39   10.60
   4   2   9   84.09   12.10
  -5  -2  -9  303.07   21.10
  -5  -2  -9  324.07   22.70
  -5  -2  -9  288.17   21.60
   5   2   9  309.07   22.60
   5   2   9  289.27   22.90
   5   2   9  308.27   23.20
  -6  -2  -9  142.79   13.10
  -6  -2  -9  142.09   12.60
  -6  -2  -9  128.89   13.60
   6   2   9  101.89   14.40
   6   2   9  107.09   14.30
  -7  -2  -9  249.97   20.80
  -7  -2  -9  249.18   20.00
  -7  -2  -9  230.98   19.40
   7   2   9  265.57   21.60
   7   2   9  252.07   21.80
   8  -3  -9   53.69    9.10
   8  -3  -9   49.50    8.40
  -8   3   9   47.60   10.20
  -8   3   9   40.50    9.30
   7  -3  -9  648.24   42.10
   7  -3  -9  628.34   41.40
  -7   3   9  649.34   43.50
  -7   3   9  688.23   43.90
   6  -3  -9   66.59    9.50
   6  -3  -9   65.99    8.70
  -6   3   9   58.29    9.30
  -6   3   9   61.39   10.20
   5  -3  -9 1115.59   69.29
   5  -3  -9 1114.39   69.49
   5  -3  -9 1172.18   70.09
  -5   3   9 1196.08   70.89
  -5   3   9 1133.99   72.09
  -5   3   9 1223.28   69.59
   4  -3  -9  154.08   12.90
   4  -3  -9  156.28   13.30
  -4   3   9  168.78   13.70
  -4   3   9  166.98   15.80
  -4   3   9  170.88   13.10
   3  -3  -9  334.37   25.80
  -3   3   9  418.06   26.30
  -3   3   9  426.26   28.50
  -3   3   9  433.86   26.60
   2  -3  -9   70.49    6.20
   2  -3  -9   68.99    8.20
   2  -3  -9   66.29    8.00
  -2   3   9  103.39    9.50
  -2   3   9   99.79   10.90
   1  -3  -9  484.35   31.40
   1  -3  -9  511.35   31.60
   1  -3  -9  499.05   30.20
  -1   3   9  489.15   30.70
  -1   3   9  512.35   31.70
  -1   3   9  499.45   33.10
  -1   3   9  498.15   32.30
   0  -3  -9  171.48   13.00
   0  -3  -9  173.98   11.70
   0  -3  -9  182.28   13.20
   0   3   9  157.68   12.10
   0   3   9  155.98   13.00
   0   3   9  161.08   13.90
   0   3   9  149.69   13.70
  -1  -3  -9  138.09   12.00
  -1  -3  -9  137.89   11.80
  -1  -3  -9  136.49   11.00
   1   3   9  155.28   12.70
   1   3   9  137.89   12.90
   1   3   9  156.28   12.40
  -2  -3  -9   48.30    6.40
  -2  -3  -9   50.79    7.20
   2   3   9   38.60    6.30
   2   3   9   36.70    6.70
   2   3   9   26.80    6.60
  -3  -3  -9  338.47   22.60
  -3  -3  -9  367.36   22.00
   3   3   9  288.77   22.80
   3   3   9  314.97   25.20
   3   3   9  306.97   23.00
   3   3   9  303.17   23.30
  -4  -3  -9   87.89    9.20
  -4  -3  -9   87.69   10.30
   4   3   9   71.29   10.80
   4   3   9   66.29    9.70
   4   3   9   67.79   10.50
  -5  -3  -9  150.78   13.30
  -5  -3  -9  155.88   14.50
   5   3   9  152.28   15.20
   5   3   9  138.19   14.40
   5   3   9  161.08   15.50
  -6  -3  -9   28.00    6.60
  -6  -3  -9   25.40    7.10
   6   3   9   26.30    8.20
   6   3   9   21.20    7.70
  -7  -3  -9   12.90    6.10
  -7  -3  -9   16.80    6.90
   7   3   9    5.80    7.30
   7   3   9    9.80    7.70
   8  -4  -9    4.30    5.80
   8  -4  -9    0.30    5.90
  -8   4   9    1.10    7.50
  -8   4   9    2.70    7.00
   7  -4  -9   60.19    9.00
   7  -4  -9   49.60    8.20
  -7   4   9   43.90    9.30
  -7   4   9   37.40    8.80
   6  -4  -9   37.40    7.00
   6  -4  -9   43.20    7.40
  -6   4   9   23.70    7.40
  -6   4   9   32.30    8.30
   5  -4  -9   21.60    5.20
   5  -4  -9   23.10    5.80
   5  -4  -9   25.50    5.70
  -5   4   9   28.00    6.60
  -5   4   9   21.90    5.40
  -5   4   9   21.90    7.50
   4  -4  -9   88.49    9.10
   4  -4  -9   87.79    9.20
   4  -4  -9   88.69    9.10
  -4   4   9   65.19   10.50
  -4   4   9   57.69    8.60
  -4   4   9   57.69    9.00
   3  -4  -9  116.39   11.30
   3  -4  -9  121.89   11.20
  -3   4   9  145.69   12.00
  -3   4   9  137.69   11.60
  -3   4   9  138.29   13.70
   2  -4  -9   97.79    9.20
   2  -4  -9  108.69    9.20
  -2   4   9   80.69    9.20
  -2   4   9   73.99    8.50
  -2   4   9   69.59   10.60
   1  -4  -9  790.72   45.90
   1  -4  -9  759.22   45.90
  -1   4   9  735.23   45.20
  -1   4   9  697.13   47.00
  -1   4   9  747.43   46.60
   0   4   9   61.49    9.40
   0   4   9   67.19    9.00
   0   4   9   61.99    8.40
   0   4   9   67.99    6.90
  -1  -4  -9  911.01   53.89
  -1  -4  -9  915.61   54.99
  -1  -4  -9  934.51   55.09
   1   4   9  897.21   55.49
   1   4   9  868.31   55.69
   1   4   9  868.61   54.99
  -2  -4  -9    4.70    3.40
  -2  -4  -9    6.40    4.50
  -2  -4  -9    6.20    4.40
   2   4   9   15.60    5.90
   2   4   9   11.30    4.90
   2   4   9   20.20    5.60
  -3  -4  -9  470.15   27.60
  -3  -4  -9  444.96   28.40
   3   4   9  401.96   27.70
   3   4   9  394.76   29.00
   3   4   9  388.16   28.50
   3   4   9  419.96   28.80
  -4  -4  -9   40.90    6.60
  -4  -4  -9   39.30    7.70
   4   4   9   69.69    9.40
   4   4   9   59.09    9.10
   4   4   9   61.59    9.20
  -5  -4  -9  158.68   14.40
  -5  -4  -9  167.28   15.60
   5   4   9  187.88   16.70
   5   4   9  175.38   15.90
   5   4   9  177.48   16.50
  -6  -4  -9   28.40    7.60
  -6  -4  -9   31.40    7.10
   6   4   9   39.90    9.00
   6   4   9   36.40    8.90
   7  -5  -9   78.99   11.70
   7  -5  -9   94.29   11.50
  -7   5   9   69.59   11.70
  -7   5   9   71.89   11.30
   6  -5  -9   38.00    7.30
   6  -5  -9   34.60    7.20
  -6   5   9   47.20    9.20
  -6   5   9   46.00    9.00
   5  -5  -9  291.57   20.30
   5  -5  -9  274.87   19.90
   5  -5  -9  294.87   20.10
  -5   5   9  267.07   21.10
  -5   5   9  253.67   22.00
  -5   5   9  273.57   20.00
   4  -5  -9  213.58   15.50
   4  -5  -9  211.98   15.80
   4  -5  -9  210.08   15.90
  -4   5   9  191.38   16.20
  -4   5   9  183.88   17.70
  -4   5   9  190.08   15.90
   3  -5  -9  647.74   43.50
   3  -5  -9  623.74   43.10
   3  -5  -9  674.23   43.10
  -3   5   9  753.42   45.80
  -3   5   9  734.53   43.80
  -3   5   9  759.52   44.00
   2  -5  -9  145.29   11.20
   2  -5  -9  136.09   11.20
  -2   5   9  110.59   13.10
  -2   5   9  109.59   10.80
  -2   5   9  117.19   11.80
   1  -5  -9  823.52   54.09
   1  -5  -9  829.52   54.39
  -1   5   9  934.11   56.29
  -1   5   9  933.11   54.29
  -1   5   9  960.10   55.49
   0  -5  -9    7.90    4.20
   0  -5  -9    9.60    4.10
   0   5   9    3.60    5.20
   0   5   9    3.20    3.50
   0   5   9    3.60    4.50
   0   5   9    7.90    4.40
  -1  -5  -9  737.73   46.40
  -1  -5  -9  722.63   47.40
  -1  -5  -9  712.33   47.30
   1   5   9  803.22   47.80
   1   5   9  814.32   48.60
   1   5   9  822.62   48.60
  -2  -5  -9   26.10    5.60
  -2  -5  -9   35.10    5.10
  -2  -5  -9   23.40    5.70
   2   5   9   18.80    5.80
   2   5   9   18.50    6.20
   2   5   9   16.70    6.20
  -3  -5  -9  125.79   12.40
  -3  -5  -9  138.89   11.30
  -3  -5  -9  125.59   12.50
   3   5   9  133.99   13.10
   3   5   9  126.39   13.20
   3   5   9  126.99   12.70
   3   5   9  124.39   13.30
  -4  -5  -9   60.89    9.00
  -4  -5  -9   78.29   10.20
  -4  -5  -9   84.49    8.80
   4   5   9   57.69    9.30
   4   5   9   55.19    9.30
   4   5   9   57.89    9.50
  -5  -5  -9   41.20    7.10
  -5  -5  -9   51.99    8.60
   5   5   9   26.20    7.90
   5   5   9   33.30    8.30
  -6  -5  -9   48.40    8.20
  -6  -5  -9   45.50    8.70
   6   5   9   35.80    9.20
   6   5   9   30.20    8.60
   7  -6  -9   38.50    8.20
   7  -6  -9   32.20    7.50
  -7   6   9   27.20    9.00
  -7   6   9   26.20    8.40
   6  -6  -9   14.20    5.80
   6  -6  -9   16.80    6.40
  -6   6   9    9.40    6.90
  -6   6   9   12.40    7.00
   5  -6  -9   46.50    7.20
   5  -6  -9   49.90    7.70
   5  -6  -9   34.90    6.90
  -5   6   9   40.90    8.30
  -5   6   9   40.10    7.30
  -5   6   9   34.80    8.70
   4  -6  -9   37.50    6.80
   4  -6  -9   47.70    6.70
   4  -6  -9   41.30    7.00
  -4   6   9   28.50    6.70
  -4   6   9   38.40    7.60
  -4   6   9   35.10    8.50
   3  -6  -9   93.69   10.90
   3  -6  -9  100.29   10.20
   3  -6  -9  101.79   10.80
  -3   6   9  139.49   11.80
   2  -6  -9  168.58   12.40
   2  -6  -9  165.28   13.60
   2  -6  -9  164.48   13.10
  -2   6   9  129.09   14.60
  -2   6   9  128.99   13.20
  -2   6   9  129.29   12.60
   1  -6  -9   91.29   10.00
   1  -6  -9   89.39    9.30
   1  -6  -9   92.89   10.60
  -1   6   9   92.29   12.20
  -1   6   9   95.99   11.00
  -1   6   9   87.89    9.80
   0   6   9  132.19   13.10
   0   6   9  132.29   13.70
   0   6   9  142.59   11.80
   1   6   9  169.78   15.70
   1   6   9  171.18   14.70
   1   6   9  175.88   15.50
  -2  -6  -9  107.39   10.70
  -2  -6  -9  117.29   10.90
   2   6   9   86.69   11.90
   2   6   9   84.49   10.80
   2   6   9   76.09   11.00
  -3  -6  -9  245.38   18.90
  -3  -6  -9  253.87   19.10
  -3  -6  -9  248.78   17.50
   3   6   9  247.08   19.90
   3   6   9  235.68   19.40
   3   6   9  251.07   19.40
  -4  -6  -9  242.58   18.50
  -4  -6  -9  228.88   18.10
  -4  -6  -9  243.88   17.20
   4   6   9  207.18   18.80
   4   6   9  201.08   18.70
   4   6   9  220.38   19.10
  -5  -6  -9  217.58   18.60
  -5  -6  -9  236.28   18.90
  -5  -6  -9  220.28   17.60
   5   6   9  241.18   19.90
   5   6   9  214.08   19.40
   6  -7  -9   15.50    6.60
   6  -7  -9   27.60    6.90
  -6   7   9   27.60    8.70
  -6   7   9   27.50    8.50
   5  -7  -9  346.57   24.60
   5  -7  -9  339.67   25.40
   5  -7  -9  324.37   25.30
  -5   7   9  386.16   28.00
  -5   7   9  404.16   26.00
  -5   7   9  376.06   27.20
   4  -7  -9   38.70    7.40
   4  -7  -9   38.40    6.60
   4  -7  -9   39.40    7.50
  -4   7   9   51.89    9.70
  -4   7   9   56.69    8.60
  -4   7   9   48.90    8.30
   3  -7  -9  801.12   49.90
   3  -7  -9  796.92   50.69
   3  -7  -9  806.82   51.19
  -3   7   9  799.52   51.29
  -3   7   9  868.51   51.59
  -3   7   9  832.42   53.09
   2  -7  -9   22.50    5.10
   2  -7  -9   18.60    5.90
   2  -7  -9   18.00    5.70
  -2   7   9   23.40    6.10
  -2   7   9   15.30    7.30
  -2   7   9   21.50    6.40
   1  -7  -9  619.34   38.90
   1  -7  -9  553.54   39.20
   1  -7  -9  605.14   38.10
  -1   7   9  675.73   40.20
  -1   7   9  621.64   39.00
  -1   7   9  590.44   40.60
   0  -7  -9  379.36   27.00
   0  -7  -9  366.96   26.30
   0  -7  -9  400.46   25.80
   0   7   9  400.76   26.40
   0   7   9  407.66   27.60
   0   7   9  377.06   28.30
  -1  -7  -9  245.18   19.10
  -1  -7  -9  243.08   17.90
  -1  -7  -9  231.48   18.20
   1   7   9  242.68   19.60
   1   7   9  247.28   20.30
  -2  -7  -9  175.28   14.30
  -2  -7  -9  166.48   14.50
  -2  -7  -9  168.78   15.40
   2   7   9  172.48   15.40
   2   7   9  166.18   16.00
   2   7   9  160.78   15.70
  -3  -7  -9   19.80    6.20
  -3  -7  -9   17.60    5.90
  -3  -7  -9   13.60    6.00
   3   7   9   34.90    8.00
   3   7   9   35.20    7.60
   3   7   9   28.50    7.50
  -4  -7  -9  122.59   12.60
  -4  -7  -9  138.89   13.00
  -4  -7  -9  120.79   12.80
   4   7   9   98.69   12.90
   4   7   9  102.39   13.40
   4   7   9   98.89   13.50
  -5  -7  -9    0.10    5.30
  -5  -7  -9    5.20    5.50
   5   7   9    1.00    6.70
   5   7   9    8.50    7.10
   5  -8  -9  103.39   12.10
   5  -8  -9   82.89   11.30
  -5   8   9   88.29   13.70
  -5   8   9   70.99   11.20
   4  -8  -9  101.59   12.00
   4  -8  -9   99.89   11.80
  -4   8   9   82.49   12.30
  -4   8   9   88.29   13.60
  -4   8   9   86.89   11.90
   3  -8  -9  159.98   15.10
   3  -8  -9  160.68   14.60
  -3   8   9  158.78   17.00
  -3   8   9  161.78   15.10
  -3   8   9  154.08   15.20
   2  -8  -9   27.40    6.20
   2  -8  -9   22.20    6.60
  -2   8   9   10.70    7.40
  -2   8   9    9.40    6.30
  -2   8   9    4.10    5.60
   1  -8  -9  243.08   18.20
   1  -8  -9  221.98   18.80
  -1   8   9  237.38   19.40
  -1   8   9  221.48   20.40
  -1   8   9  239.18   18.50
   0  -8  -9   11.30    5.20
   0  -8  -9   16.20    6.20
   0   8   9    4.60    5.40
   0   8   9    4.90    7.20
   0   8   9   10.10    6.30
  -1  -8  -9  213.68   18.40
  -1  -8  -9  211.08   17.50
  -1  -8  -9  199.78   21.00
   1   8   9  255.87   19.60
   1   8   9  238.58   20.20
  -2  -8  -9    9.60    5.40
  -2  -8  -9    0.30    4.80
  -2  -8  -9    9.30    5.70
   2   8   9   -0.10    6.00
   2   8   9    7.00    6.90
  -3  -8  -9  146.29   14.80
  -3  -8  -9  150.38   15.10
  -3  -8  -9  160.88   14.90
  -3  -8  -9  170.48   15.50
   3   8   9  174.38   16.40
   3   8   9  165.18   15.70
   3   8   9  161.98   16.10
  -4  -8  -9    5.70    5.50
  -4  -8  -9   10.70    6.10
  -4  -8  -9   13.10    6.20
   4   8   9    6.40    6.50
   4   8   9   -1.20    6.30
   4  -9  -9   13.80    6.70
   4  -9  -9   18.50    6.70
  -4   9   9   23.40    7.80
  -4   9   9   24.00    9.00
   3  -9  -9   27.30    7.50
   3  -9  -9   22.60    6.90
  -3   9   9   38.00    9.80
  -3   9   9   31.10    8.00
  -3   9   9   38.60    8.40
   2  -9  -9   64.79    9.00
   2  -9  -9   75.69   11.40
  -2   9   9   55.59    9.60
  -2   9   9   68.69   12.00
  -2   9   9   59.49    9.90
   1  -9  -9  181.58   16.10
   1  -9  -9  187.88   15.20
  -1   9   9  163.08   15.80
  -1   9   9  145.39   16.20
  -1   9   9  152.58   17.90
   0  -9  -9  340.87   23.00
   0  -9  -9  342.57   24.20
   0   9   9  289.47   23.20
   0   9   9  296.27   24.10
   0   9   9  280.27   25.10
  -1  -9  -9  137.99   13.50
  -1  -9  -9  140.39   14.70
   1   9   9  147.19   15.50
   1   9   9  125.79   16.20
  -2  -9  -9  202.98   17.50
  -2  -9  -9  218.58   16.70
   2   9   9  177.48   18.10
   2   9   9  155.28   18.20
  -3  -9  -9  207.08   18.60
  -3  -9  -9  224.28   18.90
  -3  -9  -9  227.88   18.30
   3   9   9  213.18   19.50
   3   9   9  199.18   19.50
   3 -10  -9   -1.10    5.50
   3 -10  -9    2.00    6.00
  -3  10   9    3.70    7.00
  -3  10   9    1.70    7.60
   2 -10  -9   44.10    8.90
   2 -10  -9   37.00    7.70
  -2  10   9   33.40    8.60
  -2  10   9   37.90   10.20
   1 -10  -9   45.80    8.30
   1 -10  -9   55.19   10.00
  -1  10   9   61.99   10.10
  -1  10   9   62.19   10.40
  -1  10   9   55.69   11.30
   0 -10  -9   79.99   10.80
   0 -10  -9   72.69   10.90
   0  10   9   36.00   10.50
   0  10   9   57.19   10.40
   0  10   9   56.19    9.90
  -1 -10  -9   60.29   10.40
  -1 -10  -9   74.69   11.00
   1  10   9   72.59   12.40
   1  10   9   85.39   13.40
   3   9 -10   97.19   11.30
   3   9 -10   94.69   11.90
  -3  -9  10   83.19   13.40
  -3  -9  10   80.59   12.60
   2   9 -10  271.07   19.90
   2   9 -10  271.67   20.50
  -2  -9  10  259.07   21.40
  -2  -9  10  233.98   21.50
   1   9 -10   35.70    7.30
   1   9 -10   28.00    6.60
  -1  -9  10   25.90    7.90
  -1  -9  10   21.10    7.60
   0   9 -10  235.18   19.60
   0   9 -10  239.58   18.90
   0  -9  10  234.08   20.00
   0  -9  10  255.87   21.20
  -1   9 -10   33.10    7.50
  -1   9 -10   38.20    7.30
   1  -9  10   25.90    8.40
  -2   9 -10   41.10    7.90
  -2   9 -10   46.20    8.60
   2  -9  10   43.70   10.00
   5   8 -10   10.20    6.00
   5   8 -10    1.00    5.20
  -5  -8  10    4.60    6.60
  -5  -8  10    6.60    7.70
   4   8 -10   29.40    7.00
   4   8 -10   34.00    7.30
  -4  -8  10   47.40    9.60
   3   8 -10  117.19   12.30
   3   8 -10  113.39   12.40
  -3  -8  10  151.98   14.80
  -3  -8  10  126.89   14.90
   2   8 -10   43.10    7.50
   2   8 -10   46.00    7.60
  -2  -8  10   63.29    9.80
  -2  -8  10   51.39    9.20
   1   8 -10  218.98   18.30
   1   8 -10  215.08   18.40
  -1  -8  10  270.67   20.30
  -1  -8  10  280.67   20.80
   0   8 -10    4.50    4.90
   0   8 -10    5.30    4.90
   0  -8  10   10.10    6.50
   0  -8  10    7.70    6.00
  -1   8 -10  215.78   17.40
  -1   8 -10  197.48   17.20
   1  -8  10  230.48   19.40
   1  -8  10  224.58   20.50
  -2   8 -10   74.09   11.00
  -2   8 -10   72.09   10.20
   2  -8  10   75.39   11.80
  -3   8 -10   22.90    6.50
  -3   8 -10   24.10    7.30
   3  -8  10   40.10    9.40
   6   7 -10  134.59   14.20
  -6  -7  10  136.59   17.00
  -6  -7  10  135.69   16.30
   5   7 -10   44.10    7.80
   5   7 -10   47.50    8.30
  -5  -7  10   57.79   10.70
  -5  -7  10   50.99    9.80
   4   7 -10  264.27   19.70
   4   7 -10  283.47   19.70
  -4  -7  10  250.07   21.80
  -4  -7  10  248.68   21.00
   3   7 -10   34.10    6.70
   3   7 -10   36.90    6.80
  -3  -7  10   31.00    8.20
  -3  -7  10   38.30    8.20
   2   7 -10  573.64   34.00
   2   7 -10  545.25   34.00
  -2  -7  10  452.35   34.80
  -2  -7  10  511.45   35.50
   1   7 -10   59.79    8.30
   1   7 -10   47.90    7.40
  -1  -7  10   57.79    9.00
  -1  -7  10   61.59    9.70
   0   7 -10  840.72   49.00
   0   7 -10  813.42   49.10
   0  -7  10  736.23   49.40
   0  -7  10  750.22   50.49
  -1   7 -10    3.50    4.60
  -1   7 -10    6.60    4.70
   1  -7  10    1.40    5.90
   1  -7  10    2.30    5.00
  -2   7 -10  611.14   38.20
  -2   7 -10  584.34   37.80
   2  -7  10  550.94   39.40
  -3   7 -10    8.50    5.70
  -3   7 -10   10.40    5.60
   3  -7  10   19.00    7.80
   3  -7  10   13.40    6.40
  -4   7 -10  418.96   29.70
  -4   7 -10  405.16   29.80
   4  -7  10  434.26   32.30
   4  -7  10  447.66   30.60
   6   6 -10  110.69   13.30
   6   6 -10  131.99   13.30
  -6  -6  10  116.49   15.00
  -6  -6  10  134.79   16.50
   5   6 -10   64.09    9.50
   5   6 -10   77.69   13.30
   5   6 -10   69.19    9.60
  -5  -6  10   93.89   12.20
  -5  -6  10   68.69   11.40
   4   6 -10  349.77   23.70
   4   6 -10  357.96   23.60
   4   6 -10  326.37   23.70
  -4  -6  10  333.37   24.90
  -4  -6  10  337.27   25.80
   3   6 -10  101.79   10.70
   3   6 -10   96.29   10.20
  -3  -6  10  110.49   13.10
  -3  -6  10  105.69   12.50
   2   6 -10  145.49   12.40
   2   6 -10  149.59   12.90
  -2  -6  10  149.88   14.60
  -2  -6  10  150.18   14.70
   1   6 -10   82.79    8.70
   1   6 -10   85.99    9.40
  -1  -6  10   73.69   10.20
  -1  -6  10   67.39   10.30
   0   6 -10   45.60    6.80
   0   6 -10   56.99    7.60
   0  -6  10   46.00    8.90
   0  -6  10   46.00    7.80
  -1   6 -10   45.00    7.10
  -1   6 -10   38.30    6.80
   1  -6  10   65.99    9.60
   1  -6  10   61.79    8.90
   1  -6  10   69.69   10.20
  -2   6 -10   89.49   10.20
  -2   6 -10   93.29   10.40
   2  -6  10   78.09   10.80
   2  -6  10   81.89   12.80
  -3   6 -10   35.80    7.10
  -3   6 -10   33.30    6.80
   3  -6  10   58.59   10.50
  -4   6 -10   70.59   10.30
  -4   6 -10   61.89    9.10
   4  -6  10   52.29   10.80
   4  -6  10   60.79    9.90
  -5   6 -10   48.90    9.00
  -5   6 -10   59.49    9.80
   5  -6  10   90.49   12.00
   5  -6  10   80.69   12.50
   7   5 -10   87.39   11.30
   7   5 -10   83.19   11.00
  -7  -5  10   65.39   11.80
  -7  -5  10   72.19   12.60
   6   5 -10  205.58   16.90
   6   5 -10  213.88   17.00
  -6  -5  10  193.98   18.80
  -6  -5  10  211.68   20.20
   5   5 -10  295.67   20.90
   5   5 -10  304.37   21.20
  -5  -5  10  297.17   23.80
  -5  -5  10  272.77   22.40
   4   5 -10  352.06   25.20
   4   5 -10  387.46   23.50
   4   5 -10  358.26   22.90
  -4  -5  10  300.17   26.30
  -4  -5  10  309.17   25.10
  -4  -5  10  305.77   24.00
   3   5 -10  242.68   17.10
   3   5 -10  245.38   16.60
   3   5 -10  234.08   16.70
  -3  -5  10  206.78   18.80
  -3  -5  10  218.08   18.60
  -3  -5  10  230.18   18.60
   2   5 -10  413.56   28.30
   2   5 -10  450.55   29.00
   2   5 -10  437.86   28.20
  -2  -5  10  487.25   30.90
  -2  -5  10  430.56   30.20
   1   5 -10  233.88   16.20
   1   5 -10  231.88   16.90
   1   5 -10  238.68   16.20
  -1  -5  10  209.88   17.90
  -1  -5  10  215.48   18.60
   0   5 -10  508.65   30.50
   0   5 -10  477.35   30.90
   0   5 -10  500.65   30.30
   0  -5  10  431.36   31.30
   0  -5  10  459.45   32.70
   0  -5  10  474.75   30.60
  -1   5 -10  144.49   12.20
  -1   5 -10  140.09   12.70
  -1   5 -10  147.99   12.30
   1  -5  10  148.59   15.30
   1  -5  10  163.98   13.20
   1  -5  10  156.58   13.40
  -2   5 -10  409.56   27.60
  -2   5 -10  415.86   27.20
  -2   5 -10  398.96   27.00
   2  -5  10  381.66   29.30
   2  -5  10  433.66   27.90
  -3   5 -10  158.68   13.70
  -3   5 -10  143.89   13.20
  -3   5 -10  137.09   13.50
   3  -5  10  155.08   16.30
   3  -5  10  181.18   15.00
  -4   5 -10  301.87   22.60
  -4   5 -10  325.27   22.60
  -4   5 -10  315.37   22.10
   4  -5  10  306.17   23.30
   4  -5  10  276.17   24.30
  -5   5 -10   52.69    8.70
  -5   5 -10   65.59    9.30
   5  -5  10   53.09   10.00
   5  -5  10   61.99   10.90
   7   4 -10   29.00    6.80
   7   4 -10   20.60    6.60
  -7  -4  10   24.60    8.40
  -7  -4  10   33.60   10.00
   6   4 -10  116.09   12.50
   6   4 -10  131.99   12.40
  -6  -4  10  135.99   16.00
  -6  -4  10  129.09   14.60
   5   4 -10   48.80    7.50
   5   4 -10   57.69    7.90
  -5  -4  10   76.89   10.60
  -5  -4  10   75.19   11.00
   4   4 -10   98.39    9.90
   4   4 -10   96.39    9.90
  -4  -4  10  102.69   12.70
  -4  -4  10   97.69   10.90
  -4  -4  10   97.49   10.60
   3   4 -10   98.99   11.00
  -3  -4  10  150.38   13.20
  -3  -4  10  149.29   12.00
  -3  -4  10  146.59   14.00
   2   4 -10   11.00    4.20
   2   4 -10   15.20    3.90
   2   4 -10    8.60    4.00
  -2  -4  10   16.30    6.10
  -2  -4  10   20.00    6.20
   1   4 -10    8.60    3.80
   1   4 -10    8.40    3.40
   1   4 -10    8.40    4.10
  -1  -4  10   12.00    3.80
  -1  -4  10    6.50    5.30
  -1  -4  10    8.90    5.30
   0   4 -10   17.80    4.10
   0   4 -10   21.10    4.70
   0   4 -10   20.40    4.90
   0  -4  10   31.70    7.20
   0  -4  10   26.40    5.20
   0  -4  10   28.70    6.30
  -1   4 -10  215.58   17.10
  -1   4 -10  220.68   16.50
  -1   4 -10  206.58   16.80
   1  -4  10  279.57   18.00
   1  -4  10  254.97   19.80
   1  -4  10  257.67   18.00
  -2   4 -10   53.89    7.50
  -2   4 -10   59.39    7.60
  -2   4 -10   56.59    7.80
   2  -4  10   49.50    8.00
   2  -4  10   53.29    9.50
  -3   4 -10  143.99   13.30
  -3   4 -10  159.68   13.50
  -3   4 -10  153.98   13.90
   3  -4  10  181.98   15.20
   3  -4  10  159.38   15.80
  -4   4 -10  108.09   11.20
  -4   4 -10  105.69   11.30
  -4   4 -10   98.19   11.40
   4  -4  10  108.69   13.00
   4  -4  10   96.19   13.50
   4  -4  10  103.99   12.30
  -5   4 -10   94.39   12.00
  -5   4 -10  106.59   12.30
  -5   4 -10  115.79   12.30
   5  -4  10  120.89   15.10
   5  -4  10  131.99   14.70
   5  -4  10  136.89   14.10
  -6   4 -10  310.57   24.40
  -6   4 -10  305.67   24.20
  -6   4 -10  309.67   24.30
   6  -4  10  351.06   26.50
   6  -4  10  373.46   26.70
   6  -4  10  361.66   25.80
   7   3 -10   72.89   10.80
   7   3 -10   81.49   10.30
  -7  -3  10   56.49   10.40
  -7  -3  10   75.09   12.70
   6   3 -10  203.68   17.10
   6   3 -10  214.48   16.50
  -6  -3  10  218.38   20.50
  -6  -3  10  231.18   19.00
   5   3 -10  143.99   12.30
   5   3 -10  137.99   12.70
  -5  -3  10  140.99   13.70
  -5  -3  10  160.08   16.10
   4   3 -10  525.45   31.90
   4   3 -10  486.95   32.00
  -4  -3  10  494.95   32.40
  -4  -3  10  487.55   34.30
  -4  -3  10  499.35   32.60
   3   3 -10   41.30    6.30
   3   3 -10   44.30    6.50
  -3  -3  10   62.39    8.50
  -3  -3  10   61.09    7.40
  -3  -3  10   50.39    8.60
   2   3 -10 1988.50  114.19
   2   3 -10 2035.80  113.59
   2   3 -10 1913.31  114.29
  -2  -3  10 1825.02  115.59
  -2  -3  10 1932.71  113.39
  -2  -3  10 1951.60  115.69
   1   3 -10   97.69    9.40
   1   3 -10   94.49    9.20
  -1  -3  10  100.49   10.90
  -1  -3  10   93.09   11.30
  -1  -3  10   99.29    9.00
   0   3 -10 1680.43   94.19
   0   3 -10 1610.84   93.09
   0   3 -10 1588.64   94.09
   0  -3  10 1601.74   93.99
   0  -3  10 1488.55   94.59
   0  -3  10 1555.34   95.69
  -1   3 -10   81.49    8.70
  -1   3 -10   86.69    7.90
  -1   3 -10   86.59    8.90
   1  -3  10   80.09   10.80
   1  -3  10   75.29    9.50
   1  -3  10   70.99    9.40
  -2   3 -10  735.73   43.00
  -2   3 -10  710.13   43.70
  -2   3 -10  703.83   43.70
   2  -3  10  699.03   43.90
   2  -3  10  631.14   44.70
  -3   3 -10   47.20    7.20
  -3   3 -10   45.60    7.00
  -3   3 -10   44.90    6.60
   3  -3  10   38.20    7.50
   3  -3  10   41.10    8.60
  -4   3 -10  338.77   22.60
  -4   3 -10  318.27   23.00
  -4   3 -10  316.27   22.80
   4  -3  10  301.17   24.30
   4  -3  10  325.07   23.80
   4  -3  10  332.37   24.10
  -5   3 -10   34.90    7.00
  -5   3 -10   32.80    7.20
  -5   3 -10   32.70    7.10
   5  -3  10   38.20    9.00
   5  -3  10   36.50    8.20
   5  -3  10   37.60    8.70
  -6   3 -10  184.88   16.40
  -6   3 -10  169.28   16.10
  -6   3 -10  176.88   16.20
   6  -3  10  181.58   17.20
   6  -3  10  193.28   18.40
   6  -3  10  172.08   17.50
   8   2 -10   23.30    7.50
   8   2 -10   33.90    7.00
  -8  -2  10   40.50   10.70
  -8  -2  10   29.80    9.10
   7   2 -10  130.09   13.80
   7   2 -10  131.99   12.40
  -7  -2  10  128.99   16.70
  -7  -2  10  142.99   15.20
   6   2 -10   36.00    7.10
   6   2 -10   40.20    6.40
  -6  -2  10   31.20    9.20
  -6  -2  10   38.70    8.00
   5   2 -10   77.39    9.40
   5   2 -10   81.49    8.90
  -5  -2  10   78.69   11.70
  -5  -2  10   70.39    9.80
   4   2 -10    0.70    3.40
   4   2 -10    2.40    4.00
  -4  -2  10    3.60    6.00
  -4  -2  10    4.10    4.10
  -4  -2  10    6.50    4.20
   3   2 -10   89.59    9.70
   3   2 -10   97.09    9.10
   3   2 -10  100.39    8.50
   2   2 -10  181.48   12.80
   2   2 -10  178.38   12.30
   2   2 -10  162.48   12.90
  -2  -2  10  146.89   13.80
  -2  -2  10  167.48   12.20
  -2  -2  10  153.28   14.80
   1   2 -10  188.98   14.60
   1   2 -10  196.48   15.10
   1   2 -10  195.08   14.80
  -1  -2  10  265.17   17.50
   0   2 -10   53.79    7.20
   0   2 -10   51.39    7.30
   0  -2  10   52.99    7.40
   0  -2  10   59.19    9.20
   0  -2  10   54.79    8.60
  -1   2 -10   51.59    7.30
  -1   2 -10   42.30    6.60
  -1   2 -10   51.59    7.30
   1  -2  10   78.89    9.80
  -2   2 -10  129.99   10.50
  -2   2 -10  111.19   11.40
  -2   2 -10  133.19   11.90
   2  -2  10  140.99   12.60
   2  -2  10  137.99   13.90
   2  -2  10  134.69   13.60
  -3   2 -10    8.20    3.90
  -3   2 -10   11.30    4.70
  -3   2 -10    8.40    4.70
   3  -2  10    2.10    5.30
   3  -2  10    1.50    5.20
  -4   2 -10   11.10    5.10
  -4   2 -10   12.50    4.80
  -4   2 -10    6.20    4.90
   4  -2  10   10.10    6.40
   4  -2  10    4.10    5.80
   4  -2  10    7.70    6.00
  -5   2 -10   38.60    6.80
  -5   2 -10   37.70    7.30
  -5   2 -10   34.80    7.10
   5  -2  10   21.10    7.40
   5  -2  10   22.80    8.00
   5  -2  10   17.60    7.00
  -6   2 -10  135.39   13.60
  -6   2 -10  141.39   13.50
  -6   2 -10  147.49   14.10
   6  -2  10  126.39   15.00
   6  -2  10  123.39   15.60
   6  -2  10  100.09   13.80
   8   1 -10   44.90    8.60
  -8  -1  10   25.80    9.50
  -8  -1  10   35.10    9.50
   7   1 -10  108.49   12.40
   7   1 -10  107.69   10.90
  -7  -1  10  107.59   15.30
  -7  -1  10  109.39   14.10
   6   1 -10  385.96   24.30
   6   1 -10  340.17   25.10
  -6  -1  10  354.86   26.30
  -6  -1  10  370.16   28.20
   5   1 -10  309.17   20.50
   5   1 -10  290.77   21.50
  -5  -1  10  317.27   22.30
  -5  -1  10  297.57   24.10
   4   1 -10  369.46   26.20
   4   1 -10  387.06   25.40
   4   1 -10  373.66   25.10
  -4  -1  10  416.86   26.60
  -4  -1  10  423.46   26.40
  -4  -1  10  419.46   29.00
   3   1 -10  226.48   16.40
   3   1 -10  241.88   15.60
   3   1 -10  239.48   15.30
  -3  -1  10  209.88   18.10
  -3  -1  10  202.58   15.70
  -3  -1  10  203.38   16.40
   2   1 -10  722.93   40.70
   2   1 -10  670.73   40.40
   2   1 -10  666.23   41.20
  -2  -1  10  663.43   40.60
  -2  -1  10  640.54   42.10
  -2  -1  10  617.24   42.40
   1   1 -10  146.09   10.60
   1   1 -10  136.39   11.20
   1   1 -10  141.19   10.60
  -1  -1  10  106.39   12.10
  -1  -1  10  109.49   12.20
  -1  -1  10  123.49   10.70
   0   1 -10  896.81   54.89
   0   1 -10  848.92   55.29
   0  -1  10  924.21   55.29
   0  -1  10  978.60   56.69
   0  -1  10  912.11   56.09
  -1   1 -10  121.29   10.50
  -1   1 -10  123.09   10.90
   1  -1  10  116.99   11.50
   1  -1  10  102.89   10.80
   1  -1  10  122.19   12.10
  -2   1 -10  898.21   55.89
  -2   1 -10  886.01   55.49
   2  -1  10  899.31   55.09
   2  -1  10  948.01   56.19
   2  -1  10  923.71   56.79
  -3   1 -10   54.19    7.70
  -3   1 -10   62.49    7.30
  -3   1 -10   62.79    8.90
   3  -1  10   53.99    8.70
   3  -1  10   65.89    9.80
   3  -1  10   70.59   10.10
  -4   1 -10  806.62   51.49
  -4   1 -10  771.62   51.69
  -4   1 -10  802.22   50.79
   4  -1  10  862.31   52.39
   4  -1  10  870.61   52.69
   4  -1  10  874.21   52.59
  -5   1 -10  102.49   12.10
  -5   1 -10  106.29   11.00
  -5   1 -10  111.99   11.90
   5  -1  10  100.59   13.50
   5  -1  10  103.59   13.10
   5  -1  10  102.39   12.90
  -6   1 -10  243.28   18.20
  -6   1 -10  232.28   18.40
  -6   1 -10  224.48   18.80
   6  -1  10  204.08   19.80
   6  -1  10  215.18   19.70
   8   0 -10    4.70    6.40
  -8   0  10    9.90    7.50
  -8   0  10    8.60    7.60
   7   0 -10   27.90    7.20
  -7   0  10   38.80    8.90
  -7   0  10   34.10    9.40
   6   0 -10   58.99    8.90
   6   0 -10   50.79    7.30
  -6   0  10   53.89    9.10
  -6   0  10   62.09   11.10
   5   0 -10   52.59    6.70
   5   0 -10   44.60    7.20
   5   0 -10   47.30    6.30
  -5   0  10   52.29    8.00
  -5   0  10   62.49   10.60
   4   0 -10  548.65   34.30
   4   0 -10  542.75   34.50
   4   0 -10  529.75   35.40
  -4   0  10  597.44   35.40
  -4   0  10  555.74   35.50
  -4   0  10  571.84   38.00
   3   0 -10  372.96   23.10
   3   0 -10  348.07   23.20
   3   0 -10  355.06   23.90
  -3   0  10  348.37   26.10
  -3   0  10  359.06   23.50
  -3   0  10  372.96   24.50
   2   0 -10   36.70    5.90
   2   0 -10   39.30    5.20
   2   0 -10   40.20    5.90
  -2   0  10   31.60    7.20
  -2   0  10   33.50    5.30
  -2   0  10   39.00    5.60
  -2   0  10   35.40    6.50
   1   0 -10  939.11   54.99
   1   0 -10  887.51   55.19
   1   0 -10  896.81   55.69
  -1   0  10  960.90   55.59
  -1   0  10  920.21   56.89
  -1   0  10  903.71   56.69
   0   0 -10   51.39    7.50
   0   0 -10   60.29    7.70
   0   0 -10   58.69    6.80
   0   0  10   59.79    8.60
   0   0  10   65.09    8.00
   0   0  10   52.49    8.20
  -1   0 -10  191.38   14.30
  -1   0 -10  195.88   14.90
   1   0  10  192.08   16.20
   1   0  10  192.08   15.00
   1   0  10  188.28   15.20
  -2   0 -10  474.75   30.90
  -2   0 -10  456.45   31.30
   2   0  10  493.65   31.80
   2   0  10  466.75   30.60
   2   0  10  509.45   32.60
  -3   0 -10   -0.80    3.80
  -3   0 -10    0.50    4.00
   3   0  10    0.40    5.30
   3   0  10    5.00    5.30
   3   0  10   -1.00    5.10
  -4   0 -10  283.77   20.20
  -4   0 -10  254.67   20.40
   4   0  10  272.57   21.40
   4   0  10  289.47   21.60
   4   0  10  276.87   21.30
  -5   0 -10    4.80    4.90
  -5   0 -10    4.00    6.60
  -5   0 -10    7.30    5.60
   5   0  10    9.50    6.80
   5   0  10    9.40    6.50
   5   0  10    7.90    6.20
  -6   0 -10   14.10    5.90
  -6   0 -10   11.40    6.30
  -6   0 -10   11.30    6.00
   6   0  10   13.40    7.70
   6   0  10   12.10    7.60
   8  -1 -10   30.80    8.10
  -8   1  10   38.80    9.40
  -8   1  10   44.50   10.20
   7  -1 -10  126.99   13.10
  -7   1  10  101.69   13.70
  -7   1  10   97.79   14.50
   6  -1 -10  337.07   24.20
   6  -1 -10  319.17   22.90
  -6   1  10  342.47   26.70
  -6   1  10  372.26   25.40
   5  -1 -10  321.77   22.10
   5  -1 -10  291.37   20.90
   5  -1 -10  304.07   20.80
  -5   1  10  320.37   21.80
  -5   1  10  314.47   24.40
  -5   1  10  311.17   22.30
   4  -1 -10  401.26   25.00
   4  -1 -10  415.56   26.60
   4  -1 -10  407.66   25.80
  -4   1  10  374.66   26.30
  -4   1  10  398.26   26.30
  -4   1  10  388.86   28.70
   3  -1 -10  201.98   15.80
   3  -1 -10  209.38   16.50
   3  -1 -10  209.08   15.10
  -3   1  10  233.88   16.00
  -3   1  10  238.38   18.80
  -3   1  10  260.27   17.10
   2  -1 -10  625.94   41.10
   2  -1 -10  596.54   40.50
   2  -1 -10  646.64   40.10
  -2   1  10  708.73   41.00
  -2   1  10  694.33   40.30
  -2   1  10  659.23   42.60
  -2   1  10  715.73   42.20
   1  -1 -10  118.59   10.00
   1  -1 -10  124.39   10.90
   1  -1 -10  117.89   11.00
  -1   1  10  159.28   11.60
  -1   1  10  144.49   12.80
  -1   1  10  144.09   12.70
   0  -1 -10  923.41   54.09
   0  -1 -10  896.81   54.89
   0  -1 -10  879.31   54.69
   0   1  10  914.01   55.59
   0   1  10  918.51   54.79
   0   1  10  866.21   55.79
  -1  -1 -10  101.39   10.70
  -1  -1 -10  102.99    9.90
   1   1  10  132.89   11.50
   1   1  10  130.09   11.70
   1   1  10  124.39   12.10
  -2  -1 -10  930.81   55.69
  -2  -1 -10  876.61   56.19
   2   1  10  921.61   55.49
   2   1  10  912.21   56.89
   2   1  10  925.21   56.59
  -3  -1 -10   67.19    8.30
  -3  -1 -10   61.59    9.00
   3   1  10   70.39    9.50
   3   1  10   51.39    8.70
   3   1  10   67.49   10.10
  -4  -1 -10  806.82   51.09
  -4  -1 -10  852.11   50.49
   4   1  10  760.52   51.19
   4   1  10  810.72   51.49
   4   1  10  832.02   51.49
  -5  -1 -10   94.59   12.10
  -5  -1 -10   99.79   11.10
   5   1  10  118.89   13.70
   5   1  10  112.29   13.00
   5   1  10  110.79   13.60
  -6  -1 -10  205.68   17.60
  -6  -1 -10  205.98   18.50
   6   1  10  217.68   19.40
   6   1  10  244.48   20.00
   8  -2 -10   36.30    8.50
  -8   2  10   32.90    9.20
  -8   2  10   25.10    8.90
   7  -2 -10  135.69   13.90
  -7   2  10  128.89   15.00
  -7   2  10  121.59   15.70
   6  -2 -10   37.40    6.50
   6  -2 -10   39.70    7.40
  -6   2  10   30.90    9.00
  -6   2  10   36.20    8.10
   5  -2 -10   65.79    8.90
   5  -2 -10   65.79    9.30
  -5   2  10   83.69   10.40
  -5   2  10   92.19    9.20
  -5   2  10   84.99   12.80
   4  -2 -10    3.40    3.80
   4  -2 -10    1.30    4.30
  -4   2  10    5.60    4.30
  -4   2  10    4.00    6.00
  -4   2  10    3.70    4.10
   3  -2 -10  161.48   12.10
   3  -2 -10  149.99    9.70
   3  -2 -10  153.48   11.20
  -3   2  10   99.19   12.90
  -3   2  10   96.79   11.30
  -3   2  10  102.49   10.50
   2  -2 -10  156.78   13.20
   2  -2 -10  159.78   13.10
   2  -2 -10  159.48   11.80
  -2   2  10  180.38   15.40
  -2   2  10  176.08   12.40
  -2   2  10  183.68   14.50
   1  -2 -10  259.87   17.20
   1  -2 -10  282.37   17.70
   1  -2 -10  281.07   16.30
  -1   2  10  204.78   17.20
  -1   2  10  209.08   18.00
  -1   2  10  199.58   18.10
   0  -2 -10   49.50    7.40
   0  -2 -10   58.99    6.40
   0  -2 -10   53.69    7.80
   0   2  10   52.49    8.10
   0   2  10   49.70    7.90
   0   2  10   66.79    8.40
   1   2  10   39.00    6.80
   1   2  10   42.20    7.70
   1   2  10   46.40    7.00
  -2  -2 -10  132.99   12.20
  -2  -2 -10  138.19   11.20
   2   2  10  123.09   13.40
   2   2  10  128.29   11.70
   2   2  10  132.09   13.00
  -3  -2 -10    3.40    3.90
  -3  -2 -10    2.50    4.50
   3   2  10    7.40    5.80
   3   2  10    5.10    5.60
   3   2  10    7.50    5.60
  -4  -2 -10    4.70    5.20
  -4  -2 -10    7.60    4.60
   4   2  10   10.60    6.40
   4   2  10    5.90    6.10
   4   2  10   11.70    6.30
  -5  -2 -10   24.70    6.40
  -5  -2 -10   25.50    7.10
   5   2  10   41.30    8.40
   5   2  10   42.20    8.60
   5   2  10   37.80    8.60
  -6  -2 -10  129.79   14.30
  -6  -2 -10  116.89   13.30
   6   2  10  147.29   15.80
   6   2  10  135.59   15.80
   7  -3 -10   56.69    8.60
   7  -3 -10   65.69    9.60
  -7   3  10   71.49   11.10
  -7   3  10   86.09   12.50
   6  -3 -10  204.68   16.50
   6  -3 -10  213.18   17.20
  -6   3  10  216.78   18.40
  -6   3  10  208.58   19.60
   5  -3 -10  142.19   12.70
   5  -3 -10  139.99   13.10
   5  -3 -10  142.49   12.20
  -5   3  10  142.79   12.40
  -5   3  10  154.18   16.10
  -5   3  10  139.49   13.60
   4  -3 -10  483.45   32.50
   4  -3 -10  456.15   31.90
  -4   3  10  527.85   32.90
  -4   3  10  532.85   32.60
  -4   3  10  514.25   35.10
   3  -3 -10   51.99    7.60
   3  -3 -10   54.79    8.00
  -3   3  10   49.50    7.40
  -3   3  10   50.09    7.60
  -3   3  10   55.49    9.40
   2  -3 -10 1842.32  113.79
   2  -3 -10 1894.61  113.89
  -2   3  10 2013.60  114.79
  -2   3  10 1972.90  115.69
  -2   3  10 1930.81  113.29
   1  -3 -10   89.19    9.50
   1  -3 -10   94.39    9.50
   1  -3 -10   95.89    8.00
  -1   3  10  105.69   11.90
  -1   3  10  106.19   10.90
  -1   3  10  103.39   10.20
   0  -3 -10 1567.74   93.49
   0  -3 -10 1508.55   94.59
   0  -3 -10 1578.84   94.79
   0   3  10 1614.94   95.79
   0   3  10 1644.64   94.79
   0   3  10 1645.44   95.59
  -1  -3 -10   76.49    9.00
  -1  -3 -10   78.09    7.90
  -1  -3 -10   72.09    9.20
   1   3  10   84.89    9.90
   1   3  10   88.89   10.70
   1   3  10   81.79    9.90
  -2  -3 -10  699.83   42.50
  -2  -3 -10  639.34   43.40
  -2  -3 -10  655.03   43.50
   2   3  10  705.83   44.70
   2   3  10  694.13   43.80
   2   3  10  737.23   43.40
  -3  -3 -10   42.00    6.50
  -3  -3 -10   44.10    7.70
   3   3  10   55.39    9.40
   3   3  10   51.09    8.50
   3   3  10   50.19    8.60
  -4  -3 -10  329.57   22.70
  -4  -3 -10  335.07   23.80
   4   3  10  322.87   24.50
   4   3  10  314.07   24.30
   4   3  10  323.17   24.40
  -5  -3 -10   47.20    7.50
  -5  -3 -10   41.20    8.20
   5   3  10   32.40    8.40
   5   3  10   32.40    8.30
   5   3  10   31.20    8.50
  -6  -3 -10  184.88   16.30
  -6  -3 -10  179.08   17.20
   6   3  10  186.08   18.00
   6   3  10  179.18   18.20
   7  -4 -10   30.90    7.40
   7  -4 -10   33.00    7.50
  -7   4  10   25.30    8.40
  -7   4  10   33.40    8.70
   6  -4 -10  117.39   12.30
   6  -4 -10  127.99   12.80
  -6   4  10  133.79   14.40
  -6   4  10  127.79   15.50
   5  -4 -10   71.09    8.90
   5  -4 -10   82.99    9.60
   5  -4 -10   73.19    9.50
  -5   4  10   49.10   10.10
  -5   4  10   55.29    8.20
  -5   4  10   50.09    8.80
   4  -4 -10   94.49   10.30
   4  -4 -10   95.19   10.50
   4  -4 -10   99.99   10.70
  -4   4  10  109.89   13.60
  -4   4  10   99.19   10.80
  -4   4  10   98.19   10.80
  -3   4  10   98.19    9.90
  -3   4  10   97.59   10.50
  -3   4  10   80.79   12.30
   2  -4 -10   17.40    4.90
   2  -4 -10    9.30    4.50
  -2   4  10   10.80    4.20
  -2   4  10    7.50    5.90
  -2   4  10    9.40    5.20
   1  -4 -10   14.80    4.70
   1  -4 -10    7.30    4.30
  -1   4  10    4.30    5.40
  -1   4  10    6.60    5.20
   0  -4 -10   28.40    5.50
   0  -4 -10   22.60    5.20
   0  -4 -10   22.60    5.30
   0   4  10   23.50    6.40
   0   4  10   17.50    6.30
   0   4  10   27.00    6.10
  -1  -4 -10  283.97   18.80
  -1  -4 -10  270.47   17.20
  -1  -4 -10  273.97   18.70
   1   4  10  205.78   19.20
   1   4  10  220.48   18.40
   1   4  10  221.08   18.90
  -2  -4 -10   48.00    7.00
  -2  -4 -10   48.00    7.80
  -2  -4 -10   57.39    8.20
   2   4  10   60.59    8.60
   2   4  10   59.39    9.20
   2   4  10   51.69    9.10
  -3  -4 -10  179.28   15.30
  -3  -4 -10  166.58   14.90
  -3  -4 -10  178.48   13.60
   3   4  10  165.28   16.20
   3   4  10  147.99   15.30
  -4  -4 -10  108.99   11.90
  -4  -4 -10  101.09   10.70
   4   4  10   91.39   12.90
   4   4  10  104.79   13.20
   4   4  10  102.69   13.30
  -5  -4 -10  124.29   13.40
  -5  -4 -10  113.09   11.90
   5   4  10  112.39   14.20
   5   4  10  101.89   13.70
   5   4  10  106.89   14.00
  -6  -4 -10  337.47   24.40
  -6  -4 -10  338.67   25.60
   6   4  10  334.57   26.10
   6   4  10  325.27   26.00
   7  -5 -10   68.09   10.10
   7  -5 -10   71.79   10.20
  -7   5  10   90.49   13.50
  -7   5  10   80.09   12.30
   6  -5 -10  188.08   17.00
   6  -5 -10  204.18   17.20
  -6   5  10  215.68   18.80
  -6   5  10  226.28   20.00
   5  -5 -10  281.27   21.10
   5  -5 -10  263.77   20.90
   5  -5 -10  267.27   20.70
  -5   5  10  312.57   24.20
  -5   5  10  313.07   22.60
  -5   5  10  310.07   21.40
   4  -5 -10  282.37   22.40
   4  -5 -10  312.17   22.50
   4  -5 -10  286.27   22.40
  -4   5  10  357.46   25.70
  -4   5  10  384.46   23.80
   3  -5 -10  215.18   17.50
   3  -5 -10  219.38   17.80
   3  -5 -10  232.48   17.50
  -3   5  10  235.68   17.70
  -3   5  10  250.67   20.20
  -3   5  10  247.18   18.20
   2  -5 -10  430.46   28.10
   2  -5 -10  456.45   28.10
  -2   5  10  438.16   29.10
  -2   5  10  403.26   30.10
  -2   5  10  393.06   27.60
   1  -5 -10  212.98   16.90
   1  -5 -10  220.88   16.60
  -1   5  10  233.38   18.00
  -1   5  10  223.48   16.40
  -1   5  10  217.98   18.80
   0  -5 -10  482.95   31.70
   0  -5 -10  456.25   31.50
   0   5  10  484.95   32.00
   0   5  10  520.65   33.50
   0   5  10  494.45   32.80
  -1  -5 -10  161.38   13.60
  -1  -5 -10  150.98   13.20
   1   5  10  134.09   13.50
   1   5  10  155.78   14.50
   1   5  10  145.39   14.30
  -2  -5 -10  421.16   28.60
  -2  -5 -10  437.16   27.20
  -2  -5 -10  426.76   28.60
   2   5  10  419.16   28.70
   2   5  10  399.86   28.80
   2   5  10  412.56   29.70
  -3  -5 -10  173.68   13.20
  -3  -5 -10  161.48   14.60
  -3  -5 -10  153.48   14.80
   3   5  10  147.99   15.60
   3   5  10  151.08   15.10
  -4  -5 -10  292.07   23.10
  -4  -5 -10  299.57   21.70
  -4  -5 -10  315.77   22.90
   4   5  10  336.87   23.90
   4   5  10  286.07   23.60
   4   5  10  309.17   23.70
  -5  -5 -10   71.29    9.70
  -5  -5 -10   65.09   10.00
   5   5  10   62.39   10.70
   5   5  10   50.99    9.90
   6  -6 -10  117.79   13.20
   6  -6 -10  124.09   12.90
  -6   6  10  121.09   14.80
  -6   6  10  122.79   15.40
   5  -6 -10   94.09   10.40
   5  -6 -10   81.39   10.80
   5  -6 -10   76.69   10.10
  -5   6  10   76.19   12.10
  -5   6  10   70.79   11.80
  -5   6  10   79.29   11.20
   4  -6 -10  346.07   23.30
   4  -6 -10  322.37   23.70
   4  -6 -10  339.97   24.00
  -4   6  10  324.37   26.30
  -4   6  10  326.37   24.50
  -4   6  10  346.97   24.20
   3  -6 -10  113.69   11.80
   3  -6 -10  104.69   11.20
   3  -6 -10  113.49   10.80
  -3   6  10   86.49   11.20
  -3   6  10  103.09   12.10
  -3   6  10   98.09   14.00
   2  -6 -10  142.79   14.00
   2  -6 -10  137.79   13.20
   2  -6 -10  149.88   12.70
  -2   6  10  138.09   15.80
  -2   6  10  156.08   13.30
  -2   6  10  162.38   14.50
   1  -6 -10   62.29    8.70
   1  -6 -10   71.19    9.10
  -1   6  10   78.99    9.20
  -1   6  10   72.89   10.80
  -1   6  10   80.49   12.20
   0  -6 -10   46.80    7.60
   0  -6 -10   56.39    8.30
   0   6  10   51.79    9.40
   0   6  10   50.49    8.70
  -1  -6 -10   69.59    9.20
  -1  -6 -10   65.69    8.50
   1   6  10   40.00    8.40
   1   6  10   41.90    7.90
   1   6  10   34.20    7.90
  -2  -6 -10   82.69   10.70
  -2  -6 -10   80.09   10.40
   2   6  10   94.79   12.00
   2   6  10   98.49   11.70
   2   6  10   85.09   12.20
  -3  -6 -10   61.89    8.70
  -3  -6 -10   53.59    8.50
   3   6  10   31.80    8.00
   3   6  10   33.00    8.30
  -4  -6 -10   70.69    9.60
  -4  -6 -10   74.79   11.10
  -4  -6 -10   66.79    9.90
   4   6  10   68.09   10.80
   4   6  10   69.49   11.00
  -5  -6 -10   90.09   11.90
  -5  -6 -10   87.29   10.50
  -5  -6 -10   87.19   12.40
   5   6  10   58.79   10.90
   6  -7 -10  129.29   14.20
   6  -7 -10  137.29   14.80
  -6   7  10  134.59   16.00
  -6   7  10  151.58   17.10
   5  -7 -10   52.49    8.70
   5  -7 -10   57.39    8.80
   5  -7 -10   46.50    7.70
  -5   7  10   42.10   10.10
  -5   7  10   52.39    8.80
  -5   7  10   58.89   10.20
   4  -7 -10  262.27   20.40
   4  -7 -10  262.57   20.60
   4  -7 -10  257.17   19.40
  -4   7  10  276.57   21.20
  -4   7  10  275.47   23.30
  -4   7  10  274.67   21.20
   3  -7 -10   20.70    6.40
   3  -7 -10   30.00    6.10
   3  -7 -10   25.00    6.50
  -3   7  10   33.30    7.60
  -3   7  10   32.10    9.00
  -3   7  10   23.60    6.70
   2  -7 -10  470.55   34.70
   2  -7 -10  525.75   34.70
   2  -7 -10  490.05   33.50
  -2   7  10  552.14   37.20
  -2   7  10  554.14   34.90
  -2   7  10  572.64   35.70
   1  -7 -10   60.39    8.90
   1  -7 -10   61.89    8.40
   1  -7 -10   65.09    8.60
  -1   7  10   49.80    8.00
  -1   7  10   45.50    9.60
  -1   7  10   47.30    9.10
   0  -7 -10  782.12   49.60
   0  -7 -10  780.22   49.10
   0  -7 -10  791.62   50.59
   0   7  10  812.72   50.89
   0   7  10  791.52   51.29
  -1  -7 -10    0.50    4.80
  -1  -7 -10   -0.80    5.20
  -1  -7 -10    3.40    4.50
   1   7  10    2.90    6.40
   1   7  10    5.10    6.20
  -2  -7 -10  587.64   38.70
  -2  -7 -10  598.24   38.70
  -2  -7 -10  562.74   39.50
   2   7  10  612.44   39.30
   2   7  10  583.54   39.90
   2   7  10  620.44   39.90
  -3  -7 -10   15.80    6.10
  -3  -7 -10    7.90    6.10
  -3  -7 -10    9.50    5.60
   3   7  10   11.20    6.80
   3   7  10    8.80    6.80
  -4  -7 -10  411.36   29.10
  -4  -7 -10  430.26   29.40
  -4  -7 -10  404.56   29.40
   4   7  10  397.66   29.60
   4   7  10  398.66   29.90
   5  -8 -10    1.80    5.80
   5  -8 -10    0.90    5.60
  -5   8  10    3.80    6.80
  -5   8  10    4.60    7.60
   4  -8 -10   50.09    8.80
   4  -8 -10   54.79    8.60
  -4   8  10   34.00    9.80
  -4   8  10   33.40    8.20
  -4   8  10   33.30    8.30
   3  -8 -10  149.69   13.60
   3  -8 -10  127.59   13.60
  -3   8  10  117.79   13.50
  -3   8  10   99.29   15.50
  -3   8  10  119.39   13.80
   2  -8 -10   57.29    8.90
   2  -8 -10   59.39    8.60
  -2   8  10   26.00    9.20
  -2   8  10   39.50    8.20
  -2   8  10   39.90    8.70
   1  -8 -10  276.97   18.80
   1  -8 -10  253.97   19.50
  -1   8  10  214.98   19.20
  -1   8  10  186.88   20.60
  -1   8  10  202.98   17.80
   0  -8 -10    7.50    6.10
   0  -8 -10   10.80    5.70
   0   8  10    8.10    6.70
   0   8  10    6.50    7.50
  -1  -8 -10  211.98   19.10
  -1  -8 -10  233.18   17.90
  -1  -8 -10  216.18   18.30
   1   8  10  202.38   19.10
   1   8  10  192.08   19.50
  -2  -8 -10   69.59   10.10
  -2  -8 -10   79.69   11.70
  -2  -8 -10   76.09   10.30
   2   8  10   76.09   11.60
   2   8  10   63.39   11.00
  -3  -8 -10   42.30    8.60
  -3  -8 -10   39.40    7.90
  -3  -8 -10   36.20    7.90
  -3  -8 -10   44.30    8.60
   3   8  10   27.20    8.20
   3   8  10   31.50    8.90
   3  -9 -10   68.19   10.30
   3  -9 -10   80.19   12.50
  -3   9  10  103.99   13.60
  -3   9  10   99.19   13.30
  -3   9  10  104.29   15.80
   2  -9 -10  253.07   20.40
   2  -9 -10  251.67   21.10
  -2   9  10  249.38   23.60
  -2   9  10  282.47   22.10
  -2   9  10  261.37   21.10
   1  -9 -10   20.10    7.40
   1  -9 -10   28.50    7.30
  -1   9  10   32.40    7.80
  -1   9  10   25.60    9.60
  -1   9  10   31.60    8.70
   0  -9 -10  244.58   19.50
   0  -9 -10  243.58   20.70
   0   9  10  248.68   21.20
   0   9  10  230.58   22.30
  -1  -9 -10   26.80    7.00
  -1  -9 -10   29.90    8.00
   1   9  10   34.80    8.80
   1   9  10   32.20    9.50
  -2  -9 -10   46.60    8.40
  -2  -9 -10   42.70    9.10
   2   9  10   50.09   10.10
   2   9  10   42.80   10.30
   2   9 -11    1.90    5.20
   2   9 -11    2.40    5.50
  -2  -9  11    1.30    6.70
   1   9 -11  114.89   12.60
   1   9 -11  109.79   12.50
  -1  -9  11  123.09   15.40
  -1  -9  11   97.29   14.40
   0   9 -11   18.10    6.80
   0   9 -11   22.30    6.70
   0  -9  11   16.60    8.00
   0  -9  11   12.40    7.20
   4   8 -11  131.99   12.60
  -4  -8  11   93.09   14.70
   3   8 -11  227.88   18.90
   3   8 -11  218.48   18.00
  -3  -8  11  227.78   20.80
  -3  -8  11  236.88   20.40
   2   8 -11   36.60    7.00
   2   8 -11   41.30    7.50
  -2  -8  11   17.60    7.90
  -2  -8  11   21.70    7.90
   1   8 -11  116.49   12.70
   1   8 -11   98.79   11.90
  -1  -8  11  155.08   15.00
   0  -8  11   22.70    7.40
   0  -8  11   24.50    8.30
  -1   8 -11  125.79   13.30
  -1   8 -11  117.79   13.00
   1  -8  11  136.69   16.40
  -2   8 -11   11.60    5.90
  -2   8 -11   10.50    6.10
   2  -8  11   16.20    8.50
   5   7 -11   23.80    6.90
  -5  -7  11   46.00   10.50
   4   7 -11   11.10    5.70
  -4  -7  11   22.10    8.20
   3   7 -11   50.99    8.10
  -3  -7  11   60.19   10.30
  -3  -7  11   60.69   10.60
   2   7 -11    8.70    5.00
   2   7 -11   12.00    5.40
  -2  -7  11   10.60    6.70
  -2  -7  11   19.10    7.50
   1   7 -11  149.09   13.70
   1   7 -11  142.79   13.00
  -1  -7  11  146.09   15.10
  -1  -7  11  158.18   16.30
   0   7 -11    3.20    4.50
   0   7 -11    7.90    5.20
   0  -7  11    7.70    7.10
   0  -7  11    6.50    5.90
  -1   7 -11   75.09   10.00
  -1   7 -11   70.79   10.60
   1  -7  11  109.89   14.40
  -2   7 -11    5.20    5.40
  -2   7 -11    2.80    4.90
   2  -7  11    7.40    7.40
  -3   7 -11   74.79   10.20
  -3   7 -11   60.99    9.20
   3  -7  11   44.80   10.60
   3  -7  11   49.70    9.70
   6   6 -11  102.09   11.70
  -6  -6  11   79.19   13.30
  -6  -6  11   75.09   12.10
   5   6 -11   86.19   11.30
  -5  -6  11  117.29   15.60
   4   6 -11  116.29   12.10
  -4  -6  11  134.69   15.50
   3   6 -11  178.88   15.10
  -3  -6  11  176.08   17.40
  -3  -6  11  185.48   16.90
   2   6 -11  210.18   18.00
  -2  -6  11  243.48   20.10
  -2  -6  11  272.17   20.80
   1   6 -11  374.56   25.50
   1   6 -11  366.36   25.50
  -1  -6  11  358.26   26.70
  -1  -6  11  391.36   27.80
   0   6 -11  167.88   15.30
   0   6 -11  184.08   14.70
   0  -6  11  206.18   16.70
   0  -6  11  194.68   18.10
  -1   6 -11  344.17   23.30
  -1   6 -11  336.97   23.60
   1  -6  11  320.47   25.80
   1  -6  11  327.77   26.90
  -2   6 -11  184.68   15.90
  -2   6 -11  182.98   16.20
   2  -6  11  190.58   18.70
   2  -6  11  212.58   16.80
  -3   6 -11   90.69   10.90
  -3   6 -11   84.39   11.20
   3  -6  11   73.69   12.00
   3  -6  11   92.19   12.30
  -4   6 -11   77.29   10.80
  -4   6 -11   82.09   11.40
   4  -6  11  100.09   15.10
   4  -6  11  104.19   13.60
   6   5 -11   22.90    6.40
   6   5 -11   28.40    6.80
  -6  -5  11   22.60    7.80
  -6  -5  11   21.10    8.80
   5   5 -11   70.69    9.60
   5   5 -11   86.89   10.40
  -5  -5  11   75.39   11.60
  -5  -5  11   79.49   12.10
   4   5 -11   38.40    6.60
   4   5 -11   48.00    7.40
  -4  -5  11   33.80    9.00
   3   5 -11  112.29   11.40
   3   5 -11  132.59   11.20
  -3  -5  11  114.19   13.10
  -3  -5  11  106.19   13.80
   2   5 -11    8.10    4.30
   2   5 -11    5.10    4.50
  -2  -5  11   12.30    6.30
  -2  -5  11    7.70    5.90
   1   5 -11  368.66   24.20
   1   5 -11  396.76   25.00
  -1  -5  11  339.47   26.50
  -1  -5  11  335.97   25.90
   0   5 -11  123.19   11.60
   0   5 -11  145.89   12.60
   0  -5  11  134.79   15.00
   0  -5  11  129.79   13.50
  -1   5 -11  311.07   20.00
  -1   5 -11  291.77   20.50
  -1   5 -11  307.17   20.20
   1  -5  11  241.38   20.40
   1  -5  11  261.07   22.60
   1  -5  11  257.57   20.10
  -2   5 -11   86.29    9.80
  -2   5 -11   84.39   10.40
  -2   5 -11   75.99    9.60
   2  -5  11   81.99   11.10
   2  -5  11   71.39   11.70
  -3   5 -11  202.28   17.20
  -3   5 -11  203.28   17.60
  -3   5 -11  206.28   17.10
   3  -5  11  265.37   19.10
   3  -5  11  224.88   20.10
  -4   5 -11   23.30    6.80
  -4   5 -11   23.70    6.70
   4  -5  11   27.70    8.10
   4  -5  11   34.80    9.50
   7   4 -11    7.90    5.60
   7   4 -11    8.30    6.10
  -7  -4  11   15.40    8.90
  -7  -4  11   10.40    7.40
   6   4 -11  239.38   18.60
   6   4 -11  228.48   18.00
  -6  -4  11  210.38   19.30
  -6  -4  11  240.58   22.00
   5   4 -11  111.39   11.60
   5   4 -11  113.99   11.60
  -5  -4  11  112.69   12.80
  -5  -4  11  124.09   15.40
   4   4 -11  471.75   32.00
   4   4 -11  485.05   32.00
  -4  -4  11  522.65   35.10
  -4  -4  11  506.75   33.30
   3   4 -11  166.68   13.30
   3   4 -11  157.58   13.30
  -3  -4  11  150.68   15.90
  -3  -4  11  163.28   14.80
   2   4 -11  168.28   13.70
   2   4 -11  170.38   13.80
  -2  -4  11  174.48   15.90
  -2  -4  11  163.58   15.70
   1   4 -11  237.18   17.40
   1   4 -11  246.48   17.80
  -1  -4  11  248.48   19.90
  -1  -4  11  222.28   19.00
   0   4 -11  130.19   12.30
   0   4 -11  127.79   12.00
   0  -4  11  169.88   15.40
   0  -4  11  145.99   13.80
   0  -4  11  155.08   12.80
  -1   4 -11  308.57   21.80
  -1   4 -11  284.67   21.20
   1  -4  11  309.87   23.90
   1  -4  11  311.47   21.80
   1  -4  11  308.37   22.10
  -2   4 -11   21.10    5.70
  -2   4 -11   22.20    5.70
  -2   4 -11   22.70    7.50
   2  -4  11    6.60    5.50
   2  -4  11    8.80    6.60
  -3   4 -11  183.38   16.00
  -3   4 -11  170.98   16.20
  -3   4 -11  187.28   15.50
   3  -4  11  242.38   18.00
   3  -4  11  229.08   19.30
  -4   4 -11    7.50    5.30
  -4   4 -11    9.40    5.60
  -4   4 -11    8.40    5.10
   4  -4  11   15.10    7.10
   4  -4  11   15.30    7.90
  -5   4 -11  159.78   15.60
  -5   4 -11  159.98   15.80
  -5   4 -11  157.48   15.40
   5  -4  11  202.78   18.20
   5  -4  11  193.58   18.40
   5  -4  11  182.28   17.00
   7   3 -11   18.60    6.70
   7   3 -11   20.10    6.00
  -7  -3  11    8.50    7.00
  -7  -3  11   10.80    8.20
   6   3 -11   40.60    6.80
   6   3 -11   31.80    7.10
  -6  -3  11   40.20   10.20
  -6  -3  11   30.40    7.70
   5   3 -11    9.60    5.00
   5   3 -11    8.90    4.60
  -5  -3  11    3.10    5.00
  -5  -3  11   11.00    7.60
   4   3 -11  204.78   16.10
   4   3 -11  210.88   15.80
  -4  -3  11  203.48   19.00
  -4  -3  11  210.08   18.70
  -4  -3  11  209.78   16.90
   3   3 -11   97.59    9.80
   3   3 -11   90.59   10.00
  -3  -3  11   82.59   10.80
  -3  -3  11   89.99   12.40
   2   3 -11   31.80    5.70
   2   3 -11   34.00    6.00
  -2  -3  11   29.20    7.50
  -2  -3  11   33.90    7.10
   1   3 -11  162.58   13.50
   1   3 -11  176.08   13.80
   1   3 -11  164.18   13.00
  -1  -3  11  172.18   15.40
  -1  -3  11  154.68   15.20
  -1  -3  11  177.28   13.30
   0   3 -11   18.70    5.00
   0   3 -11   26.10    5.30
   0  -3  11   29.60    6.70
   0  -3  11   20.80    5.40
   0  -3  11   21.60    6.70
  -1   3 -11  285.77   21.10
  -1   3 -11  269.07   20.90
   1  -3  11  333.87   23.30
   1  -3  11  296.87   21.60
   1  -3  11  313.97   21.50
  -2   3 -11  100.09   10.50
  -2   3 -11   88.09   10.40
   2  -3  11  110.09   12.00
   2  -3  11   98.19   12.50
  -3   3 -11  459.75   31.90
  -3   3 -11  480.15   32.10
   3  -3  11  482.95   33.80
   3  -3  11  503.45   32.80
  -4   3 -11   25.40    6.60
  -4   3 -11   28.90    6.80
   4  -3  11   29.80    7.90
   4  -3  11   25.30    8.20
  -5   3 -11  519.25   34.50
  -5   3 -11  465.65   37.10
  -5   3 -11  476.75   34.20
   5  -3  11  529.15   35.20
   5  -3  11  550.64   35.90
   5  -3  11  522.85   36.00
   7   2 -11   67.09    9.90
   7   2 -11   80.39    9.80
  -7  -2  11   67.19   12.60
  -7  -2  11   57.29   10.70
   6   2 -11  265.17   21.00
   6   2 -11  269.37   20.10
  -6  -2  11  298.57   22.30
  -6  -2  11  313.27   24.90
   5   2 -11  317.77   22.50
   5   2 -11  303.07   23.30
  -5  -2  11  348.77   24.00
  -5  -2  11  374.26   26.90
   4   2 -11  820.72   50.59
   4   2 -11  861.91   50.09
  -4  -2  11  821.32   52.99
  -4  -2  11  761.02   50.29
  -4  -2  11  823.22   50.79
   3   2 -11  504.45   31.10
   3   2 -11  482.05   31.60
  -3  -2  11  471.45   33.70
  -3  -2  11  482.65   32.40
   2   2 -11  407.56   26.50
   2   2 -11  392.16   26.00
   2   2 -11  380.06   26.80
  -2  -2  11  407.46   29.00
  -2  -2  11  447.66   26.30
  -2  -2  11  414.36   28.30
   1   2 -11  203.58   15.90
   1   2 -11  193.88   16.00
   1   2 -11  193.98   16.40
  -1  -2  11  244.38   18.40
  -1  -2  11  264.27   16.60
  -1  -2  11  258.97   18.60
   0   2 -11  612.44   38.90
   0   2 -11  652.93   38.80
   0  -2  11  630.04   40.30
   0  -2  11  583.04   39.50
   0  -2  11  601.64   38.70
  -1   2 -11  110.69   10.40
  -1   2 -11  103.29   10.40
   1  -2  11  101.49   11.00
   1  -2  11   92.69   11.70
   1  -2  11   86.59   10.80
  -2   2 -11   88.49   10.60
  -2   2 -11   97.89   10.80
   2  -2  11  122.49   12.30
   2  -2  11  106.29   12.60
  -3   2 -11   48.30    7.80
  -3   2 -11   49.90    7.80
   3  -2  11   55.99    9.50
   3  -2  11   44.60    8.50
  -4   2 -11   70.29   10.40
  -4   2 -11   62.69    9.50
   4  -2  11   90.69   12.00
   4  -2  11  102.09   13.10
   4  -2  11   97.99   12.40
  -5   2 -11   91.49   11.50
  -5   2 -11  101.49   11.90
   5  -2  11   76.09   11.80
   5  -2  11   82.59   13.20
   5  -2  11   95.39   13.30
   7   1 -11    4.90    5.30
   7   1 -11    7.90    5.90
  -7  -1  11    3.60    7.90
  -7  -1  11   10.10    7.00
   6   1 -11   11.00    5.70
   6   1 -11    7.80    4.60
  -6  -1  11   16.70    6.60
  -6  -1  11   13.80    8.40
   5   1 -11   24.30    6.00
   5   1 -11   20.70    4.90
  -5  -1  11   10.50    7.70
   4   1 -11   15.10    4.40
   4   1 -11   17.70    5.40
  -4  -1  11   15.40    5.30
  -4  -1  11   18.30    7.40
  -4  -1  11   13.40    5.00
   3   1 -11  102.99   10.30
   3   1 -11  103.39    9.00
   3   1 -11  111.89    9.40
  -3  -1  11   70.99   11.20
  -3  -1  11   74.29   10.40
   2   1 -11    8.90    4.40
   2   1 -11    7.30    3.60
   2   1 -11    9.10    3.80
  -2  -1  11   16.80    4.50
  -2  -1  11   12.40    5.50
  -2  -1  11    9.90    5.90
   1   1 -11  281.17   18.20
   1   1 -11  282.27   18.90
   1   1 -11  286.57   18.00
  -1  -1  11  218.58   19.60
  -1  -1  11  236.88   18.10
  -1  -1  11  222.98   19.40
   0   1 -11   25.60    5.20
   0   1 -11   29.10    5.70
   0  -1  11   15.70    5.20
   0  -1  11   27.20    7.10
   0  -1  11   28.60    6.70
  -1   1 -11  266.37   19.70
  -1   1 -11  270.97   19.20
   1  -1  11  275.07   21.00
   1  -1  11  263.87   19.80
   1  -1  11  281.47   20.40
  -2   1 -11   85.49   10.30
  -2   1 -11   89.59   10.10
   2  -1  11   87.59   11.20
   2  -1  11   98.99   12.30
  -3   1 -11  328.87   23.50
  -3   1 -11  353.36   23.20
   3  -1  11  308.97   23.90
   3  -1  11  311.27   24.50
  -4   1 -11   39.70    7.30
  -4   1 -11   35.70    7.30
   4  -1  11   39.80    8.40
   4  -1  11   43.70    8.80
   4  -1  11   43.90    8.90
  -5   1 -11  180.08   15.20
  -5   1 -11  167.18   15.40
   5  -1  11  153.68   16.40
   5  -1  11  148.69   16.70
   5  -1  11  154.48   16.20
  -6   1 -11   15.10    6.60
  -6   1 -11   17.00    6.90
   6  -1  11   17.20    8.40
   6  -1  11   24.00    8.50
   7   0 -11    0.40    5.70
  -7   0  11   -2.00    6.30
  -7   0  11    3.20    7.60
   6   0 -11  264.27   20.50
  -6   0  11  268.17   23.60
  -6   0  11  279.17   21.50
   5   0 -11    0.80    4.60
   5   0 -11    1.30    3.60
  -5   0  11    2.90    4.90
  -5   0  11   -4.60    6.50
   4   0 -11  385.36   24.70
   4   0 -11  363.56   25.90
   4   0 -11  381.36   25.00
  -4   0  11  371.76   25.60
  -4   0  11  399.46   29.00
  -4   0  11  401.66   26.10
   3   0 -11   33.70    5.20
   3   0 -11   28.30    5.30
   3   0 -11   40.50    6.60
  -3   0  11   33.00    6.80
  -3   0  11   36.00    8.10
   2   0 -11   80.69    8.20
   2   0 -11   85.29    9.20
   2   0 -11   81.39    8.30
  -2   0  11   80.89    8.90
  -2   0  11   74.09   11.10
  -2   0  11   72.09   10.20
   1   0 -11  416.46   27.60
   1   0 -11  397.96   27.00
   1   0 -11  421.96   26.60
  -1   0  11  406.96   28.60
  -1   0  11  440.96   27.40
  -1   0  11  407.26   28.60
   0   0 -11  133.79   12.20
   0   0 -11  138.89   11.40
   0   0 -11  136.89   12.10
   0   0  11  131.59   12.80
   0   0  11  141.49   12.40
   0   0  11  140.49   13.60
  -1   0 -11  643.64   42.40
  -1   0 -11  668.53   41.80
   1   0  11  682.03   42.70
   1   0  11  672.23   43.50
   1   0  11  689.93   42.50
  -2   0 -11   57.69    8.30
  -2   0 -11   62.09    8.20
   2   0  11   60.59    8.90
   2   0  11   60.89    9.50
  -3   0 -11  414.06   30.20
  -3   0 -11  469.25   30.00
   3   0  11  459.15   30.90
   3   0  11  453.55   31.40
  -4   0 -11  118.49   12.00
  -4   0 -11  110.09   12.40
   4   0  11  123.19   14.00
   4   0  11  113.29   13.70
   4   0  11  111.99   13.70
  -5   0 -11   29.90    7.00
  -5   0 -11   29.00    7.40
   5   0  11   32.20    8.70
   5   0  11   33.90    8.60
   5   0  11   35.90    8.50
  -6   0 -11    0.90    5.80
  -6   0 -11    0.90    5.30
   6   0  11    0.50    7.20
   6   0  11    2.00    7.30
   7  -1 -11    0.10    6.00
  -7   1  11   10.00    6.80
  -7   1  11    6.40    7.60
   6  -1 -11   15.20    6.10
  -6   1  11   15.40    7.90
  -6   1  11   14.20    6.40
   5  -1 -11    6.30    5.10
  -5   1  11   21.80    7.90
  -5   1  11   23.60    6.20
   4  -1 -11   20.70    5.70
   4  -1 -11   15.30    4.80
   4  -1 -11   17.90    4.10
  -4   1  11   17.80    5.20
  -4   1  11   15.60    5.40
  -4   1  11   12.80    7.20
   3  -1 -11   75.29    7.70
   3  -1 -11   72.09    9.40
   3  -1 -11   71.79    8.70
  -3   1  11  105.89   10.50
  -3   1  11   91.29   11.90
   2  -1 -11   12.20    4.60
   2  -1 -11   11.00    4.20
   2  -1 -11   13.80    3.80
  -2   1  11    8.90    5.10
  -2   1  11   10.70    4.60
  -2   1  11    7.20    5.70
   1  -1 -11  226.08   18.20
   1  -1 -11  235.88   17.10
   1  -1 -11  217.88   17.70
  -1   1  11  300.77   18.70
  -1   1  11  275.67   20.10
  -1   1  11  276.07   20.10
   0  -1 -11   26.90    5.90
   0  -1 -11   30.90    5.30
   0  -1 -11   25.90    5.70
   0   1  11   38.10    7.30
   0   1  11   32.90    6.30
   0   1  11   30.80    7.20
  -1  -1 -11  262.37   20.20
  -1  -1 -11  268.97   19.20
   1   1  11  281.27   21.50
   1   1  11  289.67   20.70
   1   1  11  290.97   20.50
  -2  -1 -11   73.79   10.10
  -2  -1 -11   78.49    9.10
   2   1  11   95.09   10.40
   2   1  11   84.89   11.70
   2   1  11   92.79   11.50
  -3  -1 -11  291.77   21.80
  -3  -1 -11  266.67   22.20
   3   1  11  349.67   23.90
   3   1  11  354.56   24.30
  -4  -1 -11   43.10    7.20
  -4  -1 -11   44.00    7.80
   4   1  11   41.00    8.60
   4   1  11   40.90    8.90
   4   1  11   41.30    8.80
  -5  -1 -11  154.88   14.60
  -5  -1 -11  144.59   15.40
   5   1  11  170.28   16.40
   5   1  11  180.68   17.30
   5   1  11  177.98   16.90
  -6  -1 -11   13.20    6.90
  -6  -1 -11   20.70    6.50
   6   1  11   15.80    8.10
   6   1  11   24.10    8.80
   7  -2 -11   73.19   10.40
  -7   2  11   74.49   12.60
  -7   2  11   75.79   11.50
   6  -2 -11  280.37   20.90
   6  -2 -11  279.87   19.70
  -6   2  11  256.97   23.50
  -6   2  11  256.27   21.20
   5  -2 -11  336.37   23.10
   5  -2 -11  343.77   23.90
  -5   2  11  323.77   26.50
  -5   2  11  332.47   24.10
  -5   2  11  339.47   23.20
   4  -2 -11  796.92   51.99
   4  -2 -11  815.32   52.49
  -4   2  11  819.02   52.29
  -4   2  11  905.11   52.89
  -4   2  11  931.91   55.69
   3  -2 -11  455.35   31.00
   3  -2 -11  475.05   31.70
  -3   2  11  514.05   34.10
  -3   2  11  519.35   32.40
  -3   2  11  468.65   31.20
   2  -2 -11  424.36   27.80
   2  -2 -11  438.86   26.60
   2  -2 -11  422.56   28.10
  -2   2  11  408.46   28.80
  -2   2  11  414.06   29.70
   1  -2 -11  259.57   15.90
   1  -2 -11  246.18   17.30
   1  -2 -11  247.78   16.80
  -1   2  11  206.78   17.00
  -1   2  11  199.88   18.20
  -1   2  11  187.98   17.80
   0  -2 -11  619.54   39.60
   0  -2 -11  570.14   39.10
   0  -2 -11  607.34   38.30
   0   2  11  640.84   40.90
   0   2  11  646.34   40.40
   0   2  11  656.03   39.80
  -1  -2 -11   91.19    9.20
  -1  -2 -11   87.69   10.60
  -1  -2 -11   87.89   10.60
   1   2  11  112.89   11.10
   1   2  11  111.69   11.50
   1   2  11   92.49   12.10
  -2  -2 -11  107.39   10.10
  -2  -2 -11   95.59   11.20
   2   2  11   90.19   12.40
   2   2  11   98.49   10.50
   2   2  11   92.79   12.00
  -3  -2 -11   39.40    7.50
  -3  -2 -11   44.20    6.90
   3   2  11   40.60    8.70
   3   2  11   43.80    8.60
  -4  -2 -11   97.69   11.00
   4   2  11   59.59   10.10
   4   2  11   69.69   10.60
   4   2  11   60.19   10.20
  -5  -2 -11   87.39   12.30
  -5  -2 -11   80.59   10.90
   5   2  11   95.29   13.80
   5   2  11   92.49   12.50
   5   2  11  100.99   13.20
   7  -3 -11   11.40    6.70
   7  -3 -11   13.60    6.00
  -7   3  11   13.10    8.10
  -7   3  11   14.20    7.50
   6  -3 -11   45.20    8.20
   6  -3 -11   38.50    7.20
  -6   3  11   43.40   10.40
  -6   3  11   33.80    8.00
   5  -3 -11    1.10    4.90
   5  -3 -11    4.30    4.80
  -5   3  11    5.50    7.20
  -5   3  11   11.90    5.80
  -5   3  11    9.00    5.00
   4  -3 -11  192.48   15.90
   4  -3 -11  200.38   16.40
  -4   3  11  208.48   19.40
  -4   3  11  222.38   16.70
  -4   3  11  211.68   16.40
   3  -3 -11   96.19    9.90
   3  -3 -11   87.69   10.30
  -3   3  11   92.19   12.90
  -3   3  11   89.99    9.60
  -3   3  11  100.09   11.10
   2  -3 -11   35.50    6.50
   2  -3 -11   33.60    6.30
  -2   3  11   44.50    8.00
  -2   3  11   34.70    8.10
   1  -3 -11  170.08   13.90
   1  -3 -11  159.78   13.80
  -1   3  11  174.18   16.00
  -1   3  11  165.28   14.20
  -1   3  11  169.58   15.40
   0  -3 -11   24.70    5.80
   0  -3 -11   20.40    5.50
   0  -3 -11   20.90    4.40
   0   3  11   25.20    6.90
   0   3  11   22.80    5.90
   0   3  11   18.20    6.60
  -1  -3 -11  304.67   19.60
  -1  -3 -11  297.17   20.90
  -1  -3 -11  297.07   20.80
   1   3  11  244.28   21.80
   1   3  11  278.17   21.20
   1   3  11  273.07   20.90
  -2  -3 -11   95.39   11.30
  -2  -3 -11  106.39    9.90
  -2  -3 -11   96.69   11.40
   2   3  11  101.79   11.20
   2   3  11   93.79   12.80
   2   3  11   88.19   11.80
  -3  -3 -11  487.35   32.70
  -3  -3 -11  499.65   31.60
   3   3  11  489.25   33.80
   3   3  11  457.85   33.10
  -4  -3 -11   30.90    6.50
  -4  -3 -11   27.80    7.10
   4   3  11   32.70    8.40
   4   3  11   26.00    8.00
   4   3  11   22.30    8.00
  -5  -3 -11  530.85   34.50
  -5  -3 -11  508.45   35.30
   5   3  11  539.85   36.40
   5   3  11  512.25   36.20
   5   3  11  512.05   35.90
   7  -4 -11   12.90    6.70
   7  -4 -11   13.80    6.50
  -7   4  11   11.20    7.60
  -7   4  11    9.30    7.90
   6  -4 -11  210.58   17.80
   6  -4 -11  204.68   17.40
  -6   4  11  234.38   19.30
  -6   4  11  214.18   20.60
   5  -4 -11  109.09   11.70
   5  -4 -11  111.89   12.00
   5  -4 -11  110.59   12.10
  -5   4  11  112.69   12.00
  -5   4  11  121.19   12.80
  -5   4  11  111.19   15.20
   4  -4 -11  500.55   32.40
   4  -4 -11  477.55   32.10
  -4   4  11  507.65   32.70
  -4   4  11  465.65   35.00
  -4   4  11  500.85   32.60
   3  -4 -11  150.18   13.60
   3  -4 -11  152.68   13.70
  -3   4  11  159.68   13.40
  -3   4  11  157.08   16.40
  -3   4  11  169.58   14.60
   2  -4 -11  162.88   14.00
   2  -4 -11  169.98   14.20
  -2   4  11  169.68   15.30
  -2   4  11  165.98   16.40
   1  -4 -11  242.08   18.30
   1  -4 -11  227.78   18.20
  -1   4  11  250.87   20.20
  -1   4  11  257.07   19.60
   0  -4 -11  135.09   12.50
   0  -4 -11  144.09   12.70
   0   4  11  139.29   14.30
   0   4  11  118.09   14.00
   0   4  11  140.09   13.50
  -1  -4 -11  289.17   19.50
  -1  -4 -11  295.37   21.20
  -1  -4 -11  296.77   21.10
   1   4  11  282.57   21.60
   1   4  11  262.57   22.10
   1   4  11  280.37   21.40
  -2  -4 -11   10.00    5.50
  -2  -4 -11   12.20    4.60
  -2  -4 -11    7.00    5.50
   2   4  11   28.80    7.20
   2   4  11   23.70    6.50
   2   4  11   20.90    7.70
  -3  -4 -11  222.18   17.40
  -3  -4 -11  215.98   17.70
  -3  -4 -11  226.08   15.80
   3   4  11  153.58   17.20
   3   4  11  171.48   18.10
  -4  -4 -11    6.90    6.00
  -4  -4 -11   11.50    5.20
   4   4  11    7.20    7.10
   4   4  11    5.80    7.10
  -5  -4 -11  198.68   17.00
  -5  -4 -11  185.78   15.50
   5   4  11  163.38   17.70
   5   4  11  178.08   18.00
   5   4  11  151.68   17.20
   6  -5 -11   28.00    7.10
   6  -5 -11   27.90    7.20
  -6   5  11   27.10    9.20
  -6   5  11   22.10    7.80
   5  -5 -11   74.29   10.70
   5  -5 -11   68.69   10.30
   5  -5 -11   76.49   10.60
  -5   5  11   75.69   10.90
  -5   5  11   78.09   11.40
  -5   5  11   83.29   13.10
   4  -5 -11   32.70    7.00
   4  -5 -11   33.10    6.80
   4  -5 -11   39.90    7.50
  -4   5  11   35.90    7.30
  -4   5  11   40.40    7.80
  -4   5  11   29.30    9.00
   3  -5 -11   99.39   11.90
   3  -5 -11  123.09   11.90
  -3   5  11  128.09   13.00
  -3   5  11  118.49   14.80
  -3   5  11  124.39   12.00
   2  -5 -11    4.50    4.70
   2  -5 -11    9.90    5.00
  -2   5  11    8.50    5.80
  -2   5  11    5.70    6.60
   1  -5 -11  334.97   24.50
   1  -5 -11  334.17   24.80
  -1   5  11  394.16   27.10
  -1   5  11  373.86   26.10
   0  -5 -11  128.69   12.70
   0  -5 -11  135.09   12.50
   0   5  11  136.69   14.60
   0   5  11  129.39   13.20
   0   5  11  121.49   14.00
  -1  -5 -11  238.28   20.20
  -1  -5 -11  253.97   20.40
   1   5  11  296.97   21.70
   1   5  11  285.17   22.30
   1   5  11  303.07   21.40
  -2  -5 -11   83.29   11.00
  -2  -5 -11   66.29   10.30
   2   5  11   82.39   11.20
   2   5  11   74.99   10.50
   2   5  11   81.59   12.80
  -3  -5 -11  217.28   18.60
  -3  -5 -11  239.98   16.90
  -3  -5 -11  233.68   18.50
   3   5  11  196.08   19.60
   3   5  11  208.68   19.10
  -4  -5 -11   27.90    7.80
  -4  -5 -11   30.00    7.50
  -4  -5 -11   31.20    6.40
   4   5  11   18.30    8.00
   4   5  11   18.30    8.30
   5   5  11   87.69   12.60
   5   5  11   98.89   14.10
   6  -6 -11   74.49   10.50
   6  -6 -11   92.49   11.60
  -6   6  11   81.69   13.00
  -6   6  11   94.69   13.70
   5  -6 -11  102.09   12.10
   5  -6 -11  118.99   12.30
   5  -6 -11  119.09   12.50
  -5   6  11   88.19   12.50
  -5   6  11   93.59   14.40
  -5   6  11   98.49   13.10
   4  -6 -11  128.59   13.20
   4  -6 -11  155.48   13.60
   4  -6 -11  139.79   13.00
  -4   6  11  106.19   13.40
  -4   6  11  108.29   15.90
  -4   6  11  124.79   13.90
   3  -6 -11  161.98   15.20
   3  -6 -11  176.98   15.90
   3  -6 -11  183.28   15.30
  -3   6  11  185.18   16.60
  -3   6  11  179.58   15.30
  -3   6  11  169.88   17.90
   2  -6 -11  242.78   18.70
   2  -6 -11  253.67   19.70
   2  -6 -11  259.97   18.40
  -2   6  11  223.88   19.40
  -2   6  11  218.78   21.20
   1  -6 -11  418.76   27.70
   1  -6 -11  410.96   27.10
  -1   6  11  368.66   29.30
  -1   6  11  384.06   28.50
   0  -6 -11  226.78   17.10
   0  -6 -11  200.58   16.20
   0   6  11  177.28   18.00
   0   6  11  184.28   17.80
  -1  -6 -11  320.87   23.40
  -1  -6 -11  330.27   23.70
   1   6  11  323.87   24.50
   1   6  11  335.17   24.20
   1   6  11  307.37   24.80
  -2  -6 -11  186.38   16.80
  -2  -6 -11  199.18   16.80
   2   6  11  204.88   17.90
   2   6  11  192.28   17.60
   2   6  11  187.58   18.30
  -3  -6 -11   80.09   11.60
  -3  -6 -11   79.29   10.90
   3   6  11   84.89   13.30
   3   6  11   88.29   12.90
  -4  -6 -11   82.49   12.10
  -4  -6 -11   82.79   12.10
   4   6  11   89.79   13.70
   4   6  11   79.89   12.00
   5  -7 -11   42.60    7.80
   5  -7 -11   38.80    8.10
   5  -7 -11   47.30    8.50
  -5   7  11   30.40    9.70
  -5   7  11   33.70    8.60
  -5   7  11   30.00    8.20
   4  -7 -11   18.40    6.00
   4  -7 -11   20.50    6.80
   4  -7 -11   21.00    6.80
  -4   7  11   13.80    8.70
  -4   7  11   17.80    7.10
  -4   7  11   23.60    7.20
   3  -7 -11   57.49    8.00
   3  -7 -11   57.59    9.20
   3  -7 -11   50.99    8.50
  -3   7  11   48.50    8.40
  -3   7  11   50.39    9.20
  -3   7  11   37.50   10.20
   2  -7 -11   13.70    6.10
   2  -7 -11   15.20    6.50
   2  -7 -11    9.30    5.20
  -2   7  11   13.40    7.10
  -2   7  11    9.40    7.80
   1  -7 -11  170.18   13.90
   1  -7 -11  149.59   14.20
   1  -7 -11  143.19   15.00
  -1   7  11  155.78   16.30
  -1   7  11  127.19   16.40
   0  -7 -11    8.40    5.10
   0  -7 -11    5.80    5.50
   0  -7 -11    5.50    6.30
   0   7  11    8.50    7.00
   0   7  11    7.70    7.00
  -1  -7 -11   84.09   12.30
  -1  -7 -11   89.59   11.40
  -1  -7 -11   82.09   10.40
   1   7  11   61.99   11.00
   1   7  11   61.59   11.10
  -2  -7 -11   -0.80    5.10
  -2  -7 -11    2.70    6.20
  -2  -7 -11    6.70    5.60
   2   7  11   -1.50    6.40
   2   7  11    0.30    6.60
   2   7  11   -3.70    6.60
  -3  -7 -11   50.99    9.10
  -3  -7 -11   45.90    8.90
  -3  -7 -11   54.09    9.90
   3   7  11   58.69   10.60
   3   7  11   60.19   11.00
   4  -8 -11   80.19   11.20
   4  -8 -11   88.69   12.60
  -4   8  11  138.39   16.90
   3  -8 -11  216.48   19.40
   3  -8 -11  217.08   18.60
  -3   8  11  227.88   19.20
  -3   8  11  245.78   20.20
  -3   8  11  223.08   22.00
   2  -8 -11   18.00    6.80
   2  -8 -11   18.50    7.10
  -2   8  11   36.90    8.80
  -2   8  11   33.10    9.80
   1  -8 -11  146.29   14.70
   1  -8 -11  162.08   14.80
  -1   8  11  104.59   16.50
  -1   8  11  122.69   15.30
   0  -8 -11   23.60    7.00
   0  -8 -11   25.10    7.80
   0   8  11   49.20   10.50
  -1  -8 -11  138.89   15.20
  -1  -8 -11  130.59   15.70
  -1  -8 -11  141.79   14.30
   1   8  11  126.09   16.20
   1   8  11  116.39   15.70
  -2  -8 -11   17.20    7.30
  -2  -8 -11   19.50    7.10
  -2  -8 -11   14.70    6.60
   2   8  11    2.40    7.50
   2   8  11   13.80    7.70
   2  -9 -11   -2.30    5.20
   2  -9 -11    3.70    6.30
  -2   9  11    0.00    6.70
  -2   9  11   -3.30    7.60
   1  -9 -11  107.79   13.30
   1  -9 -11  108.69   14.10
  -1   9  11  120.29   15.20
  -1   9  11   92.79   14.60
   0  -9 -11   11.20    7.10
   0  -9 -11   15.90    6.80
   0   9  11   14.60    7.70
   0   9  11   11.40    8.80
   2   8 -12   81.09   10.40
  -2  -8  12   49.30   10.30
  -2  -8  12   59.69   11.50
   1   8 -12  111.59   13.10
  -1  -8  12  135.09   16.20
  -1  -8  12  105.99   14.30
   0   8 -12  196.78   16.80
   0  -8  12  171.78   17.60
   0  -8  12  191.18   19.50
   4   7 -12   41.40    7.90
  -4  -7  12   43.40   10.30
   3   7 -12   11.80    5.90
  -3  -7  12    7.70    7.00
  -3  -7  12   14.00    7.90
   2   7 -12   12.90    5.80
  -2  -7  12   16.20    7.80
  -2  -7  12   14.50    7.50
   1   7 -12    4.90    5.40
  -1  -7  12   13.90    7.20
  -1  -7  12   24.50    8.60
   0   7 -12   67.19    9.70
   0  -7  12   85.29   12.80
   0  -7  12   79.89   12.20
  -1   7 -12   30.30    7.40
   1  -7  12   40.10   10.00
  -2   7 -12   87.69   11.60
   2  -7  12   90.99   13.80
   5   6 -12   73.29    9.80
  -5  -6  12   62.99   12.00
   4   6 -12    3.30    5.10
  -4  -6  12   11.70    8.00
   3   6 -12  254.47   18.10
  -3  -6  12  194.18   20.00
  -3  -6  12  210.38   19.60
   2   6 -12   70.99   10.50
  -2  -6  12   98.39   13.40
  -2  -6  12   76.59   11.60
   1   6 -12   61.09    8.50
  -1  -6  12   40.00    9.40
  -1  -6  12   40.60    9.00
   0   6 -12   75.39   10.50
   0  -6  12   75.29   11.70
   0  -6  12   73.69   11.60
  -1   6 -12  150.18   13.50
   1  -6  12   99.59   15.50
  -2   6 -12  110.89   12.90
   2  -6  12  138.89   16.60
  -3   6 -12   44.90    8.70
   3  -6  12   48.60   10.90
   3  -6  12   50.49    9.40
   5   5 -12   64.59    9.00
   5   5 -12   62.59    9.00
  -5  -5  12   84.19   12.80
   4   5 -12  234.58   18.10
   4   5 -12  217.18   17.70
  -4  -5  12  254.47   21.60
   3   5 -12  135.29   12.70
   3   5 -12  134.49   12.50
  -3  -5  12  124.59   14.20
  -3  -5  12  122.49   15.30
   2   5 -12  301.07   22.60
   2   5 -12  314.67   23.10
  -2  -5  12  344.27   25.40
  -2  -5  12  342.07   25.30
   1   5 -12  119.89   12.00
   1   5 -12  125.69   11.20
  -1  -5  12   98.89   14.00
  -1  -5  12  102.69   13.60
   0   5 -12  128.99   12.90
   0   5 -12  109.09   12.00
   0  -5  12  151.08   15.40
   0  -5  12  144.19   14.10
  -1   5 -12   88.99   10.70
  -1   5 -12   96.49   10.60
   1  -5  12   86.09   13.30
  -2   5 -12    1.90    5.00
  -2   5 -12   -0.60    4.80
   2  -5  12   -3.60    5.40
   2  -5  12    2.30    7.00
  -3   5 -12    3.20    5.50
   3  -5  12    0.60    7.10
   3  -5  12    0.90    6.30
  -4   5 -12   10.10    6.00
   4  -5  12    5.90    7.10
   4  -5  12    6.50    7.70
   6   4 -12    6.20    5.60
   6   4 -12    6.60    5.40
  -6  -4  12    8.10    8.40
   5   4 -12  298.07   23.00
   5   4 -12  324.37   23.00
  -5  -4  12  359.06   27.50
   4   4 -12   39.10    7.10
   4   4 -12   38.70    7.00
  -4  -4  12   45.20    9.80
   3   4 -12  381.76   24.10
   3   4 -12  358.06   23.90
  -3  -4  12  312.57   26.10
  -3  -4  12  317.97   25.00
   2   4 -12  102.29   10.80
   2   4 -12  116.49   11.30
  -2  -4  12   94.99   13.20
  -2  -4  12  106.99   13.00
   1   4 -12  650.13   40.30
   1   4 -12  610.44   40.10
  -1  -4  12  622.24   41.70
  -1  -4  12  644.24   42.30
   0   4 -12  197.38   16.20
   0   4 -12  198.68   16.00
   0  -4  12  204.88   18.70
   0  -4  12  199.88   16.40
   0  -4  12  206.18   17.60
  -1   4 -12  293.27   21.60
  -1   4 -12  272.97   21.30
   1  -4  12  297.97   21.80
   1  -4  12  318.37   24.20
  -2   4 -12  165.78   15.00
  -2   4 -12  143.79   14.40
   2  -4  12  167.28   17.30
   2  -4  12  178.28   15.90
  -3   4 -12  109.59   12.00
  -3   4 -12   95.09   11.70
   3  -4  12   98.09   14.00
   3  -4  12  112.09   13.60
  -4   4 -12  200.78   17.00
  -4   4 -12  200.18   17.10
   4  -4  12  185.28   18.40
   4  -4  12  184.58   19.20
   6   3 -12   18.80    5.90
   6   3 -12   14.60    6.20
  -6  -3  12   24.10    8.20
  -6  -3  12   23.40    9.60
   5   3 -12  278.77   21.30
   5   3 -12  293.97   20.80
  -5  -3  12  291.97   25.30
   4   3 -12   10.90    5.30
   4   3 -12   12.20    4.90
  -4  -3  12    5.80    5.20
  -4  -3  12    1.40    6.90
   3   3 -12   64.69    8.70
   3   3 -12   65.19    8.80
  -3  -3  12   68.79   10.70
  -3  -3  12   59.79   10.50
   2   3 -12   26.80    5.70
   2   3 -12   34.00    6.20
  -2  -3  12   18.50    6.70
  -2  -3  12   14.40    7.10
   1   3 -12   20.90    5.50
   1   3 -12   25.50    5.90
   1   3 -12   14.70    5.00
  -1  -3  12   31.90    7.60
  -1  -3  12   32.90    6.00
  -1  -3  12   40.00    8.30
   0   3 -12   10.80    5.00
   0   3 -12    7.80    4.80
   0  -3  12   19.70    7.10
   0  -3  12   10.60    5.40
   0  -3  12    9.80    6.10
  -1   3 -12  123.69   12.40
  -1   3 -12  106.69   12.20
   1  -3  12  141.29   13.70
   1  -3  12  165.58   15.70
   1  -3  12  141.99   13.40
  -2   3 -12   75.99   10.60
  -2   3 -12   84.19   10.70
   2  -3  12  113.09   13.80
  -3   3 -12   28.20    7.10
  -3   3 -12   33.60    7.30
   3  -3  12   52.09    8.90
   3  -3  12   40.60    9.50
  -4   3 -12   84.99   12.00
  -4   3 -12   82.49   11.50
   4  -3  12  132.09   14.40
   4  -3  12  111.49   14.60
   7   2 -12  109.99   13.30
   7   2 -12  131.59   12.50
  -7  -2  12  115.19   14.80
  -7  -2  12  110.29   16.50
   6   2 -12    1.40    4.60
   6   2 -12    3.40    5.50
  -6  -2  12    4.80    6.30
  -6  -2  12   -0.10    7.60
   5   2 -12  293.17   20.70
   5   2 -12  270.67   21.40
  -5  -2  12  318.37   25.10
   4   2 -12   21.50    6.10
   4   2 -12   19.50    5.10
  -4  -2  12    7.80    7.10
  -4  -2  12    1.30    5.20
   3   2 -12  206.68   17.50
   3   2 -12  241.88   17.30
  -3  -2  12  230.58   20.10
  -3  -2  12  255.77   19.30
   2   2 -12  323.97   22.90
   2   2 -12  356.26   22.60
   2   2 -12  312.07   21.80
  -2  -2  12  306.77   24.70
  -2  -2  12  321.57   24.40
  -2  -2  12  342.87   22.30
   1   2 -12  284.37   20.00
   1   2 -12  266.97   20.30
   1   2 -12  269.87   19.70
  -1  -2  12  298.67   22.00
  -1  -2  12  293.47   20.20
  -1  -2  12  277.77   21.90
   0   2 -12  568.44   37.60
   0   2 -12  600.04   37.40
   0  -2  12  559.84   38.40
   0  -2  12  596.94   39.20
   0  -2  12  604.64   37.70
  -1   2 -12  317.57   21.70
  -1   2 -12  308.37   21.90
   1  -2  12  287.67   22.10
   1  -2  12  283.67   21.90
   1  -2  12  298.67   23.20
  -2   2 -12  506.15   34.50
  -2   2 -12  497.95   34.10
   2  -2  12  564.74   35.20
   2  -2  12  514.35   35.70
  -3   2 -12  244.08   18.70
  -3   2 -12  231.78   18.70
   3  -2  12  229.08   19.50
   3  -2  12  230.08   20.20
  -4   2 -12  303.47   23.20
  -4   2 -12  298.27   23.50
   4  -2  12  328.77   25.20
   4  -2  12  335.47   24.80
  -5   2 -12   51.19    9.10
  -5   2 -12   53.09    9.10
   5  -2  12   46.30   10.00
   5  -2  12   46.80   10.30
   7   1 -12   55.09    9.50
  -7  -1  12   59.29   12.40
  -7  -1  12   67.59   10.90
   6   1 -12   12.10    5.10
   6   1 -12   18.10    6.40
  -6  -1  12   20.60    7.20
  -6  -1  12   20.20    9.30
   5   1 -12   69.99    8.70
   5   1 -12   68.19    9.70
  -5  -1  12   60.19   11.60
   4   1 -12  126.89   13.00
   4   1 -12  134.49   11.80
  -4  -1  12  153.28   13.70
  -4  -1  12  129.49   15.60
   3   1 -12   95.89   11.00
   3   1 -12  107.89   10.30
   3   1 -12  106.29    9.90
  -3  -1  12  104.19   14.00
  -3  -1  12  102.29   12.10
   2   1 -12   58.59    7.80
   2   1 -12   59.89    7.90
   2   1 -12   59.09    8.30
  -2  -1  12   65.49   10.60
  -2  -1  12   75.29    8.80
  -2  -1  12   68.09    9.90
   1   1 -12   62.79    7.80
   1   1 -12   55.99    7.90
   1   1 -12   50.39    7.60
  -1  -1  12   43.10    8.60
  -1  -1  12   53.89    7.70
  -1  -1  12   44.90    8.70
   0   1 -12   42.40    6.60
   0   1 -12   41.80    7.00
   0   1 -12   29.70    6.50
   0  -1  12   49.90    8.40
   0  -1  12   53.59    7.60
   0  -1  12   57.49    9.30
  -1   1 -12   47.80    7.20
  -1   1 -12   49.10    8.00
   1  -1  12   54.09    9.40
   1  -1  12   44.60    7.60
   1  -1  12   51.69    8.40
  -2   1 -12   73.49   10.00
  -2   1 -12   62.49   10.10
   2  -1  12  104.29   13.10
   2  -1  12   97.19   11.80
  -3   1 -12    9.40    5.20
  -3   1 -12    5.50    5.30
   3  -1  12    3.20    6.30
   3  -1  12    7.40    7.00
  -4   1 -12   44.40    8.00
  -4   1 -12   51.09    8.90
   4  -1  12   49.10    9.80
   4  -1  12   51.49    9.70
  -5   1 -12   91.59   12.00
  -5   1 -12   87.99   12.30
   5  -1  12   99.29   14.40
   5  -1  12   80.69   12.10
   5  -1  12   83.89   12.10
   7   0 -12  107.09   13.50
  -7   0  12  106.19   16.40
  -7   0  12  112.59   14.40
   6   0 -12   95.79   12.10
  -6   0  12  107.49   12.50
  -6   0  12   79.49   13.50
   5   0 -12  399.76   28.40
  -5   0  12  428.46   31.90
  -5   0  12  428.16   31.10
   4   0 -12   17.20    4.80
   4   0 -12   17.20    5.00
   4   0 -12   14.30    5.70
  -4   0  12   15.90    7.60
  -4   0  12   17.50    5.90
   3   0 -12 1409.66   87.19
   3   0 -12 1516.25   86.19
   3   0 -12 1429.56   86.29
  -3   0  12 1422.16   89.09
  -3   0  12 1478.55   87.99
   2   0 -12   52.49    7.80
   2   0 -12   47.70    6.70
   2   0 -12   46.40    6.40
  -2   0  12   45.00    8.40
  -2   0  12   40.50    8.80
  -2   0  12   47.00    7.00
   1   0 -12  593.34   38.50
   1   0 -12  594.84   38.00
   1   0 -12  608.04   37.30
  -1   0  12  623.14   38.20
  -1   0  12  574.84   39.60
  -1   0  12  596.14   39.50
   0   0 -12   13.80    5.20
   0   0 -12    9.00    4.90
   0   0 -12   15.80    4.70
   0   0  12   17.90    5.80
   0   0  12   10.70    6.40
   0   0  12   12.80    5.90
  -1   0 -12  359.16   26.00
  -1   0 -12  372.56   25.10
   1   0  12  384.86   27.50
   1   0  12  389.06   26.50
   1   0  12  363.76   26.10
  -2   0 -12   32.40    6.60
  -2   0 -12   30.80    7.00
   2   0  12   37.50    8.60
   2   0  12   32.90    8.00
  -3   0 -12   20.30    5.90
  -3   0 -12   21.40    6.40
   3   0  12   24.60    8.00
   3   0  12   23.20    7.60
  -4   0 -12  229.38   18.60
  -4   0 -12  228.28   19.20
   4   0  12  239.28   20.50
   4   0  12  240.78   20.60
  -5   0 -12   -2.20    5.50
  -5   0 -12    0.50    5.30
   5   0  12   -0.20    7.10
   5   0  12    3.70    6.90
   5   0  12   -0.30    7.20
   7  -1 -12   70.19   10.30
  -7   1  12   53.49   10.50
  -7   1  12   49.10   11.80
   6  -1 -12   22.70    6.90
  -6   1  12   10.20    8.10
  -6   1  12   16.50    7.00
   5  -1 -12   57.89    7.90
   5  -1 -12   58.89    8.90
  -5   1  12   65.59    9.80
  -5   1  12   54.99   10.80
   4  -1 -12  136.49   13.20
   4  -1 -12  140.39   12.50
  -4   1  12  143.89   15.90
  -4   1  12  139.89   13.50
   3  -1 -12   98.19   10.60
   3  -1 -12  111.79    9.70
   3  -1 -12  100.39   11.20
  -3   1  12  105.09   12.00
  -3   1  12  100.89   13.50
   2  -1 -12   60.89    9.00
   2  -1 -12   72.79    7.90
   2  -1 -12   75.99    8.80
  -2   1  12   63.99    9.80
  -2   1  12   61.39   10.00
  -2   1  12   59.99    8.20
   1  -1 -12   39.20    7.20
   1  -1 -12   54.69    7.10
   1  -1 -12   49.90    7.30
  -1   1  12   57.19    9.30
  -1   1  12   67.89    9.10
  -1   1  12   58.79    9.70
   0  -1 -12   50.99    7.60
   0  -1 -12   54.69    7.30
   0  -1 -12   46.80    7.20
   0   1  12   39.30    8.60
   0   1  12   31.10    7.50
   0   1  12   34.30    7.30
  -1  -1 -12   58.29    8.40
  -1  -1 -12   53.39    7.40
  -1  -1 -12   47.80    7.90
   1   1  12   57.39    8.60
   1   1  12   52.09    9.20
   1   1  12   45.80    8.50
  -2  -1 -12   88.69    9.70
  -2  -1 -12   80.39   10.80
   2   1  12   81.59   11.70
   2   1  12   74.09   10.60
  -3  -1 -12    6.00    5.20
  -3  -1 -12    3.10    4.80
   3   1  12    7.50    6.80
   3   1  12   14.90    7.30
  -4  -1 -12   57.09    8.60
  -4  -1 -12   37.60    8.20
   4   1  12   49.50    9.70
   4   1  12   48.30    9.60
  -5  -1 -12   88.59   12.30
  -5  -1 -12   82.99   11.60
   5   1  12  104.29   14.50
   5   1  12   82.09   12.20
   5   1  12   91.69   13.60
   7  -2 -12  111.09   14.00
  -7   2  12  135.29   15.30
  -7   2  12  130.99   17.60
   6  -2 -12    3.20    6.00
  -6   2  12    3.20    6.10
  -6   2  12   -1.80    7.30
   5  -2 -12  299.87   21.20
   5  -2 -12  314.97   22.20
  -5   2  12  272.47   21.60
  -5   2  12  285.47   25.00
   4  -2 -12    8.00    4.90
   4  -2 -12    1.10    4.90
  -4   2  12   22.60    8.30
  -4   2  12   16.90    6.00
   3  -2 -12  244.28   18.00
   3  -2 -12  246.78   18.80
  -3   2  12  231.18   21.00
  -3   2  12  244.48   19.40
   2  -2 -12  341.77   24.00
   2  -2 -12  309.67   23.20
  -2   2  12  341.47   25.80
  -2   2  12  364.96   25.20
   1  -2 -12  280.47   20.50
   1  -2 -12  252.77   19.60
   1  -2 -12  277.07   18.70
  -1   2  12  309.07   20.80
  -1   2  12  258.67   21.50
  -1   2  12  271.07   21.70
   0  -2 -12  572.04   37.60
   0  -2 -12  588.34   36.50
   0  -2 -12  591.04   37.80
   0   2  12  580.64   39.30
   0   2  12  585.64   38.50
   0   2  12  577.54   37.90
  -1  -2 -12  272.17   20.80
  -1  -2 -12  284.87   22.10
  -1  -2 -12  310.87   22.50
   1   2  12  311.87   23.90
   1   2  12  323.57   22.80
   1   2  12  322.47   22.50
  -2  -2 -12  501.25   34.30
  -2  -2 -12  511.85   34.50
  -2  -2 -12  514.65   33.00
   2   2  12  521.55   35.50
   2   2  12  498.65   34.70
  -3  -2 -12  225.58   19.40
  -3  -2 -12  250.77   18.70
   3   2  12  255.27   20.80
   3   2  12  249.18   21.10
  -4  -2 -12  337.37   23.20
  -4  -2 -12  337.07   24.40
   4   2  12  298.47   25.00
   4   2  12  291.97   24.50
  -5  -2 -12   50.09    9.20
  -5  -2 -12   41.40    8.10
   5   2  12   51.59   10.20
   5   2  12   49.90   10.20
   5   2  12   35.90    9.30
   6  -3 -12   25.30    7.10
   6  -3 -12   23.10    6.40
  -6   3  12   18.60    7.20
  -6   3  12   14.90    8.50
   5  -3 -12  262.67   20.90
   5  -3 -12  261.17   20.30
  -5   3  12  284.47   24.20
  -5   3  12  276.17   21.30
  -5   3  12  300.87   21.10
   4  -3 -12    1.80    4.60
   4  -3 -12    2.70    5.10
  -4   3  12   14.00    8.10
  -4   3  12   14.20    5.90
   3  -3 -12   62.69    9.00
   3  -3 -12   66.09    9.80
  -3   3  12   61.39   10.90
  -3   3  12   60.89    9.50
   2  -3 -12   18.00    5.80
   2  -3 -12   18.80    6.00
  -2   3  12   33.50    8.70
  -2   3  12   37.20    8.00
   1  -3 -12   34.20    6.50
  -1   3  12   16.90    7.10
  -1   3  12   15.70    7.20
  -1   3  12   21.50    6.40
   0  -3 -12   12.20    5.30
   0  -3 -12   15.70    5.50
   0  -3 -12   11.70    4.70
   0   3  12    6.10    6.60
   0   3  12    9.40    5.90
   0   3  12   13.10    6.50
  -1  -3 -12  151.58   12.00
  -1  -3 -12  144.69   13.60
  -1  -3 -12  135.09   13.30
   1   3  12  124.69   15.00
   1   3  12  127.29   13.70
   1   3  12  117.99   13.90
  -2  -3 -12  109.69   12.20
  -2  -3 -12  107.19   12.30
  -2  -3 -12  111.09   10.40
   2   3  12   79.49   12.20
   2   3  12   78.79   11.50
  -3  -3 -12   48.50    8.50
  -3  -3 -12   51.39    9.00
  -3  -3 -12   45.60    7.40
   3   3  12   29.90    8.80
   3   3  12   33.20    9.10
  -4  -3 -12  111.19   11.20
  -4  -3 -12  108.19   12.90
   4   3  12   64.99   11.50
   4   3  12   75.79   12.20
   6  -4 -12    7.00    6.10
   6  -4 -12    8.90    5.80
  -6   4  12    6.60    6.50
  -6   4  12    6.20    8.30
   5  -4 -12  312.27   23.10
   5  -4 -12  318.87   23.30
   5  -4 -12  323.07   23.00
  -5   4  12  307.77   23.60
  -5   4  12  322.27   23.40
  -5   4  12  315.37   26.70
   4  -4 -12   52.39    7.90
   4  -4 -12   58.19    8.60
  -4   4  12   48.00    8.60
  -4   4  12   34.80    9.90
   3  -4 -12  314.37   24.00
   3  -4 -12  307.97   23.80
  -3   4  12  382.16   25.30
  -3   4  12  366.66   27.10
   2  -4 -12  103.59   11.70
   2  -4 -12  107.29   11.70
  -2   4  12  113.79   14.40
  -2   4  12  118.09   13.40
   1  -4 -12  641.24   40.90
   1  -4 -12  633.64   40.80
  -1   4  12  629.34   42.10
  -1   4  12  633.84   42.20
   0  -4 -12  177.58   16.10
   0  -4 -12  203.08   16.40
   0   4  12  189.28   18.20
   0   4  12  212.68   17.40
   0   4  12  198.58   17.70
  -1  -4 -12  281.97   21.70
  -1  -4 -12  276.37   21.60
   1   4  12  301.37   22.30
   1   4  12  300.17   22.40
   1   4  12  275.27   23.50
  -2  -4 -12  160.38   15.20
  -2  -4 -12  162.88   15.40
  -2  -4 -12  158.28   13.50
   2   4  12  146.99   15.70
   2   4  12  150.48   16.90
  -3  -4 -12   93.19   10.60
  -3  -4 -12  101.39   12.60
  -3  -4 -12  100.79   13.00
   3   4  12  118.29   14.90
   3   4  12   88.49   13.50
  -4  -4 -12  181.28   15.70
  -4  -4 -12  176.98   17.30
  -4  -4 -12  176.78   17.40
   4   4  12  191.78   18.50
   4   4  12  199.38   18.90
   5  -5 -12   78.69   11.00
   5  -5 -12   87.59   11.30
   5  -5 -12   95.29   11.70
  -5   5  12   51.09   11.90
  -5   5  12   61.59   10.00
  -5   5  12   78.19   11.80
   4  -5 -12  244.78   19.40
   4  -5 -12  246.18   19.80
   4  -5 -12  272.87   19.70
  -4   5  12  235.28   22.30
  -4   5  12  233.98   20.00
   3  -5 -12  116.29   13.00
   3  -5 -12  123.69   12.70
  -3   5  12  136.69   14.20
  -3   5  12  120.59   15.70
   2  -5 -12  320.87   23.00
   2  -5 -12  335.07   22.80
  -2   5  12  297.17   23.80
  -2   5  12  293.17   25.00
   1  -5 -12   99.79   11.70
   1  -5 -12  104.89   12.10
  -1   5  12  108.59   14.00
  -1   5  12  120.49   13.90
   0  -5 -12  145.79   13.40
   0  -5 -12  144.49   13.00
   0   5  12  124.39   13.80
   0   5  12  100.19   14.30
   0   5  12   99.19   14.20
  -1  -5 -12   88.69   11.60
  -1  -5 -12   94.79   11.90
   1   5  12  103.39   13.20
   1   5  12  101.79   14.30
   1   5  12  100.19   13.10
  -2  -5 -12    0.00    5.20
  -2  -5 -12    0.20    5.40
   2   5  12    2.00    7.40
   2   5  12    1.40    7.20
   2   5  12    1.00    6.40
  -3  -5 -12   -0.50    5.60
  -3  -5 -12    0.70    5.60
   3   5  12    2.00    7.10
   3   5  12    4.50    7.70
  -4  -5 -12    8.20    6.40
  -4  -5 -12    6.40    6.30
   4   5  12    6.80    7.60
   4   5  12    7.40    8.00
   5  -6 -12   71.59   10.20
   5  -6 -12   76.29   11.40
   5  -6 -12   69.19   11.00
  -5   6  12   77.29   13.50
  -5   6  12   79.49   11.00
  -5   6  12   79.99   12.40
   4  -6 -12    7.80    5.90
   4  -6 -12    8.50    5.80
   4  -6 -12   10.00    5.90
  -4   6  12    0.70    6.10
  -4   6  12    2.90    7.90
   3  -6 -12  204.88   18.80
   3  -6 -12  210.88   17.90
   3  -6 -12  200.68   18.10
  -3   6  12  241.88   21.90
  -3   6  12  269.27   20.20
   2  -6 -12  103.49   12.40
   2  -6 -12   98.49   11.90
   2  -6 -12   98.69   11.00
  -2   6  12   73.59   11.60
  -2   6  12   79.49   12.90
   1  -6 -12   38.90    7.80
   1  -6 -12   43.50    7.70
  -1   6  12   52.19   10.50
  -1   6  12   54.19   10.10
   0  -6 -12   79.99   11.10
   0  -6 -12   69.89   10.20
   0   6  12   49.90   10.30
   0   6  12   54.49   10.30
  -1  -6 -12  106.59   13.00
  -1  -6 -12  106.29   12.70
   1   6  12  112.99   15.00
   1   6  12  111.89   14.00
   1   6  12  121.99   14.30
  -2  -6 -12  142.09   14.50
  -2  -6 -12  152.28   14.20
   2   6  12  116.09   14.70
   2   6  12  115.79   15.50
   2   6  12  102.49   15.50
  -3  -6 -12   49.80    9.30
  -3  -6 -12   37.20    8.40
   3   6  12   43.90   10.00
   3   6  12   40.10   10.40
   4  -7 -12   59.19    9.40
   4  -7 -12   50.39    9.30
   4  -7 -12   56.59    8.80
  -4   7  12   34.40   11.00
  -4   7  12   36.90    9.00
   3  -7 -12    7.50    5.90
   3  -7 -12    8.00    5.50
   3  -7 -12   10.70    6.40
  -3   7  12    4.30    8.20
  -3   7  12   13.20    7.20
   2  -7 -12   14.20    5.80
   2  -7 -12   11.80    6.30
   2  -7 -12   13.20    7.00
  -2   7  12   17.40    8.00
  -2   7  12   13.50    8.60
   1  -7 -12   20.20    6.40
   1  -7 -12   22.30    7.70
   1  -7 -12   22.90    6.70
  -1   7  12    8.00    8.20
  -1   7  12   10.00    7.60
   0  -7 -12   75.09   10.60
   0  -7 -12   80.59   12.00
   0  -7 -12   84.39   11.10
   0   7  12   79.69   12.30
   0   7  12   67.99   11.50
  -1  -7 -12   35.40    8.10
  -1  -7 -12   41.00    7.90
  -1  -7 -12   37.70    9.10
   1   7  12   27.20    9.00
   1   7  12   21.50    8.70
  -2  -7 -12   90.49   12.60
  -2  -7 -12   84.59   13.40
  -2  -7 -12   78.49   11.90
   2   7  12   95.59   14.00
   2   7  12   82.09   12.80
   2   7  12   80.09   11.90
   2  -8 -12   44.70    8.80
   2  -8 -12   39.50    9.20
  -2   8  12   57.79   11.70
  -2   8  12   59.09   10.40
   1  -8 -12  100.79   13.70
   1  -8 -12  106.19   13.30
  -1   8  12  106.99   16.10
  -1   8  12  104.19   15.00
   0  -8 -12  175.38   17.80
   0  -8 -12  182.08   17.40
   0   8  12  190.68   19.20
   0   8  12  188.98   19.90
   1   7 -13   90.29   12.00
  -1  -7  13   98.09   14.30
  -1  -7  13  100.39   14.90
   3   6 -13   15.30    6.30
  -3  -6  13   20.10    8.50
  -3  -6  13   24.60    8.20
   2   6 -13   20.90    6.60
  -2  -6  13   12.40    7.60
  -2  -6  13   11.20    7.70
   1   6 -13   49.80    8.50
  -1  -6  13   37.00    9.00
  -1  -6  13   38.30    9.80
   0   6 -13   88.79   11.70
   0  -6  13   69.69   11.00
   0  -6  13   96.39   14.20
  -1   6 -13   45.60    8.40
   1  -6  13   36.30   10.30
   4   5 -13  249.58   19.10
   4   5 -13  243.48   19.00
  -4  -5  13  224.28   22.00
   3   5 -13   36.60    7.20
   3   5 -13   43.10    7.50
  -3  -5  13   24.70    7.90
  -3  -5  13   25.80    8.70
   2   5 -13   76.79   10.90
   2   5 -13   73.79   10.30
  -2  -5  13   81.79   12.20
  -2  -5  13   84.19   12.90
   1   5 -13    8.30    5.20
   1   5 -13   10.60    5.50
  -1  -5  13   12.70    7.00
  -1  -5  13    9.10    7.20
   0   5 -13   79.99   11.10
   0   5 -13   94.69   12.00
   0  -5  13  130.39   14.10
  -1   5 -13  223.48   18.60
  -1   5 -13  209.38   23.20
   1  -5  13  250.07   21.50
  -2   5 -13   41.80    8.30
   2  -5  13   60.09    9.40
   2  -5  13   46.20   10.60
   5   4 -13   51.09    8.50
   5   4 -13   59.69    8.70
  -5  -4  13   62.49   12.00
   4   4 -13    6.00    5.10
   4   4 -13    8.00    5.30
  -4  -4  13   17.70    8.80
   3   4 -13   82.89   10.90
   3   4 -13   84.19   10.80
  -3  -4  13  102.19   14.30
  -3  -4  13  110.89   13.30
   2   4 -13  111.19   11.90
   2   4 -13  106.29   12.00
  -2  -4  13  119.99   15.10
  -2  -4  13  129.79   14.20
   1   4 -13   52.49    8.20
   1   4 -13   49.20    8.20
  -1  -4  13   63.19   10.40
  -1  -4  13   58.99   10.50
   0   4 -13  309.77   22.30
   0   4 -13  302.17   22.10
   0  -4  13  279.47   23.00
   0  -4  13  305.67   24.50
  -1   4 -13   28.20    6.80
  -1   4 -13   18.20    6.00
   1  -4  13   21.90    7.00
   1  -4  13   22.90    8.60
  -2   4 -13  154.68   14.80
  -2   4 -13  140.89   14.20
   2  -4  13  145.09   15.30
   2  -4  13  147.79   17.20
  -3   4 -13   64.69    9.90
  -3   4 -13   53.99    9.30
   3  -4  13   75.79   12.00
   3  -4  13   79.69   11.20
   5   3 -13   45.00    7.70
   5   3 -13   49.80    8.60
  -5  -3  13   66.39   12.30
   4   3 -13  317.27   21.60
   4   3 -13  312.47   22.20
  -4  -3  13  267.97   24.80
  -4  -3  13  274.57   25.10
   3   3 -13   67.79    9.50
   3   3 -13   66.19    9.00
  -3  -3  13   87.29   12.20
  -3  -3  13   85.69   12.60
   2   3 -13  574.94   35.70
   2   3 -13  542.85   35.90
  -2  -3  13  556.54   37.60
  -2  -3  13  521.75   37.90
   1   3 -13  140.19   13.60
   1   3 -13  142.89   13.50
  -1  -3  13  147.29   15.60
  -1  -3  13  157.38   15.80
   0   3 -13  448.66   28.40
   0   3 -13  424.76   28.60
   0  -3  13  370.46   29.20
   0  -3  13  424.56   30.30
   0  -3  13  406.06   28.40
  -1   3 -13    4.80    5.20
  -1   3 -13    0.70    5.00
   1  -3  13    5.50    6.00
   1  -3  13    7.80    6.90
  -2   3 -13   84.99   11.20
  -2   3 -13   87.09   11.20
   2  -3  13   68.99   11.30
   2  -3  13   77.99   10.80
  -3   3 -13   10.60    6.10
  -3   3 -13    9.80    6.00
   3  -3  13    9.40    7.50
   3  -3  13    0.30    6.80
   6   2 -13  130.49   12.60
   6   2 -13  119.29   13.70
  -6  -2  13  141.59   18.30
   5   2 -13   54.49    8.70
   5   2 -13   62.69    9.00
  -5  -2  13   47.40   11.60
   4   2 -13  191.88   15.20
   4   2 -13  184.58   16.30
  -4  -2  13  178.88   19.10
  -4  -2  13  191.98   17.10
   3   2 -13   11.20    5.10
   3   2 -13   14.50    6.00
  -3  -2  13   17.00    7.90
  -3  -2  13    9.60    6.40
   2   2 -13  496.15   30.70
   2   2 -13  457.45   31.10
  -2  -2  13  435.66   33.10
  -2  -2  13  465.65   32.70
   1   2 -13    0.80    4.30
   1   2 -13    6.80    5.20
   1   2 -13    7.60    4.90
  -1  -2  13    3.10    6.40
  -1  -2  13   -3.20    6.00
  -1  -2  13    2.70    5.20
   0   2 -13  219.58   17.80
   0   2 -13  235.88   17.40
   0   2 -13  208.78   17.40
   0  -2  13  222.18   17.90
   0  -2  13  216.18   19.00
   0  -2  13  220.38   19.60
  -1   2 -13   34.60    7.50
  -1   2 -13   34.80    7.20
   1  -2  13   63.49    9.30
   1  -2  13   64.69   10.60
  -2   2 -13   34.60    7.70
  -2   2 -13   39.60    7.70
   2  -2  13   60.09    9.40
   2  -2  13   63.69   11.10
  -3   2 -13   46.70    8.50
  -3   2 -13   54.59    8.80
   3  -2  13   42.00   10.00
   3  -2  13   46.90    9.40
  -4   2 -13   24.50    7.20
  -4   2 -13   26.60    7.30
   4  -2  13   18.10    8.60
   4  -2  13   24.50    8.70
   6   1 -13  223.08   19.80
  -6  -1  13  275.47   23.90
   5   1 -13    5.10    5.70
   5   1 -13    7.40    4.80
  -5  -1  13    0.90    7.90
   4   1 -13  416.76   27.90
   4   1 -13  394.46   29.10
  -4  -1  13  456.55   30.10
  -4  -1  13  439.56   32.30
   3   1 -13   -0.40    4.30
   3   1 -13    3.00    4.90
  -3  -1  13    8.40    7.30
  -3  -1  13    1.60    5.80
   2   1 -13  199.28   16.00
   2   1 -13  196.48   15.90
   2   1 -13  187.48   16.80
  -2  -1  13  214.28   18.70
  -2  -1  13  228.48   19.80
  -2  -1  13  254.27   17.00
   1   1 -13   28.70    6.10
   1   1 -13   27.80    6.30
   1   1 -13   26.30    6.60
  -1  -1  13   39.50    8.80
  -1  -1  13   39.60    7.10
  -1  -1  13   28.80    8.20
   0   1 -13  102.29   11.80
   0   1 -13   98.19   11.70
   0   1 -13  118.29   11.50
   0  -1  13  116.69   12.60
   0  -1  13  108.69   13.00
   0  -1  13  126.49   14.60
  -1   1 -13   61.49    8.60
  -1   1 -13   59.59    8.90
   1  -1  13   67.09    9.80
   1  -1  13   60.29   10.40
  -2   1 -13  117.79   13.50
  -2   1 -13  112.99   12.80
   2  -1  13  165.68   15.50
   2  -1  13  155.38   16.40
  -3   1 -13   45.30    8.10
  -3   1 -13   42.60    8.50
   3  -1  13   49.80   10.30
   3  -1  13   55.49    9.90
  -4   1 -13   71.89   10.10
  -4   1 -13   61.69   10.10
   4  -1  13   83.29   12.20
   4  -1  13   71.39   11.30
   6   0 -13   75.09   10.50
  -6   0  13   75.69   13.60
   5   0 -13   35.70    7.60
  -5   0  13   33.50   10.20
   4   0 -13   34.20    6.10
   4   0 -13   25.20    6.70
  -4   0  13   29.10    9.10
  -4   0  13   39.70    8.00
   3   0 -13    6.00    4.40
   3   0 -13    6.50    4.70
   3   0 -13    6.20    5.20
  -3   0  13    1.10    6.70
  -3   0  13    7.10    5.90
   2   0 -13  109.09   10.40
   2   0 -13  100.39   11.70
   2   0 -13   95.29   10.50
  -2   0  13   98.69   13.40
  -2   0  13  104.69   13.80
  -2   0  13  124.09   11.90
   1   0 -13  239.68   17.00
   1   0 -13  218.58   18.10
   1   0 -13  223.18   17.50
  -1   0  13  221.48   19.30
  -1   0  13  232.68   18.00
  -1   0  13  212.18   19.60
   0   0 -13  181.78   15.70
   0   0 -13  172.08   15.80
   0   0 -13  188.38   14.90
   0   0  13  191.68   16.40
   0   0  13  191.18   17.00
   0   0  13  187.68   18.00
  -1   0 -13  334.37   24.10
  -1   0 -13  348.87   25.40
  -1   0 -13  332.37   25.10
   1   0  13  349.87   25.10
   1   0  13  361.06   25.90
   1   0  13  367.26   26.80
  -2   0 -13  624.24   42.40
  -2   0 -13  637.94   41.50
   2   0  13  673.43   42.90
   2   0  13  663.33   43.50
  -3   0 -13   76.49   11.40
  -3   0 -13   74.29   10.60
   3   0  13   88.79   13.10
   3   0  13   82.59   12.20
  -4   0 -13  272.77   22.30
  -4   0 -13  288.77   21.80
   4   0  13  294.67   23.90
   4   0  13  292.27   23.90
   6  -1 -13  245.58   19.90
  -6   1  13  224.28   23.10
   5  -1 -13    8.70    6.00
  -5   1  13    7.70    7.90
   4  -1 -13  451.75   28.60
   4  -1 -13  417.76   29.30
  -4   1  13  438.46   29.90
  -4   1  13  389.16   31.60
   3  -1 -13    3.50    4.70
   3  -1 -13    2.70    5.10
  -3   1  13    3.90    6.90
  -3   1  13    2.70    5.90
   2  -1 -13  231.08   18.10
   2  -1 -13  236.68   16.40
   2  -1 -13  228.58   17.50
  -2   1  13  208.58   19.10
  -2   1  13  204.08   19.80
   1  -1 -13   28.40    6.80
   1  -1 -13   28.30    6.60
   1  -1 -13   34.00    5.90
  -1   1  13   31.80    8.50
  -1   1  13   22.40    7.70
  -1   1  13   32.90    7.30
   0  -1 -13  110.79   12.20
   0  -1 -13  120.39   11.00
   0  -1 -13  110.39   12.10
   0   1  13  114.89   14.30
   0   1  13  111.49   12.90
   0   1  13  106.19   13.30
  -1  -1 -13   47.60    8.60
  -1  -1 -13   61.29    9.40
  -1  -1 -13   60.49    8.10
   1   1  13   63.89   10.80
   1   1  13   65.19   10.00
   1   1  13   63.69    9.50
  -2  -1 -13  133.29   13.90
  -2  -1 -13  147.89   12.70
   2   1  13  110.09   15.30
   2   1  13  114.29   14.50
  -3  -1 -13   57.39    9.30
  -3  -1 -13   53.69    8.30
   3   1  13   51.59    9.90
   3   1  13   48.10   10.30
  -4  -1 -13   82.09   10.80
  -4  -1 -13   77.19   11.50
   4   1  13   55.69   11.30
   4   1  13   57.89   11.10
   6  -2 -13  128.89   14.50
  -6   2  13  136.59   17.70
   5  -2 -13   39.50    7.50
   5  -2 -13   50.09    8.80
  -5   2  13   66.69   12.00
   4  -2 -13  180.28   15.60
   4  -2 -13  187.48   16.50
  -4   2  13  183.48   19.50
  -4   2  13  202.68   17.00
   3  -2 -13   11.40    5.30
   3  -2 -13   19.20    6.40
  -3   2  13   11.10    7.70
  -3   2  13   11.70    6.60
   2  -2 -13  448.56   31.20
   2  -2 -13  468.35   31.90
  -2   2  13  471.85   33.60
  -2   2  13  493.65   33.20
   1  -2 -13    4.30    5.30
   1  -2 -13    4.10    4.70
  -1   2  13    6.10    5.90
  -1   2  13    3.80    6.70
  -1   2  13    3.90    6.40
   0  -2 -13  213.68   16.20
   0  -2 -13  201.98   17.70
   0  -2 -13  201.38   17.80
   0   2  13  235.48   19.30
   0   2  13  235.28   18.50
   0   2  13  232.98   20.20
  -1  -2 -13   66.39    8.50
  -1  -2 -13   58.09    8.90
  -1  -2 -13   51.39    8.60
   1   2  13   30.40    9.10
   1   2  13   39.00    8.80
   1   2  13   37.80    8.10
  -2  -2 -13   50.29    7.70
  -2  -2 -13   51.29    8.90
  -2  -2 -13   48.40    8.80
   2   2  13   35.80    9.60
   2   2  13   36.90    9.00
  -3  -2 -13   39.20    8.30
  -3  -2 -13   39.80    7.40
   3   2  13   43.90   10.10
   3   2  13   47.10    9.80
  -4  -2 -13   20.80    6.60
  -4  -2 -13   20.00    7.40
   4   2  13   23.60    8.70
   4   2  13   29.60    9.30
   5  -3 -13   51.89    8.40
   5  -3 -13   58.19    9.10
  -5   3  13   42.50   11.30
   4  -3 -13  274.47   21.70
   4  -3 -13  251.27   20.90
  -4   3  13  324.77   25.40
  -4   3  13  306.87   22.40
   3  -3 -13   63.49    8.80
   3  -3 -13   77.29   10.40
  -3   3  13   60.99   11.60
  -3   3  13   59.19   10.10
   2  -3 -13  522.05   36.00
   2  -3 -13  539.75   36.40
  -2   3  13  569.64   37.90
  -2   3  13  577.24   38.70
   1  -3 -13  145.89   13.60
   1  -3 -13  162.58   14.40
  -1   3  13  127.69   15.60
  -1   3  13  109.59   15.00
  -1   3  13  138.99   14.20
   0  -3 -13  369.06   28.90
   0  -3 -13  410.46   29.40
   0   3  13  460.45   31.80
   0   3  13  458.75   30.10
   0   3  13  429.56   30.20
  -1  -3 -13    3.20    5.50
  -1  -3 -13    4.50    5.60
  -1  -3 -13    1.60    5.40
   1   3  13    3.30    7.20
   1   3  13    1.30    6.10
   1   3  13   -0.40    6.50
  -2  -3 -13   72.89   10.80
  -2  -3 -13   74.29    9.60
  -2  -3 -13   79.69   11.70
   2   3  13   83.79   11.70
   2   3  13   92.89   14.10
  -3  -3 -13    8.20    5.40
  -3  -3 -13    4.10    6.00
  -3  -3 -13   12.00    6.90
   3   3  13   20.20    8.70
   3   3  13   11.70    7.60
   5  -4 -13   62.09    9.50
   5  -4 -13   57.49    9.20
   5  -4 -13   66.69   11.50
  -5   4  13   65.19   12.80
  -5   4  13   49.80    9.30
   4  -4 -13    5.90    5.70
   4  -4 -13    7.50    5.70
  -4   4  13    8.90    6.50
  -4   4  13    6.20    7.90
   3  -4 -13  118.49   12.30
   3  -4 -13  118.09   12.30
  -3   4  13   64.39   12.20
  -3   4  13   79.99   12.40
   2  -4 -13  116.89   12.80
   2  -4 -13  117.79   12.70
  -2   4  13  113.69   14.20
  -2   4  13  106.59   15.00
   1  -4 -13   57.89    9.00
   1  -4 -13   53.69    8.80
  -1   4  13   49.90   10.10
  -1   4  13   56.79   10.30
   0  -4 -13  280.87   22.40
   0  -4 -13  280.07   22.20
   0   4  13  296.67   23.60
   0   4  13  326.67   23.60
   0   4  13  312.07   25.00
  -1  -4 -13   23.90    7.00
  -1  -4 -13   22.80    7.20
   1   4  13   14.80    7.30
   1   4  13   21.10    7.80
   1   4  13   17.20    8.50
  -2  -4 -13  123.99   14.20
  -2  -4 -13  137.69   14.70
   2   4  13  139.09   16.80
   2   4  13  130.09   15.90
  -3  -4 -13   68.29   10.70
  -3  -4 -13   67.69   10.40
   3   4  13   55.59   11.10
   3   4  13   57.09   11.60
   4  -5 -13  236.78   19.60
   4  -5 -13  247.28   19.90
   4  -5 -13  234.88   20.10
  -4   5  13  263.07   23.40
  -4   5  13  246.48   20.50
   3  -5 -13   25.60    7.00
   3  -5 -13   24.10    6.80
  -3   5  13   41.10    9.10
  -3   5  13   37.80   10.20
   2  -5 -13   84.19   11.00
   2  -5 -13   75.39   11.10
  -2   5  13   64.49   11.80
  -2   5  13   75.79   11.50
   1  -5 -13    8.10    5.90
   1  -5 -13    8.30    6.00
  -1   5  13    9.00    7.70
  -1   5  13    8.80    7.50
   0  -5 -13  125.39   12.90
   0  -5 -13  129.39   13.50
   0   5  13   92.19   14.30
   0   5  13   78.29   13.00
   0   5  13  103.29   14.20
  -1  -5 -13  226.58   18.80
  -1  -5 -13  233.58   18.70
   1   5  13  182.28   20.40
   1   5  13  217.08   19.20
   1   5  13  212.78   19.60
  -2  -5 -13   39.40    8.80
  -2  -5 -13   54.39    9.40
   2   5  13   48.90   11.20
   2   5  13   44.40    9.70
   3  -6 -13   28.40    7.20
   3  -6 -13   20.60    7.70
   3  -6 -13   23.50    7.30
  -3   6  13   16.10    9.20
  -3   6  13   11.50    7.50
   2  -6 -13   21.90    6.60
   2  -6 -13   13.70    6.40
  -2   6  13   19.50    9.40
  -2   6  13   18.50    8.10
   1  -6 -13   34.10    8.10
   1  -6 -13   34.70    7.80
  -1   6  13   50.79   10.90
  -1   6  13   32.90    9.50
   0  -6 -13   83.89   11.60
   0  -6 -13   90.79   12.10
   0   6  13   98.59   14.60
   0   6  13   87.99   13.20
  -1  -6 -13   34.30    8.30
  -1  -6 -13   35.90    8.50
   1   6  13   35.30    9.00
   1   6  13   51.69   10.90
   1   6  13   45.60    9.90
  -2   7  13  148.19   18.60
   1  -7 -13  105.39   12.60
   1  -7 -13   89.09   13.90
   1  -7 -13   97.49   12.70
  -1   7  13   86.29   13.70
  -1   7  13   95.89   15.00
   0   7  13   95.39   14.80
   3   5 -14  227.88   18.50
   3   5 -14  230.08   18.60
  -3  -5  14  217.08   20.20
  -3  -5  14  211.78   21.60
   2   5 -14   37.30    7.80
   2   5 -14   45.00    8.30
  -2  -5  14   24.90    9.20
  -2  -5  14   25.20    8.50
   1   5 -14  354.76   24.20
  -1  -5  14  306.77   25.80
  -1  -5  14  288.07   25.50
   0   5 -14    9.50    6.30
   0  -5  14   11.00    7.90
   4   4 -14   13.40    6.10
   4   4 -14   10.80    6.00
  -4  -4  14    5.50    8.20
   3   4 -14   90.59   11.90
   3   4 -14   99.09   11.80
  -3  -4  14  106.89   15.70
  -3  -4  14  106.79   14.10
   2   4 -14    2.70    5.30
   2   4 -14   12.70    5.90
  -2  -4  14   10.40    7.20
  -2  -4  14   19.00    8.20
   1   4 -14   48.40    8.50
   1   4 -14   46.30    8.30
  -1  -4  14   58.19   10.50
  -1  -4  14   57.69   10.40
   0   4 -14   51.89    8.90
   0   4 -14   45.10    8.50
   0  -4  14   49.99   10.10
   0  -4  14   62.59   10.80
  -1   4 -14    4.00    5.80
  -1   4 -14    0.50    5.30
   1  -4  14    1.50    7.40
  -2   4 -14    9.50    6.50
   2  -4  14   18.90    7.80
   4   3 -14   31.60    7.40
   4   3 -14   32.20    7.00
  -4  -3  14   29.10    9.70
   3   3 -14  174.18   15.70
   3   3 -14  184.98   16.50
  -3  -3  14  190.48   19.40
  -3  -3  14  190.58   18.00
   2   3 -14    8.20    5.50
   2   3 -14    7.40    5.70
  -2  -3  14    6.90    7.40
  -2  -3  14   13.60    7.60
   1   3 -14  196.68   16.70
   1   3 -14  190.68   17.00
  -1  -3  14  217.08   19.40
  -1  -3  14  185.28   18.80
   0   3 -14   52.29    8.40
   0   3 -14   42.50    8.30
   0  -3  14   49.60   10.40
   0  -3  14   65.59   10.60
  -1   3 -14  139.89   14.10
  -1   3 -14  112.79   13.70
   1  -3  14  142.19   15.00
   1  -3  14  164.58   17.30
  -2   3 -14   75.39   10.30
  -2   3 -14   62.69   10.00
   2  -3  14   60.09   11.30
   2  -3  14   69.79   10.90
   5   2 -14   59.69    9.50
   5   2 -14   65.39    8.80
  -5  -2  14   57.79   12.40
   4   2 -14  107.29   13.10
   4   2 -14  104.99   11.60
  -4  -2  14  122.19   16.50
  -4  -2  14  112.29   14.70
   3   2 -14   65.09    9.50
   3   2 -14   75.39   10.00
  -3  -2  14   50.39   11.00
  -3  -2  14   61.09   10.70
   2   2 -14   84.09   10.60
   2   2 -14   82.79   11.50
  -2  -2  14   88.19   13.00
  -2  -2  14   85.09   13.10
   1   2 -14   12.20    5.50
   1   2 -14   12.60    6.10
   1   2 -14    9.30    7.80
  -1  -2  14    8.30    6.40
  -1  -2  14    3.60    7.20
  -1  -2  14   11.00    7.20
   0   2 -14   75.89   10.40
   0   2 -14   86.29   10.90
   0   2 -14   82.59   10.50
   0  -2  14   71.49   12.00
   0  -2  14   72.69   10.30
   0  -2  14   60.39   10.40
  -1   2 -14   93.99   12.00
  -1   2 -14   84.99   11.20
   1  -2  14   86.79   12.70
   1  -2  14   85.19   12.80
  -2   2 -14    9.40    6.20
  -2   2 -14   10.70    6.20
   2  -2  14    9.70    7.60
   2  -2  14   10.90    8.50
   5   1 -14  199.88   18.20
  -5  -1  14  239.18   22.40
   4   1 -14   15.70    5.40
   4   1 -14   19.20    6.80
  -4  -1  14    9.00    6.60
  -4  -1  14   11.90    8.50
   3   1 -14  391.16   25.30
   3   1 -14  378.26   26.40
  -3  -1  14  333.97   28.50
  -3  -1  14  344.97   27.30
   2   1 -14    5.90    5.30
   2   1 -14    7.10    5.90
   2   1 -14    4.20    4.80
  -2  -1  14    7.90    7.50
  -2  -1  14    4.30    6.80
  -2  -1  14    0.60    5.40
   1   1 -14  442.16   28.60
   1   1 -14  414.06   28.70
   1   1 -14  421.96   29.50
  -1  -1  14  383.36   30.30
  -1  -1  14  435.06   29.10
  -1  -1  14  427.36   31.00
   0   1 -14    6.00    5.50
   0   1 -14    7.90    5.70
   0   1 -14    8.10    5.10
   0  -1  14   15.50    8.10
   0  -1  14    5.80    6.40
   0  -1  14    5.20    6.10
  -1   1 -14  439.06   30.80
  -1   1 -14  411.36   30.80
  -1   1 -14  451.65   30.40
   1  -1  14  453.25   31.50
   1  -1  14  463.95   32.90
  -2   1 -14   -1.20    5.30
  -2   1 -14    0.20    5.20
   2  -1  14   -0.10    6.80
   2  -1  14   -1.20    7.20
  -3   1 -14  127.09   13.50
  -3   1 -14  111.59   13.80
   3  -1  14  137.09   16.10
   3  -1  14  127.09   16.50
   5   0 -14   -2.80    5.60
  -5   0  14    3.10    8.00
   4   0 -14   26.00    7.20
  -4   0  14   20.40    7.80
  -4   0  14   23.60    8.90
   3   0 -14   21.80    6.90
   3   0 -14   18.50    7.70
   3   0 -14   19.70    5.50
  -3   0  14   24.80    8.60
  -3   0  14   14.90    7.30
   2   0 -14    3.00    4.50
   2   0 -14    3.50    5.00
   2   0 -14   -0.10    5.10
  -2   0  14   -0.90    6.70
  -2   0  14   -1.30    5.40
  -2   0  14   -0.80    6.60
   1   0 -14   40.50    6.90
   1   0 -14   30.90    7.10
   1   0 -14   34.20    7.70
  -1   0  14   32.10    7.50
  -1   0  14   29.60    8.90
  -1   0  14   29.10    8.50
   0   0 -14   18.90    6.30
   0   0 -14   14.30    6.30
   0   0 -14   19.60    5.80
   0   0  14   24.90    8.80
   0   0  14   15.90    7.30
   0   0  14   20.30    7.70
  -1   0 -14  129.29   14.20
  -1   0 -14  128.69   14.30
  -1   0 -14  133.49   13.00
   1   0  14  121.79   15.10
   1   0  14  132.39   16.50
  -2   0 -14   -1.90    4.90
  -2   0 -14   -0.10    5.40
   2   0  14    5.40    7.80
   2   0  14    4.40    7.10
  -3   0 -14   94.09   12.70
  -3   0 -14  101.29   12.20
   3   0  14   96.39   14.90
   3   0  14  101.29   14.60
   5  -1 -14  232.58   20.00
  -5   1  14  260.47   24.10
   4  -1 -14   15.20    6.40
  -4   1  14   18.20    9.20
  -4   1  14   22.50    7.70
   3  -1 -14  331.97   24.90
   3  -1 -14  320.97   25.60
  -3   1  14  377.26   28.80
  -3   1  14  401.36   27.60
   2  -1 -14    7.10    5.70
   2  -1 -14    9.60    5.40
  -2   1  14    6.00    7.00
  -2   1  14    1.40    7.10
   1  -1 -14  432.36   28.00
   1  -1 -14  415.26   29.50
   1  -1 -14  393.76   28.60
  -1   1  14  416.86   31.10
  -1   1  14  445.46   29.80
  -1   1  14  413.26   30.70
   0  -1 -14    7.30    5.80
   0  -1 -14   11.40    6.00
   0  -1 -14   13.40    5.30
   0   1  14    8.90    7.90
   0   1  14    8.60    6.70
   0   1  14   18.80    7.50
  -1  -1 -14  447.76   31.90
  -1  -1 -14  462.05   30.70
  -1  -1 -14  446.96   32.00
   1   1  14  466.85   32.50
   1   1  14  463.55   33.80
  -2  -1 -14    1.10    5.80
  -2  -1 -14    0.40    5.30
  -2  -1 -14   -0.80    4.90
   2   1  14   -1.60    6.90
   2   1  14    1.00    7.60
  -3  -1 -14  128.39   13.50
  -3  -1 -14  103.69   13.80
   3   1  14  142.79   16.90
   3   1  14  135.79   16.00
   5  -2 -14   58.89    9.80
  -5   2  14   54.89   12.20
   4  -2 -14  113.99   12.90
   4  -2 -14  104.89   12.20
  -4   2  14  114.09   13.60
  -4   2  14   92.19   14.30
   3  -2 -14   63.29    9.80
   3  -2 -14   60.19    8.90
  -3   2  14   57.99   11.40
  -3   2  14   63.19   10.90
   2  -2 -14   79.19   11.40
   2  -2 -14   93.59   11.60
  -2   2  14   74.89   12.10
  -2   2  14   75.39   12.00
   1  -2 -14    3.50    5.40
   1  -2 -14   11.90    6.30
  -1   2  14   15.50    6.90
  -1   2  14    6.70    7.40
  -1   2  14    7.60    7.80
   0  -2 -14   66.29   10.20
   0  -2 -14   71.79   10.40
   0   2  14   81.49   11.60
   0   2  14   81.89   12.70
   0   2  14   92.69   12.60
  -1  -2 -14   85.09   12.30
  -1  -2 -14   83.59   12.10
  -1  -2 -14   86.09   10.50
   1   2  14   97.89   13.70
   1   2  14   98.49   15.10
  -2  -2 -14   10.70    5.60
  -2  -2 -14    7.30    6.40
  -2  -2 -14    4.90    6.30
   2   2  14   10.40    8.30
   2   2  14   13.40    8.00
   4  -3 -14   24.30    7.10
   4  -3 -14   22.20    7.30
  -4   3  14   29.90   10.20
  -4   3  14   35.00    8.30
   3  -3 -14  191.28   16.50
   3  -3 -14  182.58   16.90
  -3   3  14  175.48   19.80
  -3   3  14  185.78   18.00
   2  -3 -14    7.60    6.20
   2  -3 -14   11.60    6.10
  -2   3  14   10.00    7.60
  -2   3  14   12.60    8.50
   1  -3 -14  209.18   17.20
   1  -3 -14  220.78   17.90
  -1   3  14  169.38   18.50
  -1   3  14  172.88   17.40
  -1   3  14  182.18   19.30
   0  -3 -14   48.70    8.80
   0  -3 -14   47.70    8.70
   0   3  14   56.49   10.10
   0   3  14   42.40    9.50
   0   3  14   54.79   11.30
  -1  -3 -14  132.99   14.80
  -1  -3 -14  147.99   15.20
   1   3  14  138.49   17.10
   1   3  14  129.39   15.60
  -2  -3 -14   63.59   10.50
  -2  -3 -14   66.29   10.70
   2   3  14   63.69   12.00
   2   3  14   62.59   11.40
   4  -4 -14    3.40    6.00
   4  -4 -14    1.70    5.70
  -4   4  14    9.50    8.60
  -4   4  14   13.90    7.50
   3  -4 -14   95.69   12.40
   3  -4 -14   95.99   12.50
  -3   4  14   97.49   13.60
  -3   4  14   76.09   13.10
   2  -4 -14   11.90    6.50
   2  -4 -14   14.50    6.60
  -2   4  14    6.70    8.10
  -2   4  14    5.50    7.50
   1  -4 -14   55.29    9.20
   1  -4 -14   59.19    9.50
  -1   4  14   42.40   10.50
  -1   4  14   47.10   10.40
   0  -4 -14   74.49   10.40
   0  -4 -14   61.79    9.60
   0   4  14   43.20    9.60
   0   4  14   43.10   10.90
   0   4  14   43.10    9.90
  -1  -4 -14   -2.70    5.80
  -1  -4 -14    3.40    5.90
   1   4  14    5.80    7.40
   1   4  14    2.20    7.50
   1   4  14   -1.90    8.10
   2   4  14   14.80    8.60
   3  -5 -14  215.48   18.80
   3  -5 -14  231.18   19.30
  -3   5  14  199.08   21.60
  -3   5  14  245.48   20.90
   2  -5 -14   35.00    8.00
   2  -5 -14   28.90    7.70
  -2   5  14   41.70   10.30
  -2   5  14   39.80   10.50
   1  -5 -14  307.97   24.00
   1  -5 -14  281.77   23.80
  -1   5  14  327.97   26.20
  -1   5  14  342.17   26.50
   0  -5 -14   13.60    6.80
   0  -5 -14    7.70    6.30
   0   5  14   10.00    8.00
   0   5  14   10.00    8.60
   0   5  14   11.00    7.90
   1   5  14  319.87   26.20
   2   3 -15   65.79   10.10
   2   3 -15   69.89    9.70
  -2  -3  15   62.29   11.40
  -2  -3  15   62.79   12.20
   1   3 -15   28.20    7.60
   1   3 -15   18.70    7.00
  -1  -3  15   29.00    9.40
  -1  -3  15   39.60   10.10
   0   3 -15  113.19   13.40
   0   3 -15  132.59   14.60
   0  -3  15  117.79   16.60
   3   2 -15   32.80    7.30
   3   2 -15   26.80    7.80
  -3  -2  15   24.60    9.00
  -3  -2  15   33.50   10.30
   2   2 -15  298.47   22.80
   2   2 -15  288.87   23.70
  -2  -2  15  346.87   25.90
  -2  -2  15  314.67   26.10
   1   2 -15   36.90    8.30
   1   2 -15   34.50    7.70
  -1  -2  15   41.30   10.20
  -1  -2  15   49.40   10.50
   0   2 -15  313.47   23.30
   0   2 -15  309.57   24.20
   0   2 -15  284.27   23.20
   0  -2  15  355.46   26.70
   0  -2  15  300.67   24.10
  -1   2 -15   22.10    7.10
  -1   2 -15   14.90    6.60
  -1   2 -15   16.40    6.90
   1  -2  15   17.80    8.00
   1  -2  15   23.10    9.40
   3   1 -15   65.79    8.80
   3   1 -15   59.29   10.10
  -3  -1  15   57.09   11.10
  -3  -1  15   47.60   11.10
   2   1 -15   14.60    5.80
   2   1 -15    8.30    6.10
  -2  -1  15    3.70    7.50
  -2  -1  15    7.00    7.80
   1   1 -15   48.40    8.10
   1   1 -15   43.10    8.80
   1   1 -15   44.70    8.10
  -1  -1  15   41.40    8.80
  -1  -1  15   42.80   10.30
  -1  -1  15   52.89   10.40
   0   1 -15   53.99    9.70
   0   1 -15   66.39    9.50
   0   1 -15   72.29    9.30
   0  -1  15   50.19   10.80
   0  -1  15   38.20    9.80
   0  -1  15   44.20    9.70
  -1   1 -15    0.70    5.40
  -1   1 -15    0.20    5.70
  -1   1 -15    3.80    5.80
   1  -1  15    0.40    7.10
   1  -1  15    0.30    7.60
   3   0 -15  228.48   19.60
  -3   0  15  222.38   21.80
  -3   0  15  227.98   20.70
   2   0 -15  179.58   14.90
   2   0 -15  184.68   16.70
   2   0 -15  176.78   15.80
  -2   0  15  161.78   18.50
  -2   0  15  166.58   18.60
   1   0 -15  157.98   16.20
   1   0 -15  146.89   15.20
   1   0 -15  174.28   15.10
  -1   0  15  186.98   19.20
  -1   0  15  168.28   16.70
  -1   0  15  171.08   18.10
   0   0 -15   68.49   10.60
   0   0 -15   91.29   10.80
   0   0 -15   76.19   10.70
   0   0  15   77.19   11.40
   0   0  15   72.09   11.30
   0   0  15   80.09   13.00
  -1   0 -15   45.70    9.10
  -1   0 -15   49.30    8.50
  -1   0 -15   48.20    9.30
   1   0  15   44.60   10.70
   1   0  15   41.80    9.70
   3  -1 -15   54.09    8.90
   3  -1 -15   56.09    9.80
  -3   1  15   52.39   10.70
  -3   1  15   52.69   11.60
   2  -1 -15    4.30    6.20
   2  -1 -15    6.60    5.90
  -2   1  15   10.10    8.20
  -2   1  15    5.90    7.90
   1  -1 -15   46.00    8.40
   1  -1 -15   46.70    9.20
  -1   1  15   42.70   10.60
  -1   1  15   51.19    9.80
  -1   1  15   49.50   10.40
   0  -1 -15   52.39    9.40
   0  -1 -15   39.30    8.80
   0  -1 -15   53.69    8.40
   0   1  15   61.29   11.90
   0   1  15   71.79   11.10
   0   1  15   68.89   10.60
  -1  -1 -15    1.50    6.00
  -1  -1 -15    2.20    6.00
  -1  -1 -15    0.90    5.30
   1   1  15   -4.20    7.60
   1   1  15    1.60    7.60
   3  -2 -15   28.10    8.00
   3  -2 -15   24.20    7.10
  -3   2  15   21.40    8.90
  -3   2  15   29.70   10.00
   2  -2 -15  316.27   23.60
   2  -2 -15  305.07   23.90
  -2   2  15  310.47   25.70
  -2   2  15  286.57   25.50
   1  -2 -15   38.10    8.10
   1  -2 -15   39.50    8.90
  -1   2  15   32.20    9.70
  -1   2  15   32.50   10.30
  -1   2  15   39.70    9.00
   0  -2 -15  327.37   25.00
   0  -2 -15  297.57   24.10
   0   2  15  318.27   25.50
   0   2  15  343.07   27.30
   0   2  15  314.77   25.20
  -1  -2 -15   15.60    7.20
  -1  -2 -15   15.50    7.20
   1   2  15   14.70    8.40
   1   2  15    9.30    8.40
   2  -3 -15   59.19    9.90
   2  -3 -15   64.19   10.20
  -2   3  15   57.49   11.80
  -2   3  15   69.79   12.30
   1  -3 -15   14.70    7.20
   1  -3 -15   28.60    7.70
  -1   3  15   22.10    8.90
  -1   3  15   12.50    9.30
   0  -3 -15   99.19   13.70
   0  -3 -15   98.59   13.10
   0   3  15  123.69   15.00
   0   3  15  103.49   15.30
   0   3  15  127.09   15.40

_computing_structure_solution     'SHELXT 2014/4 (Sheldrick, 2014)'
;
_shelx_hkl_checksum              15076
loop_
_space_group_symop_operation_xyz
'x, y, z'
'-x, y+1/2, -z'
loop_
_atom_site_label
_atom_site_type_symbol
_atom_site_fract_x
_atom_site_fract_y
_atom_site_fract_z
_atom_site_U_iso_or_equiv
_atom_site_adp_type
_atom_site_occupancy
_atom_site_site_symmetry_order
_atom_site_calc_flag
_atom_site_refinement_flags_posn
_atom_site_refinement_flags_adp
Fe1 Fe 0.27884(4) 0.54077(3) 0.07052(3) 0.01416(8) Uani 1 1 d . .
Br1 Br 0.74946(4) 0.52235(3) 0.67762(2) 0.03406(9) Uani 1 1 d . .
Cl1 Cl 0.80439(10) 0.25283(7) 0.36892(6) 0.03173(16) Uani 1 1 d . .
Cl2 Cl 1.16088(10) 0.36988(8) 0.71008(6) 0.03236(16) Uani 1 1 d . .
O1 O 0.4199(2) 0.35887(19) 0.35216(16) 0.0236(4) Uani 1 1 d . .
O2 O 0.2673(3) 0.5526(2) 0.39073(16) 0.0289(4) Uani 1 1 d . .
C1 C 0.4820(3) 0.6771(3) 0.1246(2) 0.0213(5) Uani 1 1 d . .
H1 H 0.5290 0.6969 0.2020 0.026 Uiso 1 1 calc R U
C2 C 0.5458(3) 0.5725(3) 0.0545(2) 0.0236(5) Uani 1 1 d . .
H2 H 0.6420 0.5098 0.0768 0.028 Uiso 1 1 calc R U
C3 C 0.4392(4) 0.5786(3) -0.0557(2) 0.0273(6) Uani 1 1 d . .
H3 H 0.4525 0.5207 -0.1198 0.033 Uiso 1 1 calc R U
C4 C 0.3102(4) 0.6863(3) -0.0523(2) 0.0250(6) Uani 1 1 d . .
H4 H 0.2220 0.7130 -0.1139 0.030 Uiso 1 1 calc R U
C5 C 0.3360(4) 0.7475(3) 0.0596(2) 0.0220(5) Uani 1 1 d . .
H5 H 0.2679 0.8217 0.0858 0.026 Uiso 1 1 calc R U
C6 C 0.2451(3) 0.3421(2) 0.1248(2) 0.0197(5) Uani 1 1 d . .
H6 H 0.3360 0.2727 0.1359 0.024 Uiso 1 1 calc R U
C7 C 0.1288(3) 0.3668(3) 0.0224(2) 0.0232(5) Uani 1 1 d . .
H7 H 0.1269 0.3157 -0.0472 0.028 Uiso 1 1 calc R U
C8 C 0.0146(3) 0.4812(3) 0.0408(2) 0.0228(5) Uani 1 1 d . .
H8 H -0.0750 0.5201 -0.0147 0.027 Uiso 1 1 calc R U
C9 C 0.0575(3) 0.5270(3) 0.1563(2) 0.0205(4) Uani 1 1 d . .
H9 H 0.0014 0.6010 0.1921 0.025 Uiso 1 1 calc R U
C10 C 0.2018(3) 0.4405(2) 0.2092(2) 0.0177(5) Uani 1 1 d . .
C11 C 0.2958(3) 0.4604(3) 0.3251(2) 0.0202(5) Uani 1 1 d . .
C12 C 0.5233(4) 0.3628(3) 0.4652(2) 0.0245(5) Uani 1 1 d . .
H12A H 0.5121 0.2730 0.5044 0.029 Uiso 1 1 calc R U
H12B H 0.4743 0.4358 0.5122 0.029 Uiso 1 1 calc R U
C13 C 0.7220(3) 0.3922(3) 0.4551(2) 0.0190(5) Uani 1 1 d . .
C14 C 0.8329(3) 0.3807(3) 0.5748(2) 0.0193(5) Uani 1 1 d . .
H14 H 0.8113 0.2873 0.6074 0.023 Uiso 1 1 calc R U
C15 C 1.0358(3) 0.3989(3) 0.5718(2) 0.0226(5) Uani 1 1 d . .
H15A H 1.0599 0.4939 0.5457 0.027 Uiso 1 1 calc R U
H15B H 1.0773 0.3331 0.5155 0.027 Uiso 1 1 calc R U
C16 C 0.7488(3) 0.5296(3) 0.3913(2) 0.0223(5) Uani 1 1 d . .
H16A H 0.7072 0.6070 0.4354 0.033 Uiso 1 1 calc R U
H16B H 0.6788 0.5270 0.3147 0.033 Uiso 1 1 calc R U
H16C H 0.8775 0.5417 0.3832 0.033 Uiso 1 1 calc R U
loop_
_atom_site_aniso_label
_atom_site_aniso_U_11
_atom_site_aniso_U_22
_atom_site_aniso_U_33
_atom_site_aniso_U_23
_atom_site_aniso_U_13
_atom_site_aniso_U_12
Fe1 0.01138(14) 0.01567(16) 0.01561(15) -0.00010(13) 0.00231(10) -0.00159(13)
Br1 0.03658(15) 0.03846(18) 0.02740(14) -0.01254(13) 0.00493(10) 0.00657(13)
Cl1 0.0460(4) 0.0290(3) 0.0187(3) -0.0040(3) -0.0022(3) 0.0138(3)
Cl2 0.0334(4) 0.0333(4) 0.0273(3) 0.0037(3) -0.0091(3) 0.0011(3)
O1 0.0261(9) 0.0210(9) 0.0223(9) 0.0014(7) -0.0026(7) 0.0002(7)
O2 0.0402(10) 0.0270(11) 0.0205(8) -0.0031(8) 0.0076(7) 0.0041(9)
C1 0.0179(12) 0.0195(12) 0.0251(13) 0.0045(9) -0.0033(10) -0.0058(9)
C2 0.0136(11) 0.0247(13) 0.0335(14) 0.0047(10) 0.0065(10) -0.0024(9)
C3 0.0271(13) 0.0320(14) 0.0253(13) -0.0014(11) 0.0133(11) -0.0101(10)
C4 0.0244(13) 0.0292(14) 0.0209(12) 0.0103(11) 0.0011(10) -0.0065(11)
C5 0.0218(12) 0.0160(11) 0.0277(13) 0.0038(10) 0.0005(10) -0.0013(9)
C6 0.0217(12) 0.0138(11) 0.0246(13) -0.0006(9) 0.0065(10) -0.0040(9)
C7 0.0207(12) 0.0237(12) 0.0258(13) -0.0050(10) 0.0050(10) -0.0091(10)
C8 0.0121(11) 0.0293(13) 0.0266(13) 0.0020(10) 0.0011(9) -0.0061(9)
C9 0.0141(9) 0.0238(12) 0.0250(11) 0.0015(11) 0.0079(8) 0.0000(10)
C10 0.0167(11) 0.0163(11) 0.0212(12) 0.0033(9) 0.0062(9) -0.0005(9)
C11 0.0229(12) 0.0178(12) 0.0208(13) 0.0045(9) 0.0061(10) -0.0027(9)
C12 0.0265(13) 0.0265(13) 0.0197(12) 0.0067(10) -0.0005(10) -0.0053(10)
C13 0.0255(12) 0.0144(11) 0.0174(11) 0.0018(9) 0.0036(9) 0.0044(9)
C14 0.0252(12) 0.0168(11) 0.0159(11) 0.0003(9) 0.0028(9) 0.0019(9)
C15 0.0237(13) 0.0248(13) 0.0184(12) 0.0040(10) -0.0010(10) 0.0011(10)
C16 0.0189(10) 0.0276(12) 0.0208(11) 0.0084(12) 0.0036(8) 0.0020(11)
loop_
_atom_type_symbol
_atom_type_description
_atom_type_scat_dispersion_real
_atom_type_scat_dispersion_imag
_atom_type_scat_source
C C 0.0033 0.0016 'International Tables Vol C Tables 4.2.6.8 and 6.1.1.4'
H H 0.0000 0.0000 'International Tables Vol C Tables 4.2.6.8 and 6.1.1.4'
O O 0.0106 0.0060 'International Tables Vol C Tables 4.2.6.8 and 6.1.1.4'
Cl Cl 0.1484 0.1585 'International Tables Vol C Tables 4.2.6.8 and 6.1.1.4'
Fe Fe 0.3463 0.8444 'International Tables Vol C Tables 4.2.6.8 and 6.1.1.4'
Br Br -0.2901 2.4595 'International Tables Vol C Tables 4.2.6.8 and 6.1.1.4'
loop_
_geom_angle_atom_site_label_1
_geom_angle_atom_site_label_2
_geom_angle_atom_site_label_3
_geom_angle
C10 Fe1 C9 41.52(10)
C10 Fe1 C8 69.02(10)
C9 Fe1 C8 40.85(10)
C10 Fe1 C3 155.44(11)
C9 Fe1 C3 161.45(11)
C8 Fe1 C3 124.32(11)
C10 Fe1 C2 121.09(10)
C9 Fe1 C2 155.53(10)
C8 Fe1 C2 163.06(11)
C3 Fe1 C2 41.06(11)
C10 Fe1 C4 163.16(11)
C9 Fe1 C4 124.04(11)
C8 Fe1 C4 105.32(11)
C3 Fe1 C4 40.70(12)
C2 Fe1 C4 68.73(11)
C10 Fe1 C6 41.20(10)
C9 Fe1 C6 69.44(11)
C8 Fe1 C6 68.65(10)
C3 Fe1 C6 119.77(11)
C2 Fe1 C6 109.06(10)
C4 Fe1 C6 153.14(11)
C10 Fe1 C1 109.25(10)
C9 Fe1 C1 120.11(11)
C8 Fe1 C1 153.62(11)
C3 Fe1 C1 68.49(11)
C2 Fe1 C1 40.60(11)
C4 Fe1 C1 68.36(10)
C6 Fe1 C1 128.44(10)
C10 Fe1 C5 126.58(10)
C9 Fe1 C5 106.33(11)
C8 Fe1 C5 117.90(11)
C3 Fe1 C5 68.67(11)
C2 Fe1 C5 68.66(11)
C4 Fe1 C5 40.81(11)
C6 Fe1 C5 165.39(10)
C1 Fe1 C5 40.61(10)
C10 Fe1 C7 68.44(11)
C9 Fe1 C7 68.70(11)
C8 Fe1 C7 40.75(10)
C3 Fe1 C7 107.08(11)
C2 Fe1 C7 126.83(10)
C4 Fe1 C7 118.30(11)
C6 Fe1 C7 40.19(10)
C1 Fe1 C7 165.01(10)
C5 Fe1 C7 152.70(11)
C11 O1 C12 117.7(2)
C2 C1 C5 108.6(2)
C2 C1 Fe1 69.44(14)
C5 C1 Fe1 69.80(14)
C1 C2 C3 107.7(2)
C1 C2 Fe1 69.96(14)
C3 C2 Fe1 69.42(14)
C4 C3 C2 107.9(2)
C4 C3 Fe1 69.81(15)
C2 C3 Fe1 69.52(14)
C3 C4 C5 108.2(2)
C3 C4 Fe1 69.49(15)
C5 C4 Fe1 69.85(14)
C1 C5 C4 107.5(2)
C1 C5 Fe1 69.59(14)
C4 C5 Fe1 69.34(15)
C7 C6 C10 107.9(2)
C7 C6 Fe1 70.38(14)
C10 C6 Fe1 68.76(13)
C6 C7 C8 108.5(2)
C6 C7 Fe1 69.44(14)
C8 C7 Fe1 68.82(14)
C9 C8 C7 108.4(2)
C9 C8 Fe1 69.38(13)
C7 C8 Fe1 70.43(14)
C8 C9 C10 107.3(2)
C8 C9 Fe1 69.77(13)
C10 C9 Fe1 69.13(13)
C6 C10 C9 107.9(2)
C6 C10 C11 127.1(2)
C9 C10 C11 124.8(2)
C6 C10 Fe1 70.05(14)
C9 C10 Fe1 69.35(13)
C11 C10 Fe1 121.91(16)
O2 C11 O1 123.4(2)
O2 C11 C10 125.7(2)
O1 C11 C10 110.9(2)
O1 C12 C13 110.4(2)
C12 C13 C14 109.6(2)
C12 C13 C16 112.3(2)
C14 C13 C16 114.4(2)
C12 C13 Cl1 107.30(18)
C14 C13 Cl1 105.61(16)
C16 C13 Cl1 107.11(17)
C15 C14 C13 113.2(2)
C15 C14 Br1 108.65(17)
C13 C14 Br1 109.29(16)
C14 C15 Cl2 111.69(17)
C2 C1 H1 125.7
C5 C1 H1 125.7
Fe1 C1 H1 126.7
C1 C2 H2 126.2
C3 C2 H2 126.2
Fe1 C2 H2 126.0
C4 C3 H3 126.0
C2 C3 H3 126.0
Fe1 C3 H3 126.2
C3 C4 H4 125.9
C5 C4 H4 125.9
Fe1 C4 H4 126.3
C1 C5 H5 126.2
C4 C5 H5 126.2
Fe1 C5 H5 126.4
C7 C6 H6 126.1
C10 C6 H6 126.1
Fe1 C6 H6 126.4
C6 C7 H7 125.7
C8 C7 H7 125.7
Fe1 C7 H7 127.6
C9 C8 H8 125.8
C7 C8 H8 125.8
Fe1 C8 H8 126.0
C8 C9 H9 126.3
C10 C9 H9 126.3
Fe1 C9 H9 126.3
O1 C12 H12A 109.6
C13 C12 H12A 109.6
O1 C12 H12B 109.6
C13 C12 H12B 109.6
H12A C12 H12B 108.1
C15 C14 H14 108.5
C13 C14 H14 108.5
Br1 C14 H14 108.5
C14 C15 H15A 109.3
Cl2 C15 H15A 109.3
C14 C15 H15B 109.3
Cl2 C15 H15B 109.3
H15A C15 H15B 107.9
C13 C16 H16A 109.5
C13 C16 H16B 109.5
H16A C16 H16B 109.5
C13 C16 H16C 109.5
H16A C16 H16C 109.5
H16B C16 H16C 109.5
loop_
_geom_bond_atom_site_label_1
_geom_bond_atom_site_label_2
_geom_bond_distance
Fe1 C10 2.029(2)
Fe1 C9 2.032(2)
Fe1 C8 2.037(2)
Fe1 C3 2.038(3)
Fe1 C2 2.040(2)
Fe1 C4 2.042(3)
Fe1 C6 2.046(2)
Fe1 C1 2.046(2)
Fe1 C5 2.049(3)
Fe1 C7 2.059(3)
Br1 C14 1.970(2)
Cl1 C13 1.831(3)
Cl2 C15 1.788(3)
O1 C11 1.358(3)
O1 C12 1.447(3)
O2 C11 1.211(3)
C1 C2 1.417(4)
C1 C5 1.421(3)
C2 C3 1.430(4)
C3 C4 1.419(4)
C4 C5 1.426(4)
C6 C7 1.410(4)
C6 C10 1.434(3)
C7 C8 1.426(4)
C8 C9 1.420(4)
C9 C10 1.440(3)
C10 C11 1.461(4)
C12 C13 1.524(3)
C13 C14 1.540(3)
C13 C16 1.548(4)
C14 C15 1.524(4)
C1 H1 0.9500
C2 H2 0.9500
C3 H3 0.9500
C4 H4 0.9500
C5 H5 0.9500
C6 H6 0.9500
C7 H7 0.9500
C8 H8 0.9500
C9 H9 0.9500
C12 H12A 0.9900
C12 H12B 0.9900
C14 H14 1.0000
C15 H15A 0.9900
C15 H15B 0.9900
C16 H16A 0.9800
C16 H16B 0.9800
C16 H16C 0.9800
loop_
_geom_torsion_atom_site_label_1
_geom_torsion_atom_site_label_2
_geom_torsion_atom_site_label_3
_geom_torsion_atom_site_label_4
_geom_torsion
C5 C1 C2 C3 0.5(3)
Fe1 C1 C2 C3 59.42(16)
C5 C1 C2 Fe1 -58.95(17)
C1 C2 C3 C4 -0.3(3)
Fe1 C2 C3 C4 59.45(17)
C1 C2 C3 Fe1 -59.76(17)
C2 C3 C4 C5 0.0(3)
Fe1 C3 C4 C5 59.31(18)
C2 C3 C4 Fe1 -59.27(17)
C2 C1 C5 C4 -0.4(3)
Fe1 C1 C5 C4 -59.18(18)
C2 C1 C5 Fe1 58.74(17)
C3 C4 C5 C1 0.3(3)
Fe1 C4 C5 C1 59.34(18)
C3 C4 C5 Fe1 -59.08(18)
C10 C6 C7 C8 0.9(3)
Fe1 C6 C7 C8 -57.80(17)
C10 C6 C7 Fe1 58.73(16)
C6 C7 C8 C9 -1.0(3)
Fe1 C7 C8 C9 -59.20(17)
C6 C7 C8 Fe1 58.18(17)
C7 C8 C9 C10 0.7(3)
Fe1 C8 C9 C10 -59.15(16)
C7 C8 C9 Fe1 59.85(17)
C7 C6 C10 C9 -0.5(3)
Fe1 C6 C10 C9 59.25(16)
C7 C6 C10 C11 -175.2(2)
Fe1 C6 C10 C11 -115.5(2)
C7 C6 C10 Fe1 -59.74(17)
C8 C9 C10 C6 -0.1(3)
Fe1 C9 C10 C6 -59.69(16)
C8 C9 C10 C11 174.8(2)
Fe1 C9 C10 C11 115.2(2)
C8 C9 C10 Fe1 59.56(16)
C12 O1 C11 O2 -0.4(4)
C12 O1 C11 C10 -179.21(19)
C6 C10 C11 O2 172.6(3)
C9 C10 C11 O2 -1.3(4)
Fe1 C10 C11 O2 84.5(3)
C6 C10 C11 O1 -8.6(3)
C9 C10 C11 O1 177.5(2)
Fe1 C10 C11 O1 -96.7(2)
C11 O1 C12 C13 -113.0(2)
O1 C12 C13 C14 -174.1(2)
O1 C12 C13 C16 57.6(3)
O1 C12 C13 Cl1 -59.9(2)
C12 C13 C14 C15 176.1(2)
C16 C13 C14 C15 -56.8(3)
Cl1 C13 C14 C15 60.8(2)
C12 C13 C14 Br1 -62.7(2)
C16 C13 C14 Br1 64.5(2)
Cl1 C13 C14 Br1 -177.96(12)
C13 C14 C15 Cl2 -174.91(17)
Br1 C14 C15 Cl2 63.5(2)
