#------------------------------------------------------------------------------
#$Date: 2019-11-25 06:40:32 +0200 (Mon, 25 Nov 2019) $
#$Revision: 240259 $
#$URL: file:///home/coder/svn-repositories/cod/cif/4/12/95/4129562.cif $
#------------------------------------------------------------------------------
#
# This file is available in the Crystallography Open Database (COD),
# http://www.crystallography.net/
#
# All data on this site have been placed in the public domain by the
# contributors.
#
data_4129562
loop_
_publ_author_name
'Tian, Di'
'Winter, Stephen M.'
'Mailman, Aaron'
'Wong, Joanne W. L.'
'Yong, Wenjun'
'Yamaguchi, Hiroshi'
'Jia, Yating'
'Tse, John S.'
'Desgreniers, Serge'
'Secco, Richard A.'
'Julian, Stephen R.'
'Jin, Changqing'
'Mito, Masaki'
'Ohishi, Yasuo'
'Oakley, Richard T.'
_publ_section_title
;
 The metallic state in neutral radical conductors: dimensionality,
 pressure and multiple orbital effects.
;
_journal_issue                   44
_journal_name_full               'Journal of the American Chemical Society'
_journal_page_first              14136
_journal_page_last               14148
_journal_paper_doi               10.1021/jacs.5b08254
_journal_volume                  137
_journal_year                    2015
_chemical_formula_moiety         'C6 F N2 O S4'
_chemical_formula_sum            'C6 F N2 O S4'
_chemical_formula_weight         263.32
_chemical_name_common            FBBO
_space_group_IT_number           36
_space_group_name_Hall           'C 2c -2'
_space_group_name_H-M_alt        'C m c 21'
_symmetry_cell_setting           orthorhombic
_symmetry_space_group_name_H-M   'C m c 21'
_audit_creation_date             2015-06-16T14:03
_audit_creation_method           'from EXP file using GSAS2CIF'
_audit_update_record
' 2015-06-16T14:03  Initial CIF as created by GSAS2CIF'
_cell_angle_alpha                90.0
_cell_angle_beta                 90.0
_cell_angle_gamma                90.0
_cell_formula_units_Z            4
_cell_length_a                   5.74052(5)
_cell_length_b                   7.6003(7)
_cell_length_c                   15.2757(25)
_cell_measurement_temperature    293(2)
_cell_volume                     666.47(13)
_computing_structure_refinement  GSAS
_diffrn_ambient_temperature      293(2)
_diffrn_measurement_device_type  'SPring-8 BL10XU'
_diffrn_radiation_polarisn_ratio 0.95
_diffrn_radiation_probe          x-ray
_diffrn_radiation_wavelength     0.41244
_diffrn_source                   synchrotron
_exptl_absorpt_correction_T_max  1.00000
_exptl_absorpt_correction_T_min  1.00000
_exptl_absorpt_process_details
;   GSAS Absorption/surface roughness correction: function number 0
 No correction is applied.
;
_pd_block_id                     'SPring-8 PXRD for 2 (R = F) at 5.0 GPa'
_pd_calc_method                  'Rietveld Refinement'
_pd_instr_location               ' ?'
_pd_meas_2theta_range_inc        0.01
_pd_meas_2theta_range_max        28.23
_pd_meas_2theta_range_min        1.0
_pd_meas_number_of_points        2724
_pd_phase_name
'from C:/GSAS/MyWork/FBBO/011/FBBO_RT_011b2_flat_shift.cif'
_pd_proc_2theta_range_inc        0.01
_pd_proc_2theta_range_max        28.22788
_pd_proc_2theta_range_min        0.99788
_pd_proc_info_datetime           2015-06-16T14:03:44
_pd_proc_info_excluded_regions   ' ?'
_pd_proc_ls_background_function
;   GSAS Background function number 1 with  8 terms.
 Shifted Chebyshev function of 1st kind
      1:    17540.3     2:    8499.57     3:   -958.056     4:   -106.766    
      5:   0.924949     6:    46.4419     7:   -31.4017     8:   -48.6436    
;
_pd_proc_ls_peak_cutoff          0.00100
_pd_proc_ls_profile_function
;
 CW Profile function number 2 with  18 terms
 Profile coefficients for Simpson's rule integration of pseudovoigt function
 C.J. Howard (1982). J. Appl. Cryst.,15,615-620.
 P. Thompson, D.E. Cox & J.B. Hastings (1987). J. Appl. Cryst.,20,79-83.
 #1(GU)   = 1418.510 #2(GV)   = -166.838 #3(GW)   =    6.598
 #4(LX)   =    0.000 #5(LY)   =   24.701 #6(trns) =   -0.145
 #7(asym) =   0.2394 #8(shft) =  -0.5388 #9(GP)   =    0.000
 #10(stec)=   106.32 #11(ptec)=     0.00 #12(sfec)=     0.00
 #13(L11) =    0.001 #14(L22) =    0.006 #15(L33) =    0.000
 #16(L12) =    0.036 #17(L13) =   -0.003 #18(L23) =   -0.010
 Peak tails are ignored  where the intensity is below 0.0010 times the peak
   Aniso. broadening axis   0.0   0.0   1.0
;
_pd_proc_ls_prof_R_factor        0.0037
_pd_proc_ls_prof_wR_expected     0.0074
_pd_proc_ls_prof_wR_factor       0.0057
_pd_proc_number_of_points        2724
_pd_spec_mounting                ' ?'
_refine_ls_goodness_of_fit_all   0.78
_refine_ls_matrix_type           full
_refine_ls_number_parameters     45
_refine_ls_number_restraints     0
_refine_ls_R_Fsqd_factor         0.13894
_refine_ls_shift/su_max          0.04
_refine_ls_shift/su_mean         0.01
_reflns_d_resolution_high        1.322
_reflns_d_resolution_low         4.581
_reflns_limit_h_max              4
_reflns_limit_h_min              0
_reflns_limit_k_max              6
_reflns_limit_k_min              0
_reflns_limit_l_max              12
_reflns_limit_l_min              0
_reflns_number_total             96
_cod_data_source_file            ja5b08254_si_005.cif
_cod_data_source_block           2(R=F)_at_5.0GPa
_cod_depositor_comments
;
The following automatic conversions were performed:

data item '_geom_angle_publ_flag' value 'N' was changed to 'n' in
accordance with the
/home/saulius/struct/COD-crude-data/automatic-downloads/DataCite-retrospective/ACS/depositions/lib/dictionaries/cif_core.dic
dictionary named 'cif_core.dic' version 2.4.2 last updated on
2011-04-26 (24 times).

data item '_geom_bond_publ_flag' value 'N' was changed to 'n' in
accordance with the
/home/saulius/struct/COD-crude-data/automatic-downloads/DataCite-retrospective/ACS/depositions/lib/dictionaries/cif_core.dic
dictionary named 'cif_core.dic' version 2.4.2 last updated on
2011-04-26 (40 times).

Automatic conversion script
Id: cif_fix_values 6909 2019-04-08 15:41:33Z antanas 
;
_cod_original_cell_volume        666.48(10)
_cod_database_code               4129562
_gsas_exptl_extinct_corr_t_min   1.00000
_gsas_exptl_extinct_corr_t_max   1.00000
loop_
_symmetry_equiv_pos_site_id
_symmetry_equiv_pos_as_xyz
1 +x,+y,+z
2 -x,+y,+z
3 +x,-y,+z+1/2
4 -x,-y,+z+1/2
101 +x+1/2,+y+1/2,+z
102 -x+1/2,+y+1/2,+z
103 +x+1/2,-y+1/2,+z+1/2
104 -x+1/2,-y+1/2,+z+1/2
loop_
_atom_site_type_symbol
_atom_site_label
_atom_site_fract_x
_atom_site_fract_y
_atom_site_fract_z
_atom_site_occupancy
_atom_site_thermal_displace_type
_atom_site_U_iso_or_equiv
_atom_site_symmetry_multiplicity
S S1 0.0 1.13933 0.92212 1.0 Uiso 0.00032 4
S S4 0.0 0.4951 0.55488 1.0 Uiso 0.00032 4
F F1 0.0 0.51097 0.86818 1.0 Uiso 0.00032 4
O O1 0.0 1.05409 0.63531 1.0 Uiso 0.00032 4
N N1 0.0 1.12093 0.81582 1.0 Uiso 0.00032 4
N N2 0.0 0.70427 0.57652 1.0 Uiso 0.00032 4
C C6 0.0 0.96102 0.78417 1.0 Uiso 0.00032 4
C C3 0.0 0.60846 0.72358 1.0 Uiso 0.00032 4
C C4 0.0 0.64707 0.81186 1.0 Uiso 0.00032 4
C C2 0.0 0.74459 0.66096 1.0 Uiso 0.00032 4
C C5 0.0 0.81615 0.8437 1.0 Uiso 0.00032 4
S S2 0.0 0.87064 0.95424 1.0 Uiso 0.00032 4
S S3 0.0 0.39502 0.68318 1.0 Uiso 0.00032 4
C C1 0.0 0.9341 0.68747 1.0 Uiso 0.00032 4
loop_
_atom_type_symbol
_atom_type_number_in_cell
_atom_type_scat_dispersion_real
_atom_type_scat_dispersion_imag
_atom_type_scat_Cromer_Mann_a1
_atom_type_scat_Cromer_Mann_a2
_atom_type_scat_Cromer_Mann_a3
_atom_type_scat_Cromer_Mann_a4
_atom_type_scat_Cromer_Mann_b1
_atom_type_scat_Cromer_Mann_b2
_atom_type_scat_Cromer_Mann_b3
_atom_type_scat_Cromer_Mann_b4
_atom_type_scat_Cromer_Mann_c
_atom_type_scat_source
S 16.0 0.000 0.000 6.90530 1.46790 5.20340 22.2151 1.43790 0.25360 1.58630
56.1720 0.86690 International_Tables_Vol_C
F 4.0 0.000 0.000 3.53920 10.2825 2.64120 4.29440 1.51700 0.26150 1.02430
26.1476 0.27760 International_Tables_Vol_C
O 4.0 0.000 0.000 3.04850 13.2771 2.28680 5.70110 1.54630 0.32390 0.86700
32.9089 0.25080 International_Tables_Vol_C
N 8.0 0.000 0.000 12.2126 0.00570 3.13220 9.89330 2.01250 28.9975 1.16630
0.58260 -11.529 International_Tables_Vol_C
C 24.0 0.000 0.000 2.31000 20.8439 1.02000 10.2075 1.58860 0.56870 0.86500
51.6512 0.21560 International_Tables_Vol_C
loop_
_geom_angle_atom_site_label_1
_geom_angle_atom_site_label_2
_geom_angle_atom_site_label_3
_geom_angle
_geom_angle_site_symmetry_1
_geom_angle_site_symmetry_3
_geom_angle_publ_flag
N1 S1 S2 98.5879(34) 1_555 1_555 n
N2 S4 S3 99.465(6) 1_555 1_555 n
S1 N1 C6 116.6151(28) 1_555 1_555 n
S4 N2 C2 115.11070(30) 1_555 1_555 n
N1 C6 C5 118.754(9) 1_555 1_555 n
N1 C6 C1 119.5787(22) 1_555 1_555 n
C5 C6 C1 121.668(7) 1_555 1_555 n
C4 C3 C2 120.479(8) 1_555 1_555 n
C4 C3 S3 123.1048(13) 1_555 1_555 n
C2 C3 S3 116.417(9) 1_555 1_555 n
F1 C4 C3 117.474(8) 1_555 1_555 n
F1 C4 C5 119.518(9) 1_555 1_555 n
C3 C4 C5 123.0074(13) 1_555 1_555 n
N2 C2 C3 119.391(8) 1_555 1_555 n
N2 C2 C1 119.0680(4) 1_555 1_555 n
C3 C2 C1 121.541(8) 1_555 1_555 n
C6 C5 C4 119.716(9) 1_555 1_555 n
C6 C5 S2 115.773(8) 1_555 1_555 n
C4 C5 S2 124.5113(11) 1_555 1_555 n
S1 S2 C5 90.270(5) 1_555 1_555 n
S4 S3 C3 89.617(7) 1_555 1_555 n
O1 C1 C6 123.258(7) 1_555 1_555 n
O1 C1 C2 123.153(8) 1_555 1_555 n
C6 C1 C2 113.5895(13) 1_555 1_555 n
loop_
_geom_bond_atom_site_label_1
_geom_bond_atom_site_label_2
_geom_bond_distance
_geom_bond_site_symmetry_2
_geom_bond_publ_flag
S1 N1 1.62982(27) 1_555 n
S1 C6 2.50544(30) 1_555 n
S1 S2 2.10024(18) 1_555 n
S4 N2 1.62376(14) 1_555 n
S4 C2 2.49428(22) 1_555 n
S4 S3 2.10230(30) 1_555 n
F1 C3 2.32983(35) 1_555 n
F1 C4 1.34542(12) 1_555 n
F1 C5 2.34941(21) 1_555 n
O1 C1 1.21100(11) 1_555 n
N1 S1 1.62982(27) 1_555 n
N1 C6 1.30800(11) 1_555 n
N2 S4 1.62376(14) 1_555 n
N2 C2 1.32578(21) 1_555 n
C6 S1 2.50544(30) 1_555 n
C6 N1 1.30800(11) 1_555 n
C6 C5 1.42803(12) 1_555 n
C6 C1 1.49126(24) 1_555 n
C3 F1 2.32983(35) 1_555 n
C3 C4 1.38010(22) 1_555 n
C3 C2 1.40907(13) 1_555 n
C3 S3 1.73563(14) 1_555 n
C4 F1 1.34542(12) 1_555 n
C4 C3 1.38010(22) 1_555 n
C4 C5 1.37402(11) 1_555 n
C2 S4 2.49428(22) 1_555 n
C2 N2 1.32578(21) 1_555 n
C2 C3 1.40907(13) 1_555 n
C2 C1 1.49618(13) 1_555 n
C5 F1 2.34941(21) 1_555 n
C5 C6 1.42803(12) 1_555 n
C5 C4 1.37402(11) 1_555 n
C5 S2 1.73862(27) 1_555 n
S2 S1 2.10024(18) 1_555 n
S2 C5 1.73862(27) 1_555 n
S3 S4 2.10230(30) 1_555 n
S3 C3 1.73563(14) 1_555 n
C1 O1 1.21100(11) 1_555 n
C1 C6 1.49126(24) 1_555 n
C1 C2 1.49618(13) 1_555 n
loop_
_pd_meas_counts_total
_pd_proc_ls_weight
_pd_proc_intensity_bkg_calc
_pd_calc_intensity_total
0.0 0.0 10757.51953 .
0.0 0.0 10690.21191 .
0.0 0.0 10623.64063 .
0.0 0.0 10557.79980 .
0.0 0.0 10492.68359 .
0.0 0.0 10428.29004 .
0.0 0.0 10364.61328 .
0.0 0.0 10301.64551 .
0.0 0.0 10239.38574 .
0.0 0.0 10177.82715 .
0.0 0.0 10116.96582 .
0.0 0.0 10056.79688 .
0.0 0.0 9997.31641 .
0.0 0.0 9938.51758 .
0.0 0.0 9880.39746 .
0.0 0.0 9822.95020 .
0.0 0.0 9766.17285 .
0.0 0.0 9710.05957 .
0.0 0.0 9654.60352 .
0.0 0.0 9599.80469 .
0.0 0.0 9545.65527 .
0.0 0.0 9492.15332 .
0.0 0.0 9439.29199 .
0.0 0.0 9387.06836 .
0.0 0.0 9335.47754 .
0.0 0.0 9284.51367 .
0.0 0.0 9234.17285 .
0.0 0.0 9184.45313 .
0.0 0.0 9135.34863 .
0.0 0.0 9086.85352 .
0.0 0.0 9038.96680 .
0.0 0.0 8991.67871 .
0.0 0.0 8944.99121 .
0.0 0.0 8898.89551 .
0.0 0.0 8853.39063 .
0.0 0.0 8808.46973 .
0.0 0.0 8764.13184 .
0.0 0.0 8720.36914 .
0.0 0.0 8677.17969 .
0.0 0.0 8634.55859 .
0.0 0.0 8592.50195 .
0.0 0.0 8551.00391 .
0.0 0.0 8510.06445 .
0.0 0.0 8469.67773 .
0.0 0.0 8429.83789 .
0.0 0.0 8390.54199 .
0.0 0.0 8351.78809 .
0.0 0.0 8313.56934 .
0.0 0.0 8275.88379 .
0.0 0.0 8238.72559 .
0.0 0.0 8202.09277 .
0.0 0.0 8165.98096 .
0.0 0.0 8130.38623 .
0.0 0.0 8095.30469 .
0.0 0.0 8060.73291 .
0.0 0.0 8026.66504 .
0.0 0.0 7993.09961 .
0.0 0.0 7960.03271 .
0.0 0.0 7927.46045 .
0.0 0.0 7895.37891 .
0.0 0.0 7863.78369 .
0.0 0.0 7832.67139 .
0.0 0.0 7802.04053 .
0.0 0.0 7771.88428 .
0.0 0.0 7742.20020 .
0.0 0.0 7712.98584 .
0.0 0.0 7684.23633 .
0.0 0.0 7655.94922 .
0.0 0.0 7628.12012 .
0.0 0.0 7600.74463 .
0.0 0.0 7573.82227 .
0.0 0.0 7547.34668 .
0.0 0.0 7521.31543 .
0.0 0.0 7495.72510 .
0.0 0.0 7470.57227 .
0.0 0.0 7445.85400 .
0.0 0.0 7421.56641 .
0.0 0.0 7397.70605 .
2572.0 0.0 7374.27002 .
2573.0 0.0 7351.25439 .
2609.0 0.0 7328.65625 .
2637.0 0.0 7306.47266 .
2671.0 0.0 7284.70020 .
2693.0 0.0 7263.33447 .
2728.0 0.0 7242.37402 .
2772.0 0.0 7221.81494 .
2806.0 0.0 7201.65332 .
2844.0 0.0 7181.88770 .
2872.0 0.0 7162.51172 .
2890.0 0.0 7143.52588 .
2926.0 0.0 7124.92578 .
2979.0 0.0 7106.70801 .
3015.0 0.0 7088.86914 .
3042.0 0.0 7071.40771 .
3083.0 0.0 7054.31787 .
3119.0 0.0 7037.60010 .
3164.0 0.0 7021.24707 .
3200.0 0.0 7005.26025 .
3229.0 0.0 6989.63428 .
3263.0 0.0 6974.36670 .
3312.0 0.0 6959.45410 .
3349.0 0.0 6944.89453 .
3390.0 0.0 6930.68408 .
3422.0 0.0 6916.81982 .
3472.0 0.0 6903.29932 .
3497.0 0.0 6890.12061 .
3528.0 0.0 6877.28027 .
3559.0 0.0 6864.77441 .
3612.0 0.0 6852.60156 .
3650.0 0.0 6840.75781 .
3679.0 0.0 6829.24023 .
3700.0 0.0 6818.04834 .
3736.0 0.0 6807.17773 .
3775.0 0.0 6796.62451 .
3803.0 0.0 6786.38770 .
3848.0 0.0 6776.46582 .
3886.0 0.0 6766.85303 .
3922.0 0.0 6757.54883 .
3955.0 0.0 6748.55029 .
4007.0 0.0 6739.85254 .
4034.0 0.0 6731.45703 .
4079.0 0.0 6723.35840 .
4113.0 0.0 6715.55420 .
4148.0 0.0 6708.04346 .
4192.0 0.0 6700.82129 .
4240.0 0.0 6693.88721 .
4277.0 0.0 6687.23682 .
4317.0 0.0 6680.86963 .
4369.0 0.0 6674.78223 .
4417.0 0.0 6668.97217 .
4457.0 0.0 6663.43701 .
4492.0 0.0 6658.17432 .
4542.0 0.0 6653.18164 .
4566.0 0.0 6648.45508 .
4610.0 0.0 6643.99512 .
4652.0 0.0 6639.79785 .
4687.0 0.0 6635.86084 .
4724.0 0.0 6632.18213 .
4766.0 0.0 6628.75879 .
4813.0 0.0 6625.58936 .
4845.0 0.0 6622.67090 .
4871.0 0.0 6620.00146 .
4923.0 0.0 6617.57764 .
4976.0 0.0 6615.39893 .
5012.0 0.0 6613.46240 .
5036.0 0.0 6611.76563 .
5069.0 0.0 6610.30664 .
5115.0 0.0 6609.08252 .
5141.0 0.0 6608.09180 .
5182.0 0.0 6607.33105 .
5221.0 0.0 6606.80029 .
5252.0 0.0 6606.49658 .
5287.0 0.0 6606.41699 .
5316.0 0.0 6606.56006 .
5358.0 0.0 6606.92334 .
5385.0 0.0 6607.50488 .
5401.0 0.0 6608.30127 .
5423.0 0.0 6609.31299 .
5471.0 0.0 6610.53662 .
5497.0 0.0 6611.97070 .
5534.0 0.0 6613.61230 .
5578.0 0.0 6615.46045 .
5600.0 0.0 6617.51172 .
5615.0 0.0 6619.76563 .
5649.0 0.0 6622.21875 .
5678.0 0.0 6624.86914 .
5692.0 0.0 6627.71729 .
5721.0 0.0 6630.75879 .
5742.0 0.0 6633.99316 .
5769.0 0.0 6637.41748 .
5806.0 0.0 6641.03027 .
5823.0 0.0 6644.82910 .
5842.0 0.0 6648.81348 .
5855.0 0.0 6652.97900 .
5890.0 0.0 6657.32617 .
5907.0 0.0 6661.85352 .
5919.0 0.0 6666.55713 .
5936.0 0.0 6671.43652 .
5963.0 0.0 6676.49023 .
5980.0 0.0 6681.71484 .
5996.0 0.0 6687.10889 .
6007.0 0.0 6692.67236 .
6056.0 0.0 6698.40283 .
6077.0 0.0 6704.29785 .
6086.0 0.0 6710.35596 .
6116.0 0.0 6716.57520 .
6144.0 0.0 6722.95459 .
6142.0 0.0 6729.49121 .
6147.0 0.0 6736.18555 .
6162.0 0.0 6743.03271 .
6192.0 0.0 6750.03418 .
6198.0 0.0 6757.18701 .
6221.0 0.0 6764.48975 .
6256.0 0.0 6771.94043 .
6277.0 0.0 6779.53809 .
6302.0 0.0 6787.28027 .
6317.0 0.0 6795.16455 .
6321.0 0.0 6803.19189 .
6345.0 0.0 6811.35938 .
6362.0 0.0 6819.66602 .
6405.0 0.0 6828.10938 .
6418.0 0.0 6836.68848 .
6432.0 0.0 6845.40137 .
6453.0 0.0 6854.24609 .
6476.0 0.0 6863.22266 .
6512.0 0.0 6872.32861 .
6570.0 0.0 6881.56348 .
6640.0 0.0 6890.92432 .
6708.0 0.0 6900.41064 .
6728.0 0.0 6910.02100 .
6715.0 0.0 6919.75195 .
6670.0 0.0 6929.60547 .
6629.0 0.0 6939.57813 .
6634.0 0.0 6949.66895 .
6639.0 0.0 6959.87646 .
6660.0 0.0 6970.19971 .
6674.0 0.0 6980.63623 .
6715.0 0.0 6991.18604 .
6739.0 0.0 7001.84668 .
6764.0 0.0 7012.61572 .
6777.0 0.0 7023.49512 .
6786.0 0.0 7034.48145 .
6803.0 0.0 7045.57373 .
6837.0 0.0 7056.77100 .
6858.0 0.0 7068.07129 .
6882.0 0.0 7079.47412 .
6887.0 0.0 7090.97607 .
6908.0 0.0 7102.57910 .
6932.0 0.0 7114.28027 .
6951.0 0.0 7126.07861 .
6956.0 0.0 7137.97266 .
6970.0 0.0 7149.96143 .
6976.0 0.0 7162.04346 .
6970.0 0.0 7174.21680 .
6979.0 0.0 7186.48193 .
7006.0 0.0 7198.83691 .
7043.0 0.0 7211.28076 .
7042.0 0.0 7223.81250 .
7067.0 0.0 7236.42969 .
7099.0 0.0 7249.13281 .
7120.0 0.0 7261.91992 .
7134.0 0.0 7274.78955 .
7145.0 0.0 7287.73975 .
7159.0 0.0 7300.77246 .
7172.0 0.0 7313.88428 .
7205.0 0.0 7327.07471 .
7232.0 0.0 7340.34277 .
7246.0 0.0 7353.68701 .
7246.0 0.0 7367.10645 .
7256.0 0.0 7380.59912 .
7273.0 0.0 7394.16602 .
7296.0 0.0 7407.80469 .
7311.0 0.0 7421.51514 .
7341.0 0.0 7435.29541 .
7368.0 0.0 7449.14453 .
7389.0 0.0 7463.06201 .
7411.0 0.0 7477.04541 .
7413.0 0.0 7491.09619 .
7425.0 0.0 7505.21191 .
7435.0 0.0 7519.39160 .
7445.0 0.0 7533.63477 .
7467.0 0.0 7547.93994 .
7502.0 0.0 7562.30615 .
7508.0 0.0 7576.73340 .
7535.0 0.0 7591.21924 .
7553.0 0.0 7605.76416 .
7567.0 0.0 7620.36523 .
7589.0 0.0 7635.02441 .
7606.0 0.0 7649.73877 .
7632.0 0.0 7664.50830 .
7641.0 0.0 7679.33203 .
7647.0 0.0 7694.20850 .
7670.0 0.0 7709.13770 .
7697.0 0.0 7724.11670 .
7715.0 0.0 7739.14746 .
7727.0 0.0 7754.22803 .
7742.0 0.0 7769.35742 .
7775.0 0.0 7784.53467 .
7798.0 0.0 7799.75928 .
7804.0 0.0 7815.03027 .
7830.0 0.0 7830.34570 .
7827.0 0.0 7845.70703 .
7857.0 0.0 7861.11230 .
7868.0 0.0 7876.56104 .
7891.0 0.0 7892.05176 .
7909.0 0.0 7907.58447 .
7928.0 0.0 7923.15771 .
7947.0 0.0 7938.77002 .
7976.0 0.0 7954.42432 .
7987.0 0.0 7970.11475 .
8011.0 0.0 7985.84424 .
8023.0 0.0 8001.61084 .
8040.0 0.0 8017.41406 .
8044.0 0.0 8033.25293 .
8046.0 0.0 8049.12695 .
8076.0 0.0 8065.03516 .
8094.0 0.0 8080.97559 .
8127.0 0.0 8096.95020 .
8139.0 0.0 8112.95752 .
8148.0 0.0 8128.99609 .
8177.0 0.0 8145.06543 .
8190.0 0.0001221 8161.16553 8161.43652
8180.0 0.0001222 8177.29395 8177.56934
8206.0 0.0001219 8193.45215 8193.73145
8214.0 0.0001217 8209.63965 8209.92285
8241.0 0.0001213 8225.85352 8226.14160
8266.0 0.0001210 8242.09473 8242.38672
8285.0 0.0001207 8258.36230 8258.65820
8302.0 0.0001205 8274.65527 8274.95605
8323.0 0.0001201 8290.97461 8291.28027
8365.0 0.0001195 8307.31738 8307.62891
8371.0 0.0001195 8323.68457 8324.00000
8388.0 0.0001192 8340.07520 8340.39551
8395.0 0.0001191 8356.48926 8356.81543
8395.0 0.0001191 8372.92480 8373.25586
8392.0 0.0001192 8389.38184 8389.71777
8435.0 0.0001186 8405.86035 8406.20215
8454.0 0.0001183 8422.35938 8422.70605
8473.0 0.0001180 8438.87793 8439.23145
8483.0 0.0001179 8455.41699 8455.77637
8496.0 0.0001177 8471.97363 8472.33887
8534.0 0.0001172 8488.54980 8488.92188
8538.0 0.0001171 8505.14258 8505.52051
8551.0 0.0001169 8521.75391 8522.13867
8584.0 0.0001165 8538.38086 8538.77148
8610.0 0.0001161 8555.02539 8555.42383
8617.0 0.0001160 8571.68555 8572.09082
8633.0 0.0001158 8588.36035 8588.77344
8648.0 0.0001156 8605.04980 8605.46973
8670.0 0.0001153 8621.75293 8622.18066
8685.0 0.0001151 8638.47070 8638.90625
8712.0 0.0001148 8655.20117 8655.64551
8723.0 0.0001146 8671.94531 8672.39746
8726.0 0.0001146 8688.70117 8689.16211
8739.0 0.0001144 8705.46875 8705.93848
8753.0 0.0001142 8722.24707 8722.72656
8777.0 0.0001139 8739.03809 8739.52734
8796.0 0.0001137 8755.83887 8756.33691
8820.0 0.0001134 8772.64941 8773.15723
8823.0 0.0001133 8789.46973 8789.98828
8826.0 0.0001133 8806.29980 8806.82910
8860.0 0.0001129 8823.13770 8823.67773
8886.0 0.0001125 8839.98438 8840.53516
8918.0 0.0001121 8856.83789 8857.40137
8920.0 0.0001121 8873.70020 8874.27539
8937.0 0.0001119 8890.56934 8891.15625
8953.0 0.0001117 8907.44531 8908.04590
8963.0 0.0001116 8924.32715 8924.94043
8969.0 0.0001115 8941.21484 8941.84277
8985.0 0.0001113 8958.10840 8958.75000
9018.0 0.0001109 8975.00781 8975.66309
9048.0 0.0001105 8991.91113 8992.58203
9075.0 0.0001102 9008.81836 9009.50488
9079.0 0.0001101 9025.72949 9026.43262
9086.0 0.0001101 9042.64551 9043.36523
9111.0 0.0001098 9059.56348 9060.30078
9137.0 0.0001094 9076.48438 9077.23926
9155.0 0.0001092 9093.40820 9094.18164
9161.0 0.0001092 9110.33398 9111.12793
9176.0 0.0001090 9127.26270 9128.07617
9206.0 0.0001086 9144.19238 9145.02637
9220.0 0.0001085 9161.12305 9161.97949
9235.0 0.0001083 9178.05371 9178.93164
9234.0 0.0001083 9194.98730 9195.88965
9260.0 0.0001080 9211.91895 9212.84570
9286.0 0.0001077 9228.85156 9229.80371
9303.0 0.0001075 9245.78223 9246.76074
9315.0 0.0001074 9262.71484 9263.72168
9340.0 0.0001071 9279.64355 9280.67871
9364.0 0.0001068 9296.57324 9297.63867
9374.0 0.0001067 9313.49902 9314.59570
9383.0 0.0001066 9330.42480 9331.55566
9407.0 0.0001063 9347.34766 9348.51270
9426.0 0.0001061 9364.26855 9365.46973
9439.0 0.0001059 9381.18555 9382.42383
9436.0 0.0001060 9398.10059 9399.37891
9442.0 0.0001059 9415.01270 9416.33301
9478.0 0.0001055 9431.92090 9433.28516
9502.0 0.0001052 9448.82422 9450.23340
9516.0 0.0001051 9465.72363 9467.18164
9520.0 0.0001050 9482.62012 9484.12891
9533.0 0.0001049 9499.51074 9501.15820
9545.0 0.0001048 9516.39746 9518.10254
9585.0 0.0001043 9533.27832 9535.04492
9591.0 0.0001043 9550.15430 9551.98535
9603.0 0.0001041 9567.02344 9568.92188
9630.0 0.0001038 9583.88867 9585.85840
9636.0 0.0001038 9600.74609 9602.79297
9661.0 0.0001035 9617.59863 9619.72656
9697.0 0.0001031 9634.44434 9639.96680
9722.0 0.0001029 9651.28418 9656.95703
9757.0 0.0001025 9668.11523 9673.94629
9774.0 0.0001023 9684.94043 9690.93750
9780.0 0.0001022 9701.75781 9707.93164
9795.0 0.0001021 9718.56836 9724.92871
9798.0 0.0001021 9735.37012 9741.92676
9805.0 0.0001020 9752.16504 9758.92871
9811.0 0.0001019 9768.95117 9775.93652
9841.0 0.0001016 9785.72949 9792.95020
9861.0 0.0001014 9802.49902 9809.97168
9872.0 0.0001013 9819.26074 9827.00195
9887.0 0.0001011 9836.01270 9844.04297
9877.0 0.0001012 9852.75488 9861.09668
9890.0 0.0001011 9869.48926 9878.16895
9909.0 0.0001009 9886.21387 9895.26270
9936.0 0.0001006 9902.92969 9912.38379
9966.0 0.0001003 9919.63379 9929.53809
9998.0 0.0001000 9936.33008 9946.73535
10014.0 0.0000999 9953.01465 9963.98340
10028.0 0.0000997 9969.69141 9981.29883
10037.0 0.0000996 9986.35547 9998.68652
10045.0 0.0000996 10003.01074 10016.16211
10069.0 0.0000993 10019.65332 10033.72266
10091.0 0.0000991 10036.28809 10051.35938
10094.0 0.0000991 10052.91016 10069.03613
10115.0 0.0000989 10069.52148 10086.70020
10127.0 0.0000987 10086.12109 10104.29102
10142.0 0.0000986 10102.71094 10121.79297
10164.0 0.0000984 10119.28809 10139.25098
10187.0 0.0000982 10135.85352 10156.76563
10206.0 0.0000980 10152.40723 10174.43945
10218.0 0.0000979 10168.95020 10192.35840
10231.0 0.0000977 10185.48145 10210.58691
10239.0 0.0000977 10202.00000 10229.18848
10259.0 0.0000975 10218.50586 10248.24805
10271.0 0.0000974 10235.00098 10267.87891
10300.0 0.0000971 10251.48340 10288.25000
10317.0 0.0000969 10267.95215 10309.61621
10341.0 0.0000967 10284.41016 10332.36523
10350.0 0.0000966 10300.85352 10357.07129
10393.0 0.0000962 10317.28613 10384.56055
10407.0 0.0000961 10333.70508 10415.94238
10446.0 0.0000957 10350.11133 10452.59180
10500.0 0.0000952 10366.50391 10495.99902
10559.0 0.0000947 10382.88379 10547.39355
10633.0 0.0000940 10399.25000 10606.86426
10704.0 0.0000934 10415.60449 10671.82520
10791.0 0.0000927 10431.94434 10735.28809
10882.0 0.0000919 10448.27246 10785.63477
10921.0 0.0000916 10464.58496 10810.18359
10910.0 0.0000917 10480.88574 10804.24219
10884.0 0.0000919 10497.17188 10776.84180
10845.0 0.0000922 10513.44531 10742.90918
10792.0 0.0000927 10529.70313 10712.95898
10754.0 0.0000930 10545.94922 10691.17871
10708.0 0.0000934 10562.18066 10677.97070
10700.0 0.0000935 10578.39844 10672.21582
10704.0 0.0000934 10594.60156 10672.36914
10709.0 0.0000934 10610.79199 10676.94727
10707.0 0.0000934 10626.96680 10684.70605
10700.0 0.0000935 10643.12988 10694.70703
10724.0 0.0000932 10659.27734 10706.27734
10740.0 0.0000931 10675.41016 10720.67188
10744.0 0.0000931 10691.52930 10734.23047
10762.0 0.0000929 10707.63379 10748.41211
10777.0 0.0000928 10723.72461 10763.08398
10802.0 0.0000926 10739.80078 10778.15430
10819.0 0.0000924 10755.86328 10793.55957
10833.0 0.0000923 10771.91016 10809.24219
10839.0 0.0000923 10787.94336 10825.17480
10847.0 0.0000922 10803.96191 10841.32715
10858.0 0.0000921 10819.96680 10857.68359
10889.0 0.0000918 10835.95605 10874.22754
10892.0 0.0000918 10851.93164 10890.95410
10915.0 0.0000916 10867.89160 10907.86035
10928.0 0.0000915 10883.83789 10924.94531
10938.0 0.0000914 10899.76953 10942.21484
10974.0 0.0000911 10915.68750 10959.67676
10987.0 0.0000910 10931.58887 10977.34082
10999.0 0.0000909 10947.47754 10995.22559
11018.0 0.0000908 10963.34961 11013.34375
11041.0 0.0000906 10979.20898 11031.72852
11063.0 0.0000904 10995.05273 11050.40137
11091.0 0.0000902 11010.88281 11069.39941
11122.0 0.0000899 11026.69629 11088.76367
11149.0 0.0000897 11042.49707 11108.54883
11154.0 0.0000897 11058.28320 11128.81250
11150.0 0.0000897 11074.05371 11149.62793
11159.0 0.0000896 11089.81055 11171.08594
11185.0 0.0000894 11105.55176 11193.29395
11203.0 0.0000893 11121.27930 11216.38477
11212.0 0.0000892 11136.99121 11240.51172
11238.0 0.0000890 11152.68945 11265.90332
11260.0 0.0000888 11168.37207 11292.80371
11287.0 0.0000886 11184.04199 11321.54199
11309.0 0.0000884 11199.69531 11352.53809
11346.0 0.0000881 11215.33594 11386.33691
11353.0 0.0000881 11230.96094 11423.65918
11389.0 0.0000878 11246.57227 11465.56543
11443.0 0.0000874 11262.16797 11513.27539
11469.0 0.0000872 11277.75000 11568.89551
11513.0 0.0000869 11293.31738 11635.58496
11595.0 0.0000862 11308.87109 11718.46387
11711.0 0.0000854 11324.40918 11825.88477
11863.0 0.0000843 11339.93359 11971.03711
12109.0 0.0000826 11355.44434 12173.30469
12469.0 0.0000802 11370.93945 12458.17871
12917.0 0.0000774 11386.42090 12853.87109
13488.0 0.0000741 11401.88867 13381.22266
14165.0 0.0000706 11417.34180 14030.82227
14823.0 0.0000675 11432.78125 14725.35352
15312.0 0.0000653 11448.20605 15291.96289
15441.0 0.0000648 11463.61719 15498.29883
15198.0 0.0000658 11479.01465 15221.04004
14691.0 0.0000681 11494.39648 14608.87988
14001.0 0.0000714 11509.76563 13926.95898
13369.0 0.0000748 11525.12012 13338.36523
12846.0 0.0000778 11540.46191 12889.98730
12462.0 0.0000802 11555.78906 12572.86426
12210.0 0.0000819 11571.10352 12360.20703
12047.0 0.0000830 11586.40234 12223.67383
11955.0 0.0000836 11601.68848 12140.00391
11902.0 0.0000840 11616.96094 12093.01074
11891.0 0.0000841 11632.22070 12073.13672
11923.0 0.0000839 11647.46582 12076.41016
12030.0 0.0000831 11662.69727 12104.51758
12226.0 0.0000818 11677.91602 12167.72461
12489.0 0.0000801 11693.12109 12290.95605
12721.0 0.0000786 11708.31250 12518.30664
12958.0 0.0000772 11723.49121 12901.74609
13302.0 0.0000752 11738.65625 13451.34375
13889.0 0.0000720 11753.80859 14051.49023
14416.0 0.0000694 11768.94824 14438.66309
14433.0 0.0000693 11784.07422 14293.40820
13865.0 0.0000721 11799.18652 13694.54688
13100.0 0.0000763 11814.28711 13055.22949
12521.0 0.0000799 11829.37500 12592.29297
12210.0 0.0000819 11844.44824 12321.72656
12092.0 0.0000827 11859.51074 12184.32227
12058.0 0.0000829 11874.55859 12118.38477
12042.0 0.0000830 11889.59570 12085.82520
12041.0 0.0000830 11904.61914 12069.04297
12027.0 0.0000831 11919.63086 12060.90332
12038.0 0.0000831 11934.62988 12058.34961
12050.0 0.0000830 11949.61621 12059.86230
12060.0 0.0000829 11964.58984 12064.79102
12079.0 0.0000828 11979.55273 12073.43262
12092.0 0.0000827 11994.50195 12087.45410
12115.0 0.0000825 12009.44043 12109.77441
12154.0 0.0000823 12024.36523 12142.18262
12195.0 0.0000820 12039.28027 12179.93652
12220.0 0.0000818 12054.18164 12209.61914
12221.0 0.0000818 12069.07227 12214.53906
12222.0 0.0000818 12083.95020 12198.08105
12217.0 0.0000819 12098.81738 12181.73828
12210.0 0.0000819 12113.67285 12175.38477
12210.0 0.0000819 12128.51660 12178.37598
12250.0 0.0000816 12143.34766 12186.80273
12252.0 0.0000816 12158.16895 12197.65430
12254.0 0.0000816 12172.97852 12209.52539
12272.0 0.0000815 12187.77734 12221.91211
12284.0 0.0000814 12202.56445 12234.63184
12301.0 0.0000813 12217.34082 12247.59668
12305.0 0.0000813 12232.10645 12260.75391
12310.0 0.0000812 12246.86035 12274.06348
12329.0 0.0000811 12261.60449 12287.50195
12325.0 0.0000811 12276.33594 12301.04297
12353.0 0.0000810 12291.05859 12314.67969
12386.0 0.0000807 12305.77051 12328.39258
12412.0 0.0000806 12320.47168 12342.17188
12424.0 0.0000805 12335.16113 12356.00977
12444.0 0.0000804 12349.84180 12369.90332
12456.0 0.0000803 12364.51074 12383.84082
12465.0 0.0000802 12379.17188 12397.82617
12451.0 0.0000803 12393.82031 12411.84668
12452.0 0.0000803 12408.45996 12425.90234
12484.0 0.0000801 12423.08984 12439.99121
12510.0 0.0000799 12437.70996 12454.11133
12539.0 0.0000798 12452.31934 12469.24121
12541.0 0.0000797 12466.91992 12483.43164
12560.0 0.0000796 12481.50977 12497.64941
12586.0 0.0000795 12496.09082 12511.89355
12590.0 0.0000794 12510.66309 12526.16504
12593.0 0.0000794 12525.22461 12540.46387
12599.0 0.0000794 12539.77734 12554.79297
12625.0 0.0000792 12554.32129 12569.15430
12642.0 0.0000791 12568.85645 12583.55371
12678.0 0.0000789 12583.38184 12597.99219
12696.0 0.0000788 12597.89844 12612.47852
12724.0 0.0000786 12612.40527 12627.02344
12732.0 0.0000785 12626.90430 12641.63867
12770.0 0.0000783 12641.39453 12656.34668
12829.0 0.0000779 12655.87598 12670.91797
12929.0 0.0000773 12670.34863 12685.88965
12947.0 0.0000772 12684.81348 12701.06250
12940.0 0.0000773 12699.26953 12716.50977
12902.0 0.0000775 12713.71777 12732.34473
12879.0 0.0000776 12728.15723 12748.78027
12854.0 0.0000778 12742.58887 12766.32324
12862.0 0.0000777 12757.01172 12786.45898
12877.0 0.0000777 12771.42773 12813.25000
12902.0 0.0000775 12785.83496 12855.53027
12960.0 0.0000772 12800.23535 12926.37695
13023.0 0.0000768 12814.62695 13033.06738
13121.0 0.0000762 12829.01270 13155.54590
13181.0 0.0000759 12843.38867 13237.57324
13176.0 0.0000759 12857.75879 13216.45703
13127.0 0.0000762 12872.12109 13121.06348
13077.0 0.0000765 12886.47559 13031.24219
13026.0 0.0000768 12900.82422 12979.12695
13023.0 0.0000768 12915.16504 12960.21973
13011.0 0.0000769 12929.49805 12959.88184
13012.0 0.0000769 12943.82520 12967.36816
13035.0 0.0000767 12958.14551 12977.80762
13041.0 0.0000767 12972.45801 12989.51953
13062.0 0.0000766 12986.76465 13001.93066
13081.0 0.0000764 13001.06445 13016.45605
13096.0 0.0000764 13015.35742 13029.68848
13115.0 0.0000762 13029.64453 13043.14844
13131.0 0.0000762 13043.92578 13056.77539
13145.0 0.0000761 13058.19922 13070.52441
13165.0 0.0000760 13072.46777 13084.36914
13165.0 0.0000760 13086.72949 13098.28711
13177.0 0.0000759 13100.98535 13112.26563
13203.0 0.0000757 13115.23535 13126.28809
13209.0 0.0000757 13129.47949 13140.35059
13219.0 0.0000756 13143.71777 13154.44336
13242.0 0.0000755 13157.95117 13168.56348
13261.0 0.0000754 13172.17773 13182.70508
13276.0 0.0000753 13186.40039 13196.86914
13283.0 0.0000753 13200.61621 13211.04785
13306.0 0.0000752 13214.82715 13225.24219
13334.0 0.0000750 13229.03223 13239.45117
13346.0 0.0000749 13243.23340 13253.67578
13347.0 0.0000749 13257.42773 13267.90820
13360.0 0.0000749 13271.61816 13282.15820
13360.0 0.0000749 13285.80469 13296.41895
13380.0 0.0000747 13299.98438 13310.68750
13398.0 0.0000746 13314.16016 13324.97461
13428.0 0.0000745 13328.33105 13339.26855
13449.0 0.0000744 13342.49805 13353.57910
13468.0 0.0000743 13356.65918 13367.90137
13498.0 0.0000741 13370.81641 13382.23926
13511.0 0.0000740 13384.96875 13396.59180
13521.0 0.0000740 13399.11816 13410.96387
13534.0 0.0000739 13413.26270 13425.35059
13552.0 0.0000738 13427.40234 13439.75586
13553.0 0.0000738 13441.53809 13454.18359
13569.0 0.0000737 13455.67090 13468.63477
13580.0 0.0000736 13469.79785 13483.10938
13590.0 0.0000736 13483.92383 13497.61621
13598.0 0.0000735 13498.04297 13512.14941
13606.0 0.0000735 13512.16016 13526.72168
13625.0 0.0000734 13526.27344 13541.33008
13641.0 0.0000733 13540.38379 13555.98340
13660.0 0.0000732 13554.48926 13570.67969
13704.0 0.0000730 13568.59180 13585.43555
13711.0 0.0000729 13582.69141 13600.25098
13723.0 0.0000729 13596.78711 13615.13477
13749.0 0.0000727 13610.88086 13630.09961
13761.0 0.0000727 13624.97070 13645.15527
13779.0 0.0000726 13639.05762 13660.31250
13786.0 0.0000725 13653.14063 13675.59473
13795.0 0.0000725 13667.22266 13691.01563
13815.0 0.0000724 13681.29980 13706.59863
13835.0 0.0000723 13695.37598 13722.37695
13837.0 0.0000723 13709.44824 13738.38281
13855.0 0.0000722 13723.51855 13752.36523
13881.0 0.0000720 13737.58496 13769.00684
13907.0 0.0000719 13751.65039 13786.05371
13931.0 0.0000718 13765.71289 13803.59473
13943.0 0.0000717 13779.77344 13821.75879
13968.0 0.0000716 13793.83105 13840.70313
13964.0 0.0000716 13807.88770 13860.64844
13972.0 0.0000716 13821.94043 13881.90332
14006.0 0.0000714 13835.99219 13905.67773
14029.0 0.0000713 13850.04102 13931.04688
14032.0 0.0000713 13864.08887 13959.76172
14060.0 0.0000711 13878.13477 13993.54297
14096.0 0.0000709 13892.17871 14035.89258
14143.0 0.0000707 13906.21973 14094.57813
14205.0 0.0000704 13920.26074 14206.91309
14297.0 0.0000699 13934.29883 14361.02734
14513.0 0.0000689 13948.33691 14615.94434
14938.0 0.0000669 13962.37207 14999.19727
15570.0 0.0000642 13976.40625 15479.25098
16057.0 0.0000623 13990.43945 15906.54590
16072.0 0.0000622 14004.47070 16032.29883
15674.0 0.0000638 14018.50098 15748.20215
15136.0 0.0000661 14032.53027 15282.00293
14696.0 0.0000680 14046.55859 14871.62988
14476.0 0.0000691 14060.58398 14593.57227
14401.0 0.0000694 14074.61035 14434.99609
14368.0 0.0000696 14088.63477 14355.96777
14371.0 0.0000696 14102.65918 14320.72949
14372.0 0.0000696 14116.68164 14307.41406
14369.0 0.0000696 14130.70410 14305.43555
14372.0 0.0000696 14144.72461 14310.20605
14393.0 0.0000695 14158.74609 14319.68848
14397.0 0.0000695 14172.76563 14332.87402
14419.0 0.0000694 14186.78516 14349.25195
14437.0 0.0000693 14200.80371 14368.59082
14462.0 0.0000691 14214.82227 14390.92188
14509.0 0.0000689 14228.83984 14416.50195
14530.0 0.0000688 14242.85742 14445.87695
14561.0 0.0000687 14256.87402 14479.98242
14589.0 0.0000685 14270.89160 14520.35254
14615.0 0.0000684 14284.90723 14569.36035
14682.0 0.0000681 14298.92383 14630.53809
14776.0 0.0000677 14312.93945 14708.76660
14872.0 0.0000672 14326.95605 14810.23633
15026.0 0.0000666 14340.97266 14941.84668
15189.0 0.0000658 14354.98926 15109.68750
15430.0 0.0000648 14369.00391 15315.36328
15658.0 0.0000639 14383.02051 15548.35059
15822.0 0.0000632 14397.03711 15774.77734
15894.0 0.0000629 14411.05371 15934.78418
15861.0 0.0000630 14425.06934 15971.41895
15731.0 0.0000636 14439.08594 15882.14258
15555.0 0.0000643 14453.10352 15725.12793
15400.0 0.0000649 14467.12109 15565.74316
15310.0 0.0000653 14481.13770 15441.31543
15273.0 0.0000655 14495.15723 15364.84473
15289.0 0.0000654 14509.17578 15338.30078
15371.0 0.0000651 14523.19531 15361.24805
15494.0 0.0000645 14537.21387 15435.64453
15672.0 0.0000638 14551.23438 15570.72461
16019.0 0.0000624 14565.25488 15795.46387
16578.0 0.0000603 14579.27734 16200.84766
17556.0 0.0000570 14593.29785 17052.60742
19396.0 0.0000516 14607.32129 18968.61914
22923.0 0.0000436 14621.34570 22926.25391
29342.0 0.0000341 14635.37012 29592.92773
37711.0 0.0000265 14649.39355 37771.15234
43058.0 0.0000232 14663.41992 43326.71875
41842.0 0.0000239 14677.44727 41528.26563
34551.0 0.0000289 14691.47559 33788.73047
25617.0 0.0000390 14705.50391 25840.00195
19979.0 0.0000501 14719.53320 20510.57031
17422.0 0.0000574 14733.56348 17765.41602
16348.0 0.0000612 14747.59570 16557.00195
15841.0 0.0000631 14761.62891 16019.75000
15568.0 0.0000642 14775.66113 15735.56445
15416.0 0.0000649 14789.69629 15555.65332
15334.0 0.0000652 14803.73242 15430.86523
15281.0 0.0000654 14817.76953 15341.10449
15246.0 0.0000656 14831.80664 15275.42969
15245.0 0.0000656 14845.84668 15226.95117
15213.0 0.0000657 14859.88770 15191.07227
15187.0 0.0000658 14873.92969 15164.62793
15177.0 0.0000659 14887.97168 15145.38867
15165.0 0.0000659 14902.01660 15131.74707
15157.0 0.0000660 14916.06152 15122.51563
15141.0 0.0000660 14930.10938 15116.81543
15133.0 0.0000661 14944.15625 15113.96875
15149.0 0.0000660 14958.20605 15113.45801
15139.0 0.0000661 14972.25781 15114.87988
15139.0 0.0000661 14986.31055 15117.91504
15165.0 0.0000659 15000.36328 15122.30273
15180.0 0.0000659 15014.41895 15127.84961
15185.0 0.0000659 15028.47656 15134.38281
15193.0 0.0000658 15042.53418 15141.76953
15205.0 0.0000658 15056.59473 15149.89941
15219.0 0.0000657 15070.65430 15158.67676
15243.0 0.0000656 15084.71777 15168.03516
15244.0 0.0000656 15098.78223 15177.90820
15259.0 0.0000655 15112.84766 15188.37109
15278.0 0.0000655 15126.91406 15199.13770
15283.0 0.0000654 15140.98242 15210.29883
15301.0 0.0000654 15155.05371 15221.83789
15314.0 0.0000653 15169.12500 15233.73438
15327.0 0.0000652 15183.19727 15245.98438
15350.0 0.0000651 15197.27344 15258.59863
15354.0 0.0000651 15211.34961 15271.58594
15353.0 0.0000651 15225.42773 15284.98340
15356.0 0.0000651 15239.50684 15298.83887
15379.0 0.0000650 15253.58789 15313.23828
15414.0 0.0000649 15267.67090 15328.30566
15433.0 0.0000648 15281.75586 15346.73340
15429.0 0.0000648 15295.84082 15364.01172
15449.0 0.0000647 15309.92871 15383.28711
15460.0 0.0000647 15324.01855 15405.78418
15478.0 0.0000646 15338.11035 15433.39160
15502.0 0.0000645 15352.20117 15468.64551
15524.0 0.0000644 15366.29590 15514.24805
15576.0 0.0000642 15380.39160 15571.88574
15648.0 0.0000639 15394.48926 15639.79395
15705.0 0.0000637 15408.58887 15708.53613
15738.0 0.0000635 15422.68750 15758.40137
15744.0 0.0000635 15436.79004 15769.45996
15722.0 0.0000636 15450.89453 15743.12891
15681.0 0.0000638 15465.00000 15700.83594
15647.0 0.0000639 15479.10547 15661.05469
15630.0 0.0000640 15493.21387 15631.76367
15634.0 0.0000640 15507.32520 15614.27148
15639.0 0.0000639 15521.43652 15606.80664
15641.0 0.0000639 15535.54883 15606.68652
15671.0 0.0000638 15549.66406 15611.42969
15687.0 0.0000637 15563.78027 15619.19727
15703.0 0.0000637 15577.89844 15628.82324
15719.0 0.0000636 15592.01660 15639.62695
15730.0 0.0000636 15606.13770 15651.23242
15714.0 0.0000636 15620.25977 15663.41211
15714.0 0.0000636 15634.38379 15677.24707
15742.0 0.0000635 15648.50781 15690.24414
15755.0 0.0000635 15662.63477 15703.53906
15770.0 0.0000634 15676.76367 15717.08984
15799.0 0.0000633 15690.89355 15730.86133
15819.0 0.0000632 15705.02246 15744.83203
15839.0 0.0000631 15719.15527 15758.99805
15851.0 0.0000631 15733.28906 15773.33984
15852.0 0.0000631 15747.42480 15787.86426
15861.0 0.0000630 15761.56152 15802.56836
15878.0 0.0000630 15775.69824 15817.45410
15883.0 0.0000630 15789.83691 15832.54199
15895.0 0.0000629 15803.97754 15847.84082
15912.0 0.0000628 15818.11914 15863.37207
15932.0 0.0000628 15832.26172 15879.16895
15952.0 0.0000627 15846.40527 15895.66992
15970.0 0.0000626 15860.55078 15912.09570
15976.0 0.0000626 15874.69727 15928.90234
15977.0 0.0000626 15888.84375 15946.15527
15990.0 0.0000625 15902.99316 15963.94238
16012.0 0.0000625 15917.14258 15982.36230
16021.0 0.0000624 15931.29395 16001.55176
16046.0 0.0000623 15945.44434 16021.68848
16051.0 0.0000623 15959.59766 16043.02441
16068.0 0.0000622 15973.75195 16065.89941
16094.0 0.0000621 15987.90723 16090.79980
16116.0 0.0000621 16002.06250 16118.42285
16136.0 0.0000620 16016.21875 16150.00781
16157.0 0.0000619 16030.37695 16186.34277
16176.0 0.0000618 16044.53613 16229.40234
16213.0 0.0000617 16058.69434 16281.26855
16280.0 0.0000614 16072.85449 16344.31348
16335.0 0.0000612 16087.01563 16420.87500
16442.0 0.0000608 16101.17773 16512.71875
16553.0 0.0000604 16115.33984 16619.73438
16665.0 0.0000600 16129.50195 16737.57617
16777.0 0.0000596 16143.66602 16855.46484
16853.0 0.0000593 16157.83008 16949.63281
16918.0 0.0000591 16171.99512 16996.73633
17016.0 0.0000588 16186.15918 16984.15430
17090.0 0.0000585 16200.32520 16921.78516
17120.0 0.0000584 16214.49219 16834.03516
17181.0 0.0000582 16228.65820 16743.54297
16990.0 0.0000589 16242.82422 16663.37500
16635.0 0.0000601 16256.99219 16598.38672
16519.0 0.0000605 16271.16016 16548.85547
16477.0 0.0000607 16285.32813 16513.07422
16475.0 0.0000607 16299.49512 16488.70508
16450.0 0.0000608 16313.66406 16473.43555
16443.0 0.0000608 16327.83301 16464.97656
16456.0 0.0000608 16342.00195 16461.66016
16484.0 0.0000607 16356.16992 16462.12891
16502.0 0.0000606 16370.33887 16464.11719
16516.0 0.0000605 16384.50781 16469.46680
16512.0 0.0000606 16398.67578 16476.38086
16522.0 0.0000605 16412.84375 16484.50781
16535.0 0.0000605 16427.01172 16493.59961
16543.0 0.0000604 16441.18164 16503.46875
16555.0 0.0000604 16455.34961 16513.96680
16562.0 0.0000604 16469.51758 16524.99414
16575.0 0.0000603 16483.68359 16536.46484
16583.0 0.0000603 16497.85156 16548.46484
16611.0 0.0000602 16512.01758 16560.64453
16609.0 0.0000602 16526.18359 16573.10156
16615.0 0.0000602 16540.34766 16585.80273
16629.0 0.0000601 16554.51367 16598.71680
16644.0 0.0000601 16568.67773 16611.81836
16662.0 0.0000600 16582.84180 16625.08789
16670.0 0.0000600 16597.00391 16638.50977
16690.0 0.0000599 16611.16602 16652.07031
16706.0 0.0000599 16625.32813 16665.76367
16726.0 0.0000598 16639.49023 16679.57227
16744.0 0.0000597 16653.64844 16693.49219
16767.0 0.0000596 16667.80664 16707.51563
16781.0 0.0000596 16681.96484 16721.65234
16779.0 0.0000596 16696.12305 16736.71289
16788.0 0.0000596 16710.27734 16751.05273
16814.0 0.0000595 16724.43164 16765.49023
16817.0 0.0000595 16738.58398 16780.03320
16837.0 0.0000594 16752.73633 16794.68750
16860.0 0.0000593 16766.88672 16809.45313
16860.0 0.0000593 16781.03516 16824.52539
16886.0 0.0000592 16795.18359 16839.55664
16907.0 0.0000591 16809.33008 16854.73438
16899.0 0.0000592 16823.47461 16870.11914
16924.0 0.0000591 16837.61719 16885.66797
16930.0 0.0000591 16851.75781 16901.44922
16931.0 0.0000591 16865.89844 16917.51953
16945.0 0.0000590 16880.03711 16933.96875
16959.0 0.0000590 16894.17188 16950.89844
16989.0 0.0000589 16908.30469 16968.49023
17005.0 0.0000588 16922.43750 16987.33789
17014.0 0.0000588 16936.56836 17007.20508
17014.0 0.0000588 16950.69531 17028.91016
17038.0 0.0000587 16964.82227 17053.07422
17053.0 0.0000586 16978.94531 17080.35938
17101.0 0.0000585 16993.06641 17111.33984
17152.0 0.0000583 17007.18555 17146.21484
17182.0 0.0000582 17021.30273 17184.27539
17227.0 0.0000580 17035.41602 17222.99414
17263.0 0.0000579 17049.52930 17257.31445
17246.0 0.0000580 17063.63672 17280.87500
17235.0 0.0000580 17077.74414 17290.36133
17227.0 0.0000580 17091.84766 17288.67383
17252.0 0.0000580 17105.94922 17282.26563
17259.0 0.0000579 17120.04688 17276.47852
17258.0 0.0000579 17134.14258 17274.00781
17267.0 0.0000579 17148.23438 17275.62695
17280.0 0.0000579 17162.32422 17281.21875
17292.0 0.0000578 17176.41211 17290.25586
17308.0 0.0000578 17190.49414 17302.13672
17331.0 0.0000577 17204.57422 17316.32227
17334.0 0.0000577 17218.65039 17332.38477
17357.0 0.0000576 17232.72461 17350.05859
17405.0 0.0000575 17246.79297 17369.22461
17422.0 0.0000574 17260.86133 17389.91406
17422.0 0.0000574 17274.92383 17412.31055
17442.0 0.0000573 17288.98242 17436.80469
17469.0 0.0000572 17303.03711 17464.09375
17512.0 0.0000571 17317.08984 17495.29688
17560.0 0.0000569 17331.13867 17532.15625
17614.0 0.0000568 17345.18359 17577.09961
17679.0 0.0000566 17359.22266 17633.15430
17759.0 0.0000563 17373.25977 17703.49805
17822.0 0.0000561 17387.29297 17790.56055
17910.0 0.0000558 17401.32031 17894.40625
17984.0 0.0000556 17415.34375 18009.81250
18072.0 0.0000553 17429.36328 18122.28906
18152.0 0.0000551 17443.37891 18208.98828
18213.0 0.0000549 17457.39063 18254.03711
18254.0 0.0000548 17471.39648 18267.59961
18322.0 0.0000546 17485.39844 18279.39648
18398.0 0.0000544 17499.39453 18316.64648
18489.0 0.0000541 17513.38867 18395.28711
18627.0 0.0000537 17527.37695 18521.81055
18796.0 0.0000532 17541.35742 18694.43359
18968.0 0.0000527 17555.33594 18900.00781
19139.0 0.0000522 17569.31055 19108.49023
19243.0 0.0000520 17583.27734 19272.39453
19257.0 0.0000519 17597.24023 19343.45313
19204.0 0.0000521 17611.19727 19301.20313
19078.0 0.0000524 17625.15039 19164.65039
18939.0 0.0000528 17639.09766 18976.68555
18816.0 0.0000531 17653.03906 18780.97070
18686.0 0.0000535 17666.97461 18606.65625
18570.0 0.0000539 17680.90625 18466.34375
18480.0 0.0000541 17694.83008 18361.89063
18392.0 0.0000544 17708.74805 18290.03711
18323.0 0.0000546 17722.66211 18245.35352
18273.0 0.0000547 17736.57031 18222.34180
18224.0 0.0000549 17750.47266 18216.03320
18195.0 0.0000550 17764.36719 18222.45508
18192.0 0.0000550 17778.25781 18238.77148
18174.0 0.0000550 17792.14063 18263.40039
18160.0 0.0000551 17806.01953 18296.03125
18165.0 0.0000551 17819.88867 18337.53320
18170.0 0.0000550 17833.75391 18388.98047
18207.0 0.0000549 17847.61133 18452.52734
18263.0 0.0000548 17861.46484 18530.85742
18302.0 0.0000546 17875.30859 18627.50391
18374.0 0.0000544 17889.14648 18746.93359
18499.0 0.0000541 17902.97852 18894.60547
18650.0 0.0000536 17916.80469 19076.92188
18885.0 0.0000530 17930.62305 19301.27148
19203.0 0.0000521 17944.43164 19574.66211
19626.0 0.0000510 17958.23633 19903.83789
20175.0 0.0000496 17972.03320 20291.82031
20834.0 0.0000480 17985.82422 20733.39648
21511.0 0.0000465 17999.60547 21208.23438
22080.0 0.0000453 18013.38086 21675.29102
22434.0 0.0000446 18027.15039 22076.40820
22554.0 0.0000443 18040.91016 22354.77539
22510.0 0.0000444 18054.66211 22477.13281
22343.0 0.0000448 18068.40820 22435.47070
22056.0 0.0000453 18082.14453 22230.33203
21719.0 0.0000460 18095.87500 21872.92969
21319.0 0.0000469 18109.59570 21408.56250
20914.0 0.0000478 18123.31055 20910.59766
20523.0 0.0000487 18137.01758 20443.17969
20182.0 0.0000495 18150.71484 20040.88672
19870.0 0.0000503 18164.40430 19713.90234
19618.0 0.0000510 18178.08594 19458.97266
19394.0 0.0000516 18191.75977 19266.69922
19201.0 0.0000521 18205.42383 19125.26367
19063.0 0.0000525 18219.08203 19022.31445
18926.0 0.0000528 18232.72852 18945.84961
18820.0 0.0000531 18246.36914 18885.33008
18752.0 0.0000533 18260.00000 18833.46094
18696.0 0.0000535 18273.62109 18787.18750
18646.0 0.0000536 18287.23438 18746.44531
18643.0 0.0000536 18300.83789 18711.92383
18634.0 0.0000537 18314.43359 18683.80273
18619.0 0.0000537 18328.02148 18661.71484
18637.0 0.0000537 18341.59766 18644.99414
18613.0 0.0000537 18355.16602 18632.93164
18607.0 0.0000537 18368.72461 18624.74609
18624.0 0.0000537 18382.27539 18619.81836
18630.0 0.0000537 18395.81445 18617.56055
18642.0 0.0000536 18409.34570 18617.53320
18663.0 0.0000536 18422.86719 18619.34961
18654.0 0.0000536 18436.37891 18622.72656
18654.0 0.0000536 18449.87891 18627.44531
18661.0 0.0000536 18463.37109 18633.34570
18675.0 0.0000535 18476.85352 18640.30859
18687.0 0.0000535 18490.32617 18648.22852
18724.0 0.0000534 18503.78906 18657.04688
18734.0 0.0000534 18517.24023 18666.71875
18745.0 0.0000533 18530.68359 18677.21680
18766.0 0.0000533 18544.11523 18688.52930
18770.0 0.0000533 18557.53711 18700.69141
18772.0 0.0000533 18570.94922 18713.72266
18794.0 0.0000532 18584.34961 18727.71094
18807.0 0.0000532 18597.74023 18742.77344
18823.0 0.0000531 18611.12109 18759.07422
18850.0 0.0000531 18624.49023 18776.86328
18865.0 0.0000530 18637.84961 18796.49414
18899.0 0.0000529 18651.19727 18818.40430
18931.0 0.0000528 18664.53516 18843.22266
18942.0 0.0000528 18677.85938 18871.71094
18964.0 0.0000527 18691.17578 18904.83789
18993.0 0.0000527 18704.48047 18943.68945
19041.0 0.0000525 18717.77344 18989.38867
19083.0 0.0000524 18731.05469 19042.86133
19155.0 0.0000522 18744.32617 19104.40430
19221.0 0.0000520 18757.58594 19173.07617
19285.0 0.0000519 18770.83398 19246.13477
19326.0 0.0000517 18784.07031 19319.04297
19336.0 0.0000517 18797.29492 19386.12695
19362.0 0.0000516 18810.50781 19441.37695
19389.0 0.0000516 18823.71094 19479.35156
19418.0 0.0000515 18836.90039 19498.34961
19444.0 0.0000514 18850.07813 19504.27148
19480.0 0.0000513 18863.24609 19508.32227
19514.0 0.0000512 18876.40039 19525.63086
19546.0 0.0000512 18889.54297 19564.14648
19595.0 0.0000510 18902.67188 19628.44531
19643.0 0.0000509 18915.79102 19718.88477
19675.0 0.0000508 18928.89844 19830.73242
19724.0 0.0000507 18941.99219 19951.96289
19763.0 0.0000506 18955.07227 20061.01172
19778.0 0.0000506 18968.14258 20130.17188
19793.0 0.0000505 18981.19922 20136.81836
19794.0 0.0000505 18994.24414 20078.55273
19791.0 0.0000505 19007.27539 19974.41211
19807.0 0.0000505 19020.29492 19851.10742
19850.0 0.0000504 19033.30078 19729.70117
20001.0 0.0000500 19046.29492 19621.87891
20317.0 0.0000492 19059.27539 19532.15820
20507.0 0.0000488 19072.24414 19460.99219
20260.0 0.0000494 19085.19922 19406.77734
19913.0 0.0000502 19098.14063 19367.10938
19741.0 0.0000507 19111.07031 19339.15234
19639.0 0.0000509 19123.98633 19320.41602
19587.0 0.0000511 19136.88867 19308.66992
19548.0 0.0000512 19149.77734 19302.11719
19503.0 0.0000513 19162.65430 19299.41797
19506.0 0.0000513 19175.51563 19299.54102
19507.0 0.0000513 19188.36523 19301.79688
19489.0 0.0000513 19201.20117 19305.68555
19485.0 0.0000513 19214.02539 19310.85938
19495.0 0.0000513 19226.83203 19317.06445
19496.0 0.0000513 19239.62695 19324.11328
19509.0 0.0000513 19252.40820 19331.86328
19532.0 0.0000512 19265.17578 19340.36328
19553.0 0.0000511 19277.92969 19349.22656
19580.0 0.0000511 19290.66992 19358.51172
19590.0 0.0000510 19303.39453 19368.18164
19593.0 0.0000510 19316.10742 19378.18359
19615.0 0.0000510 19328.80469 19388.49219
19647.0 0.0000509 19341.48828 19399.04297
19657.0 0.0000509 19354.15820 19409.78320
19664.0 0.0000509 19366.81250 19420.73242
19664.0 0.0000509 19379.45313 19431.90820
19663.0 0.0000509 19392.08008 19443.25781
19668.0 0.0000508 19404.69336 19454.77148
19674.0 0.0000508 19417.29102 19466.43555
19676.0 0.0000508 19429.87305 19478.24805
19676.0 0.0000508 19442.44336 19490.20117
19700.0 0.0000508 19454.99609 19502.28906
19720.0 0.0000507 19467.53711 19514.88672
19721.0 0.0000507 19480.06055 19527.21484
19721.0 0.0000507 19492.57031 19539.74023
19719.0 0.0000507 19505.06641 19552.41016
19726.0 0.0000507 19517.54688 19565.50000
19724.0 0.0000507 19530.01367 19578.50586
19738.0 0.0000507 19542.46289 19591.71680
19752.0 0.0000506 19554.89844 19605.13867
19771.0 0.0000506 19567.32031 19618.82422
19757.0 0.0000506 19579.72656 19632.80469
19756.0 0.0000506 19592.11523 19647.14453
19779.0 0.0000506 19604.49219 19661.92773
19800.0 0.0000505 19616.85156 19677.25781
19816.0 0.0000505 19629.19727 19693.26172
19820.0 0.0000505 19641.52539 19710.10352
19825.0 0.0000504 19653.83984 19728.05469
19853.0 0.0000504 19666.14063 19747.20313
19879.0 0.0000503 19678.42383 19768.08789
19898.0 0.0000503 19690.69141 19790.50586
19906.0 0.0000502 19702.94336 19814.91016
19945.0 0.0000501 19715.17969 19841.41211
19953.0 0.0000501 19727.40234 19870.02734
19971.0 0.0000501 19739.60742 19900.44922
19992.0 0.0000500 19751.79688 19932.35547
20018.0 0.0000500 19763.97266 19965.48438
20029.0 0.0000499 19776.13086 19999.78906
20042.0 0.0000499 19788.27344 20035.13477
20082.0 0.0000498 19800.40039 20070.70508
20103.0 0.0000497 19812.51172 20104.74805
20131.0 0.0000497 19824.60742 20134.66406
20120.0 0.0000497 19836.68750 20157.82813
20110.0 0.0000497 19848.75000 20172.51367
20105.0 0.0000497 19860.79688 20178.33594
20110.0 0.0000497 19872.82813 20176.11719
20094.0 0.0000498 19884.84375 20167.42969
20088.0 0.0000498 19896.84180 20154.33594
20091.0 0.0000498 19908.82617 20139.26367
20095.0 0.0000498 19920.79297 20124.46289
20085.0 0.0000498 19932.74414 20111.58789
20087.0 0.0000498 19944.67773 20101.51563
20091.0 0.0000498 19956.59570 20094.56641
20091.0 0.0000498 19968.49805 20090.67969
20089.0 0.0000498 19980.38477 20089.63086
20098.0 0.0000498 19992.25195 20091.06445
20092.0 0.0000498 20004.10547 20094.65039
20103.0 0.0000497 20015.94141 20100.04297
20087.0 0.0000498 20027.76172 20106.93945
20082.0 0.0000498 20039.56445 20115.09570
20108.0 0.0000497 20051.35352 20124.29297
20127.0 0.0000497 20063.12305 20134.38086
20137.0 0.0000497 20074.87695 20145.25781
20155.0 0.0000496 20086.61523 20156.85547
20172.0 0.0000496 20098.33594 20169.29492
20160.0 0.0000496 20110.04102 20182.30859
20179.0 0.0000496 20121.72852 20196.05078
20197.0 0.0000495 20133.40039 20211.20898
20195.0 0.0000495 20145.05273 20227.16016
20194.0 0.0000495 20156.69141 20243.71289
20203.0 0.0000495 20168.31250 20261.48828
20229.0 0.0000494 20179.91797 20280.72461
20250.0 0.0000494 20191.50391 20301.63281
20296.0 0.0000493 20203.07617 20324.51367
20336.0 0.0000492 20214.62891 20349.65234
20419.0 0.0000490 20226.16797 20377.36523
20522.0 0.0000487 20237.68750 20407.98438
20605.0 0.0000485 20249.19141 20441.92969
20677.0 0.0000484 20260.67773 20479.64063
20702.0 0.0000483 20272.14844 20521.76367
20674.0 0.0000484 20283.59961 20568.99219
20605.0 0.0000485 20295.03711 20621.68945
20575.0 0.0000486 20306.45703 20679.41211
20567.0 0.0000486 20317.85938 20740.33594
20600.0 0.0000485 20329.24414 20800.85938
20676.0 0.0000484 20340.61328 20855.15820
20768.0 0.0000482 20351.96484 20894.91406
20889.0 0.0000479 20363.29883 20912.66602
21021.0 0.0000476 20374.61523 20909.02539
21088.0 0.0000474 20385.91797 20892.99219
21076.0 0.0000474 20397.20117 20873.75586
21010.0 0.0000476 20408.46875 20856.02344
20906.0 0.0000478 20419.71875 20840.91211
20792.0 0.0000481 20430.95117 20827.93945
20711.0 0.0000483 20442.16602 20816.08984
20695.0 0.0000483 20453.36523 20803.51758
20710.0 0.0000483 20464.54883 20787.57617
20735.0 0.0000482 20475.71289 20766.55273
20702.0 0.0000483 20486.85938 20741.82422
20669.0 0.0000484 20497.99219 20713.18164
20622.0 0.0000485 20509.10547 20691.35156
20603.0 0.0000485 20520.20117 20674.18750
20591.0 0.0000486 20531.28125 20662.17188
20585.0 0.0000486 20542.34570 20655.06055
20599.0 0.0000485 20553.39063 20652.14844
20604.0 0.0000485 20564.41992 20652.55859
20610.0 0.0000485 20575.43164 20655.43164
20625.0 0.0000485 20586.42578 20660.08398
20636.0 0.0000485 20597.40430 20665.75195
20633.0 0.0000485 20608.36523 20671.94141
20648.0 0.0000484 20619.30859 20678.19141
20649.0 0.0000484 20630.23633 20684.21680
20670.0 0.0000484 20641.14648 20690.04688
20696.0 0.0000483 20652.03906 20696.24805
20717.0 0.0000483 20662.91406 20704.10742
20746.0 0.0000482 20673.77344 20716.06836
20768.0 0.0000482 20684.61719 20735.63477
20814.0 0.0000480 20695.44336 20766.37109
20851.0 0.0000480 20706.25000 20809.99805
20893.0 0.0000479 20717.04102 20865.78711
20931.0 0.0000478 20727.81641 20931.47070
20990.0 0.0000476 20738.57422 21003.61719
21036.0 0.0000475 20749.31445 21076.70313
21112.0 0.0000474 20760.03906 21141.75586
21177.0 0.0000472 20770.74609 21186.46680
21208.0 0.0000472 20781.43750 21199.95313
21207.0 0.0000472 20792.11133 21181.67969
21162.0 0.0000473 20802.76758 21142.15820
21105.0 0.0000474 20813.40820 21095.22656
21061.0 0.0000475 20824.03125 21050.76172
21026.0 0.0000476 20834.63672 21013.81445
20985.0 0.0000477 20845.22656 20986.22266
20963.0 0.0000477 20855.80078 20967.89844
20964.0 0.0000477 20866.35742 20957.64844
20958.0 0.0000477 20876.89648 20953.83398
20958.0 0.0000477 20887.41992 20954.78906
20964.0 0.0000477 20897.92773 20959.11719
20961.0 0.0000477 20908.41797 20965.76758
20963.0 0.0000477 20918.89063 20974.07813
20984.0 0.0000477 20929.34766 20982.93555
20993.0 0.0000476 20939.78906 20993.74414
20998.0 0.0000476 20950.21289 21005.81641
20996.0 0.0000476 20960.62109 21019.40234
21012.0 0.0000476 20971.01172 21034.94141
21030.0 0.0000476 20981.38672 21053.05273
21054.0 0.0000475 20991.74609 21074.47852
21098.0 0.0000474 21002.08789 21100.05273
21139.0 0.0000473 21012.41406 21130.50586
21167.0 0.0000472 21022.72461 21166.33203
21229.0 0.0000471 21033.01758 21207.42383
21285.0 0.0000470 21043.29492 21252.77930
21302.0 0.0000469 21053.55469 21299.77344
21339.0 0.0000469 21063.80078 21343.58203
21382.0 0.0000468 21074.02930 21377.25586
21389.0 0.0000468 21084.24219 21394.14844
21389.0 0.0000468 21094.43945 21391.97070
21381.0 0.0000468 21104.61914 21374.56641
21366.0 0.0000468 21114.78516 21349.11523
21345.0 0.0000468 21124.93359 21322.10547
21303.0 0.0000469 21135.06641 21297.74609
21259.0 0.0000470 21145.18359 21278.11133
21234.0 0.0000471 21155.28516 21263.92383
21234.0 0.0000471 21165.37109 21255.11328
21239.0 0.0000471 21175.43945 21251.13867
21226.0 0.0000471 21185.49414 21251.22656
21224.0 0.0000471 21195.53320 21254.57227
21224.0 0.0000471 21205.55664 21260.41016
21229.0 0.0000471 21215.56445 21268.08398
21241.0 0.0000471 21225.55469 21276.98633
21266.0 0.0000470 21235.53320 21286.61914
21266.0 0.0000470 21245.49414 21296.21094
21280.0 0.0000470 21255.43945 21305.32227
21291.0 0.0000470 21265.36914 21313.74609
21295.0 0.0000470 21275.28516 21321.61328
21306.0 0.0000469 21285.18359 21329.30859
21318.0 0.0000469 21295.07031 21337.17188
21327.0 0.0000469 21304.93750 21345.83984
21348.0 0.0000468 21314.79297 21354.58594
21362.0 0.0000468 21324.63281 21363.84375
21381.0 0.0000468 21334.45703 21373.58984
21389.0 0.0000468 21344.26563 21383.66602
21406.0 0.0000467 21354.06055 21393.96094
21433.0 0.0000467 21363.83984 21404.32227
21436.0 0.0000467 21373.60547 21414.57031
21430.0 0.0000467 21383.35547 21424.53711
21444.0 0.0000466 21393.09180 21434.16992
21446.0 0.0000466 21402.81250 21443.49219
21437.0 0.0000466 21412.51953 21452.51953
21439.0 0.0000466 21422.21094 21461.41602
21447.0 0.0000466 21431.88867 21470.33398
21456.0 0.0000466 21441.55078 21479.38867
21485.0 0.0000465 21451.20117 21488.68945
21515.0 0.0000465 21460.83594 21498.28516
21529.0 0.0000464 21470.45508 21508.75977
21517.0 0.0000465 21480.06055 21519.04492
21530.0 0.0000464 21489.65430 21529.62500
21537.0 0.0000464 21499.23242 21540.41602
21546.0 0.0000464 21508.79492 21551.27930
21568.0 0.0000464 21518.34570 21562.09570
21562.0 0.0000464 21527.88281 21572.48828
21567.0 0.0000464 21537.40430 21582.46680
21570.0 0.0000464 21546.91211 21592.09766
21591.0 0.0000463 21556.40820 21601.58984
21615.0 0.0000463 21565.89063 21611.33789
21628.0 0.0000462 21575.35742 21621.15430
21640.0 0.0000462 21584.81250 21631.34570
21650.0 0.0000462 21594.25391 21642.00586
21685.0 0.0000461 21603.68164 21653.19531
21733.0 0.0000460 21613.09570 21664.97852
21812.0 0.0000458 21622.49609 21677.41406
21862.0 0.0000457 21631.88477 21690.60156
21822.0 0.0000458 21641.25977 21704.61133
21800.0 0.0000459 21650.62305 21719.56836
21779.0 0.0000459 21659.97070 21735.63281
21776.0 0.0000459 21669.30859 21752.84570
21794.0 0.0000459 21678.63281 21771.40625
21828.0 0.0000458 21687.94336 21791.50000
21857.0 0.0000458 21697.24219 21813.28711
21882.0 0.0000457 21706.52734 21836.95313
21913.0 0.0000456 21715.80078 21862.69336
21919.0 0.0000456 21725.06055 21890.67578
21946.0 0.0000456 21734.31055 21921.12891
21967.0 0.0000455 21743.54492 21954.51563
21971.0 0.0000455 21752.76953 21991.75586
21973.0 0.0000455 21761.98242 22034.35547
21984.0 0.0000455 21771.18164 22084.20117
22006.0 0.0000454 21780.36914 22143.16797
22043.0 0.0000454 21789.54492 22212.42773
22120.0 0.0000452 21798.70898 22291.80078
22228.0 0.0000450 21807.86133 22378.98633
22391.0 0.0000447 21817.00195 22468.48047
22600.0 0.0000442 21826.13086 22550.53711
22812.0 0.0000438 21835.25000 22611.75195
22917.0 0.0000436 21844.35547 22639.03320
22866.0 0.0000437 21853.44922 22626.52148
22695.0 0.0000441 21862.53320 22579.33203
22481.0 0.0000445 21871.60547 22509.94141
22313.0 0.0000448 21880.66797 22432.04688
22196.0 0.0000451 21889.71680 22355.77148
22132.0 0.0000452 21898.75586 22287.15820
22079.0 0.0000453 21907.78516 22229.11133
22047.0 0.0000454 21916.80273 22182.47852
22051.0 0.0000453 21925.81055 22146.91406
22037.0 0.0000454 21934.80469 22121.32813
22044.0 0.0000454 21943.79102 22104.32031
22068.0 0.0000453 21952.76758 22094.42188
22073.0 0.0000453 21961.73242 22090.27148
22074.0 0.0000453 21970.68555 22090.80859
22079.0 0.0000453 21979.63086 22095.24414
22095.0 0.0000453 21988.56445 22103.02930
22100.0 0.0000452 21997.48828 22113.88867
22112.0 0.0000452 22006.40234 22127.67188
22138.0 0.0000452 22015.30664 22144.32813
22173.0 0.0000451 22024.20117 22163.77539
22190.0 0.0000451 22033.08789 22185.82422
22221.0 0.0000450 22041.96094 22210.16797
22241.0 0.0000450 22050.82813 22235.74609
22261.0 0.0000449 22059.68359 22261.23242
22272.0 0.0000449 22068.53125 22285.03711
22298.0 0.0000448 22077.36719 22303.13281
22301.0 0.0000448 22086.19727 22314.50586
22301.0 0.0000448 22095.01563 22317.91211
22311.0 0.0000448 22103.82617 22314.30078
22309.0 0.0000448 22112.62695 22305.93945
22297.0 0.0000448 22121.41992 22295.34180
22294.0 0.0000449 22130.20313 22284.86914
22297.0 0.0000448 22138.97852 22275.32031
22292.0 0.0000449 22147.74609 22267.63672
22274.0 0.0000449 22156.50195 22262.12891
22291.0 0.0000449 22165.25195 22258.84180
22285.0 0.0000449 22173.99414 22257.48633
22279.0 0.0000449 22182.72656 22258.20898
22274.0 0.0000449 22191.45117 22260.62305
22289.0 0.0000449 22200.16797 22264.33594
22287.0 0.0000449 22208.87695 22269.16602
22304.0 0.0000448 22217.57813 22274.89258
22327.0 0.0000448 22226.27148 22281.31445
22329.0 0.0000448 22234.95703 22288.30078
22326.0 0.0000448 22243.63477 22295.72070
22341.0 0.0000448 22252.30664 22303.49219
22336.0 0.0000448 22260.96875 22311.58789
22339.0 0.0000448 22269.62500 22319.89648
22352.0 0.0000447 22278.27344 22328.40625
22374.0 0.0000447 22286.91406 22337.11133
22385.0 0.0000447 22295.54883 22345.99805
22406.0 0.0000446 22304.17578 22355.15430
22411.0 0.0000446 22312.79688 22364.36719
22407.0 0.0000446 22321.41016 22373.74414
22416.0 0.0000446 22330.01563 22383.28906
22434.0 0.0000446 22338.61719 22393.01172
22466.0 0.0000445 22347.21094 22402.89258
22477.0 0.0000445 22355.79883 22412.96875
22483.0 0.0000445 22364.38086 22423.25391
22499.0 0.0000444 22372.95313 22433.76367
22506.0 0.0000444 22381.52344 22444.52930
22516.0 0.0000444 22390.08594 22455.60352
22507.0 0.0000444 22398.64258 22467.01367
22534.0 0.0000444 22407.19141 22478.81641
22537.0 0.0000444 22415.73633 22491.08203
22547.0 0.0000444 22424.27539 22503.91211
22571.0 0.0000443 22432.81055 22517.28711
22578.0 0.0000443 22441.33789 22531.33984
22576.0 0.0000443 22449.85938 22546.08008
22572.0 0.0000443 22458.37695 22561.58594
22590.0 0.0000443 22466.88867 22577.86914
22608.0 0.0000442 22475.39453 22594.88086
22628.0 0.0000442 22483.89648 22612.51563
22653.0 0.0000441 22492.39453 22630.58594
22664.0 0.0000441 22500.88477 22648.82031
22678.0 0.0000441 22509.37109 22667.06445
22696.0 0.0000441 22517.85352 22685.35742
22703.0 0.0000440 22526.33203 22704.03516
22711.0 0.0000440 22534.80469 22723.69531
22709.0 0.0000440 22543.27148 22745.04102
22728.0 0.0000440 22551.73633 22768.77539
22737.0 0.0000440 22560.19531 22795.50195
22756.0 0.0000439 22568.65234 22825.97656
22773.0 0.0000439 22577.10352 22860.35156
22809.0 0.0000438 22585.54883 22899.24609
22824.0 0.0000438 22593.99219 22943.73438
22862.0 0.0000437 22602.43164 22993.04688
22916.0 0.0000436 22610.86719 23048.00781
22970.0 0.0000435 22619.29883 23108.72852
23054.0 0.0000434 22627.72656 23175.06641
23149.0 0.0000432 22636.15234 23246.33984
23267.0 0.0000430 22644.57227 23321.36328
23407.0 0.0000427 22652.99023 23398.16211
23564.0 0.0000424 22661.40430 23473.82813
23837.0 0.0000420 22669.81641 23544.61133
23814.0 0.0000420 22678.22461 23606.34570
23788.0 0.0000420 22686.62891 23655.06836
23700.0 0.0000422 22695.03125 23687.90820
23636.0 0.0000423 22703.42969 23703.63477
23588.0 0.0000424 22711.82617 23702.67188
23538.0 0.0000425 22720.21875 23686.58398
23530.0 0.0000425 22728.60938 23657.24609
23521.0 0.0000425 22736.99805 23616.61133
23492.0 0.0000426 22745.38281 23567.12109
23477.0 0.0000426 22753.76563 23512.15430
23474.0 0.0000426 22762.14648 23455.77148
23456.0 0.0000426 22770.52539 23400.91406
23416.0 0.0000427 22778.90234 23350.40234
23390.0 0.0000428 22787.27734 23304.13281
23359.0 0.0000428 22795.64844 23262.72461
23300.0 0.0000429 22804.01758 23225.42969
23261.0 0.0000430 22812.38672 23192.42578
23227.0 0.0000431 22820.75195 23163.18164
23209.0 0.0000431 22829.11719 23137.80664
23201.0 0.0000431 22837.47852 23116.46094
23178.0 0.0000431 22845.83984 23099.30664
23155.0 0.0000432 22854.19922 23085.99805
23145.0 0.0000432 22862.55664 23076.43164
23141.0 0.0000432 22870.91406 23070.34766
23145.0 0.0000432 22879.26953 23067.53711
23151.0 0.0000432 22887.62305 23067.81641
23148.0 0.0000432 22895.97461 23071.10547
23132.0 0.0000432 22904.32617 23077.41016
23154.0 0.0000432 22912.67773 23086.70313
23172.0 0.0000432 22921.02539 23099.13477
23169.0 0.0000432 22929.37305 23114.85547
23167.0 0.0000432 22937.72070 23133.97461
23180.0 0.0000431 22946.06836 23156.61719
23192.0 0.0000431 22954.41406 23182.43555
23186.0 0.0000431 22962.75781 23211.09766
23215.0 0.0000431 22971.10156 23241.73633
23227.0 0.0000431 22979.44531 23272.82031
23248.0 0.0000430 22987.78906 23302.06250
23262.0 0.0000430 22996.13086 23326.49414
23278.0 0.0000430 23004.47070 23343.20313
23277.0 0.0000430 23012.81250 23350.35938
23289.0 0.0000429 23021.15430 23348.21875
23288.0 0.0000429 23029.49414 23338.83594
23300.0 0.0000429 23037.83398 23325.08984
23314.0 0.0000429 23046.17383 23309.68164
23301.0 0.0000429 23054.51367 23294.65820
23311.0 0.0000429 23062.85352 23281.39844
23324.0 0.0000429 23071.19336 23270.69531
23323.0 0.0000429 23079.53320 23263.03516
23325.0 0.0000429 23087.87305 23258.58398
23333.0 0.0000429 23096.21094 23257.37891
23346.0 0.0000428 23104.55078 23260.35156
23357.0 0.0000428 23112.89063 23265.63086
23387.0 0.0000428 23121.23047 23274.22266
23406.0 0.0000427 23129.57031 23286.25781
23420.0 0.0000427 23137.91016 23301.97266
23414.0 0.0000427 23146.25000 23321.64258
23421.0 0.0000427 23154.58984 23345.46875
23442.0 0.0000427 23162.93164 23373.54688
23458.0 0.0000426 23171.27148 23405.68750
23482.0 0.0000426 23179.61328 23441.33984
23511.0 0.0000425 23187.95508 23479.38867
23526.0 0.0000425 23196.29688 23517.86328
23548.0 0.0000425 23204.64063 23554.27344
23584.0 0.0000424 23212.98438 23586.25977
23605.0 0.0000424 23221.32617 23612.44141
23628.0 0.0000423 23229.67188 23632.83398
23647.0 0.0000423 23238.01563 23648.97852
23685.0 0.0000422 23246.36133 23661.52734
23690.0 0.0000422 23254.70703 23670.76953
23689.0 0.0000422 23263.05273 23676.36523
23674.0 0.0000422 23271.40039 23677.82031
23675.0 0.0000422 23279.74609 23674.91016
23690.0 0.0000422 23288.09570 23668.48242
23704.0 0.0000422 23296.44336 23660.41797
23722.0 0.0000422 23304.79297 23653.17969
23732.0 0.0000421 23313.14258 23648.98242
23762.0 0.0000421 23321.49219 23649.53125
23783.0 0.0000420 23329.84375 23656.09766
23820.0 0.0000420 23338.19531 23669.60742
23842.0 0.0000419 23346.54688 23690.91992
23883.0 0.0000419 23354.90039 23720.81250
23936.0 0.0000418 23363.25391 23760.22461
23996.0 0.0000417 23371.60742 23809.57227
24056.0 0.0000416 23379.96094 23869.58398
24122.0 0.0000415 23388.31641 23940.57422
24190.0 0.0000413 23396.67188 24022.48438
24265.0 0.0000412 23405.02930 24114.08594
24339.0 0.0000411 23413.38477 24213.40430
24416.0 0.0000410 23421.74219 24316.78125
24468.0 0.0000409 23430.09961 24418.77930
24522.0 0.0000408 23438.45898 24512.17188
24518.0 0.0000408 23446.81641 24588.60742
24508.0 0.0000408 23455.17578 24639.68164
24482.0 0.0000408 23463.53516 24658.70313
24432.0 0.0000409 23471.89453 24642.82813
24387.0 0.0000410 23480.25391 24594.59570
24327.0 0.0000411 23488.61328 24521.53906
24247.0 0.0000412 23496.97461 24433.66406
24200.0 0.0000413 23505.33594 24340.49609
24148.0 0.0000414 23513.69727 24249.52148
24086.0 0.0000415 23522.05664 24165.21680
24059.0 0.0000416 23530.41797 24090.48438
24047.0 0.0000416 23538.77930 24026.56445
24024.0 0.0000416 23547.14063 23973.71484
23992.0 0.0000417 23555.50195 23931.50977
23970.0 0.0000417 23563.86133 23899.11523
23964.0 0.0000417 23572.22266 23875.49414
23960.0 0.0000417 23580.58398 23859.53125
23951.0 0.0000418 23588.94336 23850.16016
23956.0 0.0000417 23597.30273 23846.51172
23949.0 0.0000418 23605.66211 23847.90430
23955.0 0.0000417 23614.02148 23853.93750
23971.0 0.0000417 23622.37891 23864.50391
23982.0 0.0000417 23630.73633 23879.67969
23997.0 0.0000417 23639.09375 23899.95508
24019.0 0.0000416 23647.44922 23925.75000
24063.0 0.0000416 23655.80469 23957.56250
24097.0 0.0000415 23664.15820 23995.62695
24120.0 0.0000415 23672.51172 24040.04102
24145.0 0.0000414 23680.86328 24090.23438
24178.0 0.0000414 23689.21484 24145.10352
24221.0 0.0000413 23697.56445 24202.59180
24242.0 0.0000413 23705.91211 24259.55469
24268.0 0.0000412 23714.25781 24311.95508
24282.0 0.0000412 23722.60156 24355.79102
24328.0 0.0000411 23730.94531 24389.06641
24370.0 0.0000410 23739.28711 24412.61523
24397.0 0.0000410 23747.62695 24429.02539
24429.0 0.0000409 23755.96484 24440.53516
24440.0 0.0000409 23764.30078 24447.74023
24438.0 0.0000409 23772.63281 24449.78711
24443.0 0.0000409 23780.96094 24445.74609
24435.0 0.0000409 23789.28906 24435.28125
24405.0 0.0000410 23797.61523 24419.73242
24397.0 0.0000410 23805.93750 24401.70703
24394.0 0.0000410 23814.25781 24384.19141
24386.0 0.0000410 23822.57422 24369.68164
24372.0 0.0000410 23830.88672 24359.85938
24357.0 0.0000411 23839.19727 24355.56055
24354.0 0.0000411 23847.50391 24356.93945
24359.0 0.0000411 23855.80664 24363.23828
24384.0 0.0000410 23864.10547 24374.35547
24408.0 0.0000410 23872.40039 24388.63672
24429.0 0.0000409 23880.69141 24405.11719
24409.0 0.0000410 23888.97852 24420.62305
24422.0 0.0000409 23897.26172 24433.95898
24441.0 0.0000409 23905.53906 24443.54102
24460.0 0.0000409 23913.81250 24448.53320
24497.0 0.0000408 23922.08008 24449.00781
24510.0 0.0000408 23930.34375 24446.27344
24520.0 0.0000408 23938.60156 24442.92578
24535.0 0.0000408 23946.85352 24442.84570
24545.0 0.0000407 23955.09961 24451.01953
24561.0 0.0000407 23963.34180 24473.28516
24584.0 0.0000407 23971.57617 24515.65039
24612.0 0.0000406 23979.80469 24583.40039
24641.0 0.0000406 23988.02539 24679.90430
24684.0 0.0000405 23996.24219 24805.54688
24768.0 0.0000404 24004.45117 24955.99414
24919.0 0.0000401 24012.65234 25121.95898
25116.0 0.0000398 24020.84766 25287.89453
25401.0 0.0000394 24029.03320 25431.97266
25644.0 0.0000390 24037.21289 25528.47266
25798.0 0.0000388 24045.38477 25555.48047
25749.0 0.0000388 24053.54688 25505.79492
25479.0 0.0000392 24061.70117 25391.44141
25115.0 0.0000398 24069.84766 25236.24219
24798.0 0.0000403 24077.98438 25065.01563
24585.0 0.0000407 24086.11328 24897.59570
24474.0 0.0000409 24094.23242 24747.39258
24414.0 0.0000410 24102.34180 24621.91016
24387.0 0.0000410 24110.44141 24523.64648
24359.0 0.0000411 24118.52930 24451.39648
24337.0 0.0000411 24126.60742 24401.58594
24345.0 0.0000411 24134.67578 24369.66016
24344.0 0.0000411 24142.73242 24351.10352
24337.0 0.0000411 24150.77930 24342.06055
24334.0 0.0000411 24158.81250 24339.53125
24345.0 0.0000411 24166.83594 24341.36523
24369.0 0.0000410 24174.84766 24346.15039
24374.0 0.0000410 24182.84570 24352.80273
24381.0 0.0000410 24190.83008 24360.71289
24386.0 0.0000410 24198.80273 24369.40625
24395.0 0.0000410 24206.76172 24378.55273
24409.0 0.0000410 24214.70703 24388.01172
24425.0 0.0000409 24222.63867 24397.70898
24428.0 0.0000409 24230.55664 24407.70898
24436.0 0.0000409 24238.46094 24418.07227
24447.0 0.0000409 24246.34961 24428.75391
24447.0 0.0000409 24254.22266 24439.53516
24441.0 0.0000409 24262.07813 24449.97070
24451.0 0.0000409 24269.91992 24459.38477
24454.0 0.0000409 24277.74414 24467.09766
24458.0 0.0000409 24285.55469 24472.67969
24456.0 0.0000409 24293.34570 24476.10156
24472.0 0.0000409 24301.12109 24477.58203
24466.0 0.0000409 24308.87695 24477.49219
24455.0 0.0000409 24316.61719 24476.15430
24449.0 0.0000409 24324.33594 24473.91797
24436.0 0.0000409 24332.03906 24471.19922
24446.0 0.0000409 24339.72070 24468.43164
24460.0 0.0000409 24347.38477 24466.04102
24476.0 0.0000409 24355.02734 24464.29688
24480.0 0.0000408 24362.65039 24463.41797
24490.0 0.0000408 24370.25195 24463.46484
24504.0 0.0000408 24377.83398 24464.44727
24525.0 0.0000408 24385.39063 24466.29883
24550.0 0.0000407 24392.92969 24468.95508
24554.0 0.0000407 24400.44336 24472.34180
24567.0 0.0000407 24407.93555 24476.38281
24588.0 0.0000407 24415.40430 24480.98047
24585.0 0.0000407 24422.85156 24486.07031
24555.0 0.0000407 24430.27148 24491.61328
24539.0 0.0000408 24437.66797 24497.53711
24539.0 0.0000408 24445.03906 24503.78320
24547.0 0.0000407 24452.38477 24510.33008
24550.0 0.0000407 24459.70508 24517.15430
24546.0 0.0000407 24466.99805 24524.23047
24544.0 0.0000407 24474.26367 24531.55273
24555.0 0.0000407 24481.50391 24539.10742
24574.0 0.0000407 24488.71484 24546.90820
24582.0 0.0000407 24495.89844 24554.96289
24570.0 0.0000407 24503.05273 24563.29297
24582.0 0.0000407 24510.17578 24571.93164
24584.0 0.0000407 24517.26953 24580.93555
24608.0 0.0000406 24524.33398 24590.32031
24615.0 0.0000406 24531.36914 24600.16992
24614.0 0.0000406 24538.36914 24610.56641
24632.0 0.0000406 24545.33984 24621.56055
24654.0 0.0000406 24552.27734 24633.24805
24649.0 0.0000406 24559.18164 24645.72656
24680.0 0.0000405 24566.05078 24659.10547
24676.0 0.0000405 24572.88867 24673.45703
24677.0 0.0000405 24579.68945 24688.87500
24707.0 0.0000405 24586.45703 24705.42969
24733.0 0.0000404 24593.18750 24723.12305
24751.0 0.0000404 24599.88086 24741.93945
24775.0 0.0000404 24606.53906 24761.77148
24798.0 0.0000403 24613.15820 24782.40430
24823.0 0.0000403 24619.74023 24803.52930
24855.0 0.0000402 24626.28125 24824.76367
24864.0 0.0000402 24632.78320 24845.57422
24867.0 0.0000402 24639.24609 24865.45117
24873.0 0.0000402 24645.66797 24883.76563
24868.0 0.0000402 24652.04883 24899.86914
24876.0 0.0000402 24658.38867 24913.23438
24876.0 0.0000402 24664.68555 24922.96484
24860.0 0.0000402 24670.93750 24928.46289
24887.0 0.0000402 24677.14648 24929.58984
24876.0 0.0000402 24683.31055 24926.56250
24854.0 0.0000402 24689.42969 24919.96875
24840.0 0.0000403 24695.50391 24910.70898
24827.0 0.0000403 24701.53125 24899.77148
24831.0 0.0000403 24707.50977 24888.13086
24831.0 0.0000403 24713.44141 24876.61328
24823.0 0.0000403 24719.32422 24865.98633
24815.0 0.0000403 24725.15625 24856.85742
24822.0 0.0000403 24730.93945 24849.77344
24834.0 0.0000403 24736.67383 24845.23633
24833.0 0.0000403 24742.35352 24843.68164
24833.0 0.0000403 24747.98242 24845.57031
24851.0 0.0000402 24753.55859 24851.29102
24884.0 0.0000402 24759.08008 24861.21289
24884.0 0.0000402 24764.54883 24875.69141
24895.0 0.0000402 24769.95898 24894.93945
24914.0 0.0000401 24775.31445 24919.06055
24947.0 0.0000401 24780.61328 24947.89063
24987.0 0.0000400 24785.85547 24980.87500
25041.0 0.0000399 24791.03906 25016.83594
25103.0 0.0000398 24796.16211 25053.84961
25142.0 0.0000398 24801.22656 25089.04883
25155.0 0.0000398 24806.22852 25118.76953
25145.0 0.0000398 24811.16992 25138.96094
25139.0 0.0000398 24816.04883 25146.09570
25108.0 0.0000398 24820.86328 25138.28125
25083.0 0.0000399 24825.61328 25116.54297
25067.0 0.0000399 24830.30078 25085.24023
25058.0 0.0000399 24834.91992 25051.34766
25043.0 0.0000399 24839.47266 25022.10547
25038.0 0.0000399 24843.95898 25002.36719
25028.0 0.0000400 24848.37695 24993.26953
25006.0 0.0000400 24852.72266 24993.14453
24992.0 0.0000400 24857.00000 24999.32227
25000.0 0.0000400 24861.20508 25009.19727
24993.0 0.0000400 24865.33984 25020.81445
24999.0 0.0000400 24869.40039 25032.74219
25000.0 0.0000400 24873.38672 25044.13672
25014.0 0.0000400 24877.29883 25054.52734
25017.0 0.0000400 24881.13477 25063.83984
25023.0 0.0000400 24884.89258 25072.21875
25042.0 0.0000399 24888.57227 25079.88672
25056.0 0.0000399 24892.17578 25087.18164
25084.0 0.0000399 24895.69727 25094.26953
25102.0 0.0000398 24899.13867 25101.25195
25106.0 0.0000398 24902.49805 25108.14063
25130.0 0.0000398 24905.77539 25114.82617
25153.0 0.0000398 24908.96875 25121.20313
25153.0 0.0000398 24912.07617 25127.21484
25168.0 0.0000397 24915.09766 25132.84570
25176.0 0.0000397 24918.03320 25138.15234
25177.0 0.0000397 24920.88086 25143.00586
25185.0 0.0000397 24923.63867 25148.00195
25180.0 0.0000397 24926.30859 25152.96680
25169.0 0.0000397 24928.88477 25157.99414
25170.0 0.0000397 24931.36914 25163.14063
25166.0 0.0000397 24933.76172 25168.50977
25172.0 0.0000397 24936.05859 25174.27930
25177.0 0.0000397 24938.25977 25180.76758
25174.0 0.0000397 24940.36328 25188.33984
25147.0 0.0000398 24942.37109 25197.42773
25124.0 . . .
25115.0 . . .
25131.0 . . .
25143.0 . . .
25144.0 . . .
25131.0 . . .
25125.0 . . .
25150.0 . . .
25155.0 . . .
25156.0 . . .
25168.0 . . .
25180.0 . . .
25224.0 . . .
25267.0 . . .
25298.0 . . .
25345.0 . . .
25369.0 . . .
25379.0 . . .
25382.0 . . .
25362.0 . . .
25346.0 . . .
25311.0 . . .
25292.0 . . .
25282.0 . . .
25272.0 . . .
25277.0 . . .
25276.0 . . .
25287.0 . . .
25288.0 . . .
25287.0 . . .
25282.0 . . .
25271.0 . . .
25279.0 . . .
25279.0 . . .
25280.0 . . .
25268.0 . . .
25271.0 . . .
25258.0 . . .
25253.0 . . .
25255.0 . . .
25252.0 . . .
25261.0 . . .
25253.0 . . .
25253.0 . . .
25255.0 . . .
25257.0 . . .
25275.0 . . .
25288.0 . . .
25287.0 . . .
25286.0 . . .
25288.0 . . .
25310.0 . . .
25339.0 . . .
25343.0 . . .
25346.0 . . .
25356.0 . . .
25380.0 . . .
25396.0 . . .
25402.0 . . .
25412.0 . . .
25430.0 . . .
25448.0 . . .
25440.0 . . .
25445.0 . . .
25435.0 . . .
25444.0 . . .
25444.0 . . .
25459.0 . . .
25451.0 . . .
25443.0 . . .
25441.0 . . .
25466.0 . . .
25482.0 . . .
25501.0 . . .
25515.0 . . .
25503.0 . . .
25508.0 . . .
25493.0 . . .
25463.0 . . .
25447.0 . . .
25437.0 . . .
25437.0 . . .
25419.0 . . .
25415.0 . . .
25427.0 . . .
25447.0 . . .
25458.0 . . .
25456.0 . . .
25469.0 . . .
25476.0 . . .
25475.0 . . .
25476.0 . . .
25486.0 . . .
25506.0 . . .
25516.0 . . .
25536.0 . . .
25536.0 . . .
25529.0 . . .
25539.0 . . .
25558.0 . . .
25578.0 . . .
25596.0 . . .
25586.0 . . .
25568.0 . . .
25547.0 . . .
25532.0 . . .
25524.0 . . .
25512.0 . . .
25490.0 . . .
25472.0 . . .
25479.0 . . .
25482.0 . . .
25473.0 . . .
25465.0 . . .
25458.0 . . .
25463.0 . . .
25478.0 . . .
25490.0 . . .
25492.0 . . .
25486.0 . . .
25484.0 . . .
25483.0 . . .
25487.0 . . .
25485.0 . . .
25490.0 . . .
25520.0 . . .
25537.0 . . .
25559.0 . . .
25587.0 . . .
25612.0 . . .
25635.0 . . .
25655.0 . . .
25682.0 . . .
25698.0 . . .
25688.0 . . .
25678.0 . . .
25656.0 . . .
25631.0 . . .
25612.0 . . .
25583.0 . . .
25554.0 . . .
25562.0 . . .
25560.0 . . .
25555.0 . . .
25551.0 . . .
25555.0 . . .
25555.0 . . .
25550.0 . . .
25542.0 . . .
25535.0 . . .
25531.0 . . .
25520.0 . . .
25487.0 . . .
25481.0 . . .
25481.0 . . .
25464.0 . . .
25449.0 . . .
25439.0 . . .
25441.0 . . .
25435.0 . . .
25419.0 . . .
25411.0 . . .
25405.0 . . .
25399.0 . . .
25399.0 . . .
25397.0 . . .
25384.0 . . .
25367.0 . . .
25367.0 . . .
25361.0 . . .
25344.0 . . .
25340.0 . . .
25333.0 . . .
25336.0 . . .
25339.0 . . .
25349.0 . . .
25352.0 . . .
25369.0 . . .
25372.0 . . .
25344.0 . . .
25330.0 . . .
25323.0 . . .
25301.0 . . .
25288.0 . . .
25290.0 . . .
25296.0 . . .
25286.0 . . .
25292.0 . . .
25311.0 . . .
25328.0 . . .
25330.0 . . .
25330.0 . . .
25338.0 . . .
25326.0 . . .
25300.0 . . .
25254.0 . . .
25192.0 . . .
25133.0 . . .
25062.0 . . .
24993.0 . . .
24886.0 . . .
24794.0 . . .
24680.0 . . .
24639.0 . . .
24757.0 . . .
24815.0 . . .
24851.0 . . .
24868.0 . . .
24892.0 . . .
24904.0 . . .
24893.0 . . .
24883.0 . . .
24870.0 . . .
24875.0 . . .
24872.0 . . .
24851.0 . . .
24843.0 . . .
24839.0 . . .
24834.0 . . .
24831.0 . . .
24842.0 . . .
24808.0 . . .
24800.0 . . .
24794.0 . . .
24779.0 . . .
24761.0 . . .
24745.0 . . .
24748.0 . . .
24749.0 . . .
24747.0 . . .
24744.0 . . .
24739.0 . . .
24721.0 . . .
24704.0 . . .
24686.0 . . .
24687.0 . . .
24677.0 . . .
24667.0 . . .
24658.0 . . .
24658.0 . . .
24638.0 . . .
24640.0 . . .
24643.0 . . .
24638.0 . . .
24623.0 . . .
24616.0 . . .
24609.0 . . .
24608.0 . . .
24600.0 . . .
24594.0 . . .
24583.0 . . .
24589.0 . . .
24578.0 . . .
24575.0 . . .
24540.0 . . .
24520.0 . . .
24504.0 . . .
24503.0 . . .
24509.0 . . .
24505.0 . . .
24492.0 . . .
24477.0 . . .
24476.0 . . .
24492.0 . . .
24494.0 . . .
24502.0 . . .
24513.0 . . .
24510.0 . . .
24505.0 . . .
24508.0 . . .
24520.0 . . .
24505.0 . . .
24494.0 . . .
24481.0 . . .
24465.0 . . .
24454.0 . . .
24438.0 . . .
24413.0 . . .
24392.0 . . .
24365.0 . . .
24351.0 . . .
24343.0 . . .
24333.0 . . .
24326.0 . . .
24324.0 . . .
24305.0 . . .
24283.0 . . .
24242.0 . . .
24217.0 . . .
24199.0 . . .
24207.0 . . .
24183.0 . . .
24163.0 . . .
24157.0 . . .
24130.0 . . .
24111.0 . . .
24110.0 . . .
24101.0 . . .
24082.0 . . .
24065.0 . . .
24034.0 . . .
24019.0 . . .
24014.0 . . .
23984.0 . . .
23969.0 . . .
23967.0 . . .
23952.0 . . .
23915.0 . . .
23896.0 . . .
23865.0 . . .
23844.0 . . .
23853.0 . . .
23838.0 . . .
23826.0 . . .
23803.0 . . .
23784.0 . . .
23759.0 . . .
23752.0 . . .
23732.0 . . .
23709.0 . . .
23705.0 . . .
23690.0 . . .
23663.0 . . .
23641.0 . . .
23626.0 . . .
23615.0 . . .
23603.0 . . .
23600.0 . . .
23590.0 . . .
23574.0 . . .
23548.0 . . .
23535.0 . . .
23509.0 . . .
23477.0 . . .
23473.0 . . .
23464.0 . . .
23455.0 . . .
23454.0 . . .
23436.0 . . .
23431.0 . . .
23413.0 . . .
23389.0 . . .
23370.0 . . .
23345.0 . . .
23319.0 . . .
23294.0 . . .
23269.0 . . .
23245.0 . . .
23238.0 . . .
23207.0 . . .
23180.0 . . .
23154.0 . . .
23140.0 . . .
23120.0 . . .
23080.0 . . .
23060.0 . . .
23032.0 . . .
23026.0 . . .
23016.0 . . .
22983.0 . . .
22961.0 . . .
22935.0 . . .
22927.0 . . .
22912.0 . . .
22887.0 . . .
22861.0 . . .
22839.0 . . .
22834.0 . . .
22822.0 . . .
22815.0 . . .
22783.0 . . .
22734.0 . . .
22703.0 . . .
22683.0 . . .
22648.0 . . .
22632.0 . . .
22637.0 . . .
22619.0 . . .
22585.0 . . .
22545.0 . . .
22514.0 . . .
22495.0 . . .
22454.0 . . .
22405.0 . . .
22397.0 . . .
22407.0 . . .
22399.0 . . .
22371.0 . . .
22352.0 . . .
22327.0 . . .
22302.0 . . .
22269.0 . . .
22234.0 . . .
22205.0 . . .
22186.0 . . .
22166.0 . . .
22144.0 . . .
22113.0 . . .
22092.0 . . .
22068.0 . . .
22043.0 . . .
22010.0 . . .
21971.0 . . .
21952.0 . . .
21941.0 . . .
21933.0 . . .
21912.0 . . .
21889.0 . . .
21884.0 . . .
21867.0 . . .
21824.0 . . .
21790.0 . . .
21778.0 . . .
21751.0 . . .
21729.0 . . .
21710.0 . . .
21686.0 . . .
21673.0 . . .
21653.0 . . .
21616.0 . . .
21588.0 . . .
21586.0 . . .
21590.0 . . .
21578.0 . . .
21564.0 . . .
21542.0 . . .
21532.0 . . .
21514.0 . . .
21492.0 . . .
21458.0 . . .
21435.0 . . .
21440.0 . . .
21441.0 . . .
21407.0 . . .
21387.0 . . .
21387.0 . . .
21372.0 . . .
21361.0 . . .
21318.0 . . .
21314.0 . . .
21319.0 . . .
21310.0 . . .
21310.0 . . .
21288.0 . . .
21278.0 . . .
21274.0 . . .
21250.0 . . .
21230.0 . . .
21209.0 . . .
21181.0 . . .
21169.0 . . .
21146.0 . . .
21110.0 . . .
21082.0 . . .
21047.0 . . .
21032.0 . . .
21027.0 . . .
21002.0 . . .
20967.0 . . .
20897.0 . . .
20877.0 . . .
20871.0 . . .
20862.0 . . .
20834.0 . . .
20805.0 . . .
20754.0 . . .
20717.0 . . .
20705.0 . . .
20695.0 . . .
20689.0 . . .
20661.0 . . .
20625.0 . . .
20582.0 . . .
20552.0 . . .
20533.0 . . .
20506.0 . . .
20483.0 . . .
20442.0 . . .
20417.0 . . .
20432.0 . . .
20410.0 . . .
20394.0 . . .
20382.0 . . .
20361.0 . . .
20344.0 . . .
20338.0 . . .
20291.0 . . .
20264.0 . . .
20235.0 . . .
20234.0 . . .
20227.0 . . .
20176.0 . . .
20152.0 . . .
20125.0 . . .
20105.0 . . .
20095.0 . . .
20056.0 . . .
20028.0 . . .
19999.0 . . .
19972.0 . . .
19956.0 . . .
19896.0 . . .
19871.0 . . .
19824.0 . . .
19798.0 . . .
19773.0 . . .
19734.0 . . .
19690.0 . . .
19643.0 . . .
19645.0 . . .
19655.0 . . .
19632.0 . . .
19598.0 . . .
19581.0 . . .
19561.0 . . .
19527.0 . . .
19464.0 . . .
19435.0 . . .
19414.0 . . .
19389.0 . . .
19392.0 . . .
19335.0 . . .
19311.0 . . .
19286.0 . . .
19271.0 . . .
19257.0 . . .
19203.0 . . .
19166.0 . . .
19158.0 . . .
19136.0 . . .
19117.0 . . .
19054.0 . . .
19024.0 . . .
18997.0 . . .
18980.0 . . .
18969.0 . . .
18932.0 . . .
18910.0 . . .
18880.0 . . .
18861.0 . . .
18835.0 . . .
18795.0 . . .
18771.0 . . .
18740.0 . . .
18743.0 . . .
18711.0 . . .
18667.0 . . .
18637.0 . . .
18591.0 . . .
18564.0 . . .
18531.0 . . .
18499.0 . . .
18499.0 . . .
18488.0 . . .
18469.0 . . .
18421.0 . . .
18392.0 . . .
18376.0 . . .
18361.0 . . .
18365.0 . . .
18316.0 . . .
18275.0 . . .
18258.0 . . .
18217.0 . . .
18212.0 . . .
18155.0 . . .
18122.0 . . .
18087.0 . . .
18059.0 . . .
18045.0 . . .
17984.0 . . .
17965.0 . . .
17937.0 . . .
17932.0 . . .
17915.0 . . .
17879.0 . . .
17844.0 . . .
17820.0 . . .
17817.0 . . .
17762.0 . . .
17705.0 . . .
17707.0 . . .
17708.0 . . .
17713.0 . . .
17650.0 . . .
17603.0 . . .
17580.0 . . .
17563.0 . . .
17546.0 . . .
17485.0 . . .
17453.0 . . .
17450.0 . . .
17461.0 . . .
17430.0 . . .
17379.0 . . .
17359.0 . . .
17329.0 . . .
17350.0 . . .
17307.0 . . .
17276.0 . . .
17275.0 . . .
17261.0 . . .
17272.0 . . .
17176.0 . . .
17117.0 . . .
17086.0 . . .
17073.0 . . .
17046.0 . . .
17017.0 . . .
17017.0 . . .
16997.0 . . .
17002.0 . . .
16933.0 . . .
16894.0 . . .
16865.0 . . .
16860.0 . . .
16846.0 . . .
16795.0 . . .
16779.0 . . .
16762.0 . . .
16750.0 . . .
16715.0 . . .
16661.0 . . .
16606.0 . . .
16598.0 . . .
16612.0 . . .
16528.0 . . .
16489.0 . . .
16490.0 . . .
16494.0 . . .
16467.0 . . .
16419.0 . . .
16384.0 . . .
16352.0 . . .
16365.0 . . .
16299.0 . . .
16255.0 . . .
16232.0 . . .
16241.0 . . .
16192.0 . . .
16144.0 . . .
16121.0 . . .
16076.0 . . .
16062.0 . . .
15973.0 . . .
15960.0 . . .
15947.0 . . .
15970.0 . . .
15922.0 . . .
15884.0 . . .
15851.0 . . .
15841.0 . . .
15825.0 . . .
15744.0 . . .
15731.0 . . .
15718.0 . . .
15743.0 . . .
15684.0 . . .
15650.0 . . .
15638.0 . . .
15647.0 . . .
15612.0 . . .
15528.0 . . .
15511.0 . . .
15469.0 . . .
15479.0 . . .
15421.0 . . .
15406.0 . . .
15380.0 . . .
15364.0 . . .
15315.0 . . .
15236.0 . . .
15229.0 . . .
15209.0 . . .
15208.0 . . .
15129.0 . . .
15103.0 . . .
15089.0 . . .
15096.0 . . .
15042.0 . . .
14998.0 . . .
15002.0 . . .
15034.0 . . .
14985.0 . . .
14913.0 . . .
14878.0 . . .
14863.0 . . .
14849.0 . . .
14751.0 . . .
14734.0 . . .
14729.0 . . .
14762.0 . . .
14682.0 . . .
14621.0 . . .
14622.0 . . .
14639.0 . . .
14568.0 . . .
14490.0 . . .
14450.0 . . .
14454.0 . . .
14433.0 . . .
14371.0 . . .
14344.0 . . .
14319.0 . . .
14326.0 . . .
14237.0 . . .
14175.0 . . .
14194.0 . . .
14220.0 . . .
14158.0 . . .
14077.0 . . .
14054.0 . . .
14069.0 . . .
14035.0 . . .
13956.0 . . .
13923.0 . . .
13953.0 . . .
13945.0 . . .
13823.0 . . .
13766.0 . . .
13804.0 . . .
13787.0 . . .
13707.0 . . .
13661.0 . . .
13674.0 . . .
13707.0 . . .
13634.0 . . .
13583.0 . . .
13580.0 . . .
13567.0 . . .
13470.0 . . .
13398.0 . . .
13408.0 . . .
13422.0 . . .
13337.0 . . .
13292.0 . . .
13308.0 . . .
13324.0 . . .
13291.0 . . .
13192.0 . . .
13200.0 . . .
13227.0 . . .
13162.0 . . .
13073.0 . . .
13086.0 . . .
13097.0 . . .
13051.0 . . .
12921.0 . . .
12878.0 . . .
12897.0 . . .
12875.0 . . .
12774.0 . . .
12727.0 . . .
12724.0 . . .
12732.0 . . .
12646.0 . . .
12596.0 . . .
12610.0 . . .
12601.0 . . .
12502.0 . . .
12462.0 . . .
12446.0 . . .
12445.0 . . .
12376.0 . . .
12345.0 . . .
12372.0 . . .
12391.0 . . .
12267.0 . . .
12186.0 . . .
12176.0 . . .
12196.0 . . .
12122.0 . . .
12043.0 . . .
12007.0 . . .
12031.0 . . .
11920.0 . . .
11856.0 . . .
11835.0 . . .
11866.0 . . .
11809.0 . . .
11717.0 . . .
11699.0 . . .
11731.0 . . .
11660.0 . . .
11570.0 . . .
11551.0 . . .
11579.0 . . .
11508.0 . . .
11425.0 . . .
11397.0 . . .
11395.0 . . .
11336.0 . . .
11257.0 . . .
11257.0 . . .
11267.0 . . .
11186.0 . . .
11117.0 . . .
11086.0 . . .
11076.0 . . .
10975.0 . . .
10938.0 . . .
10923.0 . . .
10929.0 . . .
10810.0 . . .
10767.0 . . .
10762.0 . . .
10779.0 . . .
10647.0 . . .
10591.0 . . .
10601.0 . . .
10601.0 . . .
10445.0 . . .
10413.0 . . .
10426.0 . . .
10430.0 . . .
10285.0 . . .
10229.0 . . .
10236.0 . . .
10218.0 . . .
10075.0 . . .
10020.0 . . .
10038.0 . . .
10009.0 . . .
9891.0 . . .
9864.0 . . .
9888.0 . . .
9798.0 . . .
9714.0 . . .
9673.0 . . .
9705.0 . . .
9576.0 . . .
9503.0 . . .
9481.0 . . .
9489.0 . . .
9382.0 . . .
9323.0 . . .
9308.0 . . .
9317.0 . . .
9188.0 . . .
9197.0 . . .
9288.0 . . .
9297.0 . . .
9167.0 . . .
9145.0 . . .
9202.0 . . .
9138.0 . . .
9043.0 . . .
9043.0 . . .
9096.0 . . .
8993.0 . . .
8889.0 . . .
8920.0 . . .
8981.0 . . .
8825.0 . . .
8818.0 . . .
8856.0 . . .
8849.0 . . .
8730.0 . . .
8728.0 . . .
8795.0 . . .
8739.0 . . .
8633.0 . . .
8651.0 . . .
8707.0 . . .
8594.0 . . .
8517.0 . . .
8519.0 . . .
8575.0 . . .
8433.0 . . .
8410.0 . . .
8472.0 . . .
8484.0 . . .
8346.0 . . .
8368.0 . . .
8466.0 . . .
8364.0 . . .
8238.0 . . .
8273.0 . . .
8347.0 . . .
8157.0 . . .
8129.0 . . .
8194.0 . . .
8179.0 . . .
7984.0 . . .
8016.0 . . .
8132.0 . . .
8007.0 . . .
7909.0 . . .
7959.0 . . .
8009.0 . . .
7854.0 . . .
7863.0 . . .
7924.0 . . .
7855.0 . . .
7727.0 . . .
7755.0 . . .
7817.0 . . .
7651.0 . . .
7637.0 . . .
7743.0 . . .
7727.0 . . .
7544.0 . . .
7567.0 . . .
7621.0 . . .
7533.0 . . .
7466.0 . . .
7505.0 . . .
7492.0 . . .
7350.0 . . .
7362.0 . . .
7418.0 . . .
7383.0 . . .
7268.0 . . .
7303.0 . . .
7355.0 . . .
7304.0 . . .
7268.0 . . .
7267.0 . . .
7249.0 . . .
7124.0 . . .
7114.0 . . .
7145.0 . . .
7102.0 . . .
7043.0 . . .
7038.0 . . .
7073.0 . . .
6984.0 . . .
6961.0 . . .
6938.0 . . .
6932.0 . . .
6853.0 . . .
6850.0 . . .
6855.0 . . .
6813.0 . . .
6804.0 . . .
6772.0 . . .
6780.0 . . .
6688.0 . . .
6660.0 . . .
6673.0 . . .
6638.0 . . .
6618.0 . . .
6599.0 . . .
6602.0 . . .
6573.0 . . .
6471.0 . . .
6432.0 . . .
6458.0 . . .
6413.0 . . .
6394.0 . . .
6383.0 . . .
6341.0 . . .
6281.0 . . .
6226.0 . . .
6263.0 . . .
6231.0 . . .
6138.0 . . .
6114.0 . . .
6153.0 . . .
6120.0 . . .
6094.0 . . .
6050.0 . . .
6044.0 . . .
5981.0 . . .
5965.0 . . .
5943.0 . . .
5921.0 . . .
5920.0 . . .
5832.0 . . .
5802.0 . . .
5757.0 . . .
5716.0 . . .
5715.0 . . .
5750.0 . . .
5725.0 . . .
5713.0 . . .
5634.0 . . .
5545.0 . . .
5514.0 . . .
5465.0 . . .
5497.0 . . .
5440.0 . . .
5410.0 . . .
5402.0 . . .
5322.0 . . .
5302.0 . . .
5278.0 . . .
5172.0 . . .
5202.0 . . .
5132.0 . . .
5112.0 . . .
5117.0 . . .
5059.0 . . .
5042.0 . . .
5017.0 . . .
4953.0 . . .
4956.0 . . .
4925.0 . . .
4844.0 . . .
4841.0 . . .
4697.0 . . .
4670.0 . . .
4633.0 . . .
4512.0 . . .
4572.0 . . .
4477.0 . . .
4365.0 . . .
4384.0 . . .
4249.0 . . .
4171.0 . . .
4126.0 . . .
3941.0 . . .
3848.0 . . .
3830.0 . . .
3530.0 . . .
3443.0 . . .
3164.0 . . .
2801.0 . . .
2731.0 . . .
2317.0 . . .
1922.0 . . .
2042.0 . . .
4316.0 . . .
5249.0 . . .
loop_
_refln_index_h
_refln_index_k
_refln_index_l
_refln_observed_status
_refln_F_squared_meas
_refln_F_squared_calc
_refln_phase_calc
_refln_d_spacing
_gsas_i100_meas
1 1 0 o 54.112 11.343 180.00 4.58073 0.12
1 1 1 o 912.380 411.032 175.92 4.38770 5.62
0 0 4 o 7143.429 6339.866 -137.35 3.81893 0.92
1 1 2 o 5854.368 5579.056 -81.03 3.92839 26.86
0 2 0 o 7434.696 7098.896 0.00 3.80015 10.56
1 1 3 o 0.000 76.067 111.34 3.40549 0.00
0 2 1 o 140.752 110.781 47.78 3.68775 0.45
0 2 2 o 1234.517 718.329 97.30 3.40230 2.42
1 1 4 o 5435.045 4783.694 -90.28 2.93326 11.10
0 2 3 o 8693.256 7303.644 -71.99 3.04550 10.23
0 0 6 o 310.285 269.910 42.03 2.54595 0.02
0 2 4 o 949.017 787.765 94.59 2.69373 2.08
1 1 5 o 3506.206 3049.412 -112.04 2.54169 7.99
2 0 0 o 143348.23 141559.22 0.00 2.87026 100.00
2 0 2 o 20.760 17.218 -88.95 2.68681 0.06
0 2 5 o 762.016 770.073 90.44 2.38107 1.19
1 1 6 o 21457.656 21316.064 -95.11 2.22533 33.65
2 0 4 o 4408.751 4272.094 -135.35 2.29446 11.25
2 2 1 o 54.463 59.687 61.80 2.26505 0.06
1 3 0 o 7639.516 7398.738 180.00 2.31776 3.38
1 3 1 o 0.000 4368.803 -48.13 2.29153 0.00
2 2 0 o 4875.247 4764.670 0.00 2.29037 2.69
1 3 2 o 18121.006 17790.359 136.47 2.21789 12.31
2 2 2 o 492.593 490.805 92.92 2.19385 0.76
0 2 6 o 2928.148 2482.316 88.47 2.11514 1.88
2 2 3 o 6724.439 4986.672 -71.48 2.08879 13.03
1 1 7 o 2424.027 1892.042 -120.13 1.97010 3.64
0 0 8 o 21123.367 19617.967 175.54 1.90946 0.68
1 3 3 o 1671.155 1490.035 40.92 2.10950 3.02
1 3 4 o 537.292 332.342 4.09 1.98139 0.41
2 2 4 o 706.038 640.619 97.02 1.96420 0.81
2 0 6 o 162.352 156.174 54.87 1.90464 1.98
0 2 7 o 7696.971 7846.597 -158.22 1.89241 2.62
1 1 8 o 138.809 139.554 33.89 1.76247 0.24
1 3 5 o 3336.832 3206.715 -161.37 1.84652 0.39
2 2 5 o 0.000 485.660 90.95 1.83258 0.00
0 4 1 o 632.770 748.961 146.82 1.88554 0.46
0 4 0 o 3238.256 3301.619 180.00 1.90008 1.15
0 2 8 o 530.566 523.605 92.34 1.70619 0.24
3 1 0 o 0.000 44.967 180.00 1.85560 0.00
2 2 6 o 0.000 1993.920 88.67 1.70274 0.00
0 4 2 o 3708.932 3635.233 73.43 1.84388 2.97
3 1 1 o 0.000 31.645 -168.58 1.84206 0.00
3 1 2 o 2793.161 2896.583 -78.00 1.80315 2.34
1 3 6 o 2522.337 2271.035 -26.40 1.71391 0.97
1 1 9 o 2576.602 2490.004 156.24 1.59156 4.84
0 4 3 o 111.379 173.029 -76.19 1.78017 0.09
3 1 3 o 46.797 43.845 107.07 1.74344 0.11
0 0 10 o 3446.707 2931.233 -154.19 1.52757 0.07
3 1 4 o 2933.636 2764.053 -89.38 1.66901 2.13
0 4 4 o 14667.768 15032.742 101.54 1.70115 7.21
2 0 8 o 16563.230 15943.778 175.20 1.58980 8.25
2 2 7 o 7207.677 6527.432 -158.43 1.57992 0.83
1 3 7 o 469.721 452.890 -49.08 1.58883 0.30
0 2 9 o 1571.557 1419.929 -146.79 1.54975 1.01
0 4 5 o 1344.873 1221.371 149.94 1.61348 0.36
3 1 5 o 1996.270 1916.406 -112.39 1.58598 0.89
0 4 6 o 5056.960 4466.388 95.89 1.52275 1.49
1 1 10 o 4212.653 4049.979 83.96 1.44912 7.91
2 4 1 o 701.052 603.372 148.25 1.57592 0.50
1 3 8 o 1499.516 1331.965 10.13 1.47375 0.87
3 1 6 o 13917.992 12938.662 -96.95 1.49957 8.59
2 2 8 o 451.327 428.817 98.88 1.46663 0.23
2 4 0 o 2863.790 2794.192 180.00 1.58437 1.03
2 4 2 o 3012.155 2921.332 74.43 1.55135 2.13
2 4 3 o 181.083 147.499 -79.28 1.51283 0.10
0 2 10 o 1298.484 1235.981 -129.56 1.41735 1.02
3 3 1 o 2984.933 2629.006 -46.92 1.51934 1.51
3 3 0 o 5724.363 5089.408 180.00 1.52691 1.41
3 1 7 o 0.000 1118.531 -121.28 1.41363 0.00
3 3 2 o 11059.347 10865.313 138.71 1.49728 6.16
2 0 10 o 0.000 2532.359 -154.39 1.34849 0.00
2 4 4 o 13330.090 13000.533 100.49 1.46343 3.50
3 3 3 o 823.978 806.563 45.87 1.46257 0.57
0 4 7 o 567.457 595.964 176.16 1.43300 0.26
1 3 9 o 2762.306 2778.946 139.24 1.36938 1.23
2 2 9 o 1113.796 1195.708 -147.69 1.36367 0.71
3 3 4 o 173.433 165.467 6.68 1.41779 0.15
1 1 11 o 1124.384 1122.555 89.44 1.32897 1.99
2 4 5 o 1080.685 970.395 147.57 1.40649 0.82
1 5 0 o 3237.403 3136.210 180.00 1.46942 2.28
1 5 2 o 0.000 7071.205 162.36 1.44296 0.00
3 1 8 o 0.000 115.109 14.35 1.33074 0.00
1 5 1 o 475.752 470.850 -156.24 1.46267 0.40
1 5 3 o 0.000 68.060 64.76 1.41181 0.00
0 4 8 o 5307.340 5270.468 19.40 1.34686 2.92
2 4 6 o 3851.672 3826.820 95.75 1.34517 9.94
3 3 5 o 2049.048 2222.752 -156.30 1.36583 1.67
4 0 2 o 121.676 118.430 -17.34 1.41045 0.56
1 5 4 o 2466.288 2434.201 -76.39 1.37140 0.10
4 0 0 o 54342.46 57352.98 0.00 1.43513 9.52
1 5 5 o 2027.282 1968.450 77.17 1.32421 0.09
4 0 4 o 2418.588 2407.422 -125.13 1.34340 1.84
4 2 2 o 400.628 390.045 83.83 1.32231 0.26
4 2 1 o 0.000 49.313 110.80 1.33742 0.00
4 2 0 o 0.000 2442.933 0.00 1.34258 0.00
