#------------------------------------------------------------------------------
#$Date: 2019-11-25 06:41:23 +0200 (Mon, 25 Nov 2019) $
#$Revision: 240262 $
#$URL: file:///home/coder/svn-repositories/cod/cif/4/12/95/4129565.cif $
#------------------------------------------------------------------------------
#
# This file is available in the Crystallography Open Database (COD),
# http://www.crystallography.net/
#
# All data on this site have been placed in the public domain by the
# contributors.
#
data_4129565
loop_
_publ_author_name
'Tian, Di'
'Winter, Stephen M.'
'Mailman, Aaron'
'Wong, Joanne W. L.'
'Yong, Wenjun'
'Yamaguchi, Hiroshi'
'Jia, Yating'
'Tse, John S.'
'Desgreniers, Serge'
'Secco, Richard A.'
'Julian, Stephen R.'
'Jin, Changqing'
'Mito, Masaki'
'Ohishi, Yasuo'
'Oakley, Richard T.'
_publ_section_title
;
 The metallic state in neutral radical conductors: dimensionality,
 pressure and multiple orbital effects.
;
_journal_issue                   44
_journal_name_full               'Journal of the American Chemical Society'
_journal_page_first              14136
_journal_page_last               14148
_journal_paper_doi               10.1021/jacs.5b08254
_journal_volume                  137
_journal_year                    2015
_chemical_formula_moiety         'C6 F N2 O S4'
_chemical_formula_sum            'C6 F N2 O S4'
_chemical_formula_weight         263.32
_chemical_name_common            FBBO
_space_group_IT_number           36
_space_group_name_Hall           'C 2c -2'
_space_group_name_H-M_alt        'C m c 21'
_symmetry_cell_setting           orthorhombic
_symmetry_space_group_name_H-M   'C m c 21'
_audit_creation_date             2015-03-11T14:42
_audit_creation_method           'from EXP file using GSAS2CIF'
_audit_update_record
' 2015-03-11T14:42  Initial CIF as created by GSAS2CIF'
_cell_angle_alpha                90.0
_cell_angle_beta                 90.0
_cell_angle_gamma                90.0
_cell_formula_units_Z            4
_cell_length_a                   6.02602(7)
_cell_length_b                   7.7738(4)
_cell_length_c                   15.5993(19)
_cell_measurement_temperature    293(2)
_cell_volume                     730.75(10)
_computing_structure_refinement  GSAS
_diffrn_ambient_temperature      293(2)
_diffrn_measurement_device_type  'SPring-8 BL10XU'
_diffrn_radiation_polarisn_ratio 0.95
_diffrn_radiation_probe          x-ray
_diffrn_radiation_wavelength     0.41244
_diffrn_source                   synchrotron
_exptl_absorpt_correction_T_max  1.00000
_exptl_absorpt_correction_T_min  1.00000
_exptl_absorpt_process_details
;   GSAS Absorption/surface roughness correction: function number 0
 No correction is applied.
;
_pd_block_id                     'SPring-8 PXRD for 2 (R = F) at 2.0 GPa'
_pd_calc_method                  'Rietveld Refinement'
_pd_instr_location               ' ?'
_pd_meas_2theta_range_inc        0.01
_pd_meas_2theta_range_max        28.23
_pd_meas_2theta_range_min        1.0
_pd_meas_number_of_points        2724
_pd_phase_name
'from C:/GSAS/MyWork/FBBO/005/FBBO_RT_005b2_flat_shift.cif'
_pd_proc_2theta_range_inc        0.01
_pd_proc_2theta_range_max        28.22651
_pd_proc_2theta_range_min        0.99651
_pd_proc_info_datetime           2015-03-11T14:42:25
_pd_proc_info_excluded_regions   ' ?'
_pd_proc_ls_background_function
;   GSAS Background function number 1 with  8 terms.
 Shifted Chebyshev function of 1st kind
      1:    19373.7     2:    9378.63     3:   -1085.95     4:   -108.362    
      5:   -11.4811     6:    13.9323     7:   -64.6327     8:   -49.4062    
;
_pd_proc_ls_peak_cutoff          0.00100
_pd_proc_ls_profile_function
;
 CW Profile function number 2 with  18 terms
 Profile coefficients for Simpson's rule integration of pseudovoigt function
 C.J. Howard (1982). J. Appl. Cryst.,15,615-620.
 P. Thompson, D.E. Cox & J.B. Hastings (1987). J. Appl. Cryst.,20,79-83.
 #1(GU)   =  410.339 #2(GV)   =  -39.837 #3(GW)   =    2.934
 #4(LX)   =    0.371 #5(LY)   =   14.553 #6(trns) =   -3.343
 #7(asym) =  -0.1160 #8(shft) =   0.7342 #9(GP)   =    0.000
 #10(stec)=    76.89 #11(ptec)=    -0.03 #12(sfec)=     0.00
 #13(L11) =    0.001 #14(L22) =    0.001 #15(L33) =    0.000
 #16(L12) =    0.006 #17(L13) =    0.001 #18(L23) =   -0.007
 Peak tails are ignored  where the intensity is below 0.0010 times the peak
   Aniso. broadening axis   0.0   0.0   1.0
;
_pd_proc_ls_prof_R_factor        0.0038
_pd_proc_ls_prof_wR_expected     0.0070
_pd_proc_ls_prof_wR_factor       0.0052
_pd_proc_number_of_points        2724
_pd_spec_mounting                ' ?'
_refine_ls_goodness_of_fit_all   0.74
_refine_ls_matrix_type           full
_refine_ls_number_parameters     36
_refine_ls_number_restraints     0
_refine_ls_R_Fsqd_factor         0.11200
_refine_ls_shift/su_max          0.02
_refine_ls_shift/su_mean         0.01
_reflns_d_resolution_high        1.322
_reflns_d_resolution_low         4.763
_reflns_limit_h_max              4
_reflns_limit_h_min              0
_reflns_limit_k_max              6
_reflns_limit_k_min              0
_reflns_limit_l_max              12
_reflns_limit_l_min              0
_reflns_number_total             100
_cod_data_source_file            ja5b08254_si_002.cif
_cod_data_source_block           2(R=F)_at_2.0_GPa
_cod_depositor_comments
;
The following automatic conversions were performed:

data item '_geom_angle_publ_flag' value 'N' was changed to 'n' in
accordance with the
/home/saulius/struct/COD-crude-data/automatic-downloads/DataCite-retrospective/ACS/depositions/lib/dictionaries/cif_core.dic
dictionary named 'cif_core.dic' version 2.4.2 last updated on
2011-04-26 (24 times).

data item '_geom_bond_publ_flag' value 'N' was changed to 'n' in
accordance with the
/home/saulius/struct/COD-crude-data/automatic-downloads/DataCite-retrospective/ACS/depositions/lib/dictionaries/cif_core.dic
dictionary named 'cif_core.dic' version 2.4.2 last updated on
2011-04-26 (40 times).

Automatic conversion script
Id: cif_fix_values 6909 2019-04-08 15:41:33Z antanas 
;
_cod_original_cell_volume        730.74(7)
_cod_database_code               4129565
_gsas_exptl_extinct_corr_t_min   1.00000
_gsas_exptl_extinct_corr_t_max   1.00000
loop_
_symmetry_equiv_pos_site_id
_symmetry_equiv_pos_as_xyz
1 +x,+y,+z
2 -x,+y,+z
3 +x,-y,+z+1/2
4 -x,-y,+z+1/2
101 +x+1/2,+y+1/2,+z
102 -x+1/2,+y+1/2,+z
103 +x+1/2,-y+1/2,+z+1/2
104 -x+1/2,-y+1/2,+z+1/2
loop_
_atom_site_type_symbol
_atom_site_label
_atom_site_fract_x
_atom_site_fract_y
_atom_site_fract_z
_atom_site_occupancy
_atom_site_thermal_displace_type
_atom_site_U_iso_or_equiv
_atom_site_symmetry_multiplicity
S S1 0.0 1.12625 0.97795 1.0 Uiso 0.00032 4
S S4 0.0 0.49555 0.61827 1.0 Uiso 0.00032 4
F F1 0.0 0.51147 0.92528 1.0 Uiso 0.00032 4
O O1 0.0 1.0425 0.69692 1.0 Uiso 0.00032 4
N N1 0.0 1.10813 0.87379 1.0 Uiso 0.00032 4
N N2 0.0 0.70021 0.63941 1.0 Uiso 0.00032 4
C C6 0.0 0.95165 0.84282 1.0 Uiso 0.00032 4
C C3 0.0 0.60666 0.78356 1.0 Uiso 0.00032 4
C C4 0.0 0.64454 0.87005 1.0 Uiso 0.00032 4
C C2 0.0 0.73975 0.72215 1.0 Uiso 0.00032 4
C C5 0.0 0.80999 0.9012 1.0 Uiso 0.00032 4
S S2 0.0 0.86344 1.00951 1.0 Uiso 0.00032 4
S S3 0.0 0.3978 0.74403 1.0 Uiso 0.00032 4
C C1 0.0 0.92518 0.74807 1.0 Uiso 0.00032 4
loop_
_atom_type_symbol
_atom_type_number_in_cell
_atom_type_scat_dispersion_real
_atom_type_scat_dispersion_imag
_atom_type_scat_Cromer_Mann_a1
_atom_type_scat_Cromer_Mann_a2
_atom_type_scat_Cromer_Mann_a3
_atom_type_scat_Cromer_Mann_a4
_atom_type_scat_Cromer_Mann_b1
_atom_type_scat_Cromer_Mann_b2
_atom_type_scat_Cromer_Mann_b3
_atom_type_scat_Cromer_Mann_b4
_atom_type_scat_Cromer_Mann_c
_atom_type_scat_source
S 16.0 0.000 0.000 6.90530 1.46790 5.20340 22.2151 1.43790 0.25360 1.58630
56.1720 0.86690 International_Tables_Vol_C
F 4.0 0.000 0.000 3.53920 10.2825 2.64120 4.29440 1.51700 0.26150 1.02430
26.1476 0.27760 International_Tables_Vol_C
O 4.0 0.000 0.000 3.04850 13.2771 2.28680 5.70110 1.54630 0.32390 0.86700
32.9089 0.25080 International_Tables_Vol_C
N 8.0 0.000 0.000 12.2126 0.00570 3.13220 9.89330 2.01250 28.9975 1.16630
0.58260 -11.529 International_Tables_Vol_C
C 24.0 0.000 0.000 2.31000 20.8439 1.02000 10.2075 1.58860 0.56870 0.86500
51.6512 0.21560 International_Tables_Vol_C
loop_
_geom_angle_atom_site_label_1
_geom_angle_atom_site_label_2
_geom_angle_atom_site_label_3
_geom_angle
_geom_angle_site_symmetry_1
_geom_angle_site_symmetry_3
_geom_angle_publ_flag
N1 S1 S2 98.5936(23) 1_555 1_555 n
N2 S4 S3 99.464(4) 1_555 1_555 n
S1 N1 C6 116.6153(19) 1_555 1_555 n
S4 N2 C2 115.10550(20) 1_555 1_555 n
N1 C6 C5 118.750(6) 1_555 1_555 n
N1 C6 C1 119.5863(15) 1_555 1_555 n
C5 C6 C1 121.664(5) 1_555 1_555 n
C4 C3 C2 120.484(5) 1_555 1_555 n
C4 C3 S3 123.1085(9) 1_555 1_555 n
C2 C3 S3 116.407(6) 1_555 1_555 n
F1 C4 C3 117.477(5) 1_555 1_555 n
F1 C4 C5 119.514(6) 1_555 1_555 n
C3 C4 C5 123.0089(9) 1_555 1_555 n
N2 C2 C3 119.401(5) 1_555 1_555 n
N2 C2 C1 119.06400(30) 1_555 1_555 n
C3 C2 C1 121.535(6) 1_555 1_555 n
C6 C5 C4 119.714(6) 1_555 1_555 n
C6 C5 S2 115.773(5) 1_555 1_555 n
C4 C5 S2 124.5130(7) 1_555 1_555 n
S1 S2 C5 90.2680(34) 1_555 1_555 n
S4 S3 C3 89.622(5) 1_555 1_555 n
O1 C1 C6 123.256(5) 1_555 1_555 n
O1 C1 C2 123.150(6) 1_555 1_555 n
C6 C1 C2 113.5944(9) 1_555 1_555 n
loop_
_geom_bond_atom_site_label_1
_geom_bond_atom_site_label_2
_geom_bond_distance
_geom_bond_site_symmetry_2
_geom_bond_publ_flag
S1 N1 1.63092(19) 1_555 n
S1 C6 2.50712(22) 1_555 n
S1 S2 2.10151(9) 1_555 n
S4 N2 1.62480(7) 1_555 n
S4 C2 2.49593(14) 1_555 n
S4 S3 2.10380(22) 1_555 n
F1 C3 2.33129(25) 1_555 n
F1 C4 1.34624(8) 1_555 n
F1 C5 2.35084(11) 1_555 n
O1 C1 1.21179(7) 1_555 n
N1 S1 1.63092(19) 1_555 n
N1 C6 1.30887(6) 1_555 n
N2 S4 1.62480(7) 1_555 n
N2 C2 1.32678(15) 1_555 n
C6 S1 2.50712(22) 1_555 n
C6 N1 1.30887(6) 1_555 n
C6 C5 1.42901(8) 1_555 n
C6 C1 1.49229(18) 1_555 n
C3 F1 2.33129(25) 1_555 n
C3 C4 1.38095(16) 1_555 n
C3 C2 1.41000(9) 1_555 n
C3 S3 1.73679(7) 1_555 n
C4 F1 1.34624(8) 1_555 n
C4 C3 1.38095(16) 1_555 n
C4 C5 1.37490(6) 1_555 n
C2 S4 2.49593(14) 1_555 n
C2 N2 1.32678(15) 1_555 n
C2 C3 1.41000(9) 1_555 n
C2 C1 1.49713(7) 1_555 n
C5 F1 2.35084(11) 1_555 n
C5 C6 1.42901(8) 1_555 n
C5 C4 1.37490(6) 1_555 n
C5 S2 1.73990(20) 1_555 n
S2 S1 2.10151(9) 1_555 n
S2 C5 1.73990(20) 1_555 n
S3 S4 2.10380(22) 1_555 n
S3 C3 1.73679(7) 1_555 n
C1 O1 1.21179(7) 1_555 n
C1 C6 1.49229(18) 1_555 n
C1 C2 1.49713(7) 1_555 n
loop_
_pd_meas_counts_total
_pd_proc_ls_weight
_pd_proc_intensity_bkg_calc
_pd_calc_intensity_total
0.0 0.0 8748.55273 .
0.0 0.0 8703.00586 .
0.0 0.0 8658.06250 .
0.0 0.0 8613.71387 .
0.0 0.0 8569.95996 .
0.0 0.0 8526.79492 .
0.0 0.0 8484.21582 .
0.0 0.0 8442.21582 .
0.0 0.0 8400.79297 .
0.0 0.0 8359.94238 .
0.0 0.0 8319.66016 .
0.0 0.0 8279.94141 .
0.0 0.0 8240.78418 .
0.0 0.0 8202.18164 .
0.0 0.0 8164.13184 .
0.0 0.0 8126.62988 .
0.0 0.0 8089.67188 .
0.0 0.0 8053.25391 .
0.0 0.0 8017.37012 .
0.0 0.0 7982.02051 .
0.0 0.0 7947.19775 .
0.0 0.0 7912.90088 .
0.0 0.0 7879.12305 .
0.0 0.0 7845.86328 .
0.0 0.0 7813.11523 .
0.0 0.0 7780.87646 .
0.0 0.0 7749.14111 .
0.0 0.0 7717.90918 .
0.0 0.0 7687.17432 .
0.0 0.0 7656.93311 .
0.0 0.0 7627.18359 .
0.0 0.0 7597.91797 .
0.0 0.0 7569.13672 .
0.0 0.0 7540.83398 .
0.0 0.0 7513.00684 .
0.0 0.0 7485.65234 .
0.0 0.0 7458.76660 .
0.0 0.0 7432.34473 .
0.0 0.0 7406.38574 .
0.0 0.0 7380.88281 .
0.0 0.0 7355.83496 .
0.0 0.0 7331.23584 .
0.0 0.0 7307.08594 .
0.0 0.0 7283.38037 .
0.0 0.0 7260.11377 .
0.0 0.0 7237.28467 .
0.0 0.0 7214.89063 .
0.0 0.0 7192.92529 .
0.0 0.0 7171.38721 .
0.0 0.0 7150.27148 .
0.0 0.0 7129.57666 .
0.0 0.0 7109.29932 .
0.0 0.0 7089.43555 .
0.0 0.0 7069.98242 .
0.0 0.0 7050.93652 .
0.0 0.0 7032.29346 .
0.0 0.0 7014.05078 .
0.0 0.0 6996.20654 .
0.0 0.0 6978.75684 .
0.0 0.0 6961.69824 .
0.0 0.0 6945.02783 .
0.0 0.0 6928.74170 .
0.0 0.0 6912.83838 .
0.0 0.0 6897.31299 .
0.0 0.0 6882.16211 .
0.0 0.0 6867.38574 .
0.0 0.0 6852.97852 .
0.0 0.0 6838.93799 .
0.0 0.0 6825.26123 .
0.0 0.0 6811.94434 .
0.0 0.0 6798.98633 .
0.0 0.0 6786.38184 .
0.0 0.0 6774.12939 .
0.0 0.0 6762.22607 .
0.0 0.0 6750.66895 .
0.0 0.0 6739.45459 .
0.0 0.0 6728.58105 .
0.0 0.0 6718.04492 .
2892.0 0.0 6707.84277 .
2904.0 0.0 6697.97217 .
2947.0 0.0 6688.43115 .
2973.0 0.0 6679.21680 .
3009.0 0.0 6670.32568 .
3032.0 0.0 6661.75537 .
3067.0 0.0 6653.50293 .
3101.0 0.0 6645.56592 .
3137.0 0.0 6637.94141 .
3193.0 0.0 6630.62744 .
3220.0 0.0 6623.61865 .
3250.0 0.0 6616.91602 .
3281.0 0.0 6610.51563 .
3322.0 0.0 6604.41455 .
3366.0 0.0 6598.61035 .
3411.0 0.0 6593.10059 .
3452.0 0.0 6587.88184 .
3491.0 0.0 6582.95313 .
3534.0 0.0 6578.30908 .
3579.0 0.0 6573.95068 .
3618.0 0.0 6569.87354 .
3661.0 0.0 6566.07568 .
3702.0 0.0 6562.55420 .
3755.0 0.0 6559.30713 .
3790.0 0.0 6556.33154 .
3830.0 0.0 6553.62451 .
3858.0 0.0 6551.18457 .
3890.0 0.0 6549.00977 .
3910.0 0.0 6547.09717 .
3963.0 0.0 6545.44385 .
4002.0 0.0 6544.04883 .
4041.0 0.0 6542.90771 .
4087.0 0.0 6542.01855 .
4131.0 0.0 6541.38135 .
4173.0 0.0 6540.99219 .
4216.0 0.0 6540.84766 .
4255.0 0.0 6540.94727 .
4298.0 0.0 6541.28906 .
4342.0 0.0 6541.86914 .
4384.0 0.0 6542.68652 .
4418.0 0.0 6543.73828 .
4451.0 0.0 6545.02148 .
4483.0 0.0 6546.53662 .
4512.0 0.0 6548.27930 .
4565.0 0.0 6550.24756 .
4604.0 0.0 6552.44043 .
4645.0 0.0 6554.85449 .
4706.0 0.0 6557.48828 .
4768.0 0.0 6560.33838 .
4798.0 0.0 6563.40479 .
4847.0 0.0 6566.68457 .
4881.0 0.0 6570.17627 .
4914.0 0.0 6573.87695 .
4960.0 0.0 6577.78467 .
5020.0 0.0 6581.89746 .
5069.0 0.0 6586.21240 .
5113.0 0.0 6590.72949 .
5155.0 0.0 6595.44629 .
5191.0 0.0 6600.35986 .
5230.0 0.0 6605.46924 .
5284.0 0.0 6610.77148 .
5325.0 0.0 6616.26563 .
5363.0 0.0 6621.94873 .
5396.0 0.0 6627.82031 .
5463.0 0.0 6633.87549 .
5514.0 0.0 6640.11670 .
5561.0 0.0 6646.53955 .
5590.0 0.0 6653.14258 .
5628.0 0.0 6659.92383 .
5679.0 0.0 6666.88135 .
5715.0 0.0 6674.01416 .
5759.0 0.0 6681.31836 .
5800.0 0.0 6688.79492 .
5821.0 0.0 6696.44092 .
5862.0 0.0 6704.25439 .
5901.0 0.0 6712.23389 .
5933.0 0.0 6720.37744 .
5974.0 0.0 6728.68311 .
6013.0 0.0 6737.14844 .
6052.0 0.0 6745.77393 .
6084.0 0.0 6754.55664 .
6122.0 0.0 6763.49512 .
6177.0 0.0 6772.58691 .
6205.0 0.0 6781.83154 .
6227.0 0.0 6791.22656 .
6249.0 0.0 6800.77100 .
6291.0 0.0 6810.46240 .
6327.0 0.0 6820.29834 .
6342.0 0.0 6830.27979 .
6373.0 0.0 6840.40381 .
6399.0 0.0 6850.66895 .
6415.0 0.0 6861.07373 .
6430.0 0.0 6871.61621 .
6468.0 0.0 6882.29492 .
6505.0 0.0 6893.10889 .
6497.0 0.0 6904.05420 .
6523.0 0.0 6915.13281 .
6564.0 0.0 6926.34229 .
6569.0 0.0 6937.68018 .
6584.0 0.0 6949.14502 .
6611.0 0.0 6960.73633 .
6634.0 0.0 6972.45215 .
6675.0 0.0 6984.28906 .
6682.0 0.0 6996.24902 .
6703.0 0.0 7008.32959 .
6731.0 0.0 7020.52832 .
6747.0 0.0 7032.84473 .
6773.0 0.0 7045.27686 .
6800.0 0.0 7057.82373 .
6825.0 0.0 7070.48242 .
6851.0 0.0 7083.25537 .
6883.0 0.0 7096.13672 .
6897.0 0.0 7109.12793 .
6888.0 0.0 7122.22705 .
6917.0 0.0 7135.43311 .
6936.0 0.0 7148.74414 .
6957.0 0.0 7162.15869 .
6984.0 0.0 7175.67627 .
7019.0 0.0 7189.29346 .
7050.0 0.0 7203.01221 .
7078.0 0.0 7216.83008 .
7113.0 0.0 7230.74512 .
7211.0 0.0 7244.75684 .
7334.0 0.0 7258.86328 .
7483.0 0.0 7273.06348 .
7555.0 0.0 7287.35547 .
7518.0 0.0 7301.73975 .
7404.0 0.0 7316.21436 .
7323.0 0.0 7330.77832 .
7301.0 0.0 7345.43018 .
7294.0 0.0 7360.16846 .
7282.0 0.0 7374.99219 .
7304.0 0.0 7389.89941 .
7326.0 0.0 7404.89111 .
7338.0 0.0 7419.96484 .
7359.0 0.0 7435.12012 .
7377.0 0.0 7450.35498 .
7395.0 0.0 7465.66846 .
7436.0 0.0 7481.06006 .
7456.0 0.0 7496.52832 .
7481.0 0.0 7512.07178 .
7488.0 0.0 7527.68896 .
7509.0 0.0 7543.38086 .
7521.0 0.0 7559.14502 .
7533.0 0.0 7574.98047 .
7548.0 0.0 7590.88672 .
7558.0 0.0 7606.86182 .
7582.0 0.0 7622.90527 .
7603.0 0.0 7639.01514 .
7629.0 0.0 7655.19238 .
7646.0 0.0 7671.43506 .
7655.0 0.0 7687.74170 .
7676.0 0.0 7704.11230 .
7706.0 0.0 7720.54492 .
7724.0 0.0 7737.03906 .
7738.0 0.0 7753.59277 .
7775.0 0.0 7770.20703 .
7789.0 0.0 7786.87988 .
7811.0 0.0 7803.61084 .
7824.0 0.0 7820.39844 .
7850.0 0.0 7837.24170 .
7874.0 0.0 7854.14063 .
7866.0 0.0 7871.09326 .
7892.0 0.0 7888.09912 .
7923.0 0.0 7905.15625 .
7944.0 0.0 7922.26563 .
7949.0 0.0 7939.42627 .
7974.0 0.0 7956.63623 .
8002.0 0.0 7973.89551 .
8029.0 0.0 7991.20264 .
8044.0 0.0 8008.55762 .
8084.0 0.0 8025.95703 .
8101.0 0.0 8043.40381 .
8113.0 0.0 8060.89502 .
8119.0 0.0 8078.43066 .
8130.0 0.0 8096.00977 .
8163.0 0.0 8113.63086 .
8184.0 0.0 8131.29395 .
8200.0 0.0 8148.99609 .
8226.0 0.0 8166.74023 .
8215.0 0.0 8184.52344 .
8237.0 0.0 8202.34570 .
8265.0 0.0 8220.20605 .
8298.0 0.0 8238.10254 .
8313.0 0.0 8256.03613 .
8338.0 0.0 8274.00586 .
8357.0 0.0 8292.00977 .
8375.0 0.0 8310.04883 .
8401.0 0.0 8328.11914 .
8432.0 0.0 8346.22461 .
8449.0 0.0 8364.36133 .
8474.0 0.0 8382.53027 .
8486.0 0.0 8400.73047 .
8480.0 0.0 8418.95996 .
8492.0 0.0 8437.21973 .
8523.0 0.0 8455.50684 .
8538.0 0.0 8473.82324 .
8574.0 0.0 8492.16699 .
8580.0 0.0 8510.53809 .
8599.0 0.0 8528.93555 .
8613.0 0.0 8547.35938 .
8647.0 0.0 8565.80762 .
8675.0 0.0 8584.27832 .
8697.0 0.0 8602.77539 .
8703.0 0.0 8621.29492 .
8730.0 0.0 8639.83789 .
8736.0 0.0 8658.40234 .
8749.0 0.0 8676.98828 .
8780.0 0.0 8695.59570 .
8787.0 0.0 8714.22168 .
8799.0 0.0 8732.87012 .
8809.0 0.0 8751.53516 .
8830.0 0.0 8770.22070 .
8855.0 0.0 8788.92383 .
8883.0 0.0 8807.64551 .
8898.0 0.0 8826.38379 .
8926.0 0.0 8845.13867 .
8945.0 0.0 8863.90918 .
8948.0 0.0 8882.69434 .
8964.0 0.0 8901.49512 .
9002.0 0.0 8920.31152 .
9019.0 0.0 8939.14160 .
9044.0 0.0 8957.98438 .
9067.0 0.0001103 8976.84180 8976.84180
9075.0 0.0001102 8995.70996 8995.70996
9109.0 0.0001098 9014.59082 9014.59082
9133.0 0.0001095 9033.48340 9033.48340
9164.0 0.0001091 9052.38770 9052.38770
9176.0 0.0001090 9071.30176 9071.30176
9190.0 0.0001088 9090.22656 9090.22656
9198.0 0.0001087 9109.16113 9109.16113
9210.0 0.0001086 9128.10547 9128.10547
9227.0 0.0001084 9147.05762 9147.05762
9232.0 0.0001083 9166.01953 9166.01953
9248.0 0.0001081 9184.98828 9184.98828
9255.0 0.0001080 9203.96582 9203.96582
9280.0 0.0001078 9222.94922 9222.94922
9308.0 0.0001074 9241.94043 9241.94043
9340.0 0.0001071 9260.93750 9260.93750
9363.0 0.0001068 9279.94043 9279.94043
9390.0 0.0001065 9298.95020 9298.95020
9399.0 0.0001064 9317.96387 9317.96387
9393.0 0.0001065 9336.98242 9336.98242
9441.0 0.0001059 9356.00586 9356.00586
9467.0 0.0001056 9375.03223 9375.03223
9500.0 0.0001053 9394.06445 9394.06445
9516.0 0.0001051 9413.09766 9413.09766
9545.0 0.0001048 9432.13477 9432.13477
9565.0 0.0001045 9451.17578 9451.18066
9569.0 0.0001045 9470.21680 9470.22168
9564.0 0.0001046 9489.26074 9489.26563
9582.0 0.0001044 9508.30566 9508.31055
9603.0 0.0001041 9527.35254 9527.35742
9644.0 0.0001037 9546.39941 9546.40527
9657.0 0.0001036 9565.44727 9565.45313
9663.0 0.0001035 9584.49414 9584.50000
9674.0 0.0001034 9603.54297 9603.54883
9683.0 0.0001033 9622.58887 9622.59473
9717.0 0.0001029 9641.63672 9641.64355
9750.0 0.0001026 9660.68066 9660.68750
9760.0 0.0001025 9679.72559 9679.73242
9777.0 0.0001023 9698.76660 9698.77344
9791.0 0.0001021 9717.80762 9717.81543
9812.0 0.0001019 9736.84473 9736.85254
9821.0 0.0001018 9755.87988 9755.88770
9829.0 0.0001017 9774.91211 9774.91992
9847.0 0.0001016 9793.94141 9793.95020
9870.0 0.0001013 9812.96680 9812.97559
9909.0 0.0001009 9831.98926 9831.99805
9931.0 0.0001007 9851.00586 9851.01563
9942.0 0.0001006 9870.01953 9870.02930
9959.0 0.0001004 9889.02832 9889.03906
9962.0 0.0001004 9908.03320 9908.04395
9992.0 0.0001001 9927.03320 9927.04492
10041.0 0.0000996 9946.02637 9946.03809
10073.0 0.0000993 9965.01465 9965.02734
10073.0 0.0000993 9983.99805 9984.01074
10093.0 0.0000991 10002.97461 10002.98828
10106.0 0.0000990 10021.94434 10021.95898
10122.0 0.0000988 10040.90820 10040.92285
10142.0 0.0000986 10059.86426 10059.87988
10147.0 0.0000986 10078.81543 10078.83203
10156.0 0.0000985 10097.75781 10097.77539
10170.0 0.0000983 10116.69336 10116.71191
10200.0 0.0000980 10135.62109 10135.64063
10214.0 0.0000979 10154.54199 10154.56250
10235.0 0.0000977 10173.45313 10173.47559
10273.0 0.0000973 10192.35742 10192.38086
10288.0 0.0000972 10211.25293 10212.50879
10312.0 0.0000970 10230.14063 10231.44434
10331.0 0.0000968 10249.01758 10250.37402
10345.0 0.0000967 10267.88672 10269.29785
10375.0 0.0000964 10286.74609 10288.21680
10388.0 0.0000963 10305.59668 10307.13086
10407.0 0.0000961 10324.43750 10326.03809
10423.0 0.0000959 10343.26953 10344.94141
10434.0 0.0000958 10362.08984 10363.83789
10464.0 0.0000956 10380.90137 10382.73047
10464.0 0.0000956 10399.70313 10401.62012
10474.0 0.0000955 10418.49316 10420.50488
10495.0 0.0000953 10437.27344 10439.38770
10529.0 0.0000950 10456.04297 10458.26660
10568.0 0.0000946 10474.80078 10477.14453
10583.0 0.0000945 10493.54883 10496.02246
10608.0 0.0000943 10512.28516 10514.90039
10608.0 0.0000943 10531.00977 10533.78027
10614.0 0.0000942 10549.72363 10552.66504
10630.0 0.0000941 10568.42480 10571.55566
10657.0 0.0000938 10587.11621 10590.45801
10657.0 0.0000938 10605.79395 10609.37305
10692.0 0.0000935 10624.45996 10628.31055
10729.0 0.0000932 10643.11328 10647.27930
10736.0 0.0000931 10661.75684 10666.30957
10758.0 0.0000930 10680.38574 10685.45898
10770.0 0.0000929 10699.00293 10704.86035
10799.0 0.0000926 10717.60645 10725.17773
10807.0 0.0000925 10736.19922 10745.68750
10820.0 0.0000924 10754.77734 10766.74902
10848.0 0.0000922 10773.34375 10787.64941
10864.0 0.0000920 10791.89648 10807.09961
10883.0 0.0000919 10810.43652 10824.87207
10914.0 0.0000916 10828.96289 10842.12598
10924.0 0.0000915 10847.47656 10859.82324
10949.0 0.0000913 10865.97656 10878.26270
10951.0 0.0000913 10884.46289 10897.37012
10978.0 0.0000911 10902.93555 10916.98438
11001.0 0.0000909 10921.39453 10937.00684
11008.0 0.0000908 10939.83984 10957.43750
11043.0 0.0000906 10958.27051 10978.35254
11071.0 0.0000903 10976.68848 10999.88672
11091.0 0.0000902 10995.09082 11022.24609
11117.0 0.0000900 11013.48145 11045.74707
11146.0 0.0000897 11031.85547 11070.86523
11164.0 0.0000896 11050.21680 11102.80273
11197.0 0.0000893 11068.56250 11134.75098
11230.0 0.0000890 11086.89551 11175.75684
11290.0 0.0000886 11105.21289 11238.67578
11414.0 0.0000876 11123.51660 11351.37207
11594.0 0.0000863 11141.80469 11554.90723
11925.0 0.0000839 11160.07910 11875.52051
12309.0 0.0000812 11178.33789 12266.16797
12526.0 0.0000798 11196.58301 12539.85742
12465.0 0.0000802 11214.81152 12481.32520
12162.0 0.0000822 11233.02734 12169.91016
11825.0 0.0000846 11251.22754 11834.80859
11604.0 0.0000862 11269.41309 11599.13477
11491.0 0.0000870 11287.58301 11473.31836
11453.0 0.0000873 11305.73828 11420.87402
11441.0 0.0000874 11323.87891 11405.24414
11435.0 0.0000875 11342.00391 11405.33496
11448.0 0.0000874 11360.11426 11412.17480
11461.0 0.0000873 11378.20898 11422.43457
11494.0 0.0000870 11396.28906 11434.79004
11520.0 0.0000868 11414.35352 11448.56738
11537.0 0.0000867 11432.40332 11463.35547
11563.0 0.0000865 11450.43652 11478.88965
11574.0 0.0000864 11468.45605 11494.98340
11595.0 0.0000862 11486.45898 11511.50977
11594.0 0.0000863 11504.44824 11528.37695
11599.0 0.0000862 11522.42090 11545.51465
11605.0 0.0000862 11540.37793 11562.87402
11629.0 0.0000860 11558.32031 11580.42090
11635.0 0.0000859 11576.24805 11598.12793
11648.0 0.0000859 11594.15918 11615.97070
11660.0 0.0000858 11612.05566 11633.94141
11691.0 0.0000855 11629.93555 11652.02539
11721.0 0.0000853 11647.80176 11670.21973
11758.0 0.0000850 11665.65137 11688.51660
11776.0 0.0000849 11683.48633 11706.92090
11779.0 0.0000849 11701.30566 11725.42871
11793.0 0.0000848 11719.10938 11744.04590
11801.0 0.0000847 11736.89746 11762.77930
11818.0 0.0000846 11754.67188 11781.63867
11843.0 0.0000844 11772.42969 11800.63281
11875.0 0.0000842 11790.17090 11819.77637
11891.0 0.0000841 11807.89844 11839.08984
11908.0 0.0000840 11825.61035 11858.59082
11914.0 0.0000839 11843.30664 11878.30859
11947.0 0.0000837 11860.98730 11898.27246
11964.0 0.0000836 11878.65332 11918.52051
11970.0 0.0000835 11896.30371 11939.10059
11994.0 0.0000834 11913.93945 11960.07324
12010.0 0.0000833 11931.55859 11981.50586
12035.0 0.0000831 11949.16406 12003.48730
12069.0 0.0000829 11966.75293 12026.12891
12091.0 0.0000827 11984.32813 12049.56934
12113.0 0.0000826 12001.88672 12073.98633
12144.0 0.0000823 12019.43164 12099.61328
12171.0 0.0000822 12036.95996 12126.75000
12193.0 0.0000820 12054.47461 12155.79590
12219.0 0.0000818 12071.97266 12187.30176
12233.0 0.0000817 12089.45703 12222.01465
12274.0 0.0000815 12106.92480 12264.00000
12317.0 0.0000812 12124.37891 12308.90723
12383.0 0.0000808 12141.81836 12360.60449
12447.0 0.0000803 12159.24316 12425.28711
12532.0 0.0000798 12176.65137 12508.49121
12638.0 0.0000791 12194.04590 12626.34961
12829.0 0.0000779 12211.42676 12820.97070
13182.0 0.0000759 12228.79102 13191.07617
13865.0 0.0000721 12246.14160 13912.64941
15126.0 0.0000661 12263.47656 15181.46777
17061.0 0.0000586 12280.79883 17018.79688
18908.0 0.0000529 12298.10547 18944.27344
19697.0 0.0000508 12315.39746 19766.62109
18895.0 0.0000529 12332.67480 18770.59961
16965.0 0.0000589 12349.93750 16863.38477
15071.0 0.0000664 12367.18652 15127.19141
13843.0 0.0000722 12384.42188 13966.60352
13211.0 0.0000757 12401.64160 13330.79492
12939.0 0.0000773 12418.84766 13022.68359
12813.0 0.0000780 12436.03906 12876.48535
12749.0 0.0000784 12453.21777 12801.59668
12715.0 0.0000786 12470.38086 12759.85352
12711.0 0.0000787 12487.53027 12736.54102
12699.0 0.0000787 12504.66602 12725.43457
12710.0 0.0000787 12521.78809 12723.37305
12700.0 0.0000787 12538.89551 12728.61621
12715.0 0.0000786 12555.99023 12740.36621
12724.0 0.0000786 12573.07031 12758.67480
12756.0 0.0000784 12590.13770 12784.61133
12785.0 0.0000782 12607.19141 12820.61914
12815.0 0.0000780 12624.23047 12870.95996
12867.0 0.0000777 12641.25781 12942.07715
12939.0 0.0000773 12658.26953 13043.47754
13094.0 0.0000764 12675.27051 13193.10449
13404.0 0.0000746 12692.25586 13435.03613
13913.0 0.0000719 12709.22949 13863.88770
14616.0 0.0000684 12726.18848 14588.40430
15515.0 0.0000645 12743.13574 15566.61719
16251.0 0.0000615 12760.06934 16390.08789
16364.0 0.0000611 12776.99023 16358.70117
15589.0 0.0000641 12793.89746 15451.11230
14498.0 0.0000690 12810.79297 14391.73145
13720.0 0.0000729 12827.67480 13657.64355
13321.0 0.0000751 12844.54590 13287.96191
13156.0 0.0000760 12861.40234 13136.21289
13101.0 0.0000763 12878.24707 13076.93848
13079.0 0.0000765 12895.07813 13051.74219
13061.0 0.0000766 12911.89941 13040.74414
13075.0 0.0000765 12928.70605 13037.41504
13084.0 0.0000764 12945.50098 13039.04297
13111.0 0.0000763 12962.28320 13044.17383
13107.0 0.0000763 12979.05469 13052.03418
13116.0 0.0000762 12995.81348 13062.67285
13122.0 0.0000762 13012.56055 13078.22949
13136.0 0.0000761 13029.29492 13104.81738
13157.0 0.0000760 13046.01758 13149.81543
13188.0 0.0000758 13062.73047 13208.78613
13214.0 0.0000757 13079.42969 13252.91406
13241.0 0.0000755 13096.11719 13251.60156
13238.0 0.0000755 13112.79395 13221.21094
13248.0 0.0000755 13129.45898 13195.98438
13243.0 0.0000755 13146.11328 13188.97168
13248.0 0.0000755 13162.75586 13195.35449
13270.0 0.0000754 13179.38672 13207.54492
13299.0 0.0000752 13196.00684 13221.60645
13311.0 0.0000751 13212.61621 13236.29297
13343.0 0.0000749 13229.21484 13251.29199
13347.0 0.0000749 13245.80176 13266.49902
13359.0 0.0000749 13262.37793 13281.86328
13375.0 0.0000748 13278.94336 13297.35547
13385.0 0.0000747 13295.50000 13312.95117
13395.0 0.0000747 13312.04395 13328.62695
13417.0 0.0000745 13328.57813 13344.74219
13418.0 0.0000745 13345.10156 13360.57129
13458.0 0.0000743 13361.61523 13376.45605
13481.0 0.0000742 13378.11816 13392.38770
13501.0 0.0000741 13394.61133 13408.36230
13518.0 0.0000740 13411.09375 13424.37598
13523.0 0.0000739 13427.56641 13440.42383
13536.0 0.0000739 13444.02930 13456.50586
13538.0 0.0000739 13460.48340 13472.62012
13546.0 0.0000738 13476.92676 13488.76465
13566.0 0.0000737 13493.36035 13504.94043
13587.0 0.0000736 13509.78516 13521.14551
13621.0 0.0000734 13526.19922 13537.38477
13638.0 0.0000733 13542.60449 13553.65918
13643.0 0.0000733 13559.00000 13569.97070
13668.0 0.0000732 13575.38672 13586.32910
13671.0 0.0000731 13591.76367 13602.73926
13692.0 0.0000730 13608.13184 13619.21191
13732.0 0.0000728 13624.49121 13635.75977
13750.0 0.0000727 13640.84180 13652.40625
13767.0 0.0000726 13657.18262 13669.17773
13778.0 0.0000726 13673.51563 13686.11621
13777.0 0.0000726 13689.83984 13703.28711
13790.0 0.0000725 13706.15527 13720.80469
13818.0 0.0000724 13722.46191 13738.90723
13861.0 0.0000721 13738.76074 13758.10742
13888.0 0.0000720 13755.05078 13779.42188
13893.0 0.0000720 13771.33203 13804.51758
13903.0 0.0000719 13787.60547 13835.36914
13940.0 0.0000717 13803.87109 13873.05859
13956.0 0.0000717 13820.12891 13915.50781
13989.0 0.0000715 13836.37891 13953.91602
14025.0 0.0000713 13852.62012 13975.39160
14034.0 0.0000713 13868.85449 13982.43262
14056.0 0.0000711 13885.08105 13999.42871
14104.0 0.0000709 13901.29883 14058.86719
14183.0 0.0000705 13917.51074 14181.63574
14293.0 0.0000700 13933.71387 14338.22168
14380.0 0.0000695 13949.91016 14424.91016
14404.0 0.0000694 13966.09863 14363.79688
14334.0 0.0000698 13982.28027 14229.99512
14232.0 0.0000703 13998.45508 14123.10156
14180.0 0.0000705 14014.62207 14072.74512
14172.0 0.0000706 14030.78223 14061.75293
14153.0 0.0000707 14046.93750 14067.81445
14167.0 0.0000706 14063.08301 14079.43066
14166.0 0.0000706 14079.22363 14092.84668
14190.0 0.0000705 14095.35645 14107.05566
14206.0 0.0000704 14111.48438 14121.74023
14219.0 0.0000703 14127.60449 14136.74316
14251.0 0.0000702 14143.71875 14151.96777
14271.0 0.0000701 14159.82617 14167.35547
14298.0 0.0000699 14175.92773 14185.71973
14296.0 0.0000699 14192.02246 14201.37793
14295.0 0.0000700 14208.11230 14217.10938
14294.0 0.0000700 14224.19434 14232.89551
14294.0 0.0000700 14240.27246 14248.72461
14316.0 0.0000699 14256.34375 14264.59180
14349.0 0.0000697 14272.40918 14280.48535
14371.0 0.0000696 14288.46875 14296.40137
14389.0 0.0000695 14304.52246 14312.33984
14410.0 0.0000694 14320.57227 14328.29297
14423.0 0.0000693 14336.61523 14344.26172
14443.0 0.0000692 14352.65234 14360.24121
14469.0 0.0000691 14368.68457 14376.23047
14471.0 0.0000691 14384.71191 14394.33008
14481.0 0.0000691 14400.73438 14410.41992
14514.0 0.0000689 14416.75098 14426.52051
14548.0 0.0000687 14432.76270 14442.63281
14572.0 0.0000686 14448.76953 14458.75684
14581.0 0.0000686 14464.77148 14474.89258
14576.0 0.0000686 14480.76855 14491.04004
14584.0 0.0000686 14496.76074 14507.20215
14587.0 0.0000686 14512.74902 14523.37695
14620.0 0.0000684 14528.73145 14539.56445
14642.0 0.0000683 14544.71094 14555.76953
14658.0 0.0000682 14560.68457 14571.98828
14686.0 0.0000681 14576.65430 14588.22461
14696.0 0.0000680 14592.61914 14602.49023
14710.0 0.0000680 14608.58105 14618.79785
14745.0 0.0000678 14624.53809 14635.12598
14768.0 0.0000677 14640.49121 14651.47852
14791.0 0.0000676 14656.43945 14667.85547
14806.0 0.0000675 14672.38477 14684.26172
14797.0 0.0000676 14688.32715 14700.70117
14813.0 0.0000675 14704.26367 14717.17578
14823.0 0.0000675 14720.19727 14733.68848
14841.0 0.0000674 14736.12598 14750.24707
14873.0 0.0000672 14752.05371 14766.85645
14881.0 0.0000672 14767.97559 14783.52148
14921.0 0.0000670 14783.89453 14813.65918
14940.0 0.0000669 14799.80957 14830.97754
14958.0 0.0000669 14815.72168 14848.40918
14989.0 0.0000667 14831.63086 14865.97168
15002.0 0.0000667 14847.53711 14883.67871
15010.0 0.0000666 14863.43945 14901.54980
15027.0 0.0000665 14879.33887 14919.61426
15031.0 0.0000665 14895.23438 14937.89648
15065.0 0.0000664 14911.12891 14956.43945
15099.0 0.0000662 14927.01855 14975.28320
15122.0 0.0000661 14942.90625 14994.48633
15154.0 0.0000660 14958.79004 15014.11719
15154.0 0.0000660 14974.67285 15034.04883
15154.0 0.0000660 14990.55176 15054.85254
15167.0 0.0000659 15006.42871 15076.45801
15178.0 0.0000659 15022.30176 15099.08203
15202.0 0.0000658 15038.17383 15123.02734
15248.0 0.0000656 15054.04297 15148.71973
15257.0 0.0000655 15069.90918 15176.79199
15300.0 0.0000654 15085.77441 15208.29297
15336.0 0.0000652 15101.63574 15244.90137
15377.0 0.0000650 15117.49609 15290.96289
15435.0 0.0000648 15133.35254 15358.63574
15525.0 0.0000644 15149.20801 15480.01270
15695.0 0.0000637 15165.06152 15719.44434
16060.0 0.0000623 15180.91309 16157.32813
16714.0 0.0000598 15196.76172 16813.31250
17492.0 0.0000572 15212.60938 17520.33789
17810.0 0.0000561 15228.45410 17847.26172
17571.0 0.0000569 15244.29883 17511.46875
16924.0 0.0000591 15260.13965 16845.87891
16252.0 0.0000615 15275.98047 16256.14160
15888.0 0.0000629 15291.81836 15887.79590
15755.0 0.0000635 15307.65527 15712.25293
15720.0 0.0000636 15323.49023 15649.56152
15685.0 0.0000638 15339.32422 15639.16406
15679.0 0.0000638 15355.15625 15652.00684
15682.0 0.0000638 15370.98730 15677.79199
15721.0 0.0000636 15386.81641 15713.70313
15760.0 0.0000635 15402.64453 15759.60449
15793.0 0.0000633 15418.47070 15816.71973
15860.0 0.0000631 15434.29688 15887.54688
15942.0 0.0000627 15450.12109 15976.40820
16044.0 0.0000623 15465.94434 16090.70313
16199.0 0.0000617 15481.76660 16243.37109
16432.0 0.0000609 15497.58691 16457.20508
16759.0 0.0000597 15513.40625 16773.39844
17349.0 0.0000576 15529.22461 17278.11719
18364.0 0.0000545 15545.04297 18194.33398
20328.0 0.0000492 15560.85938 20088.01367
24146.0 0.0000414 15576.67578 23983.33008
30550.0 0.0000327 15592.49023 30686.67578
38755.0 0.0000258 15608.30469 39019.33594
44071.0 0.0000227 15624.11719 44416.71875
42340.0 0.0000236 15639.93066 41934.40625
34376.0 0.0000291 15655.74219 33872.79688
25747.0 0.0000388 15671.55371 25955.64453
20555.0 0.0000486 15687.36328 20864.98633
18295.0 0.0000547 15703.17383 18378.62695
17294.0 0.0000578 15718.98340 17330.70313
16787.0 0.0000596 15734.79199 16868.88477
16523.0 0.0000605 15750.59961 16621.08789
16366.0 0.0000611 15766.40820 16463.82813
16281.0 0.0000614 15782.21484 16354.75488
16221.0 0.0000616 15798.02148 16276.75000
16154.0 0.0000619 15813.82813 16220.09375
16142.0 0.0000620 15829.63477 16178.73340
16141.0 0.0000620 15845.43945 16148.65039
16102.0 0.0000621 15861.24512 16127.07520
16110.0 0.0000621 15877.05078 16112.03711
16120.0 0.0000620 15892.85547 16102.10254
16124.0 0.0000620 15908.65918 16096.20605
16141.0 0.0000620 15924.46387 16093.55273
16139.0 0.0000620 15940.26855 16093.53027
16158.0 0.0000619 15956.07227 16095.66211
16159.0 0.0000619 15971.87500 16099.57617
16145.0 0.0000619 15987.67871 16104.97852
16151.0 0.0000619 16003.48340 16111.63672
16170.0 0.0000618 16019.28711 16119.35352
16170.0 0.0000618 16035.08887 16127.97559
16187.0 0.0000618 16050.89258 16137.37598
16195.0 0.0000617 16066.69629 16147.44727
16232.0 0.0000616 16082.50000 16158.10352
16249.0 0.0000615 16098.30176 16169.26953
16241.0 0.0000616 16114.10547 16180.88672
16249.0 0.0000615 16129.90918 16192.89648
16260.0 0.0000615 16145.71289 16205.25977
16259.0 0.0000615 16161.51465 16217.93457
16293.0 0.0000614 16177.31836 16230.89551
16315.0 0.0000613 16193.12305 16244.11133
16332.0 0.0000612 16208.92676 16257.55762
16344.0 0.0000612 16224.72949 16271.22070
16349.0 0.0000612 16240.53320 16285.08301
16361.0 0.0000611 16256.33789 16299.13379
16380.0 0.0000611 16272.14258 16313.36328
16400.0 0.0000610 16287.94727 16327.77051
16407.0 0.0000609 16303.75098 16342.35156
16414.0 0.0000609 16319.55566 16357.11621
16431.0 0.0000609 16335.36035 16372.07715
16439.0 0.0000608 16351.16602 16387.25977
16449.0 0.0000608 16366.97070 16402.71094
16463.0 0.0000607 16382.77539 16418.51563
16494.0 0.0000606 16398.58203 16434.87695
16498.0 0.0000606 16414.38867 16452.19531
16521.0 0.0000605 16430.19336 16471.22852
16549.0 0.0000604 16446.00000 16493.16797
16566.0 0.0000604 16461.80664 16519.38867
16599.0 0.0000602 16477.61328 16550.73828
16650.0 0.0000601 16493.41992 16586.15039
16677.0 0.0000600 16509.22656 16620.30469
16686.0 0.0000599 16525.03516 16642.87500
16687.0 0.0000599 16540.84180 16648.39648
16670.0 0.0000600 16556.64844 16644.40820
16673.0 0.0000600 16572.45703 16640.58398
16677.0 0.0000600 16588.26563 16641.28516
16694.0 0.0000599 16604.07422 16647.14648
16718.0 0.0000598 16619.88281 16657.18945
16721.0 0.0000598 16635.69141 16670.11328
16727.0 0.0000598 16651.50195 16684.91406
16735.0 0.0000598 16667.31055 16701.11914
16742.0 0.0000597 16683.12109 16718.85547
16751.0 0.0000597 16698.92969 16738.96484
16767.0 0.0000596 16714.73828 16763.30859
16782.0 0.0000596 16730.54883 16794.78906
16823.0 0.0000594 16746.35938 16836.50000
16882.0 0.0000592 16762.16992 16889.54297
16941.0 0.0000590 16777.98047 16949.13281
17003.0 0.0000588 16793.79102 16999.09180
17014.0 0.0000588 16809.60156 17016.40430
17001.0 0.0000588 16825.41016 16999.58594
16981.0 0.0000589 16841.22266 16971.00586
16956.0 0.0000590 16857.03320 16947.92578
16942.0 0.0000590 16872.84570 16935.95898
16954.0 0.0000590 16888.65430 16934.37500
16964.0 0.0000589 16904.46680 16940.12695
16989.0 0.0000589 16920.27734 16950.20313
17007.0 0.0000588 16936.08984 16962.56445
17001.0 0.0000588 16951.89844 16976.09961
17009.0 0.0000588 16967.71094 16990.30273
17030.0 0.0000587 16983.52148 17004.93750
17033.0 0.0000587 16999.33398 17019.87305
17068.0 0.0000586 17015.14258 17035.03711
17100.0 0.0000585 17030.95313 17050.39063
17117.0 0.0000584 17046.76563 17057.91211
17119.0 0.0000584 17062.57617 17073.72656
17125.0 0.0000584 17078.38672 17089.65820
17142.0 0.0000583 17094.19531 17105.69336
17170.0 0.0000582 17110.00586 17121.83398
17183.0 0.0000582 17125.81445 17138.61133
17198.0 0.0000581 17141.62500 17154.97461
17211.0 0.0000581 17157.43359 17171.44922
17218.0 0.0000581 17173.24219 17188.05469
17229.0 0.0000580 17189.05078 17204.79688
17250.0 0.0000580 17204.85938 17221.69922
17246.0 0.0000580 17220.66602 17238.78320
17269.0 0.0000579 17236.47266 17256.08008
17275.0 0.0000579 17252.28125 17273.64063
17285.0 0.0000579 17268.08789 17291.50586
17300.0 0.0000578 17283.89258 17309.74023
17329.0 0.0000577 17299.69727 17328.43555
17346.0 0.0000577 17315.50391 17347.70898
17384.0 0.0000575 17331.30859 17367.70898
17399.0 0.0000575 17347.10938 17388.66797
17422.0 0.0000574 17362.91406 17410.92383
17425.0 0.0000574 17378.71680 17435.03125
17451.0 0.0000573 17394.51758 17461.88281
17499.0 0.0000571 17410.31836 17492.95898
17523.0 0.0000571 17426.11719 17532.23047
17549.0 0.0000570 17441.91797 17579.53906
17588.0 0.0000569 17457.71680 17640.51172
17637.0 0.0000567 17473.51367 17719.22070
17728.0 0.0000564 17489.30859 17818.38672
17894.0 0.0000559 17505.10547 17936.46094
18112.0 0.0000552 17520.90039 18061.62109
18278.0 0.0000547 17536.69336 18164.44727
18336.0 0.0000545 17552.48633 18205.54297
18254.0 0.0000548 17568.27734 18170.80859
18087.0 0.0000553 17584.06836 18088.16211
17934.0 0.0000558 17599.85742 17995.79688
17853.0 0.0000560 17615.64453 17915.96484
17787.0 0.0000562 17631.43164 17855.86719
17742.0 0.0000564 17647.21680 17815.22852
17719.0 0.0000564 17663.00000 17790.80273
17731.0 0.0000564 17678.78320 17778.58203
17726.0 0.0000564 17694.56445 17774.86719
17734.0 0.0000564 17710.34375 17776.81055
17757.0 0.0000563 17726.12305 17782.44531
17773.0 0.0000563 17741.89844 17790.51367
17790.0 0.0000562 17757.67383 17800.25195
17807.0 0.0000562 17773.44727 17811.18555
17819.0 0.0000561 17789.21875 17823.00977
17855.0 0.0000560 17804.98828 17836.07227
17893.0 0.0000559 17820.75586 17849.76758
17903.0 0.0000559 17836.52344 17863.28125
17942.0 0.0000557 17852.28711 17877.14258
18011.0 0.0000555 17868.05078 17891.29102
18137.0 0.0000551 17883.80859 17905.67578
18265.0 0.0000547 17899.56836 17920.26563
18351.0 0.0000545 17915.32422 17935.02148
18423.0 0.0000543 17931.08008 17949.92383
18442.0 0.0000542 17946.83008 17964.94141
18158.0 0.0000551 17962.58203 17980.01172
18080.0 0.0000553 17978.33008 17995.23828
18083.0 0.0000553 17994.07422 18011.41992
18071.0 0.0000553 18009.81641 18026.82422
18064.0 0.0000554 18025.55664 18042.29492
18104.0 0.0000552 18041.29492 18057.82617
18126.0 0.0000552 18057.03125 18073.41797
18134.0 0.0000551 18072.76367 18089.05469
18138.0 0.0000551 18088.49414 18104.74609
18150.0 0.0000551 18104.22266 18120.48047
18166.0 0.0000550 18119.94727 18136.26367
18192.0 0.0000550 18135.66797 18152.08203
18209.0 0.0000549 18151.38867 18167.95117
18231.0 0.0000549 18167.10547 18183.86523
18229.0 0.0000549 18182.81836 18199.82031
18247.0 0.0000548 18198.52734 18215.82031
18274.0 0.0000547 18214.23633 18231.97852
18286.0 0.0000547 18229.94141 18248.08008
18300.0 0.0000546 18245.64258 18264.24023
18324.0 0.0000546 18261.33984 18280.46094
18323.0 0.0000546 18277.03320 18296.74414
18316.0 0.0000546 18292.72461 18313.10742
18334.0 0.0000545 18308.41406 18329.55078
18357.0 0.0000545 18324.09766 18346.08984
18367.0 0.0000544 18339.77734 18362.87305
18401.0 0.0000543 18355.45508 18379.65625
18400.0 0.0000543 18371.12891 18396.59180
18415.0 0.0000543 18386.79883 18413.73242
18436.0 0.0000542 18402.46484 18431.10547
18447.0 0.0000542 18418.12695 18448.80078
18457.0 0.0000542 18433.78516 18466.94531
18497.0 0.0000541 18449.44141 18485.77539
18525.0 0.0000540 18465.08984 18505.67383
18547.0 0.0000539 18480.73633 18527.28320
18556.0 0.0000539 18496.37891 18551.48242
18571.0 0.0000538 18512.01758 18579.27930
18610.0 0.0000537 18527.65039 18616.55273
18677.0 0.0000535 18543.28125 18653.32422
18723.0 0.0000534 18558.90625 18692.54492
18764.0 0.0000533 18574.52734 18728.48828
18773.0 0.0000533 18590.14258 18752.61523
18755.0 0.0000533 18605.75391 18761.64258
18733.0 0.0000534 18621.36133 18761.91797
18727.0 0.0000534 18636.96289 18761.69141
18729.0 0.0000534 18652.56055 18765.43750
18743.0 0.0000534 18668.15234 18774.51563
18763.0 0.0000533 18683.74023 18788.84180
18776.0 0.0000533 18699.32422 18807.88672
18818.0 0.0000531 18714.90234 18831.21289
18825.0 0.0000531 18730.47461 18858.84961
18859.0 0.0000530 18746.04102 18891.58594
18899.0 0.0000529 18761.60352 18931.11914
18955.0 0.0000528 18777.16211 18980.39063
19023.0 0.0000526 18792.71289 19044.15430
19121.0 0.0000523 18808.25977 19130.56641
19255.0 0.0000519 18823.80078 19254.88281
19493.0 0.0000513 18839.33594 19445.12305
19819.0 0.0000505 18854.86328 19742.46484
20262.0 0.0000494 18870.38867 20180.76367
20761.0 0.0000482 18885.90625 20737.76563
21179.0 0.0000472 18901.41992 21280.84375
21338.0 0.0000469 18916.92383 21551.37695
21214.0 0.0000471 18932.42578 21344.18945
20850.0 0.0000480 18947.91992 20809.95898
20409.0 0.0000490 18963.40820 20250.07422
20038.0 0.0000499 18978.89063 19830.25781
19753.0 0.0000506 18994.36523 19583.83008
19585.0 0.0000511 19009.83594 19482.13867
19554.0 0.0000511 19025.29883 19491.76563
19617.0 0.0000510 19040.75586 19599.20508
19773.0 0.0000506 19056.20508 19802.08984
20020.0 0.0000500 19071.64844 20073.34766
20285.0 0.0000493 19087.08594 20332.80273
20440.0 0.0000489 19102.51758 20432.34961
20418.0 0.0000490 19117.93945 20296.19336
20197.0 0.0000495 19133.35742 20034.24414
19922.0 0.0000502 19148.76563 19781.10547
19701.0 0.0000508 19164.16992 19597.33594
19532.0 0.0000512 19179.56445 19488.84766
19457.0 0.0000514 19194.95313 19436.73633
19426.0 0.0000515 19210.33398 19418.33008
19401.0 0.0000515 19225.70898 19417.52930
19405.0 0.0000515 19241.07422 19425.77539
19405.0 0.0000515 19256.43359 19439.33594
19400.0 0.0000515 19271.78516 19456.70313
19415.0 0.0000515 19287.12891 19477.33203
19446.0 0.0000514 19302.46484 19501.26367
19465.0 0.0000514 19317.79297 19528.17969
19472.0 0.0000514 19333.11523 19558.56641
19478.0 0.0000513 19348.42773 19592.91406
19493.0 0.0000513 19363.73242 19632.00000
19548.0 0.0000512 19379.02930 19676.99609
19575.0 0.0000511 19394.31836 19729.63281
19589.0 0.0000510 19409.59961 19792.51172
19642.0 0.0000509 19424.87305 19869.47656
19715.0 0.0000507 19440.13672 19966.08008
19792.0 0.0000505 19455.39258 20090.10742
19896.0 0.0000503 19470.64063 20252.21680
20063.0 0.0000498 19485.88086 20467.25000
20344.0 0.0000492 19501.10938 20757.08789
20802.0 0.0000481 19516.33203 21155.28320
21538.0 0.0000464 19531.54492 21709.56836
22655.0 0.0000441 19546.75000 22470.96680
23940.0 0.0000418 19561.94336 23458.17383
25097.0 0.0000398 19577.13086 24609.32227
26033.0 0.0000384 19592.30859 25748.14648
26513.0 0.0000377 19607.47852 26533.75195
26322.0 0.0000380 19622.63672 26495.67773
25493.0 0.0000392 19637.78711 25539.68945
24135.0 0.0000414 19652.92773 24166.50977
22739.0 0.0000440 19668.05859 22873.51758
21670.0 0.0000461 19683.17969 21875.39844
20992.0 0.0000476 19698.29297 21196.47656
20571.0 0.0000486 19713.39648 20772.95313
20327.0 0.0000492 19728.49023 20519.51367
20178.0 0.0000496 19743.57227 20365.90234
20076.0 0.0000498 19758.64648 20268.49023
20044.0 0.0000499 19773.71094 20202.78906
20027.0 0.0000499 19788.76563 20156.55078
20012.0 0.0000500 19803.80859 20123.53516
19991.0 0.0000500 19818.84180 20099.77539
19998.0 0.0000500 19833.86719 20083.08203
19996.0 0.0000500 19848.88086 20071.82813
20009.0 0.0000500 19863.88281 20064.86133
20020.0 0.0000500 19878.87500 20061.33984
20035.0 0.0000499 19893.85742 20060.58984
20048.0 0.0000499 19908.83008 20062.13477
20055.0 0.0000499 19923.79297 20065.57227
20062.0 0.0000498 19938.74219 20070.60938
20082.0 0.0000498 19953.68164 20076.99023
20093.0 0.0000498 19968.61133 20084.54297
20103.0 0.0000497 19983.53125 20093.10742
20129.0 0.0000497 19998.43750 20102.55469
20145.0 0.0000496 20013.33398 20112.80078
20157.0 0.0000496 20028.22070 20123.75391
20173.0 0.0000496 20043.09570 20135.38086
20187.0 0.0000495 20057.95703 20147.61719
20208.0 0.0000495 20072.80859 20160.46094
20216.0 0.0000495 20087.65039 20173.88672
20226.0 0.0000494 20102.48047 20187.90820
20253.0 0.0000494 20117.29688 20202.53320
20288.0 0.0000493 20132.10352 20217.80469
20305.0 0.0000492 20146.89844 20233.78516
20316.0 0.0000492 20161.68164 20250.56055
20329.0 0.0000492 20176.45313 20268.25977
20355.0 0.0000491 20191.21094 20287.01758
20360.0 0.0000491 20205.95898 20307.08008
20389.0 0.0000490 20220.69531 20328.75391
20411.0 0.0000490 20235.41797 20352.47070
20419.0 0.0000490 20250.12891 20378.92188
20461.0 0.0000489 20264.83008 20409.24219
20493.0 0.0000488 20279.51758 20445.42578
20544.0 0.0000487 20294.19141 20491.14648
20594.0 0.0000486 20308.85352 20552.75000
20664.0 0.0000484 20323.50391 20641.02539
20767.0 0.0000482 20338.14258 20768.89453
20935.0 0.0000478 20352.76758 20952.06055
21155.0 0.0000473 20367.37891 21201.28906
21425.0 0.0000467 20381.98047 21512.59961
21768.0 0.0000459 20396.56836 21849.43555
22034.0 0.0000454 20411.14258 22120.91406
22150.0 0.0000451 20425.70313 22206.76172
22083.0 0.0000453 20440.25195 22071.22656
21824.0 0.0000458 20454.78906 21802.75391
21494.0 0.0000465 20469.31250 21508.48242
21225.0 0.0000471 20483.82031 21251.02930
21015.0 0.0000476 20498.31641 21053.87500
20907.0 0.0000478 20512.80078 20916.73828
20845.0 0.0000480 20527.27148 20828.01172
20800.0 0.0000481 20541.72852 20773.57422
20798.0 0.0000481 20556.16992 20741.54688
20807.0 0.0000481 20570.60156 20723.60938
20799.0 0.0000481 20585.01758 20714.54688
20808.0 0.0000481 20599.41992 20710.71680
20809.0 0.0000481 20613.80859 20711.31250
20829.0 0.0000480 20628.18359 20714.66016
20831.0 0.0000480 20642.54688 20720.02734
20852.0 0.0000480 20656.89453 20726.91602
20870.0 0.0000479 20671.22656 20734.98047
20873.0 0.0000479 20685.54883 20743.99023
20901.0 0.0000478 20699.85352 20753.82031
20912.0 0.0000478 20714.14648 20764.18555
20909.0 0.0000478 20728.42383 20775.06055
20924.0 0.0000478 20742.68750 20786.34570
20938.0 0.0000478 20756.93750 20798.04297
20961.0 0.0000477 20771.17383 20809.97656
20979.0 0.0000477 20785.39258 20822.15039
20992.0 0.0000476 20799.59961 20834.54102
21001.0 0.0000476 20813.79297 20847.10938
21045.0 0.0000475 20827.97070 20859.83789
21068.0 0.0000475 20842.13281 20872.70117
21076.0 0.0000474 20856.28125 20885.68359
21101.0 0.0000474 20870.41602 20898.76367
21107.0 0.0000474 20884.53516 20911.94336
21105.0 0.0000474 20898.64063 20925.20508
21150.0 0.0000473 20912.72852 20938.53906
21176.0 0.0000472 20926.80469 20951.93945
21209.0 0.0000471 20940.86328 20965.40039
21233.0 0.0000471 20954.91016 20978.91211
21278.0 0.0000470 20968.93750 20992.47266
21283.0 0.0000470 20982.95313 21006.08984
21322.0 0.0000469 20996.95313 21019.74609
21366.0 0.0000468 21010.93750 21033.44727
21414.0 0.0000467 21024.90625 21047.18945
21525.0 0.0000465 21038.86133 21060.97461
21550.0 0.0000464 21052.80078 21074.80078
21553.0 0.0000464 21066.72461 21088.96484
21545.0 0.0000464 21080.63086 21102.88086
21484.0 0.0000465 21094.52344 21116.85352
21453.0 0.0000466 21108.40234 21130.88086
21465.0 0.0000466 21122.26367 21144.96289
21450.0 0.0000466 21136.10938 21159.11328
21456.0 0.0000466 21149.93945 21173.33789
21475.0 0.0000466 21163.75586 21187.65430
21493.0 0.0000465 21177.55469 21202.04688
21491.0 0.0000465 21191.33594 21216.58594
21505.0 0.0000465 21205.10547 21231.27148
21494.0 0.0000465 21218.85742 21246.13867
21482.0 0.0000466 21232.59375 21261.22461
21506.0 0.0000465 21246.31250 21276.59961
21537.0 0.0000464 21260.01563 21292.35156
21560.0 0.0000464 21273.70508 21308.62500
21601.0 0.0000463 21287.37695 21325.66797
21638.0 0.0000462 21301.03320 21343.86523
21638.0 0.0000462 21314.67188 21363.70703
21659.0 0.0000462 21328.29688 21386.56250
21678.0 0.0000461 21341.90430 21413.05078
21696.0 0.0000461 21355.49609 21444.61914
21739.0 0.0000460 21369.07031 21482.26953
21778.0 0.0000459 21382.62891 21526.12891
21825.0 0.0000458 21396.17188 21574.33984
21877.0 0.0000457 21409.69727 21621.35156
21914.0 0.0000456 21423.20703 21657.50977
21911.0 0.0000456 21436.69922 21675.41797
21922.0 0.0000456 21450.17773 21676.02930
21904.0 0.0000457 21463.63672 21670.33008
21874.0 0.0000457 21477.08008 21667.13086
21883.0 0.0000457 21490.50781 21670.21875
21904.0 0.0000457 21503.91797 21679.25195
21924.0 0.0000456 21517.31250 21691.14453
21933.0 0.0000456 21530.68945 21701.40430
21918.0 0.0000456 21544.05078 21706.60156
21902.0 0.0000457 21557.39453 21706.37891
21872.0 0.0000457 21570.72070 21700.92188
21860.0 0.0000457 21584.03320 21697.18750
21855.0 0.0000458 21597.32422 21694.94922
21858.0 0.0000457 21610.60156 21695.05469
21877.0 0.0000457 21623.86133 21697.67773
21874.0 0.0000457 21637.10547 21702.65039
21874.0 0.0000457 21650.33008 21709.66992
21887.0 0.0000457 21663.54102 21718.43164
21881.0 0.0000457 21676.73242 21728.79297
21907.0 0.0000456 21689.90820 21740.10352
21923.0 0.0000456 21703.06641 21752.34766
21909.0 0.0000456 21716.20703 21765.39258
21913.0 0.0000456 21729.33203 21779.14453
21935.0 0.0000456 21742.43945 21793.59766
21921.0 0.0000456 21755.52930 21808.77930
21924.0 0.0000456 21768.60156 21824.80469
21946.0 0.0000456 21781.65820 21841.84961
21970.0 0.0000455 21794.69727 21860.16602
21975.0 0.0000455 21807.71875 21880.12109
21990.0 0.0000455 21820.72266 21902.08984
21993.0 0.0000455 21833.71094 21926.54297
21959.0 0.0000455 21846.68164 21953.94922
21994.0 0.0000455 21859.63281 21984.66992
22019.0 0.0000454 21872.56836 22018.76758
22025.0 0.0000454 21885.48828 22055.67578
22047.0 0.0000454 21898.38867 22093.61523
22066.0 0.0000453 21911.27344 22129.19141
22062.0 0.0000453 21924.13867 22158.20313
22067.0 0.0000453 21936.99023 22178.21094
22100.0 0.0000452 21949.82227 22190.76367
22107.0 0.0000452 21962.63672 22200.48633
22119.0 0.0000452 21975.43359 22212.18164
22141.0 0.0000452 21988.21289 22229.10742
22167.0 0.0000451 22000.97656 22252.88477
22202.0 0.0000450 22013.72266 22283.86328
22283.0 0.0000449 22026.44922 22321.43750
22392.0 0.0000447 22039.16016 22363.67773
22539.0 0.0000444 22051.85352 22408.29883
22675.0 0.0000441 22064.53125 22453.52344
22720.0 0.0000440 22077.18750 22499.78125
22674.0 0.0000441 22089.83008 22549.69531
22626.0 0.0000442 22102.45313 22604.42578
22573.0 0.0000443 22115.06055 22657.25586
22559.0 0.0000443 22127.64844 22691.11719
22569.0 0.0000443 22140.22070 22699.53516
22564.0 0.0000443 22152.77539 22700.68945
22606.0 0.0000442 22165.31250 22713.41016
22737.0 0.0000440 22177.83008 22743.11523
22881.0 0.0000437 22190.33398 22781.26172
22931.0 0.0000436 22202.81836 22812.70313
22908.0 0.0000437 22215.28516 22826.27539
22832.0 0.0000438 22227.73633 22821.84180
22745.0 0.0000440 22240.16797 22799.01367
22666.0 0.0000441 22252.58398 22749.80469
22590.0 0.0000443 22264.98242 22680.49414
22497.0 0.0000445 22277.36328 22610.20313
22460.0 0.0000445 22289.72461 22552.18555
22447.0 0.0000445 22302.07031 22511.07422
22428.0 0.0000446 22314.39844 22484.50781
22430.0 0.0000446 22326.71094 22471.83984
22443.0 0.0000446 22339.00391 22467.86914
22436.0 0.0000446 22351.28125 22469.78320
22430.0 0.0000446 22363.53906 22475.85742
22457.0 0.0000445 22375.78125 22485.23047
22473.0 0.0000445 22388.00586 22497.59961
22494.0 0.0000445 22400.21289 22513.15820
22498.0 0.0000444 22412.40430 22532.54102
22521.0 0.0000444 22424.57617 22556.84961
22549.0 0.0000443 22436.73242 22587.69727
22585.0 0.0000443 22448.87109 22627.06641
22627.0 0.0000442 22460.99219 22677.25586
22677.0 0.0000441 22473.09570 22740.59766
22759.0 0.0000439 22485.18164 22819.22656
22882.0 0.0000437 22497.25195 22915.18945
23018.0 0.0000434 22509.30469 23025.00977
23171.0 0.0000432 22521.34180 23143.56445
23309.0 0.0000429 22533.35938 23264.83984
23423.0 0.0000427 22545.35938 23387.65820
23525.0 0.0000425 22557.34570 23512.60352
23642.0 0.0000423 22569.31250 23616.79883
23665.0 0.0000423 22581.26367 23645.68555
23586.0 0.0000424 22593.19531 23559.65820
23400.0 0.0000427 22605.11133 23391.20508
23176.0 0.0000431 22617.01172 23206.39844
22993.0 0.0000435 22628.89453 23048.67578
22876.0 0.0000437 22640.75977 22933.12891
22810.0 0.0000438 22652.60938 22858.55859
22782.0 0.0000439 22664.44141 22815.71094
22783.0 0.0000439 22676.25586 22793.84375
22770.0 0.0000439 22688.05469 22784.39453
22764.0 0.0000439 22699.83594 22781.85156
22772.0 0.0000439 22711.60156 22783.21484
22779.0 0.0000439 22723.34961 22786.93945
22791.0 0.0000439 22735.08008 22792.24609
22789.0 0.0000439 22746.79688 22798.71094
22809.0 0.0000438 22758.49609 22806.05273
22820.0 0.0000438 22770.17773 22814.08789
22804.0 0.0000439 22781.84180 22822.67383
22811.0 0.0000438 22793.49219 22831.70898
22817.0 0.0000438 22805.12500 22841.12109
22825.0 0.0000438 22816.74023 22850.83398
22858.0 0.0000437 22828.33984 22860.81055
22875.0 0.0000437 22839.92383 22871.01367
22889.0 0.0000437 22851.49023 22881.41016
22898.0 0.0000437 22863.04102 22891.97266
22904.0 0.0000437 22874.57617 22902.69336
22910.0 0.0000436 22886.09375 22913.55664
22916.0 0.0000436 22897.59766 22924.55469
22946.0 0.0000436 22909.08398 22935.67383
22961.0 0.0000436 22920.55469 22946.93164
22962.0 0.0000436 22932.00781 22958.32227
22964.0 0.0000435 22943.44531 22969.85938
22973.0 0.0000435 22954.86914 22981.56055
22995.0 0.0000435 22966.27539 22993.44922
23026.0 0.0000434 22977.66602 23005.59375
23033.0 0.0000434 22989.03906 23018.77148
23034.0 0.0000434 23000.40039 23031.81836
23054.0 0.0000434 23011.74219 23045.69922
23059.0 0.0000434 23023.07031 23060.89648
23063.0 0.0000434 23034.38281 23078.09961
23095.0 0.0000433 23045.67969 23098.06836
23100.0 0.0000433 23056.96094 23121.43359
23098.0 0.0000433 23068.22461 23148.22656
23099.0 0.0000433 23079.47656 23177.39063
23145.0 0.0000432 23090.71094 23205.79688
23176.0 0.0000431 23101.92969 23228.16797
23190.0 0.0000431 23113.13477 23240.07617
23198.0 0.0000431 23124.32422 23242.67773
23205.0 0.0000431 23135.49805 23241.66211
23203.0 0.0000431 23146.65625 23242.01953
23226.0 0.0000431 23157.80078 23246.28711
23239.0 0.0000430 23168.92969 23255.21094
23256.0 0.0000430 23180.04297 23268.49219
23299.0 0.0000429 23191.14258 23285.18945
23342.0 0.0000428 23202.22656 23303.87305
23352.0 0.0000428 23213.29492 23322.68359
23373.0 0.0000428 23224.35156 23339.44336
23391.0 0.0000428 23235.39063 23352.23438
23376.0 0.0000428 23246.41797 23360.24414
23377.0 0.0000428 23257.42773 23364.21680
23380.0 0.0000428 23268.42383 23365.81641
23356.0 0.0000428 23279.40625 23366.75195
23354.0 0.0000428 23290.37500 23368.19922
23349.0 0.0000428 23301.32813 23370.78711
23345.0 0.0000428 23312.26758 23374.73828
23376.0 0.0000428 23323.19336 23380.04297
23392.0 0.0000427 23334.10547 23386.61133
23399.0 0.0000427 23345.00195 23394.28516
23404.0 0.0000427 23355.88477 23402.91016
23425.0 0.0000427 23366.75586 23412.34570
23444.0 0.0000427 23377.61133 23422.46289
23441.0 0.0000427 23388.45313 23433.15625
23452.0 0.0000426 23399.28125 23444.35938
23475.0 0.0000426 23410.09570 23456.03711
23465.0 0.0000426 23420.89648 23468.16797
23476.0 0.0000426 23431.68359 23480.74414
23506.0 0.0000425 23442.45703 23493.80664
23515.0 0.0000425 23453.21875 23507.40820
23524.0 0.0000425 23463.96680 23521.64453
23533.0 0.0000425 23474.70117 23536.67578
23557.0 0.0000425 23485.42188 23552.69336
23583.0 0.0000424 23496.13086 23570.02344
23612.0 0.0000424 23506.82617 23589.09570
23617.0 0.0000423 23517.50977 23610.42773
23631.0 0.0000423 23528.17773 23634.99805
23648.0 0.0000423 23538.83398 23663.63477
23676.0 0.0000422 23549.47852 23697.37109
23713.0 0.0000422 23560.11133 23737.22070
23720.0 0.0000422 23570.72852 23783.91602
23790.0 0.0000420 23581.33594 23837.60742
23867.0 0.0000419 23591.92969 23897.08203
23976.0 0.0000417 23602.51172 23958.74414
24063.0 0.0000416 23613.08203 24015.60742
24134.0 0.0000414 23623.63867 24058.43164
24153.0 0.0000414 23634.18555 24080.88281
24121.0 0.0000415 23644.71875 24085.27344
24063.0 0.0000416 23655.24023 24082.15039
23997.0 0.0000417 23665.75000 24084.63477
23962.0 0.0000417 23676.24805 24104.51172
23975.0 0.0000417 23686.73438 24151.78516
24017.0 0.0000416 23697.20898 24235.04883
24085.0 0.0000415 23707.67188 24361.36719
24209.0 0.0000413 23718.12500 24531.54102
24409.0 0.0000410 23728.56445 24739.35352
24698.0 0.0000405 23738.99414 24962.42969
25046.0 0.0000399 23749.41211 25154.94141
25343.0 0.0000395 23759.81836 25252.64453
25469.0 0.0000393 23770.21484 25211.72461
25376.0 0.0000394 23780.59961 25051.80859
25054.0 0.0000399 23790.97266 24836.30664
24695.0 0.0000405 23801.33789 24621.09766
24425.0 0.0000409 23811.68945 24435.83008
24247.0 0.0000412 23822.03320 24290.61719
24149.0 0.0000414 23832.36328 24184.69141
24100.0 0.0000415 23842.68555 24112.54688
24071.0 0.0000415 23852.99609 24065.31445
24052.0 0.0000416 23863.29688 24036.24023
24047.0 0.0000416 23873.58594 24018.66797
24036.0 0.0000416 23883.86719 24008.72656
24054.0 0.0000416 23894.13867 24003.69336
24067.0 0.0000416 23904.39844 24001.95508
24069.0 0.0000415 23914.65039 24002.48828
24071.0 0.0000415 23924.89063 24004.70898
24072.0 0.0000415 23935.12109 24008.23438
24073.0 0.0000415 23945.34375 24012.78516
24091.0 0.0000415 23955.55664 24017.86523
24114.0 0.0000415 23965.75781 24023.93555
24109.0 0.0000415 23975.95313 24030.57227
24096.0 0.0000415 23986.13672 24037.69141
24113.0 0.0000415 23996.31250 24045.31445
24119.0 0.0000415 24006.47852 24053.17773
24123.0 0.0000415 24016.63672 24061.33203
24138.0 0.0000414 24026.78516 24069.74805
24154.0 0.0000414 24036.92578 24078.37891
24147.0 0.0000414 24047.05664 24087.21680
24162.0 0.0000414 24057.17969 24096.22461
24188.0 0.0000413 24067.29492 24105.38281
24205.0 0.0000413 24077.40039 24114.69336
24215.0 0.0000413 24087.49805 24124.10938
24209.0 0.0000413 24097.58789 24133.66406
24217.0 0.0000413 24107.66797 24143.30469
24233.0 0.0000413 24117.74219 24153.05273
24243.0 0.0000412 24127.80664 24162.89063
24253.0 0.0000412 24137.86523 24172.82813
24268.0 0.0000412 24147.91602 24182.85156
24288.0 0.0000412 24157.95703 24192.94922
24309.0 0.0000411 24167.99219 24203.13281
24306.0 0.0000411 24178.01953 24213.38672
24309.0 0.0000411 24188.03906 24223.73633
24331.0 0.0000411 24198.05273 24234.16602
24336.0 0.0000411 24208.05859 24244.66992
24344.0 0.0000411 24218.05664 24255.26953
24340.0 0.0000411 24228.04883 24266.03516
24360.0 0.0000411 24238.03320 24276.82031
24383.0 0.0000410 24248.01172 24287.27148
24395.0 0.0000410 24257.98242 24299.03125
24412.0 0.0000410 24267.94531 24310.16016
24421.0 0.0000409 24277.90430 24321.41602
24429.0 0.0000409 24287.85742 24332.81250
24460.0 0.0000409 24297.80078 24344.34180
24476.0 0.0000409 24307.74023 24356.04102
24496.0 0.0000408 24317.67383 24367.91992
24509.0 0.0000408 24327.59961 24379.99609
24503.0 0.0000408 24337.51953 24392.29297
24521.0 0.0000408 24347.43555 24404.84570
24524.0 0.0000408 24357.34570 24417.67383
24540.0 0.0000407 24367.25000 24430.82031
24545.0 0.0000407 24377.14648 24444.63867
24548.0 0.0000407 24387.03906 24458.58398
24567.0 0.0000407 24396.92578 24473.01758
24582.0 0.0000407 24406.80859 24488.04492
24614.0 0.0000406 24416.68555 24503.77930
24617.0 0.0000406 24426.55664 24520.37109
24632.0 0.0000406 24436.42188 24538.03320
24643.0 0.0000406 24446.28320 24557.01172
24670.0 0.0000405 24456.14063 24577.61133
24716.0 0.0000405 24465.99219 24600.19336
24763.0 0.0000404 24475.83984 24625.15234
24813.0 0.0000403 24485.68164 24652.89258
24867.0 0.0000402 24495.51953 24683.80078
24915.0 0.0000401 24505.35352 24718.79492
24928.0 0.0000401 24515.18359 24756.89648
24927.0 0.0000401 24525.00781 24799.50195
24909.0 0.0000401 24534.83008 24848.08398
24907.0 0.0000401 24544.64648 24904.35742
24923.0 0.0000401 24554.45898 24969.79297
24936.0 0.0000401 24564.26758 25045.01367
24984.0 0.0000400 24574.07422 25129.32227
25058.0 0.0000399 24583.87500 25219.53516
25154.0 0.0000398 24593.67383 25308.82031
25297.0 0.0000395 24603.46875 25386.13086
25411.0 0.0000394 24613.25977 25438.25977
25471.0 0.0000393 24623.04688 25455.60742
25482.0 0.0000392 24632.83008 25440.07422
25480.0 0.0000392 24642.61328 25409.84180
25484.0 0.0000392 24652.39063 25398.00391
25505.0 0.0000392 24662.16602 25435.21094
25571.0 0.0000391 24671.93750 25522.36719
25641.0 0.0000390 24681.70703 25631.45117
25707.0 0.0000389 24691.47461 25728.57617
25734.0 0.0000389 24701.23828 25785.54492
25704.0 0.0000389 24711.00000 25785.81445
25626.0 0.0000390 24720.75977 25730.54883
25519.0 0.0000392 24730.51563 25638.05664
25430.0 0.0000393 24740.26953 25532.91992
25328.0 0.0000395 24750.02148 25432.66992
25245.0 0.0000396 24759.77148 25344.63281
25176.0 0.0000397 24769.51953 25270.30273
25128.0 0.0000398 24779.26563 25209.13867
25106.0 0.0000398 24789.00781 25159.93164
25080.0 0.0000399 24798.75000 25121.34961
25086.0 0.0000399 24808.49023 25092.14648
25095.0 0.0000398 24818.22852 25071.11914
25115.0 0.0000398 24827.96484 25057.12695
25116.0 0.0000398 24837.70117 25049.17969
25122.0 0.0000398 24847.43359 25046.50586
25114.0 0.0000398 24857.16602 25048.80664
25109.0 0.0000398 24866.89648 25056.46289
25139.0 0.0000398 24876.62695 25070.76563
25172.0 0.0000397 24886.35547 25094.24805
25198.0 0.0000397 24896.08203 25130.65039
25229.0 0.0000396 24905.80859 25184.45703
25277.0 0.0000396 24915.53320 25259.69141
25330.0 0.0000395 24925.25781 25357.87500
25403.0 0.0000394 24934.98242 25475.33984
25515.0 0.0000392 24944.70508 25599.55273
25645.0 0.0000390 24954.42578 25704.92969
25725.0 0.0000389 24964.14648 25756.81055
25767.0 0.0000388 24973.86914 25735.32617
25760.0 0.0000388 24983.58984 25656.76367
25692.0 0.0000389 24993.30859 25557.56250
25566.0 0.0000391 25003.02734 25467.29102
25490.0 0.0000392 25012.74609 25402.98828
25446.0 0.0000393 25022.46484 25371.83594
25429.0 0.0000393 25032.18359 25373.41406
25433.0 0.0000393 25041.90234 25400.70703
25467.0 0.0000393 25051.61914 25439.29102
25493.0 0.0000392 25061.33789 25470.22461
25509.0 0.0000392 25071.05469 25477.86914
25503.0 0.0000392 25080.77344 25464.49805
25538.0 0.0000392 25090.49219 25446.42969
25543.0 0.0000391 25100.21094 25438.18945
25564.0 0.0000391 25109.92969 25446.24414
25585.0 0.0000391 25119.64844 25468.36719
25587.0 0.0000391 25129.36719 25494.67383
25589.0 0.0000391 25139.08594 25510.04102
25611.0 0.0000390 25148.80664 25503.98047
25621.0 0.0000390 25158.52734 25480.05664
25609.0 0.0000390 25168.24805 25451.41016
25584.0 0.0000391 25177.96875 25425.50781
25567.0 0.0000391 25187.69141 25408.21484
25555.0 0.0000391 25197.41211 25401.64648
25550.0 0.0000391 25207.13672 25405.54688
25551.0 0.0000391 25216.85938 25418.64648
25571.0 0.0000391 25226.58398 25440.45313
25587.0 0.0000391 25236.30859 25470.72266
25605.0 0.0000391 25246.03516 25510.27344
25645.0 0.0000390 25255.76172 25561.37305
25701.0 0.0000389 25265.49023 25627.55664
25771.0 0.0000388 25275.21875 25713.48633
25842.0 0.0000387 25284.94922 25825.77344
25960.0 0.0000385 25294.67969 25970.95508
26136.0 0.0000383 25304.41016 26154.70898
26344.0 0.0000380 25314.14258 26378.37109
26583.0 0.0000376 25323.87500 26634.03711
26845.0 0.0000373 25333.60938 26899.41406
27071.0 0.0000369 25343.34570 27135.74805
27186.0 0.0000368 25353.08203 27292.12500
27217.0 0.0000367 25362.81836 27319.74609
27093.0 0.0000369 25372.55859 27201.65430
26863.0 0.0000372 25382.29883 26976.72852
26612.0 0.0000376 25392.03906 26708.98242
26400.0 0.0000379 25401.78125 26450.12305
26202.0 0.0000382 25411.52344 26227.18555
26063.0 0.0000384 25421.26953 26050.05859
25960.0 0.0000385 25431.01367 25917.84180
25904.0 0.0000386 25440.75977 25824.01367
25841.0 0.0000387 25450.50781 25759.99023
25820.0 0.0000387 25460.25781 25717.48438
25812.0 0.0000387 25470.00781 25689.78320
25807.0 0.0000387 25479.75781 25672.02539
25787.0 0.0000388 25489.50977 25660.97656
25791.0 0.0000388 25499.26367 25654.55469
25801.0 0.0000388 25509.01953 25651.46484
25789.0 0.0000388 25518.77344 25650.87500
25775.0 0.0000388 25528.53125 25652.24219
25778.0 0.0000388 25538.28906 25655.21094
25799.0 0.0000388 25548.04883 25659.51172
25806.0 0.0000388 25557.80664 25664.95898
25806.0 0.0000388 25567.56836 25671.41992
25812.0 0.0000387 25577.33008 25678.81836
25814.0 0.0000387 25587.09375 25687.09570
25830.0 0.0000387 25596.85742 25696.23047
25837.0 0.0000387 25606.62305 25706.25391
25855.0 0.0000387 25616.38867 25717.80469
25863.0 0.0000387 25626.15430 25730.02344
25876.0 0.0000386 25635.92383 25743.57813
25892.0 0.0000386 25645.69141 25758.94531
25905.0 0.0000386 25655.45898 25776.91406
25917.0 0.0000386 25665.22852 25797.47656
25933.0 0.0000386 25675.00000 25821.50195
25950.0 0.0000385 25684.77148 25849.40039
25973.0 0.0000385 25694.54297 25881.23242
25990.0 0.0000385 25704.31445 25916.40039
26002.0 0.0000385 25714.08789 25953.30469
26035.0 0.0000384 25723.85938 25989.12695
26073.0 0.0000384 25733.63281 26021.21289
26113.0 0.0000383 25743.40820 26050.14258
26157.0 0.0000382 25753.18164 26081.50195
26206.0 0.0000382 25762.95508 26124.77344
26271.0 0.0000381 25772.73047 26192.42578
26374.0 0.0000379 25782.50391 26301.30078
26513.0 0.0000377 25792.27734 26473.68359
26706.0 0.0000374 25802.05078 26734.47852
26960.0 0.0000371 25811.82617 27101.66016
27313.0 0.0000366 25821.59961 27570.11523
27806.0 0.0000360 25831.37305 28093.09961
28376.0 0.0000352 25841.14648 28567.82813
28894.0 0.0000346 25850.91797 28844.56641
28983.0 0.0000345 25860.69141 28806.91797
28669.0 0.0000349 25870.46094 28478.70898
28068.0 0.0000356 25880.23242 27996.49805
27466.0 0.0000364 25890.00195 27499.51953
27041.0 0.0000370 25899.76953 27074.48242
26755.0 0.0000374 25909.53711 26754.64063
26572.0 0.0000376 25919.30469 26536.43164
26451.0 0.0000378 25929.06836 26398.13086
26388.0 0.0000379 25938.83203 26314.67969
26351.0 0.0000379 25948.59375 26265.96289
26320.0 0.0000380 25958.35547 26238.98242
26289.0 0.0000380 25968.11328 26226.30078
26289.0 0.0000380 25977.86914 26223.62695
26286.0 0.0000380 25987.62500 26228.82227
26276.0 0.0000381 25997.37695 26240.70313
26262.0 0.0000381 26007.12695 26258.65039
26262.0 0.0000381 26016.87500 26282.58984
26285.0 0.0000380 26026.62109 26312.06445
26302.0 0.0000380 26036.36328 26347.36523
26333.0 0.0000380 26046.10352 26388.66211
26379.0 0.0000379 26055.83984 26436.12109
26425.0 0.0000378 26065.57422 26489.73242
26497.0 0.0000377 26075.30469 26549.10742
26548.0 0.0000377 26085.03125 26613.22461
26597.0 0.0000376 26094.75586 26680.44531
26636.0 0.0000375 26104.47461 26748.62891
26681.0 0.0000375 26114.19141 26815.24414
26735.0 0.0000374 26123.90430 26876.19922
26813.0 0.0000373 26133.61133 26923.08398
26903.0 0.0000372 26143.31445 26941.73438
26947.0 0.0000371 26153.01172 26919.09961
26925.0 0.0000371 26162.70508 26856.95898
26874.0 0.0000372 26172.39453 26772.83398
26773.0 0.0000374 26182.07813 26686.10742
26673.0 0.0000375 26191.75586 26609.73047
26607.0 0.0000376 26201.42969 26549.67188
26558.0 0.0000377 26211.09766 26507.19336
26507.0 0.0000377 26220.75781 26480.81836
26495.0 0.0000377 26230.41211 26467.02344
26490.0 0.0000378 26240.06055 26462.59375
26492.0 0.0000377 26249.70117 26464.51367
26488.0 0.0000378 26259.33789 26470.29688
26525.0 0.0000377 26268.96484 26477.51758
26532.0 0.0000377 26278.58594 26483.69727
26524.0 0.0000377 26288.20117 26486.85156
26511.0 0.0000377 26297.80664 26486.11914
26524.0 0.0000377 26307.40234 26482.09570
26524.0 0.0000377 26316.99219 26476.30273
26524.0 0.0000377 26326.57227 26470.37695
26525.0 0.0000377 26336.14453 26465.42578
26515.0 0.0000377 26345.70898 26462.14063
26509.0 0.0000377 26355.26367 26460.76367
26513.0 0.0000377 26364.80859 26461.37305
26536.0 0.0000377 26374.34375 26463.89258
26548.0 0.0000377 26383.86914 26468.22852
26559.0 0.0000377 26393.38281 26474.23633
26586.0 0.0000376 26402.88672 26481.81445
26600.0 0.0000376 26412.38086 26490.84766
26607.0 0.0000376 26421.86328 26501.23828
26614.0 0.0000376 26431.33398 26512.81641
26616.0 0.0000376 26440.79297 26525.36133
26630.0 0.0000376 26450.24023 26538.45313
26652.0 0.0000375 26459.67578 26551.51563
26672.0 0.0000375 26469.09766 26563.71875
26687.0 0.0000375 26478.50586 26574.16797
26703.0 0.0000374 26487.90234 26582.24805
26714.0 0.0000374 26497.28516 26587.63477
26712.0 0.0000374 26506.65430 26590.99219
26685.0 0.0000375 26516.00977 26593.34180
26694.0 0.0000375 26525.34961 26595.01758
26710.0 0.0000374 26534.67578 26597.81836
26704.0 0.0000374 26543.98438 26601.42383
26697.0 0.0000375 26553.27930 26605.93555
26697.0 0.0000375 26562.55859 26611.31445
26711.0 0.0000374 26571.82031 26617.46289
26708.0 0.0000374 26581.06641 26624.29492
26718.0 0.0000374 26590.29492 26630.98047
26724.0 0.0000374 26599.50781 26638.82031
26725.0 0.0000374 26608.70117 26647.00586
26740.0 0.0000374 26617.87695 26655.48828
26738.0 0.0000374 26627.03320 26664.24023
26745.0 0.0000374 26636.16992 26673.17188
26730.0 0.0000374 26645.29102 26682.38477
26740.0 0.0000374 26654.39063 26691.87500
26755.0 0.0000374 26663.46875 26701.48633
26749.0 0.0000374 26672.52734 26711.31641
26758.0 0.0000374 26681.56641 26721.40820
26775.0 0.0000373 26690.58203 26731.80469
26791.0 0.0000373 26699.57617 26742.59180
26809.0 0.0000373 26708.54883 26753.89063
26822.0 0.0000373 26717.49805 26765.82227
26836.0 0.0000373 26726.42578 26778.62305
26844.0 0.0000373 26735.33008 26792.55078
26850.0 0.0000372 26744.20898 26807.85742
26872.0 0.0000372 26753.06445 26824.88672
26888.0 0.0000372 26761.89453 26843.89844
26896.0 0.0000372 26770.69922 26865.07813
26909.0 0.0000372 26779.47852 26888.45703
26925.0 0.0000371 26788.23047 26913.76563
26952.0 0.0000371 26796.95703 26940.22461
26981.0 0.0000371 26805.65625 26966.36914
26993.0 0.0000370 26814.32617 26990.16797
27003.0 0.0000370 26822.97070 27009.95703
27029.0 0.0000370 26831.58398 27025.83789
27032.0 0.0000370 26840.16992 27040.21875
27025.0 0.0000370 26848.72266 27056.79297
27039.0 0.0000370 26857.24805 27079.07617
27057.0 0.0000370 26865.74023 27109.61133
27076.0 0.0000369 26874.20313 27149.72461
27091.0 0.0000369 26882.63477 27199.29883
27151.0 0.0000368 26891.03320 27256.46875
27213.0 0.0000367 26899.39844 27316.75586
27284.0 0.0000367 26907.73047 27372.40234
27336.0 0.0000366 26916.02539 27413.37695
27378.0 0.0000365 26924.28906 27431.38477
27427.0 0.0000365 26932.51563 27425.18164
27468.0 0.0000364 26940.70703 27400.29492
27486.0 0.0000364 26948.86328 27364.70703
27460.0 0.0000364 26956.98047 27324.76758
27412.0 0.0000365 26965.06055 27284.40234
27338.0 0.0000366 26973.10352 27246.02148
27254.0 0.0000367 26981.10547 27211.39063
27207.0 0.0000368 26989.06836 27181.62891
27180.0 0.0000368 26996.99219 27157.10156
27162.0 0.0000368 27004.87500 27137.50195
27138.0 0.0000368 27012.71680 27122.10742
27128.0 0.0000369 27020.51563 27110.14258
27119.0 0.0000369 27028.27344 27100.88086
27117.0 0.0000369 27035.98633 27093.84961
27123.0 0.0000369 27043.65625 27088.80664
27131.0 0.0000369 27051.27930 27085.75586
27162.0 0.0000368 27058.85742 27085.00391
27157.0 0.0000368 27066.39258 27087.09375
27168.0 0.0000368 27073.87891 27092.84766
27175.0 0.0000368 27081.31641 27103.44531
27193.0 0.0000368 27088.70898 27120.32422
27221.0 0.0000367 27096.05078 27144.94141
27236.0 0.0000367 27103.34180 27178.23047
27262.0 0.0000367 27110.58398 27219.47070
27270.0 0.0000367 27117.77344 27265.44727
27282.0 0.0000367 27124.91406 27310.50781
27284.0 0.0000367 27132.00000 27348.71289
27306.0 0.0000366 27139.03320 27376.97656
27316.0 0.0000366 27146.01367 27396.30273
27336.0 0.0000366 27152.93750 27410.08203
27351.0 0.0000366 27159.80664 27421.42188
27377.0 0.0000365 27166.61719 27431.67773
27437.0 0.0000364 27173.37305 27440.20703
27483.0 0.0000364 27180.07031 27445.12891
27500.0 0.0000364 27186.70898 27444.61719
27501.0 0.0000364 27193.28711 27438.11914
27475.0 0.0000364 27199.80664 27426.84180
27448.0 0.0000364 27206.26367 27413.00977
27468.0 0.0000364 27212.65820 27398.94727
27541.0 0.0000363 27218.99023 27386.32422
27563.0 0.0000363 27225.25781 27376.13086
27499.0 0.0000364 27231.46094 27368.77734
27452.0 0.0000364 27237.59961 27364.43945
27432.0 0.0000365 27243.67188 27363.04102
27404.0 0.0000365 27249.67578 27364.47656
27375.0 0.0000365 27255.61328 27368.66016
27371.0 0.0000365 27261.48047 27375.49805
27377.0 0.0000365 27267.27734 27385.01563
27396.0 0.0000365 27273.00195 27397.35742
27405.0 0.0000365 27278.65820 27412.82227
27408.0 0.0000365 27284.24023 27431.82617
27431.0 0.0000365 27289.74805 27454.96680
27461.0 0.0000364 27295.18164 27482.82227
27501.0 0.0000364 27300.53906 27515.83984
27514.0 0.0000363 27305.82031 27554.11914
27544.0 0.0000363 27311.02344 27597.47266
27591.0 0.0000362 27316.14844 27644.32422
27642.0 0.0000362 27321.19531 27692.64844
27719.0 0.0000361 27326.16016 27738.06250
27771.0 0.0000360 27331.04297 27774.99805
27830.0 0.0000359 27335.84570 27795.42383
27855.0 0.0000359 27340.56250 27794.28320
27834.0 0.0000359 27345.19531 27772.22656
27787.0 0.0000360 27349.74414 27735.72656
27718.0 0.0000361 27354.20508 27692.61328
27639.0 0.0000362 27358.57617 27649.32227
27593.0 0.0000362 27362.86133 27610.05664
27556.0 0.0000363 27367.05664 27576.89063
27542.0 0.0000363 27371.16016 27550.48438
27533.0 0.0000363 27375.16992 27530.58594
27523.0 0.0000363 27379.08984 27516.44531
27518.0 0.0000363 27382.91406 27507.16602
27522.0 0.0000363 27386.64258 27501.85742
27529.0 0.0000363 27390.27344 27499.73438
27533.0 0.0000363 27393.80859 27500.23438
27531.0 0.0000363 27397.24414 27502.95313
27535.0 0.0000363 27400.58008 27507.62500
27534.0 0.0000363 27403.81445 27514.15625
27529.0 0.0000363 27406.94727 27522.52930
27539.0 0.0000363 27409.97656 27532.81445
27554.0 0.0000363 27412.90039 27545.12891
27555.0 0.0000363 27415.71680 27559.62305
27575.0 0.0000363 27418.42773 27576.42773
27586.0 0.0000363 27421.03125 27595.67188
27583.0 0.0000363 27423.52539 27617.41016
27595.0 0.0000362 27425.90625 27641.47461
27601.0 0.0000362 27428.17773 27667.51953
27638.0 0.0000362 27430.33398 27694.75781
27698.0 0.0000361 27432.37695 27721.86523
27747.0 0.0000360 27434.30273 27746.90234
27793.0 0.0000360 27436.11328 27767.45703
27812.0 0.0000360 27437.80273 27781.11328
27807.0 0.0000360 27439.37500 27786.20508
27799.0 0.0000360 27440.82422 27782.44922
27764.0 0.0000360 27442.15234 27771.14648
27729.0 0.0000361 27443.35547 27754.67969
27706.0 0.0000361 27444.43359 27735.83594
27678.0 0.0000361 27445.38672 27717.13867
27662.0 0.0000362 27446.20898 27700.53906
27660.0 0.0000362 27446.90430 27687.41016
27658.0 0.0000362 27447.46875 27678.53906
27670.0 0.0000361 27447.90039 27674.21875
27679.0 0.0000361 27448.19922 27674.32031
27691.0 0.0000361 27448.36328 27678.09180
27697.0 0.0000361 27448.39063 27684.03320
27694.0 0.0000361 27448.27930 27689.87891
27697.0 0.0000361 27448.02930 27693.00781
27699.0 0.0000361 27447.63867 27691.76367
27701.0 0.0000361 27447.10547 27686.30469
27704.0 0.0000361 27446.42969 27678.11523
27715.0 . . .
27724.0 . . .
27737.0 . . .
27739.0 . . .
27736.0 . . .
27751.0 . . .
27763.0 . . .
27773.0 . . .
27769.0 . . .
27789.0 . . .
27799.0 . . .
27805.0 . . .
27808.0 . . .
27808.0 . . .
27811.0 . . .
27847.0 . . .
27883.0 . . .
27920.0 . . .
27969.0 . . .
28016.0 . . .
28046.0 . . .
28058.0 . . .
28070.0 . . .
28069.0 . . .
28048.0 . . .
28018.0 . . .
27993.0 . . .
27976.0 . . .
27939.0 . . .
27935.0 . . .
27952.0 . . .
27972.0 . . .
27983.0 . . .
28021.0 . . .
28077.0 . . .
28091.0 . . .
28085.0 . . .
28042.0 . . .
28012.0 . . .
27993.0 . . .
27979.0 . . .
27968.0 . . .
27932.0 . . .
27921.0 . . .
27911.0 . . .
27927.0 . . .
27924.0 . . .
27930.0 . . .
27934.0 . . .
27937.0 . . .
27954.0 . . .
27968.0 . . .
27969.0 . . .
27980.0 . . .
28009.0 . . .
28033.0 . . .
28063.0 . . .
28079.0 . . .
28086.0 . . .
28103.0 . . .
28081.0 . . .
28062.0 . . .
28037.0 . . .
28042.0 . . .
28036.0 . . .
28047.0 . . .
28034.0 . . .
28029.0 . . .
28019.0 . . .
28022.0 . . .
28028.0 . . .
28050.0 . . .
28049.0 . . .
28059.0 . . .
28072.0 . . .
28081.0 . . .
28077.0 . . .
28081.0 . . .
28087.0 . . .
28079.0 . . .
28097.0 . . .
28091.0 . . .
28099.0 . . .
28103.0 . . .
28125.0 . . .
28143.0 . . .
28165.0 . . .
28183.0 . . .
28208.0 . . .
28236.0 . . .
28280.0 . . .
28288.0 . . .
28278.0 . . .
28289.0 . . .
28301.0 . . .
28304.0 . . .
28322.0 . . .
28322.0 . . .
28314.0 . . .
28298.0 . . .
28284.0 . . .
28278.0 . . .
28264.0 . . .
28257.0 . . .
28250.0 . . .
28256.0 . . .
28237.0 . . .
28220.0 . . .
28188.0 . . .
28177.0 . . .
28178.0 . . .
28182.0 . . .
28189.0 . . .
28188.0 . . .
28192.0 . . .
28169.0 . . .
28167.0 . . .
28189.0 . . .
28205.0 . . .
28220.0 . . .
28246.0 . . .
28293.0 . . .
28336.0 . . .
28346.0 . . .
28335.0 . . .
28330.0 . . .
28341.0 . . .
28361.0 . . .
28373.0 . . .
28396.0 . . .
28460.0 . . .
28456.0 . . .
28421.0 . . .
28392.0 . . .
28356.0 . . .
28329.0 . . .
28293.0 . . .
28267.0 . . .
28245.0 . . .
28225.0 . . .
28217.0 . . .
28213.0 . . .
28225.0 . . .
28236.0 . . .
28268.0 . . .
28317.0 . . .
28373.0 . . .
28439.0 . . .
28493.0 . . .
28536.0 . . .
28576.0 . . .
28598.0 . . .
28568.0 . . .
28529.0 . . .
28472.0 . . .
28413.0 . . .
28362.0 . . .
28330.0 . . .
28309.0 . . .
28266.0 . . .
28217.0 . . .
28179.0 . . .
28145.0 . . .
28111.0 . . .
28087.0 . . .
28061.0 . . .
28043.0 . . .
28033.0 . . .
28040.0 . . .
28036.0 . . .
28028.0 . . .
28030.0 . . .
28023.0 . . .
28013.0 . . .
27990.0 . . .
27981.0 . . .
27980.0 . . .
27989.0 . . .
27985.0 . . .
27976.0 . . .
27971.0 . . .
27968.0 . . .
27961.0 . . .
27945.0 . . .
27955.0 . . .
27956.0 . . .
27971.0 . . .
27978.0 . . .
27995.0 . . .
28007.0 . . .
28035.0 . . .
28051.0 . . .
28055.0 . . .
28067.0 . . .
28053.0 . . .
28014.0 . . .
27963.0 . . .
27903.0 . . .
27854.0 . . .
27791.0 . . .
27694.0 . . .
27600.0 . . .
27441.0 . . .
27329.0 . . .
27389.0 . . .
27414.0 . . .
27430.0 . . .
27431.0 . . .
27431.0 . . .
27434.0 . . .
27435.0 . . .
27449.0 . . .
27462.0 . . .
27474.0 . . .
27476.0 . . .
27485.0 . . .
27502.0 . . .
27530.0 . . .
27549.0 . . .
27577.0 . . .
27612.0 . . .
27607.0 . . .
27578.0 . . .
27528.0 . . .
27498.0 . . .
27465.0 . . .
27454.0 . . .
27465.0 . . .
27439.0 . . .
27417.0 . . .
27406.0 . . .
27370.0 . . .
27340.0 . . .
27312.0 . . .
27285.0 . . .
27278.0 . . .
27249.0 . . .
27218.0 . . .
27219.0 . . .
27238.0 . . .
27257.0 . . .
27255.0 . . .
27255.0 . . .
27243.0 . . .
27239.0 . . .
27235.0 . . .
27239.0 . . .
27235.0 . . .
27231.0 . . .
27240.0 . . .
27228.0 . . .
27198.0 . . .
27195.0 . . .
27169.0 . . .
27136.0 . . .
27084.0 . . .
27038.0 . . .
27001.0 . . .
26989.0 . . .
26990.0 . . .
26972.0 . . .
26948.0 . . .
26937.0 . . .
26918.0 . . .
26884.0 . . .
26878.0 . . .
26880.0 . . .
26884.0 . . .
26875.0 . . .
26872.0 . . .
26879.0 . . .
26873.0 . . .
26878.0 . . .
26875.0 . . .
26861.0 . . .
26850.0 . . .
26844.0 . . .
26830.0 . . .
26822.0 . . .
26815.0 . . .
26811.0 . . .
26809.0 . . .
26823.0 . . .
26840.0 . . .
26858.0 . . .
26865.0 . . .
26866.0 . . .
26868.0 . . .
26871.0 . . .
26885.0 . . .
26875.0 . . .
26814.0 . . .
26765.0 . . .
26706.0 . . .
26652.0 . . .
26599.0 . . .
26547.0 . . .
26510.0 . . .
26478.0 . . .
26464.0 . . .
26441.0 . . .
26434.0 . . .
26431.0 . . .
26417.0 . . .
26403.0 . . .
26408.0 . . .
26417.0 . . .
26399.0 . . .
26368.0 . . .
26330.0 . . .
26298.0 . . .
26275.0 . . .
26239.0 . . .
26209.0 . . .
26200.0 . . .
26183.0 . . .
26148.0 . . .
26121.0 . . .
26106.0 . . .
26095.0 . . .
26085.0 . . .
26072.0 . . .
26064.0 . . .
26043.0 . . .
26040.0 . . .
26002.0 . . .
25980.0 . . .
25959.0 . . .
25945.0 . . .
25943.0 . . .
25929.0 . . .
25912.0 . . .
25913.0 . . .
25907.0 . . .
25878.0 . . .
25866.0 . . .
25858.0 . . .
25850.0 . . .
25831.0 . . .
25814.0 . . .
25784.0 . . .
25753.0 . . .
25721.0 . . .
25692.0 . . .
25677.0 . . .
25671.0 . . .
25651.0 . . .
25618.0 . . .
25578.0 . . .
25526.0 . . .
25495.0 . . .
25450.0 . . .
25433.0 . . .
25411.0 . . .
25383.0 . . .
25362.0 . . .
25356.0 . . .
25341.0 . . .
25302.0 . . .
25285.0 . . .
25262.0 . . .
25239.0 . . .
25218.0 . . .
25193.0 . . .
25179.0 . . .
25145.0 . . .
25119.0 . . .
25100.0 . . .
25090.0 . . .
25078.0 . . .
25068.0 . . .
25040.0 . . .
25007.0 . . .
24981.0 . . .
24951.0 . . .
24926.0 . . .
24921.0 . . .
24885.0 . . .
24849.0 . . .
24838.0 . . .
24818.0 . . .
24796.0 . . .
24781.0 . . .
24747.0 . . .
24730.0 . . .
24721.0 . . .
24682.0 . . .
24657.0 . . .
24638.0 . . .
24622.0 . . .
24600.0 . . .
24578.0 . . .
24578.0 . . .
24580.0 . . .
24587.0 . . .
24601.0 . . .
24610.0 . . .
24612.0 . . .
24607.0 . . .
24578.0 . . .
24507.0 . . .
24448.0 . . .
24391.0 . . .
24333.0 . . .
24289.0 . . .
24230.0 . . .
24180.0 . . .
24154.0 . . .
24140.0 . . .
24102.0 . . .
24073.0 . . .
24032.0 . . .
24008.0 . . .
23965.0 . . .
23951.0 . . .
23931.0 . . .
23923.0 . . .
23911.0 . . .
23902.0 . . .
23918.0 . . .
23896.0 . . .
23855.0 . . .
23806.0 . . .
23803.0 . . .
23790.0 . . .
23756.0 . . .
23753.0 . . .
23719.0 . . .
23689.0 . . .
23675.0 . . .
23644.0 . . .
23629.0 . . .
23600.0 . . .
23568.0 . . .
23558.0 . . .
23543.0 . . .
23535.0 . . .
23530.0 . . .
23493.0 . . .
23453.0 . . .
23449.0 . . .
23436.0 . . .
23442.0 . . .
23429.0 . . .
23398.0 . . .
23381.0 . . .
23353.0 . . .
23335.0 . . .
23318.0 . . .
23300.0 . . .
23269.0 . . .
23231.0 . . .
23220.0 . . .
23210.0 . . .
23161.0 . . .
23140.0 . . .
23130.0 . . .
23121.0 . . .
23105.0 . . .
23076.0 . . .
23042.0 . . .
23043.0 . . .
23018.0 . . .
23004.0 . . .
22995.0 . . .
22949.0 . . .
22884.0 . . .
22826.0 . . .
22803.0 . . .
22787.0 . . .
22738.0 . . .
22697.0 . . .
22656.0 . . .
22612.0 . . .
22599.0 . . .
22556.0 . . .
22537.0 . . .
22510.0 . . .
22504.0 . . .
22519.0 . . .
22470.0 . . .
22431.0 . . .
22407.0 . . .
22382.0 . . .
22433.0 . . .
22525.0 . . .
22619.0 . . .
22557.0 . . .
22377.0 . . .
22275.0 . . .
22218.0 . . .
22176.0 . . .
22149.0 . . .
22109.0 . . .
22101.0 . . .
22094.0 . . .
22028.0 . . .
21991.0 . . .
21955.0 . . .
21920.0 . . .
21901.0 . . .
21857.0 . . .
21813.0 . . .
21782.0 . . .
21766.0 . . .
21758.0 . . .
21713.0 . . .
21690.0 . . .
21674.0 . . .
21661.0 . . .
21658.0 . . .
21596.0 . . .
21554.0 . . .
21513.0 . . .
21496.0 . . .
21481.0 . . .
21398.0 . . .
21354.0 . . .
21342.0 . . .
21354.0 . . .
21348.0 . . .
21280.0 . . .
21234.0 . . .
21207.0 . . .
21202.0 . . .
21191.0 . . .
21133.0 . . .
21107.0 . . .
21085.0 . . .
21063.0 . . .
21022.0 . . .
20974.0 . . .
20958.0 . . .
20923.0 . . .
20901.0 . . .
20921.0 . . .
20890.0 . . .
20860.0 . . .
20820.0 . . .
20790.0 . . .
20764.0 . . .
20719.0 . . .
20712.0 . . .
20696.0 . . .
20666.0 . . .
20635.0 . . .
20566.0 . . .
20547.0 . . .
20512.0 . . .
20511.0 . . .
20461.0 . . .
20413.0 . . .
20385.0 . . .
20347.0 . . .
20333.0 . . .
20295.0 . . .
20238.0 . . .
20222.0 . . .
20205.0 . . .
20217.0 . . .
20197.0 . . .
20165.0 . . .
20141.0 . . .
20110.0 . . .
20108.0 . . .
20056.0 . . .
20034.0 . . .
20014.0 . . .
20010.0 . . .
20013.0 . . .
19935.0 . . .
19872.0 . . .
19828.0 . . .
19821.0 . . .
19794.0 . . .
19726.0 . . .
19683.0 . . .
19660.0 . . .
19647.0 . . .
19597.0 . . .
19563.0 . . .
19570.0 . . .
19548.0 . . .
19533.0 . . .
19489.0 . . .
19468.0 . . .
19450.0 . . .
19414.0 . . .
19389.0 . . .
19317.0 . . .
19258.0 . . .
19225.0 . . .
19238.0 . . .
19199.0 . . .
19100.0 . . .
19072.0 . . .
19066.0 . . .
19082.0 . . .
19029.0 . . .
18976.0 . . .
18921.0 . . .
18881.0 . . .
18892.0 . . .
18852.0 . . .
18829.0 . . .
18811.0 . . .
18808.0 . . .
18759.0 . . .
18684.0 . . .
18675.0 . . .
18636.0 . . .
18639.0 . . .
18588.0 . . .
18562.0 . . .
18529.0 . . .
18529.0 . . .
18508.0 . . .
18412.0 . . .
18397.0 . . .
18399.0 . . .
18428.0 . . .
18391.0 . . .
18348.0 . . .
18313.0 . . .
18314.0 . . .
18293.0 . . .
18203.0 . . .
18186.0 . . .
18181.0 . . .
18203.0 . . .
18131.0 . . .
18035.0 . . .
18015.0 . . .
18004.0 . . .
18017.0 . . .
17908.0 . . .
17866.0 . . .
17833.0 . . .
17831.0 . . .
17800.0 . . .
17767.0 . . .
17758.0 . . .
17744.0 . . .
17726.0 . . .
17627.0 . . .
17608.0 . . .
17577.0 . . .
17582.0 . . .
17514.0 . . .
17452.0 . . .
17417.0 . . .
17422.0 . . .
17419.0 . . .
17356.0 . . .
17337.0 . . .
17306.0 . . .
17322.0 . . .
17254.0 . . .
17186.0 . . .
17147.0 . . .
17178.0 . . .
17157.0 . . .
17049.0 . . .
17023.0 . . .
17003.0 . . .
17013.0 . . .
16926.0 . . .
16898.0 . . .
16897.0 . . .
16903.0 . . .
16828.0 . . .
16765.0 . . .
16758.0 . . .
16771.0 . . .
16765.0 . . .
16658.0 . . .
16608.0 . . .
16601.0 . . .
16627.0 . . .
16550.0 . . .
16495.0 . . .
16463.0 . . .
16463.0 . . .
16416.0 . . .
16338.0 . . .
16323.0 . . .
16329.0 . . .
16332.0 . . .
16257.0 . . .
16247.0 . . .
16243.0 . . .
16236.0 . . .
16127.0 . . .
16072.0 . . .
16078.0 . . .
16112.0 . . .
16070.0 . . .
15978.0 . . .
15930.0 . . .
15920.0 . . .
15892.0 . . .
15820.0 . . .
15790.0 . . .
15788.0 . . .
15798.0 . . .
15694.0 . . .
15607.0 . . .
15613.0 . . .
15665.0 . . .
15581.0 . . .
15488.0 . . .
15484.0 . . .
15526.0 . . .
15464.0 . . .
15335.0 . . .
15331.0 . . .
15396.0 . . .
15371.0 . . .
15237.0 . . .
15214.0 . . .
15209.0 . . .
15152.0 . . .
15060.0 . . .
15052.0 . . .
15075.0 . . .
15092.0 . . .
14978.0 . . .
14918.0 . . .
14936.0 . . .
14946.0 . . .
14815.0 . . .
14763.0 . . .
14776.0 . . .
14803.0 . . .
14720.0 . . .
14631.0 . . .
14620.0 . . .
14616.0 . . .
14549.0 . . .
14440.0 . . .
14430.0 . . .
14428.0 . . .
14374.0 . . .
14304.0 . . .
14255.0 . . .
14257.0 . . .
14247.0 . . .
14149.0 . . .
14140.0 . . .
14140.0 . . .
14134.0 . . .
14024.0 . . .
13964.0 . . .
13973.0 . . .
13967.0 . . .
13858.0 . . .
13805.0 . . .
13814.0 . . .
13813.0 . . .
13724.0 . . .
13665.0 . . .
13665.0 . . .
13665.0 . . .
13585.0 . . .
13533.0 . . .
13519.0 . . .
13540.0 . . .
13441.0 . . .
13366.0 . . .
13341.0 . . .
13347.0 . . .
13259.0 . . .
13174.0 . . .
13184.0 . . .
13234.0 . . .
13131.0 . . .
13051.0 . . .
13021.0 . . .
13057.0 . . .
12989.0 . . .
12916.0 . . .
12890.0 . . .
12890.0 . . .
12781.0 . . .
12670.0 . . .
12658.0 . . .
12675.0 . . .
12602.0 . . .
12509.0 . . .
12463.0 . . .
12496.0 . . .
12434.0 . . .
12345.0 . . .
12305.0 . . .
12331.0 . . .
12264.0 . . .
12170.0 . . .
12135.0 . . .
12159.0 . . .
12083.0 . . .
12006.0 . . .
11968.0 . . .
11969.0 . . .
11851.0 . . .
11825.0 . . .
11847.0 . . .
11853.0 . . .
11710.0 . . .
11628.0 . . .
11592.0 . . .
11584.0 . . .
11464.0 . . .
11457.0 . . .
11450.0 . . .
11395.0 . . .
11228.0 . . .
11174.0 . . .
11180.0 . . .
11180.0 . . .
11054.0 . . .
11013.0 . . .
11016.0 . . .
10952.0 . . .
10797.0 . . .
10759.0 . . .
10808.0 . . .
10724.0 . . .
10621.0 . . .
10584.0 . . .
10615.0 . . .
10483.0 . . .
10386.0 . . .
10358.0 . . .
10357.0 . . .
10224.0 . . .
10191.0 . . .
10196.0 . . .
10202.0 . . .
10060.0 . . .
10073.0 . . .
10123.0 . . .
10133.0 . . .
10035.0 . . .
10034.0 . . .
10126.0 . . .
10057.0 . . .
9965.0 . . .
9957.0 . . .
10005.0 . . .
9891.0 . . .
9792.0 . . .
9799.0 . . .
9902.0 . . .
9750.0 . . .
9687.0 . . .
9699.0 . . .
9698.0 . . .
9587.0 . . .
9585.0 . . .
9629.0 . . .
9539.0 . . .
9433.0 . . .
9446.0 . . .
9524.0 . . .
9405.0 . . .
9353.0 . . .
9400.0 . . .
9458.0 . . .
9263.0 . . .
9205.0 . . .
9239.0 . . .
9253.0 . . .
9112.0 . . .
9080.0 . . .
9190.0 . . .
9127.0 . . .
9011.0 . . .
9060.0 . . .
9107.0 . . .
8937.0 . . .
8919.0 . . .
8986.0 . . .
8993.0 . . .
8803.0 . . .
8806.0 . . .
8893.0 . . .
8767.0 . . .
8697.0 . . .
8760.0 . . .
8781.0 . . .
8557.0 . . .
8575.0 . . .
8683.0 . . .
8626.0 . . .
8457.0 . . .
8488.0 . . .
8550.0 . . .
8395.0 . . .
8375.0 . . .
8455.0 . . .
8416.0 . . .
8260.0 . . .
8310.0 . . .
8365.0 . . .
8230.0 . . .
8138.0 . . .
8174.0 . . .
8220.0 . . .
8091.0 . . .
8054.0 . . .
8113.0 . . .
8097.0 . . .
8002.0 . . .
8000.0 . . .
8015.0 . . .
7870.0 . . .
7810.0 . . .
7889.0 . . .
7886.0 . . .
7774.0 . . .
7802.0 . . .
7801.0 . . .
7783.0 . . .
7720.0 . . .
7706.0 . . .
7709.0 . . .
7612.0 . . .
7611.0 . . .
7608.0 . . .
7591.0 . . .
7470.0 . . .
7469.0 . . .
7487.0 . . .
7428.0 . . .
7414.0 . . .
7370.0 . . .
7350.0 . . .
7304.0 . . .
7299.0 . . .
7277.0 . . .
7237.0 . . .
7188.0 . . .
7166.0 . . .
7098.0 . . .
7027.0 . . .
7028.0 . . .
7017.0 . . .
7041.0 . . .
6965.0 . . .
6923.0 . . .
6930.0 . . .
6950.0 . . .
6919.0 . . .
6814.0 . . .
6808.0 . . .
6763.0 . . .
6728.0 . . .
6707.0 . . .
6663.0 . . .
6631.0 . . .
6638.0 . . .
6617.0 . . .
6620.0 . . .
6522.0 . . .
6461.0 . . .
6421.0 . . .
6403.0 . . .
6433.0 . . .
6384.0 . . .
6367.0 . . .
6357.0 . . .
6277.0 . . .
6244.0 . . .
6248.0 . . .
6221.0 . . .
6200.0 . . .
6158.0 . . .
6103.0 . . .
6043.0 . . .
5971.0 . . .
6016.0 . . .
5965.0 . . .
5956.0 . . .
5963.0 . . .
5821.0 . . .
5770.0 . . .
5816.0 . . .
5737.0 . . .
5694.0 . . .
5606.0 . . .
5562.0 . . .
5538.0 . . .
5461.0 . . .
5495.0 . . .
5485.0 . . .
5392.0 . . .
5374.0 . . .
5371.0 . . .
5286.0 . . .
5249.0 . . .
5026.0 . . .
5042.0 . . .
5104.0 . . .
4980.0 . . .
4971.0 . . .
4953.0 . . .
4812.0 . . .
4849.0 . . .
4730.0 . . .
4561.0 . . .
4506.0 . . .
4321.0 . . .
4274.0 . . .
4124.0 . . .
3799.0 . . .
3792.0 . . .
3477.0 . . .
3124.0 . . .
2972.0 . . .
2538.0 . . .
2077.0 . . .
2113.0 . . .
4453.0 . . .
5425.0 . . .
loop_
_refln_index_h
_refln_index_k
_refln_index_l
_refln_observed_status
_refln_F_squared_meas
_refln_F_squared_calc
_refln_phase_calc
_refln_d_spacing
_gsas_i100_meas
1 1 0 o 833.314 12.495 180.00 4.76266 2.47
1 1 1 o 1224.161 835.175 -154.82 4.55509 8.84
0 0 4 o 8810.874 7686.686 -56.46 3.89983 5.51
1 1 2 o 7141.643 6816.075 -38.57 4.06477 36.25
0 2 0 o 9420.605 8900.515 0.00 3.88690 12.55
0 2 1 o 134.122 110.613 84.76 3.77158 0.56
1 1 3 o 208.639 87.739 -146.70 3.51209 1.37
0 2 2 o 1090.078 699.261 146.99 3.47885 2.54
1 1 4 o 5916.636 5401.290 -6.83 3.01734 23.44
0 2 3 o 8497.906 7606.236 -7.39 3.11323 12.19
2 0 0 o 150563.48 148608.08 0.00 3.01301 100.00
2 0 2 o 197.512 119.214 -107.75 2.81059 0.90
0 0 6 o 261.364 191.178 -139.45 2.59988 0.07
0 2 4 o 1138.908 933.397 -163.55 2.75301 1.32
1 1 5 o 3972.707 3132.032 -7.40 2.60977 6.51
0 2 5 o 1028.270 919.608 -153.85 2.43304 0.89
2 0 4 o 5608.282 5288.135 -55.02 2.38429 5.14
1 1 6 o 19589.553 19589.787 32.27 2.28201 19.60
2 2 0 o 6348.284 6111.123 0.00 2.38133 4.71
1 3 0 o 6815.282 6548.904 180.00 2.38051 5.46
2 2 1 o 75.181 70.920 96.57 2.35406 0.13
1 3 1 o 3714.835 3493.521 -12.95 2.35326 6.50
2 2 2 o 478.069 479.645 143.12 2.27755 0.86
0 2 6 o 3418.384 2379.355 -136.61 2.16102 2.45
1 3 2 o 16646.105 16723.361 178.27 2.27682 29.82
2 2 3 o 6820.346 5299.568 -7.00 2.16508 9.41
1 3 3 o 2596.292 2062.535 99.54 2.16446 4.65
1 1 7 o 3887.074 1291.977 16.37 2.01844 3.99
0 0 8 o 26442.479 21385.531 -12.71 1.94991 4.15
2 0 6 o 224.322 179.769 -126.19 1.96838 2.07
2 2 4 o 2471.885 761.739 -161.78 2.03239 3.14
1 3 4 o 1028.516 330.540 87.38 2.03187 1.61
0 2 7 o 8297.059 7790.475 -12.86 1.93327 5.32
2 2 5 o 604.157 609.939 -152.60 1.89293 0.93
1 1 8 o 1107.173 1036.808 -119.86 1.80453 1.23
1 3 5 o 2957.202 3021.645 -46.31 1.89251 2.48
3 1 0 o 0.000 42.296 180.00 1.94480 0.00
3 1 1 o 0.000 143.391 -142.72 1.92986 0.00
0 4 1 o 1484.246 1617.100 133.95 1.92854 1.27
3 1 2 o 3479.864 3551.630 -35.93 1.88702 0.46
0 4 0 o 3058.014 3187.762 180.00 1.94345 1.02
0 4 2 o 4581.940 4683.740 117.20 1.88579 4.76
2 2 6 o 1963.676 1942.912 -136.29 1.75605 3.23
3 1 3 o 36.227 51.363 -150.17 1.82156 0.08
0 2 8 o 537.368 527.380 -80.71 1.74289 0.31
0 4 3 o 447.611 652.832 21.14 1.82045 0.39
1 3 6 o 2963.759 2945.734 99.65 1.75571 0.36
3 1 4 o 3277.973 3168.950 -6.13 1.74039 2.68
0 4 4 o 16534.070 15720.902 -171.15 1.73943 9.65
2 0 8 o 20394.109 17493.102 -13.04 1.63701 10.93
1 1 9 o 2741.533 2478.123 -26.04 1.62875 3.02
2 2 7 o 6966.997 6531.591 -12.98 1.62713 9.72
1 3 7 o 0.000 566.902 104.63 1.62686 0.00
0 0 10 o 2215.694 1842.354 67.20 1.55993 0.22
3 1 5 o 0.000 1982.671 -8.35 1.65040 0.00
0 4 5 o 641.366 405.974 -107.65 1.64958 0.27
0 2 9 o 897.389 695.936 28.13 1.58300 0.45
3 1 6 o 13739.069 12117.471 30.42 1.55731 9.05
2 4 1 o 0.000 1291.125 134.67 1.62430 0.00
2 4 2 o 4152.084 3805.152 118.04 1.59851 5.77
1 1 10 o 6355.983 5912.548 -62.12 1.48244 6.53
2 2 8 o 520.317 456.835 -74.89 1.50867 0.52
1 3 8 o 2150.161 1900.232 -172.95 1.50846 0.12
2 4 0 o 0.000 2715.009 180.00 1.63318 0.00
0 4 6 o 3348.701 3005.331 -146.44 1.55662 1.21
2 4 3 o 574.222 534.379 21.09 1.55813 0.86
3 3 1 o 2980.055 2198.758 -11.43 1.57940 2.15
0 2 10 o 2467.764 1164.128 87.46 1.44769 1.06
3 3 2 o 10957.364 10332.681 -179.62 1.55566 8.98
3 3 0 o 5426.070 4663.597 180.00 1.58755 1.79
3 1 7 o 1041.766 770.194 13.90 1.46528 1.67
2 4 4 o 14665.395 13638.240 -172.32 1.50642 8.97
3 3 3 o 1590.644 1193.354 103.31 1.51836 1.28
0 4 7 o 588.985 433.401 8.76 1.46470 0.19
2 2 9 o 770.440 584.516 26.58 1.40136 0.49
3 3 4 o 229.041 189.449 88.72 1.47039 0.16
1 1 11 o 1748.945 1637.909 -52.54 1.35915 1.60
2 0 10 o 0.000 1594.219 67.03 1.38528 0.00
4 0 2 o 34.799 34.186 -5.45 1.47917 0.14
1 5 2 o 7293.922 6979.241 -162.22 1.47818 3.55
1 5 1 o 102.570 89.668 -153.75 1.49850 0.09
1 3 9 o 4411.738 3341.822 -22.18 1.40119 1.75
2 4 5 o 676.345 307.257 -111.91 1.44692 0.29
4 0 0 o 62806.92 61399.64 0.00 1.50650 10.47
1 5 0 o 4151.823 4003.714 180.00 1.50546 2.36
3 3 5 o 2567.450 2147.314 -41.12 1.41491 1.47
1 5 3 o 858.751 380.648 109.28 1.44607 0.24
3 1 8 o 852.114 661.012 -126.51 1.37699 1.52
0 4 8 o 6606.382 5140.664 175.61 1.37651 1.93
2 4 6 o 3754.988 2600.238 -146.38 1.38296 5.02
4 0 4 o 3251.160 2950.409 -46.70 1.40529 3.74
1 5 4 o 2951.542 2621.173 20.07 1.40445 0.96
0 2 11 o 14247.453 14286.659 -28.94 1.33222 5.16
3 3 6 o 2423.781 2305.400 104.63 1.35492 1.38
4 2 0 o 0.000 3192.963 0.00 1.40469 0.00
4 2 2 o 0.000 363.103 132.70 1.38245 0.00
4 2 1 o 0.000 64.296 134.19 1.39903 0.00
4 2 3 o 3213.602 3109.079 -7.16 1.35608 1.97
1 5 5 o 1747.728 1680.253 171.60 1.35586 0.58
4 2 4 o 537.195 526.091 -167.32 1.32157 1.17
