#------------------------------------------------------------------------------
#$Date: 2019-11-25 06:38:59 +0200 (Mon, 25 Nov 2019) $
#$Revision: 240253 $
#$URL: file:///home/coder/svn-repositories/cod/cif/4/12/95/4129556.cif $
#------------------------------------------------------------------------------
#
# This file is available in the Crystallography Open Database (COD),
# http://www.crystallography.net/
#
# All data on this site have been placed in the public domain by the
# contributors.
#
data_4129556
loop_
_publ_author_name
'Tian, Di'
'Winter, Stephen M.'
'Mailman, Aaron'
'Wong, Joanne W. L.'
'Yong, Wenjun'
'Yamaguchi, Hiroshi'
'Jia, Yating'
'Tse, John S.'
'Desgreniers, Serge'
'Secco, Richard A.'
'Julian, Stephen R.'
'Jin, Changqing'
'Mito, Masaki'
'Ohishi, Yasuo'
'Oakley, Richard T.'
_publ_section_title
;
 The metallic state in neutral radical conductors: dimensionality,
 pressure and multiple orbital effects.
;
_journal_issue                   44
_journal_name_full               'Journal of the American Chemical Society'
_journal_page_first              14136
_journal_page_last               14148
_journal_paper_doi               10.1021/jacs.5b08254
_journal_volume                  137
_journal_year                    2015
_chemical_formula_moiety         'C6 F N2 O S4'
_chemical_formula_sum            'C6 F N2 O S4'
_chemical_formula_weight         263.32
_chemical_name_common            FBBO
_space_group_IT_number           36
_space_group_name_Hall           'C 2c -2'
_space_group_name_H-M_alt        'C m c 21'
_symmetry_cell_setting           orthorhombic
_symmetry_space_group_name_H-M   'C m c 21'
_audit_creation_date             2015-03-11T14:04
_audit_creation_method           'from EXP file using GSAS2CIF'
_audit_update_record
' 2015-03-11T14:04  Initial CIF as created by GSAS2CIF'
_cell_angle_alpha                90.0
_cell_angle_beta                 90.0
_cell_angle_gamma                90.0
_cell_formula_units_Z            4
_cell_length_a                   5.90617(8)
_cell_length_b                   7.7074(8)
_cell_length_c                   15.4587(29)
_cell_measurement_temperature    293(2)
_cell_volume                     703.70(15)
_computing_structure_refinement  GSAS
_diffrn_ambient_temperature      293(2)
_diffrn_measurement_device_type  'SPring-8 BL10XU'
_diffrn_radiation_polarisn_ratio 0.95
_diffrn_radiation_probe          x-ray
_diffrn_radiation_wavelength     0.41244
_diffrn_source                   synchrotron
_exptl_absorpt_correction_T_max  1.00000
_exptl_absorpt_correction_T_min  1.00000
_exptl_absorpt_process_details
;   GSAS Absorption/surface roughness correction: function number 0
 No correction is applied.
;
_pd_block_id                     'SPring-8 PXRD for 2 (R = F) at 2.9 GPa'
_pd_calc_method                  'Rietveld Refinement'
_pd_instr_location               ' ?'
_pd_meas_2theta_range_inc        0.01
_pd_meas_2theta_range_max        28.23
_pd_meas_2theta_range_min        1.0
_pd_meas_number_of_points        2724
_pd_phase_name
'from C:/GSAS/MyWork/007/FBBO_RT_007b_flat_shift.cif'
_pd_proc_2theta_range_inc        0.01
_pd_proc_2theta_range_max        28.22844
_pd_proc_2theta_range_min        0.99844
_pd_proc_info_datetime           2015-03-11T14:04:56
_pd_proc_info_excluded_regions   ' ?'
_pd_proc_ls_background_function
;   GSAS Background function number 1 with  6 terms.
 Shifted Chebyshev function of 1st kind
      1:    19657.4     2:    9607.16     3:   -1084.61     4:   -147.347    
      5:   -1.67573     6:    20.7941    
;
_pd_proc_ls_peak_cutoff          0.00100
_pd_proc_ls_profile_function
;
 CW Profile function number 2 with  18 terms
 Profile coefficients for Simpson's rule integration of pseudovoigt function
 C.J. Howard (1982). J. Appl. Cryst.,15,615-620.
 P. Thompson, D.E. Cox & J.B. Hastings (1987). J. Appl. Cryst.,20,79-83.
 #1(GU)   =  672.225 #2(GV)   =  -24.837 #3(GW)   =    1.986
 #4(LX)   =    0.000 #5(LY)   =    3.299 #6(trns) =   -1.612
 #7(asym) =   0.0394 #8(shft) =  -0.1105 #9(GP)   =    0.000
 #10(stec)=    70.62 #11(ptec)=     2.14 #12(sfec)=     0.00
 #13(L11) =    0.001 #14(L22) =    0.005 #15(L33) =    0.000
 #16(L12) =    0.008 #17(L13) =   -0.002 #18(L23) =   -0.005
 Peak tails are ignored  where the intensity is below 0.0010 times the peak
   Aniso. broadening axis   0.0   0.0   1.0
;
_pd_proc_ls_prof_R_factor        0.0055
_pd_proc_ls_prof_wR_expected     0.0070
_pd_proc_ls_prof_wR_factor       0.0087
_pd_proc_number_of_points        2724
_pd_spec_mounting                ' ?'
_refine_ls_goodness_of_fit_all   1.27
_refine_ls_matrix_type           full
_refine_ls_number_parameters     55
_refine_ls_number_restraints     0
_refine_ls_R_Fsqd_factor         0.15869
_refine_ls_shift/su_max          0.02
_refine_ls_shift/su_mean         0.01
_reflns_d_resolution_high        1.320
_reflns_d_resolution_low         4.688
_reflns_limit_h_max              4
_reflns_limit_h_min              0
_reflns_limit_k_max              6
_reflns_limit_k_min              0
_reflns_limit_l_max              12
_reflns_limit_l_min              0
_reflns_number_total             99
_cod_data_source_file            ja5b08254_si_003.cif
_cod_data_source_block           2(R=F)_at_2.9GPa
_cod_depositor_comments
;
The following automatic conversions were performed:

data item '_geom_angle_publ_flag' value 'N' was changed to 'n' in
accordance with the
/home/saulius/struct/COD-crude-data/automatic-downloads/DataCite-retrospective/ACS/depositions/lib/dictionaries/cif_core.dic
dictionary named 'cif_core.dic' version 2.4.2 last updated on
2011-04-26 (24 times).

data item '_geom_bond_publ_flag' value 'N' was changed to 'n' in
accordance with the
/home/saulius/struct/COD-crude-data/automatic-downloads/DataCite-retrospective/ACS/depositions/lib/dictionaries/cif_core.dic
dictionary named 'cif_core.dic' version 2.4.2 last updated on
2011-04-26 (40 times).

Automatic conversion script
Id: cif_fix_values 6909 2019-04-08 15:41:33Z antanas 
;
_cod_original_cell_volume        703.70(11)
_cod_database_code               4129556
_gsas_exptl_extinct_corr_t_min   1.00000
_gsas_exptl_extinct_corr_t_max   1.00000
loop_
_symmetry_equiv_pos_site_id
_symmetry_equiv_pos_as_xyz
1 +x,+y,+z
2 -x,+y,+z
3 +x,-y,+z+1/2
4 -x,-y,+z+1/2
101 +x+1/2,+y+1/2,+z
102 -x+1/2,+y+1/2,+z
103 +x+1/2,-y+1/2,+z+1/2
104 -x+1/2,-y+1/2,+z+1/2
loop_
_atom_site_type_symbol
_atom_site_label
_atom_site_fract_x
_atom_site_fract_y
_atom_site_fract_z
_atom_site_occupancy
_atom_site_thermal_displace_type
_atom_site_U_iso_or_equiv
_atom_site_symmetry_multiplicity
S S1 0.0 1.13711 0.92426 1.0 Uiso 0.00032 4
S S4 0.0 0.49159 0.56589 1.0 Uiso 0.00032 4
F F1 0.0 0.51591 0.87527 1.0 Uiso 0.00032 4
O O1 0.0 1.04511 0.64153 1.0 Uiso 0.00032 4
N N1 0.0 1.11603 0.81938 1.0 Uiso 0.00032 4
N N2 0.0 0.69848 0.58584 1.0 Uiso 0.00032 4
C C6 0.0 0.95745 0.78921 1.0 Uiso 0.00032 4
C C3 0.0 0.60806 0.73177 1.0 Uiso 0.00032 4
C C4 0.0 0.64858 0.81871 1.0 Uiso 0.00032 4
C C2 0.0 0.74058 0.66898 1.0 Uiso 0.00032 4
C C5 0.0 0.81621 0.849 1.0 Uiso 0.00032 4
S S2 0.0 0.87301 0.95783 1.0 Uiso 0.00032 4
S S3 0.0 0.39644 0.69331 1.0 Uiso 0.00032 4
C C1 0.0 0.92821 0.69387 1.0 Uiso 0.00032 4
loop_
_atom_type_symbol
_atom_type_number_in_cell
_atom_type_scat_dispersion_real
_atom_type_scat_dispersion_imag
_atom_type_scat_Cromer_Mann_a1
_atom_type_scat_Cromer_Mann_a2
_atom_type_scat_Cromer_Mann_a3
_atom_type_scat_Cromer_Mann_a4
_atom_type_scat_Cromer_Mann_b1
_atom_type_scat_Cromer_Mann_b2
_atom_type_scat_Cromer_Mann_b3
_atom_type_scat_Cromer_Mann_b4
_atom_type_scat_Cromer_Mann_c
_atom_type_scat_source
S 16.0 0.000 0.000 6.90530 1.46790 5.20340 22.2151 1.43790 0.25360 1.58630
56.1720 0.86690 International_Tables_Vol_C
F 4.0 0.000 0.000 3.53920 10.2825 2.64120 4.29440 1.51700 0.26150 1.02430
26.1476 0.27760 International_Tables_Vol_C
O 4.0 0.000 0.000 3.04850 13.2771 2.28680 5.70110 1.54630 0.32390 0.86700
32.9089 0.25080 International_Tables_Vol_C
N 8.0 0.000 0.000 12.2126 0.00570 3.13220 9.89330 2.01250 28.9975 1.16630
0.58260 -11.529 International_Tables_Vol_C
C 24.0 0.000 0.000 2.31000 20.8439 1.02000 10.2075 1.58860 0.56870 0.86500
51.6512 0.21560 International_Tables_Vol_C
loop_
_geom_angle_atom_site_label_1
_geom_angle_atom_site_label_2
_geom_angle_atom_site_label_3
_geom_angle
_geom_angle_site_symmetry_1
_geom_angle_site_symmetry_3
_geom_angle_publ_flag
N1 S1 S2 98.580(4) 1_555 1_555 n
N2 S4 S3 99.475(6) 1_555 1_555 n
S1 N1 C6 116.6087(29) 1_555 1_555 n
S4 N2 C2 115.1154(6) 1_555 1_555 n
N1 C6 C5 118.781(10) 1_555 1_555 n
N1 C6 C1 119.5799(23) 1_555 1_555 n
C5 C6 C1 121.639(8) 1_555 1_555 n
C4 C3 C2 120.459(9) 1_555 1_555 n
C4 C3 S3 123.1094(12) 1_555 1_555 n
C2 C3 S3 116.431(10) 1_555 1_555 n
F1 C4 C3 117.451(9) 1_555 1_555 n
F1 C4 C5 119.546(10) 1_555 1_555 n
C3 C4 C5 123.0033(12) 1_555 1_555 n
N2 C2 C3 119.372(9) 1_555 1_555 n
N2 C2 C1 119.06850(10) 1_555 1_555 n
C3 C2 C1 121.560(9) 1_555 1_555 n
C6 C5 C4 119.745(10) 1_555 1_555 n
C6 C5 S2 115.747(9) 1_555 1_555 n
C4 C5 S2 124.5074(9) 1_555 1_555 n
S1 S2 C5 90.283(6) 1_555 1_555 n
S4 S3 C3 89.607(8) 1_555 1_555 n
O1 C1 C6 123.231(8) 1_555 1_555 n
O1 C1 C2 123.176(9) 1_555 1_555 n
C6 C1 C2 113.5930(12) 1_555 1_555 n
loop_
_geom_bond_atom_site_label_1
_geom_bond_atom_site_label_2
_geom_bond_distance
_geom_bond_site_symmetry_2
_geom_bond_publ_flag
S1 N1 1.62943(30) 1_555 n
S1 C6 2.50518(34) 1_555 n
S1 S2 2.10063(21) 1_555 n
S4 N2 1.62413(16) 1_555 n
S4 C2 2.49449(25) 1_555 n
S4 S3 2.10184(35) 1_555 n
F1 C3 2.3293(4) 1_555 n
F1 C4 1.34539(13) 1_555 n
F1 C5 2.34989(24) 1_555 n
O1 C1 1.21097(12) 1_555 n
N1 S1 1.62943(30) 1_555 n
N1 C6 1.30820(12) 1_555 n
N2 S4 1.62413(16) 1_555 n
N2 C2 1.32556(23) 1_555 n
C6 S1 2.50518(34) 1_555 n
C6 N1 1.30820(12) 1_555 n
C6 C5 1.42805(14) 1_555 n
C6 C1 1.49096(27) 1_555 n
C3 F1 2.3293(4) 1_555 n
C3 C4 1.37979(25) 1_555 n
C3 C2 1.40904(15) 1_555 n
C3 S3 1.73602(16) 1_555 n
C4 F1 1.34539(13) 1_555 n
C4 C3 1.37979(25) 1_555 n
C4 C5 1.37422(13) 1_555 n
C2 S4 2.49449(25) 1_555 n
C2 N2 1.32556(23) 1_555 n
C2 C3 1.40904(15) 1_555 n
C2 C1 1.49645(15) 1_555 n
C5 F1 2.34989(24) 1_555 n
C5 C6 1.42805(14) 1_555 n
C5 C4 1.37422(13) 1_555 n
C5 S2 1.73840(31) 1_555 n
S2 S1 2.10063(21) 1_555 n
S2 C5 1.73840(31) 1_555 n
S3 S4 2.10184(35) 1_555 n
S3 C3 1.73602(16) 1_555 n
C1 O1 1.21097(12) 1_555 n
C1 C6 1.49096(27) 1_555 n
C1 C2 1.49645(15) 1_555 n
loop_
_pd_meas_counts_total
_pd_proc_ls_weight
_pd_proc_intensity_bkg_calc
_pd_calc_intensity_total
0.0 0.0 2696.32715 .
0.0 0.0 2721.02417 .
0.0 0.0 2745.68994 .
0.0 0.0 2770.32251 .
0.0 0.0 2794.92529 .
0.0 0.0 2819.49683 .
0.0 0.0 2844.03687 .
0.0 0.0 2868.54614 .
0.0 0.0 2893.02441 .
0.0 0.0 2917.47168 .
0.0 0.0 2941.88818 .
0.0 0.0 2966.27222 .
0.0 0.0 2990.62769 .
0.0 0.0 3014.95239 .
0.0 0.0 3039.24658 .
0.0 0.0 3063.51074 .
0.0 0.0 3087.74463 .
0.0 0.0 3111.94824 .
0.0 0.0 3136.12061 .
0.0 0.0 3160.26440 .
0.0 0.0 3184.37842 .
0.0 0.0 3208.46265 .
0.0 0.0 3232.51782 .
0.0 0.0 3256.54272 .
0.0 0.0 3280.53882 .
0.0 0.0 3304.50537 .
0.0 0.0 3328.44141 .
0.0 0.0 3352.34961 .
0.0 0.0 3376.22876 .
0.0 0.0 3400.07910 .
0.0 0.0 3423.90039 .
0.0 0.0 3447.69336 .
0.0 0.0 3471.45776 .
0.0 0.0 3495.19336 .
0.0 0.0 3518.89893 .
0.0 0.0 3542.57788 .
0.0 0.0 3566.22852 .
0.0 0.0 3589.85083 .
0.0 0.0 3613.44531 .
0.0 0.0 3637.01172 .
0.0 0.0 3660.55029 .
0.0 0.0 3684.05981 .
0.0 0.0 3707.54297 .
0.0 0.0 3730.99829 .
0.0 0.0 3754.42651 .
0.0 0.0 3777.82739 .
0.0 0.0 3801.20068 .
0.0 0.0 3824.54663 .
0.0 0.0 3847.86597 .
0.0 0.0 3871.15649 .
0.0 0.0 3894.42139 .
0.0 0.0 3917.65991 .
0.0 0.0 3940.87134 .
0.0 0.0 3964.05591 .
0.0 0.0 3987.21436 .
0.0 0.0 4010.34619 .
0.0 0.0 4033.44995 .
0.0 0.0 4056.52930 .
0.0 0.0 4079.58228 .
0.0 0.0 4102.60889 .
0.0 0.0 4125.60986 .
0.0 0.0 4148.58447 .
0.0 0.0 4171.53320 .
0.0 0.0 4194.45654 .
0.0 0.0 4217.35254 .
0.0 0.0 4240.22461 .
0.0 0.0 4263.07080 .
0.0 0.0 4285.89209 .
0.0 0.0 4308.68799 .
0.0 0.0 4331.45850 .
0.0 0.0 4354.20361 .
0.0 0.0 4376.92383 .
0.0 0.0 4399.61768 .
0.0 0.0 4422.28809 .
0.0 0.0 4444.93408 .
0.0 0.0 4467.55469 .
0.0 0.0 4490.15137 .
0.0 0.0 4512.72314 .
2894.0 0.0 4535.27002 .
2936.0 0.0 4557.79150 .
2980.0 0.0 4580.29004 .
3001.0 0.0 4602.76465 .
3028.0 0.0 4625.21484 .
3056.0 0.0 4647.64160 .
3094.0 0.0 4670.04395 .
3127.0 0.0 4692.42236 .
3171.0 0.0 4714.77734 .
3218.0 0.0 4737.10791 .
3246.0 0.0 4759.41406 .
3293.0 0.0 4781.69824 .
3338.0 0.0 4803.95850 .
3380.0 0.0 4826.19531 .
3404.0 0.0 4848.40967 .
3423.0 0.0 4870.60010 .
3478.0 0.0 4892.76758 .
3513.0 0.0 4914.91211 .
3558.0 0.0 4937.03223 .
3598.0 0.0 4959.13086 .
3645.0 0.0 4981.20654 .
3691.0 0.0 5003.25977 .
3736.0 0.0 5025.29053 .
3784.0 0.0 5047.29883 .
3810.0 0.0 5069.28418 .
3850.0 0.0 5091.24561 .
3891.0 0.0 5113.18652 .
3946.0 0.0 5135.10498 .
3985.0 0.0 5157.00146 .
4022.0 0.0 5178.87598 .
4076.0 0.0 5200.72852 .
4096.0 0.0 5222.55908 .
4116.0 0.0 5244.36621 .
4155.0 0.0 5266.15332 .
4201.0 0.0 5287.91846 .
4243.0 0.0 5309.66211 .
4282.0 0.0 5331.38428 .
4324.0 0.0 5353.08496 .
4368.0 0.0 5374.76465 .
4423.0 0.0 5396.42285 .
4477.0 0.0 5418.05908 .
4512.0 0.0 5439.67383 .
4552.0 0.0 5461.26855 .
4602.0 0.0 5482.84180 .
4646.0 0.0 5504.39502 .
4680.0 0.0 5525.92676 .
4714.0 0.0 5547.43799 .
4746.0 0.0 5568.92822 .
4804.0 0.0 5590.39697 .
4841.0 0.0 5611.84668 .
4894.0 0.0 5633.27539 .
4950.0 0.0 5654.68408 .
4991.0 0.0 5676.07227 .
5026.0 0.0 5697.43994 .
5065.0 0.0 5718.78809 .
5120.0 0.0 5740.11475 .
5166.0 0.0 5761.42236 .
5208.0 0.0 5782.70996 .
5255.0 0.0 5803.97803 .
5307.0 0.0 5825.22656 .
5346.0 0.0 5846.45508 .
5391.0 0.0 5867.66357 .
5435.0 0.0 5888.85303 .
5491.0 0.0 5910.02295 .
5539.0 0.0 5931.17188 .
5564.0 0.0 5952.30322 .
5608.0 0.0 5973.41455 .
5657.0 0.0 5994.50732 .
5705.0 0.0 6015.58057 .
5748.0 0.0 6036.63477 .
5768.0 0.0 6057.67041 .
5807.0 0.0 6078.68506 .
5872.0 0.0 6099.68262 .
5916.0 0.0 6120.66162 .
5964.0 0.0 6141.62158 .
6004.0 0.0 6162.56299 .
6037.0 0.0 6183.48584 .
6054.0 0.0 6204.39014 .
6078.0 0.0 6225.27441 .
6123.0 0.0 6246.14160 .
6161.0 0.0 6266.99072 .
6200.0 0.0 6287.82178 .
6242.0 0.0 6308.63477 .
6267.0 0.0 6329.42920 .
6299.0 0.0 6350.20605 .
6322.0 0.0 6370.96484 .
6354.0 0.0 6391.70557 .
6384.0 0.0 6412.42725 .
6410.0 0.0 6433.13232 .
6441.0 0.0 6453.81982 .
6464.0 0.0 6474.48926 .
6487.0 0.0 6495.14160 .
6519.0 0.0 6515.77686 .
6540.0 0.0 6536.39404 .
6580.0 0.0 6556.99414 .
6596.0 0.0 6577.57520 .
6633.0 0.0 6598.14063 .
6653.0 0.0 6618.68896 .
6654.0 0.0 6639.22021 .
6658.0 0.0 6659.73438 .
6670.0 0.0 6680.23145 .
6705.0 0.0 6700.71191 .
6746.0 0.0 6721.17383 .
6783.0 0.0 6741.62061 .
6801.0 0.0 6762.05029 .
6819.0 0.0 6782.46387 .
6833.0 0.0 6802.86035 .
6866.0 0.0 6823.24023 .
6897.0 0.0 6843.60400 .
6907.0 0.0 6863.95020 .
6936.0 0.0 6884.28271 .
6951.0 0.0 6904.59570 .
6977.0 0.0 6924.89404 .
6997.0 0.0 6945.17627 .
7025.0 0.0 6965.44287 .
7042.0 0.0 6985.69287 .
7047.0 0.0 7005.92725 .
7067.0 0.0 7026.14551 .
7089.0 0.0 7046.34619 .
7129.0 0.0 7066.53320 .
7157.0 0.0 7086.70410 .
7156.0 0.0 7106.85938 .
7177.0 0.0 7126.99902 .
7215.0 0.0 7147.12305 .
7281.0 0.0 7167.23193 .
7393.0 0.0 7187.32373 .
7517.0 0.0 7207.40137 .
7603.0 0.0 7227.46387 .
7619.0 0.0 7247.51123 .
7530.0 0.0 7267.54346 .
7458.0 0.0 7287.56055 .
7419.0 0.0 7307.56250 .
7424.0 0.0 7327.54785 .
7430.0 0.0 7347.52002 .
7446.0 0.0 7367.47705 .
7465.0 0.0 7387.41943 .
7489.0 0.0 7407.34668 .
7508.0 0.0 7427.25928 .
7533.0 0.0 7447.15723 .
7547.0 0.0 7467.04102 .
7582.0 0.0 7486.90967 .
7614.0 0.0 7506.76270 .
7625.0 0.0 7526.60254 .
7640.0 0.0 7546.42822 .
7643.0 0.0 7566.23975 .
7671.0 0.0 7586.03662 .
7697.0 0.0 7605.81934 .
7708.0 0.0 7625.58789 .
7710.0 0.0 7645.34131 .
7721.0 0.0 7665.08154 .
7751.0 0.0 7684.80811 .
7784.0 0.0 7704.52051 .
7805.0 0.0 7724.21924 .
7836.0 0.0 7743.90381 .
7847.0 0.0 7763.57471 .
7866.0 0.0 7783.23096 .
7867.0 0.0 7802.87451 .
7890.0 0.0 7822.50439 .
7923.0 0.0 7842.12109 .
7925.0 0.0 7861.72412 .
7934.0 0.0 7881.31348 .
7983.0 0.0 7900.88965 .
8003.0 0.0 7920.45264 .
8037.0 0.0 7940.00195 .
8038.0 0.0 7959.53662 .
8058.0 0.0 7979.06006 .
8084.0 0.0 7998.56982 .
8099.0 0.0 8018.06641 .
8127.0 0.0 8037.55029 .
8144.0 0.0 8057.02100 .
8153.0 0.0 8076.47900 .
8188.0 0.0 8095.92236 .
8191.0 0.0 8115.35449 .
8201.0 0.0 8134.77393 .
8238.0 0.0 8154.18066 .
8246.0 0.0 8173.57471 .
8280.0 0.0 8192.95605 .
8296.0 0.0 8212.32422 .
8323.0 0.0 8231.67969 .
8345.0 0.0 8251.02344 .
8357.0 0.0 8270.35449 .
8374.0 0.0 8289.67383 .
8386.0 0.0 8308.98047 .
8396.0 0.0 8328.27441 .
8406.0 0.0 8347.55664 .
8427.0 0.0 8366.82617 .
8439.0 0.0 8386.08398 .
8480.0 0.0 8405.33008 .
8504.0 0.0 8424.56152 .
8528.0 0.0 8443.78320 .
8542.0 0.0 8462.99316 .
8566.0 0.0 8482.19141 .
8603.0 0.0 8501.37695 .
8614.0 0.0 8520.55078 .
8624.0 0.0 8539.71387 .
8626.0 0.0 8558.86230 .
8665.0 0.0 8578.00195 .
8697.0 0.0 8597.12891 .
8707.0 0.0 8616.24512 .
8731.0 0.0 8635.34961 .
8748.0 0.0 8654.44238 .
8749.0 0.0 8673.52344 .
8766.0 0.0 8692.59180 .
8773.0 0.0 8711.65039 .
8803.0 0.0 8730.69824 .
8826.0 0.0 8749.73438 .
8848.0 0.0 8768.75879 .
8864.0 0.0 8787.77246 .
8879.0 0.0 8806.77539 .
8899.0 0.0 8825.76563 .
8927.0 0.0 8844.74707 .
8949.0 0.0 8863.71582 .
8969.0 0.0 8882.67383 .
8988.0 0.0 8901.62207 .
9010.0 0.0 8920.55859 .
9033.0 0.0 8939.48438 .
9058.0 0.0 8958.39941 .
9084.0 0.0 8977.30469 .
9106.0 0.0 8996.19727 .
9111.0 0.0 9015.08008 .
9135.0 0.0 9033.95313 .
9145.0 0.0 9052.81445 .
9169.0 0.0 9071.66602 .
9188.0 0.0001088 9090.50781 9090.50781
9201.0 0.0001087 9109.33691 9109.33691
9218.0 0.0001085 9128.15723 9128.15723
9236.0 0.0001083 9146.96777 9146.96777
9262.0 0.0001080 9165.76758 9165.76758
9291.0 0.0001076 9184.55566 9184.55566
9319.0 0.0001073 9203.33496 9203.33496
9337.0 0.0001071 9222.10352 9222.10352
9354.0 0.0001069 9240.86230 9240.86230
9372.0 0.0001067 9259.61035 9259.61035
9389.0 0.0001065 9278.34961 9278.34961
9397.0 0.0001064 9297.07715 9297.07715
9420.0 0.0001062 9315.79688 9315.79688
9422.0 0.0001061 9334.50488 9334.50488
9424.0 0.0001061 9353.20313 9353.20313
9457.0 0.0001057 9371.89160 9371.89160
9495.0 0.0001053 9390.57129 9390.57129
9518.0 0.0001051 9409.24023 9409.24023
9523.0 0.0001050 9427.90039 9427.90039
9544.0 0.0001048 9446.54883 9446.54883
9577.0 0.0001044 9465.18945 9465.18945
9585.0 0.0001043 9483.81934 9483.81934
9622.0 0.0001039 9502.44141 9502.44141
9649.0 0.0001036 9521.05176 9521.05176
9651.0 0.0001036 9539.65430 9539.65430
9667.0 0.0001034 9558.24707 9558.24707
9684.0 0.0001033 9576.82910 9576.82910
9722.0 0.0001029 9595.40332 9595.40332
9740.0 0.0001027 9613.96680 9613.96680
9753.0 0.0001025 9632.52148 9632.52148
9770.0 0.0001024 9651.06738 9651.06738
9778.0 0.0001023 9669.60352 9669.60352
9790.0 0.0001021 9688.12988 9688.12988
9833.0 0.0001017 9706.64844 9706.64941
9857.0 0.0001015 9725.15625 9725.15723
9860.0 0.0001014 9743.65723 9743.65820
9867.0 0.0001013 9762.14746 9762.14844
9897.0 0.0001010 9780.62891 9780.62988
9912.0 0.0001009 9799.10059 9799.10156
9940.0 0.0001006 9817.56543 9817.56641
9958.0 0.0001004 9836.01953 9836.02051
9981.0 0.0001002 9854.46582 9854.46680
9997.0 0.0001000 9872.90137 9872.90234
10016.0 0.0000998 9891.33008 9891.33203
10021.0 0.0000998 9909.74902 9909.75098
10044.0 0.0000996 9928.16016 9928.16211
10065.0 0.0000994 9946.56152 9946.56348
10074.0 0.0000993 9964.95508 9964.95703
10089.0 0.0000991 9983.33887 9983.34082
10125.0 0.0000988 10001.71582 10001.71777
10149.0 0.0000985 10020.08301 10020.08496
10179.0 0.0000982 10038.44141 10038.44336
10197.0 0.0000981 10056.79199 10056.79395
10220.0 0.0000978 10075.13379 10075.13574
10236.0 0.0000977 10093.46680 10093.46875
10254.0 0.0000975 10111.79102 10111.79297
10270.0 0.0000974 10130.10840 10130.84082
10277.0 0.0000973 10148.41602 10149.16992
10291.0 0.0000972 10166.71680 10167.49219
10323.0 0.0000969 10185.00781 10185.80664
10326.0 0.0000968 10203.29102 10204.11426
10332.0 0.0000968 10221.56543 10222.41406
10352.0 0.0000966 10239.83301 10240.70801
10368.0 0.0000965 10258.09180 10258.99414
10400.0 0.0000962 10276.34277 10277.27539
10426.0 0.0000959 10294.58398 10295.54688
10453.0 0.0000957 10312.81934 10313.81445
10483.0 0.0000954 10331.04590 10332.07520
10501.0 0.0000952 10349.26465 10350.32910
10506.0 0.0000952 10367.47461 10368.57715
10528.0 0.0000950 10385.67676 10386.81934
10524.0 0.0000950 10403.87207 10405.05566
10545.0 0.0000948 10422.05859 10423.28711
10563.0 0.0000947 10440.23730 10441.51172
10593.0 0.0000944 10458.40820 10459.73145
10604.0 0.0000943 10476.57227 10477.94824
10631.0 0.0000941 10494.72754 10496.15918
10659.0 0.0000938 10512.87598 10514.36621
10682.0 0.0000936 10531.01563 10532.56934
10685.0 0.0000936 10549.14844 10550.76855
10701.0 0.0000934 10567.27246 10568.96289
10726.0 0.0000932 10585.39063 10587.15723
10749.0 0.0000930 10603.49902 10605.34668
10767.0 0.0000929 10621.60156 10623.53613
10785.0 0.0000927 10639.69629 10641.72461
10808.0 0.0000925 10657.78418 10659.91211
10834.0 0.0000923 10675.86328 10678.09863
10853.0 0.0000921 10693.93555 10696.28711
10881.0 0.0000919 10712.00000 10714.47754
10890.0 0.0000918 10730.05762 10732.67188
10916.0 0.0000916 10748.10742 10750.87012
10913.0 0.0000916 10766.15039 10769.07422
10927.0 0.0000915 10784.18555 10787.28613
10962.0 0.0000912 10802.21387 10805.50781
10975.0 0.0000911 10820.23438 10823.74121
10999.0 0.0000909 10838.24805 10841.99219
11021.0 0.0000907 10856.25391 10860.26270
11044.0 0.0000905 10874.25391 10878.56641
11064.0 0.0000904 10892.24512 10897.70117
11068.0 0.0000904 10910.23145 10916.16016
11085.0 0.0000902 10928.20996 10934.76367
11096.0 0.0000901 10946.17969 10953.54688
11121.0 0.0000899 10964.14453 10972.47656
11160.0 0.0000896 10982.10156 10991.36719
11178.0 0.0000895 11000.05176 11009.93359
11199.0 0.0000893 11017.99414 11028.18652
11234.0 0.0000890 11035.92969 11046.44629
11246.0 0.0000889 11053.85840 11064.92188
11260.0 0.0000888 11071.78223 11083.68848
11272.0 0.0000887 11089.69629 11102.74316
11288.0 0.0000886 11107.60547 11122.08789
11310.0 0.0000884 11125.50684 11141.74609
11341.0 0.0000882 11143.40234 11161.78125
11368.0 0.0000880 11161.29004 11182.29883
11382.0 0.0000879 11179.17188 11203.44824
11395.0 0.0000878 11197.04590 11225.44824
11411.0 0.0000876 11214.91504 11248.62402
11430.0 0.0000875 11232.77637 11273.50293
11458.0 0.0000873 11250.63086 11306.51855
11484.0 0.0000871 11268.47852 11339.35742
11518.0 0.0000868 11286.32031 11383.29883
11582.0 0.0000863 11304.15625 11451.82031
11685.0 0.0000856 11321.98438 11568.34180
11837.0 0.0000845 11339.80566 11759.38379
12068.0 0.0000829 11357.62207 12031.89648
12338.0 0.0000811 11375.43164 12336.61621
12505.0 0.0000800 11393.23340 12530.87793
12496.0 0.0000800 11411.03027 12468.20801
12300.0 0.0000813 11428.81934 12221.69238
12054.0 0.0000830 11446.60254 11961.57617
11894.0 0.0000841 11464.37988 11772.35547
11802.0 0.0000847 11482.15039 11664.65234
11766.0 0.0000850 11499.91504 11616.20801
11765.0 0.0000850 11517.67285 11600.67578
11761.0 0.0000850 11535.42383 11600.55176
11747.0 0.0000851 11553.17090 11607.33105
11777.0 0.0000849 11570.90918 11617.54590
11815.0 0.0000846 11588.64258 11629.80469
11822.0 0.0000846 11606.36914 11643.43945
11836.0 0.0000845 11624.09082 11658.06445
11839.0 0.0000845 11641.80469 11673.42285
11842.0 0.0000844 11659.51270 11689.34375
11856.0 0.0000843 11677.21484 11705.70313
11881.0 0.0000842 11694.91113 11722.41211
11903.0 0.0000840 11712.60156 11739.40625
11928.0 0.0000838 11730.28613 11756.64063
11953.0 0.0000837 11747.96387 11774.07813
11968.0 0.0000836 11765.63574 11791.69238
11974.0 0.0000835 11783.30176 11809.46777
11998.0 0.0000833 11800.96289 11827.38867
12011.0 0.0000833 11818.61719 11845.44727
12015.0 0.0000832 11836.26465 11863.63965
12031.0 0.0000831 11853.90723 11881.96094
12059.0 0.0000829 11871.54395 11900.41406
12075.0 0.0000828 11889.17480 11919.00488
12106.0 0.0000826 11906.79883 11937.73535
12150.0 0.0000823 11924.41797 11956.61621
12151.0 0.0000823 11942.03125 11975.65918
12179.0 0.0000821 11959.63867 11994.87891
12207.0 0.0000819 11977.23926 12014.29102
12228.0 0.0000818 11994.83496 12035.51074
12243.0 0.0000817 12012.42480 12055.44434
12256.0 0.0000816 12030.00977 12075.65625
12276.0 0.0000815 12047.58789 12096.18457
12300.0 0.0000813 12065.16113 12117.07813
12320.0 0.0000812 12082.72754 12138.38965
12355.0 0.0000809 12100.29004 12160.19434
12373.0 0.0000808 12117.84570 12182.57324
12388.0 0.0000807 12135.39551 12205.63379
12403.0 0.0000806 12152.94043 12229.50684
12418.0 0.0000805 12170.47949 12254.35840
12450.0 0.0000803 12188.01270 12280.39648
12493.0 0.0000800 12205.54102 12307.89453
12507.0 0.0000800 12223.06250 12337.19922
12520.0 0.0000799 12240.58008 12368.77832
12546.0 0.0000797 12258.09180 12403.25488
12573.0 0.0000795 12275.59766 12441.47266
12597.0 0.0000794 12293.09766 12484.61816
12634.0 0.0000792 12310.59277 12534.39355
12678.0 0.0000789 12328.08203 12593.47168
12741.0 0.0000785 12345.56641 12666.38574
12842.0 0.0000779 12363.04492 12762.86328
12993.0 0.0000770 12380.51758 12905.32617
13224.0 0.0000756 12397.98633 13143.26074
13600.0 0.0000735 12415.44824 13568.58984
14279.0 0.0000700 12432.90625 14310.07324
15432.0 0.0000648 12450.35742 15476.30566
17115.0 0.0000584 12467.80371 17037.60938
18829.0 0.0000531 12485.24414 18650.72852
19653.0 0.0000509 12502.68066 19518.07813
18986.0 0.0000527 12520.11133 18976.24219
17356.0 0.0000576 12537.53711 17484.80078
15607.0 0.0000641 12554.95605 15907.06738
14374.0 0.0000696 12572.37109 14683.62500
13703.0 0.0000730 12589.78125 13896.04883
13371.0 0.0000748 12607.18555 13454.23535
13182.0 0.0000759 12624.58398 13226.91895
13099.0 0.0000763 12641.97852 13111.75098
13062.0 0.0000766 12659.36719 13052.79688
13041.0 0.0000767 12676.75098 13022.97559
13027.0 0.0000768 12694.12988 13011.55957
13026.0 0.0000768 12711.50293 13014.56738
13054.0 0.0000766 12728.87207 13031.20996
13074.0 0.0000765 12746.23438 13062.80273
13077.0 0.0000765 12763.59277 13112.49902
13125.0 0.0000762 12780.94531 13185.37598
13205.0 0.0000757 12798.29297 13289.82617
13359.0 0.0000749 12815.63574 13443.91406
13692.0 0.0000730 12832.97363 13690.80762
14168.0 0.0000706 12850.30664 14111.00684
14681.0 0.0000681 12867.63379 14783.10547
15397.0 0.0000649 12884.95605 15659.77051
16184.0 0.0000618 12902.27539 16440.16016
16587.0 0.0000603 12919.58691 16605.34570
16247.0 0.0000615 12936.89551 15960.49512
15271.0 0.0000655 12954.19727 14987.67090
14320.0 0.0000698 12971.49609 14169.41992
13766.0 0.0000726 12988.78809 13667.02637
13526.0 0.0000739 13006.07617 13419.50488
13424.0 0.0000745 13023.35938 13310.64160
13383.0 0.0000747 13040.63770 13261.85547
13363.0 0.0000748 13057.91016 13238.14160
13370.0 0.0000748 13075.17871 13226.69629
13352.0 0.0000749 13092.44238 13222.57910
13377.0 0.0000748 13109.70117 13223.42188
13387.0 0.0000747 13126.95508 13227.98047
13395.0 0.0000747 13144.20313 13235.89063
13403.0 0.0000746 13161.44824 13247.80859
13409.0 0.0000746 13178.68652 13265.34766
13437.0 0.0000744 13195.92090 13289.84180
13475.0 0.0000742 13213.15039 13319.67773
13496.0 0.0000741 13230.37598 13347.69043
13537.0 0.0000739 13247.59473 13362.76367
13545.0 0.0000738 13264.81055 13362.94043
13542.0 0.0000738 13282.02051 13358.46191
13559.0 0.0000738 13299.22656 13357.69336
13553.0 0.0000738 13316.42676 13363.09570
13538.0 0.0000739 13333.62305 13373.43359
13550.0 0.0000738 13350.81445 13386.55273
13572.0 0.0000737 13368.00195 13400.95703
13608.0 0.0000735 13385.18262 13415.94336
13618.0 0.0000734 13402.36035 13431.25195
13626.0 0.0000734 13419.53223 13446.78223
13662.0 0.0000732 13436.70117 13462.48828
13687.0 0.0000731 13453.86328 13478.33887
13687.0 0.0000731 13471.02246 13494.31445
13702.0 0.0000730 13488.17480 13510.39160
13723.0 0.0000729 13505.32422 13526.56445
13752.0 0.0000727 13522.46875 13542.81738
13775.0 0.0000726 13539.60938 13559.14355
13780.0 0.0000726 13556.74414 13575.53613
13797.0 0.0000725 13573.87402 13591.98535
13810.0 0.0000724 13591.00098 13608.49316
13843.0 0.0000722 13608.12109 13625.04590
13849.0 0.0000722 13625.23828 13641.64941
13872.0 0.0000721 13642.34961 13658.29785
13874.0 0.0000721 13659.45703 13674.98730
13886.0 0.0000720 13676.56055 13691.72266
13901.0 0.0000719 13693.65820 13708.49414
13918.0 0.0000718 13710.75195 13725.31055
13929.0 0.0000718 13727.84082 13742.16895
13949.0 0.0000717 13744.92480 13759.07227
13972.0 0.0000716 13762.00488 13776.02539
13991.0 0.0000715 13779.08008 13793.02930
14028.0 0.0000713 13796.15137 13810.09082
14036.0 0.0000712 13813.21680 13827.21973
14038.0 0.0000712 13830.27930 13844.42480
14059.0 0.0000711 13847.33594 13861.72266
14065.0 0.0000711 13864.38867 13879.13281
14092.0 0.0000710 13881.43555 13896.67969
14120.0 0.0000708 13898.47949 13914.40332
14123.0 0.0000708 13915.51855 13932.36230
14145.0 0.0000707 13932.55371 13950.64648
14164.0 0.0000706 13949.58301 13969.42773
14183.0 0.0000705 13966.60840 13989.00000
14217.0 0.0000703 13983.62988 14009.85547
14243.0 0.0000702 14000.64648 14032.75195
14280.0 0.0000700 14017.65820 14058.79395
14343.0 0.0000697 14034.66504 14089.69824
14414.0 0.0000694 14051.66797 14130.45410
14510.0 0.0000689 14068.66699 14181.93848
14604.0 0.0000685 14085.66113 14251.69922
14663.0 0.0000682 14102.65039 14343.55078
14612.0 0.0000684 14119.63574 14454.10547
14641.0 0.0000683 14136.61523 14559.47266
14676.0 0.0000681 14153.59277 14608.79395
14665.0 0.0000682 14170.56348 14570.74316
14598.0 0.0000685 14187.53125 14482.90918
14521.0 0.0000689 14204.49316 14397.00879
14485.0 0.0000690 14221.45313 14338.00781
14487.0 0.0000690 14238.40625 14308.73047
14491.0 0.0000690 14255.35547 14301.14844
14499.0 0.0000690 14272.29980 14305.77441
14512.0 0.0000689 14289.24219 14316.16309
14534.0 0.0000688 14306.17773 14329.08594
14548.0 0.0000687 14323.10938 14345.49805
14567.0 0.0000686 14340.03613 14360.39355
14571.0 0.0000686 14356.95898 14375.75000
14575.0 0.0000686 14373.87793 14391.43848
14587.0 0.0000686 14390.79199 14407.37695
14584.0 0.0000686 14407.70117 14423.50195
14594.0 0.0000685 14424.60645 14439.77734
14605.0 0.0000685 14441.50781 14456.16895
14620.0 0.0000684 14458.40332 14472.65430
14661.0 0.0000682 14475.29590 14489.21680
14681.0 0.0000681 14492.18262 14505.84277
14688.0 0.0000681 14509.06641 14522.52441
14699.0 0.0000680 14525.94531 14539.25000
14727.0 0.0000679 14542.81934 14556.01660
14739.0 0.0000678 14559.68848 14572.81543
14779.0 0.0000677 14576.55469 14589.65039
14789.0 0.0000676 14593.41504 14606.50781
14792.0 0.0000676 14610.27246 14623.39551
14828.0 0.0000674 14627.12402 14640.30664
14852.0 0.0000673 14643.97266 14657.24023
14849.0 0.0000673 14660.81543 14674.19336
14865.0 0.0000673 14677.65527 14691.17188
14871.0 0.0000672 14694.48926 14708.16992
14902.0 0.0000671 14711.32031 14725.19141
14922.0 0.0000670 14728.14551 14742.23340
14920.0 0.0000670 14744.96680 14759.29688
14957.0 0.0000669 14761.78418 14776.38477
14970.0 0.0000668 14778.59668 14793.49707
14991.0 0.0000667 14795.40430 14810.63477
15026.0 0.0000666 14812.20898 14825.13477
15034.0 0.0000665 14829.00879 14842.37207
15043.0 0.0000665 14845.80371 14859.64063
15053.0 0.0000664 14862.59473 14876.94238
15082.0 0.0000663 14879.37988 14894.27832
15111.0 0.0000662 14896.16309 14911.66016
15134.0 0.0000661 14912.94043 14929.08105
15139.0 0.0000661 14929.71289 14946.55176
15155.0 0.0000660 14946.48145 14964.07617
15156.0 0.0000660 14963.24609 14981.66211
15174.0 0.0000659 14980.00586 14999.31543
15210.0 0.0000657 14996.76172 15017.04492
15221.0 0.0000657 15013.51172 15034.85840
15241.0 0.0000656 15030.25879 15052.77051
15260.0 0.0000655 15047.00098 15070.79102
15269.0 0.0000655 15063.73926 15088.93848
15294.0 0.0000654 15080.47168 15107.22852
15307.0 0.0000653 15097.20117 15125.68750
15317.0 0.0000653 15113.92578 15144.33789
15339.0 0.0000652 15130.64648 15163.21387
15353.0 0.0000651 15147.36133 15182.35352
15391.0 0.0000650 15164.07324 15201.80859
15402.0 0.0000649 15180.77930 15221.63477
15395.0 0.0000650 15197.48242 15241.91309
15414.0 0.0000649 15214.17969 15262.73340
15446.0 0.0000647 15230.87402 15284.22559
15475.0 0.0000646 15247.56348 15306.54590
15511.0 0.0000645 15264.24805 15329.90723
15539.0 0.0000644 15280.92773 15354.60352
15545.0 0.0000643 15297.60352 15381.00879
15558.0 0.0000643 15314.27539 15409.71387
15570.0 0.0000642 15330.94141 15441.65137
15614.0 0.0000640 15347.60449 15478.58789
15641.0 0.0000639 15364.26270 15524.22461
15671.0 0.0000638 15380.91602 15586.41797
15735.0 0.0000636 15397.56445 15680.41113
15804.0 0.0000633 15414.20996 15831.12988
15913.0 0.0000628 15430.84961 16070.27441
16132.0 0.0000620 15447.48633 16423.63086
16594.0 0.0000603 15464.11621 16888.30664
17378.0 0.0000575 15480.74316 17402.06641
18092.0 0.0000553 15497.36523 17808.86523
18176.0 0.0000550 15513.98340 17897.75781
17686.0 0.0000565 15530.59668 17620.58789
16940.0 0.0000590 15547.20605 17159.94336
16390.0 0.0000610 15563.80957 16705.19727
16133.0 0.0000620 15580.41016 16348.65332
16031.0 0.0000624 15597.00488 16110.39648
16002.0 0.0000625 15613.59570 15971.70605
15996.0 0.0000625 15630.18164 15901.49414
15992.0 0.0000625 15646.76367 15871.63477
16002.0 0.0000625 15663.34082 15879.09863
16013.0 0.0000624 15679.91406 15884.98730
16012.0 0.0000625 15696.48145 15898.46582
16045.0 0.0000623 15713.04492 15918.49316
16071.0 0.0000622 15729.60449 15943.72949
16102.0 0.0000621 15746.15820 15975.00977
16146.0 0.0000619 15762.70898 16013.61914
16183.0 0.0000618 15779.25391 16062.21582
16230.0 0.0000616 15795.79492 16125.76563
16292.0 0.0000614 15812.33105 16212.78906
16354.0 0.0000611 15828.86328 16336.50391
16481.0 0.0000607 15845.38965 16514.89258
16643.0 0.0000601 15861.91309 16767.90430
16912.0 0.0000591 15878.43066 17112.25977
17323.0 0.0000577 15894.94336 17551.52148
17841.0 0.0000561 15911.45215 18060.82422
18363.0 0.0000545 15927.95703 18562.00586
18691.0 0.0000535 15944.45605 18909.91211
18816.0 0.0000531 15960.95117 18977.83789
19000.0 0.0000526 15977.44043 18865.62695
19609.0 0.0000510 15993.92676 19061.08594
21215.0 0.0000471 16010.40723 20541.87500
24750.0 0.0000404 16026.88379 24637.06250
31269.0 0.0000320 16043.35547 31933.50391
40253.0 0.0000248 16059.82324 40492.71094
46093.0 0.0000217 16076.28516 45726.85547
44522.0 0.0000225 16092.74414 43863.05469
36080.0 0.0000277 16109.19531 36202.39844
26721.0 0.0000374 16125.64453 27504.35742
21299.0 0.0000470 16142.08789 21295.69141
18877.0 0.0000530 16158.52734 18145.03125
17815.0 0.0000561 16174.96094 16946.02148
17292.0 0.0000578 16191.39063 16581.43555
17023.0 0.0000587 16207.81543 16478.72852
16863.0 0.0000593 16224.23633 16443.36914
16764.0 0.0000597 16240.65039 16426.61719
16709.0 0.0000598 16257.06152 16417.92773
16667.0 0.0000600 16273.46777 16414.38086
16640.0 0.0000601 16289.86914 16414.57422
16642.0 0.0000601 16306.26465 16417.59570
16623.0 0.0000602 16322.65625 16422.81055
16615.0 0.0000602 16339.04297 16429.75000
16618.0 0.0000602 16355.42578 16438.06055
16622.0 0.0000602 16371.80176 16447.48828
16624.0 0.0000602 16388.17383 16457.83789
16620.0 0.0000602 16404.54297 16468.94141
16618.0 0.0000602 16420.90625 16480.67773
16632.0 0.0000601 16437.26367 16492.95703
16650.0 0.0000601 16453.61719 16505.68945
16657.0 0.0000600 16469.96484 16518.81250
16670.0 0.0000600 16486.30859 16532.27148
16675.0 0.0000600 16502.64844 16546.02930
16687.0 0.0000599 16518.98047 16560.04102
16713.0 0.0000598 16535.31055 16574.28320
16721.0 0.0000598 16551.63477 16588.72656
16723.0 0.0000598 16567.95313 16603.34961
16743.0 0.0000597 16584.26758 16618.13477
16762.0 0.0000597 16600.57617 16633.06836
16785.0 0.0000596 16616.88086 16648.13477
16793.0 0.0000595 16633.18164 16663.32813
16791.0 0.0000596 16649.47461 16678.63672
16797.0 0.0000595 16665.76367 16694.05664
16797.0 0.0000595 16682.04883 16709.58008
16817.0 0.0000595 16698.33008 16725.21680
16844.0 0.0000594 16714.60352 16740.94727
16858.0 0.0000593 16730.87305 16756.78711
16885.0 0.0000592 16747.13867 16772.73828
16904.0 0.0000592 16763.39844 16788.80469
16895.0 0.0000592 16779.65234 16805.00391
16925.0 0.0000591 16795.90234 16821.35156
16941.0 0.0000590 16812.14648 16837.87695
16944.0 0.0000590 16828.38672 16854.62891
16954.0 0.0000590 16844.62109 16871.67969
16952.0 0.0000590 16860.84961 16889.20898
16983.0 0.0000589 16877.07422 16907.61133
17024.0 0.0000587 16893.29492 16927.63086
17019.0 0.0000588 16909.50977 16950.55273
17039.0 0.0000587 16925.71680 16978.07422
17069.0 0.0000586 16941.92188 17011.67969
17090.0 0.0000585 16958.12109 17051.46875
17143.0 0.0000583 16974.31641 17094.75977
17187.0 0.0000582 16990.50391 17134.82227
17178.0 0.0000582 17006.68750 17162.17773
17181.0 0.0000582 17022.86523 17173.56445
17170.0 0.0000582 17039.03906 17177.73438
17167.0 0.0000583 17055.20703 17186.45508
17176.0 0.0000582 17071.36914 17207.59961
17201.0 0.0000581 17087.52734 17244.52344
17254.0 0.0000580 17103.68164 17296.25391
17337.0 0.0000577 17119.82617 17357.16211
17412.0 0.0000574 17135.96875 17415.50781
17435.0 0.0000574 17152.10742 17453.81250
17416.0 0.0000574 17168.23828 17459.28125
17364.0 0.0000576 17184.36328 17436.75000
17336.0 0.0000577 17200.48438 17402.76953
17319.0 0.0000577 17216.60156 17370.62695
17325.0 0.0000577 17232.71289 17346.72070
17344.0 0.0000577 17248.81641 17332.77734
17355.0 0.0000576 17264.91602 17327.95117
17362.0 0.0000576 17281.01172 17330.23633
17384.0 0.0000575 17297.10156 17337.43945
17390.0 0.0000575 17313.18555 17347.76563
17392.0 0.0000575 17329.26172 17359.98047
17431.0 0.0000574 17345.33594 17373.32813
17432.0 0.0000574 17361.40430 17387.38281
17437.0 0.0000573 17377.46680 17401.91602
17470.0 0.0000572 17393.52344 17416.80273
17484.0 0.0000572 17409.57422 17431.96289
17493.0 0.0000572 17425.62109 17447.35547
17511.0 0.0000571 17441.66211 17462.93750
17518.0 0.0000571 17457.69531 17478.68359
17549.0 0.0000570 17473.72656 17494.58398
17563.0 0.0000569 17489.75000 17510.62500
17567.0 0.0000569 17505.76953 17526.80078
17592.0 0.0000568 17521.78125 17543.10938
17592.0 0.0000568 17537.78906 17559.55469
17618.0 0.0000568 17553.79297 17576.15039
17626.0 0.0000567 17569.78906 17592.89453
17641.0 0.0000567 17585.77930 17609.80664
17679.0 0.0000566 17601.76563 17626.91406
17710.0 0.0000565 17617.74609 17645.33398
17720.0 0.0000564 17633.72070 17662.93164
17745.0 0.0000564 17649.68750 17680.81641
17737.0 0.0000564 17665.65039 17699.06250
17728.0 0.0000564 17681.60938 17717.73633
17754.0 0.0000563 17697.56055 17736.93359
17783.0 0.0000562 17713.50781 17756.80859
17786.0 0.0000562 17729.44727 17777.56641
17800.0 0.0000562 17745.38281 17799.54492
17818.0 0.0000561 17761.31250 17823.26953
17848.0 0.0000560 17777.23633 17849.58008
17880.0 0.0000559 17793.15234 17877.18359
17909.0 0.0000558 17809.06445 17913.09961
17952.0 0.0000557 17824.97266 17957.09180
17999.0 0.0000556 17840.87305 18014.60938
18062.0 0.0000554 17856.76563 18083.02539
18156.0 0.0000551 17872.65625 18166.87891
18288.0 0.0000547 17888.53906 18266.06445
18460.0 0.0000542 17904.41602 18376.60547
18643.0 0.0000536 17920.28711 18487.57031
18736.0 0.0000534 17936.15430 18578.46484
18717.0 0.0000534 17952.01367 18624.24414
18612.0 0.0000537 17967.86914 18612.48242
18450.0 0.0000542 17983.71484 18555.01953
18289.0 0.0000547 17999.55859 18476.63672
18231.0 0.0000549 18015.39453 18397.93750
18193.0 0.0000550 18031.22656 18330.13672
18177.0 0.0000550 18047.04883 18277.46484
18195.0 0.0000550 18062.86719 18240.17383
18185.0 0.0000550 18078.68164 18216.47266
18205.0 0.0000549 18094.48828 18203.69141
18251.0 0.0000548 18110.28906 18199.08594
18329.0 0.0000546 18126.08203 18200.25781
18436.0 0.0000542 18141.87109 18205.38281
18670.0 0.0000536 18157.65430 18213.14844
18856.0 0.0000530 18173.43164 18222.71289
18997.0 0.0000526 18189.20117 18233.52734
19106.0 0.0000523 18204.96680 18245.24609
18613.0 0.0000537 18220.72461 18257.64648
18468.0 0.0000541 18236.47852 18270.58203
18397.0 0.0000544 18252.22266 18283.94727
18373.0 0.0000544 18267.96289 18297.66016
18388.0 0.0000544 18283.69727 18311.66211
18392.0 0.0000544 18299.42578 18325.90625
18402.0 0.0000543 18315.14648 18340.34961
18419.0 0.0000543 18330.86328 18354.97266
18436.0 0.0000542 18346.57227 18369.73828
18443.0 0.0000542 18362.27539 18384.63086
18467.0 0.0000542 18377.97070 18399.63477
18473.0 0.0000541 18393.66211 18414.73242
18488.0 0.0000541 18409.34766 18430.85156
18503.0 0.0000540 18425.02539 18446.14453
18502.0 0.0000540 18440.69531 18461.50000
18520.0 0.0000540 18456.36133 18476.92773
18539.0 0.0000539 18472.02148 18492.41406
18571.0 0.0000538 18487.67578 18507.97461
18595.0 0.0000538 18503.32227 18524.07813
18600.0 0.0000538 18518.96094 18539.73633
18609.0 0.0000537 18534.59570 18555.45117
18628.0 0.0000537 18550.22266 18571.20898
18607.0 0.0000537 18565.84375 18587.01758
18624.0 0.0000537 18581.45703 18603.08008
18657.0 0.0000536 18597.06641 18618.99609
18668.0 0.0000536 18612.66797 18634.96875
18682.0 0.0000535 18628.26367 18653.57227
18685.0 0.0000535 18643.85156 18669.72070
18705.0 0.0000535 18659.43555 18685.94727
18735.0 0.0000534 18675.01172 18702.24414
18764.0 0.0000533 18690.58008 18718.63867
18769.0 0.0000533 18706.14258 18735.27148
18784.0 0.0000532 18721.69922 18751.89258
18795.0 0.0000532 18737.24805 18768.69922
18814.0 0.0000532 18752.79297 18785.65430
18856.0 0.0000530 18768.32813 18802.85938
18879.0 0.0000530 18783.85742 18820.41992
18879.0 0.0000530 18799.38086 18838.49023
18900.0 0.0000529 18814.89844 18857.32813
18902.0 0.0000529 18830.40625 18877.25977
18915.0 0.0000529 18845.91016 18898.72656
18957.0 0.0000528 18861.40820 18922.19727
18982.0 0.0000527 18876.89844 18948.08594
19019.0 0.0000526 18892.38086 18976.56055
19049.0 0.0000525 18907.85742 19007.39453
19095.0 0.0000524 18923.32617 19039.51563
19146.0 0.0000522 18938.79102 19070.60156
19182.0 0.0000521 18954.24609 19096.97070
19174.0 0.0000522 18969.69531 19115.25586
19143.0 0.0000522 18985.13867 19125.19727
19131.0 0.0000523 19000.57422 19129.94922
19139.0 0.0000522 19016.00195 19133.34961
19145.0 0.0000522 19031.42383 19138.01367
19157.0 0.0000522 19046.83984 19145.21875
19170.0 0.0000522 19062.24805 19155.38867
19211.0 0.0000521 19077.64844 19168.48047
19206.0 0.0000521 19093.04297 19184.24414
19230.0 0.0000520 19108.42969 19202.34570
19262.0 0.0000519 19123.81055 19222.55664
19301.0 0.0000518 19139.18555 19244.78906
19309.0 0.0000518 19154.55078 19269.19141
19345.0 0.0000517 19169.91016 19296.31250
19390.0 0.0000516 19185.26367 19327.48438
19458.0 0.0000514 19200.60938 19366.54297
19546.0 0.0000512 19215.94531 19417.96875
19627.0 0.0000510 19231.27734 19493.22656
19699.0 0.0000508 19246.60156 19607.14258
19821.0 0.0000505 19261.91992 19774.33008
19987.0 0.0000500 19277.23047 20000.58398
20215.0 0.0000495 19292.53125 20273.95313
20515.0 0.0000487 19307.82813 20560.69141
20802.0 0.0000481 19323.11719 20815.06641
21043.0 0.0000475 19338.39844 21013.54688
21214.0 0.0000471 19353.67188 21166.09570
21303.0 0.0000469 19368.93750 21271.56055
21330.0 0.0000469 19384.19922 21300.33203
21272.0 0.0000470 19399.45117 21234.04688
21108.0 0.0000474 19414.69531 21106.55273
20938.0 0.0000478 19429.93359 20988.92578
20816.0 0.0000480 19445.16406 20938.79492
20793.0 0.0000481 19460.38867 20970.50586
20874.0 0.0000479 19475.60352 21048.96680
21007.0 0.0000476 19490.81250 21093.12109
21048.0 0.0000475 19506.01367 21022.51758
20948.0 0.0000477 19521.20703 20830.52930
20726.0 0.0000482 19536.39258 20582.39648
20466.0 0.0000489 19551.57227 20345.13086
20260.0 0.0000494 19566.74414 20155.89844
20122.0 0.0000497 19581.90820 20024.93359
20024.0 0.0000499 19597.06445 19945.38477
19974.0 0.0000501 19612.21289 19903.92773
19932.0 0.0000502 19627.35547 19887.53125
19901.0 0.0000502 19642.49023 19886.62891
19906.0 0.0000502 19657.61719 19895.45508
19909.0 0.0000502 19672.73438 19910.91016
19922.0 0.0000502 19687.84570 19931.45313
19946.0 0.0000501 19702.95117 19956.66797
19964.0 0.0000501 19718.04688 19985.83984
19972.0 0.0000501 19733.13477 20019.56055
19998.0 0.0000500 19748.21484 20058.57813
20030.0 0.0000499 19763.28906 20104.16406
20065.0 0.0000498 19778.35547 20158.30664
20118.0 0.0000497 19793.41211 20223.96484
20156.0 0.0000496 19808.46289 20305.41602
20223.0 0.0000494 19823.50586 20408.63086
20317.0 0.0000492 19838.54102 20541.67383
20427.0 0.0000490 19853.56641 20715.27930
20593.0 0.0000486 19868.58594 20943.78711
20871.0 0.0000479 19883.59766 21246.30859
21301.0 0.0000469 19898.60156 21647.38867
21960.0 0.0000455 19913.59766 22174.71680
22901.0 0.0000437 19928.58594 22849.87891
23980.0 0.0000417 19943.56641 23669.17188
24964.0 0.0000401 19958.53711 24578.73633
25723.0 0.0000389 19973.50195 25460.23242
26221.0 0.0000381 19988.45898 26142.72266
26472.0 0.0000378 20003.40625 26436.47852
26318.0 0.0000380 20018.34766 26210.10938
25644.0 0.0000390 20033.28125 25518.58789
24532.0 0.0000408 20048.20508 24587.51172
23369.0 0.0000428 20063.12109 23639.47266
22401.0 0.0000446 20078.02930 22803.92578
21728.0 0.0000460 20092.93164 22129.98438
21291.0 0.0000470 20107.82227 21620.36133
21007.0 0.0000476 20122.70703 21254.97461
20818.0 0.0000480 20137.58398 21002.93164
20692.0 0.0000483 20152.45313 20832.51367
20618.0 0.0000485 20167.31055 20717.85156
20574.0 0.0000486 20182.16406 20640.43555
20546.0 0.0000487 20197.00781 20587.76563
20517.0 0.0000487 20211.84375 20551.85742
20526.0 0.0000487 20226.66992 20526.89258
20523.0 0.0000487 20241.49023 20509.68359
20522.0 0.0000487 20256.30078 20498.08398
20530.0 0.0000487 20271.10352 20490.69531
20536.0 0.0000487 20285.89844 20486.70508
20530.0 0.0000487 20300.68359 20485.30078
20543.0 0.0000487 20315.46289 20486.43750
20557.0 0.0000486 20330.23242 20489.08789
20572.0 0.0000486 20344.99219 20493.30078
20607.0 0.0000485 20359.74609 20498.85938
20621.0 0.0000485 20374.49023 20505.58008
20615.0 0.0000485 20389.22656 20513.32813
20636.0 0.0000485 20403.95508 20521.96680
20656.0 0.0000484 20418.67383 20531.41016
20656.0 0.0000484 20433.38477 20541.58594
20684.0 0.0000483 20448.08789 20552.41797
20697.0 0.0000483 20462.78320 20563.89063
20711.0 0.0000483 20477.46680 20575.94336
20727.0 0.0000482 20492.14453 20588.57813
20737.0 0.0000482 20506.81250 20601.28320
20761.0 0.0000482 20521.47266 20615.06641
20809.0 0.0000481 20536.12305 20629.44336
20817.0 0.0000480 20550.76758 20644.47070
20818.0 0.0000480 20565.40039 20660.18750
20830.0 0.0000480 20580.02734 20676.68945
20849.0 0.0000480 20594.64258 20694.09180
20869.0 0.0000479 20609.25195 20712.60156
20904.0 0.0000478 20623.85156 20732.50000
20920.0 0.0000478 20638.44336 20754.28320
20939.0 0.0000478 20653.02344 20778.80273
20983.0 0.0000477 20667.59766 20807.41406
21002.0 0.0000476 20682.16406 20842.67969
21027.0 0.0000476 20696.71875 20888.07813
21087.0 0.0000474 20711.26563 20948.56055
21123.0 0.0000473 20725.80469 21030.05273
21176.0 0.0000472 20740.33398 21138.66016
21269.0 0.0000470 20754.85547 21279.22461
21388.0 0.0000468 20769.36914 21453.20117
21553.0 0.0000464 20783.87109 21655.46094
21731.0 0.0000460 20798.36523 21870.22461
21886.0 0.0000457 20812.85156 22071.94531
22020.0 0.0000454 20827.32813 22240.08789
22150.0 0.0000451 20841.79492 22372.25195
22287.0 0.0000449 20856.25195 22468.82227
22362.0 0.0000447 20870.70313 22509.22852
22385.0 0.0000447 20885.14453 22459.24023
22281.0 0.0000449 20899.57422 22310.08008
22098.0 0.0000453 20913.99805 22096.82031
21891.0 0.0000457 20928.41211 21868.94336
21732.0 0.0000460 20942.81641 21661.74414
21600.0 0.0000463 20957.21094 21492.40234
21529.0 0.0000464 20971.59766 21365.37305
21459.0 0.0000466 20985.97461 21277.36914
21400.0 0.0000467 21000.34375 21221.05273
21409.0 0.0000467 21014.70117 21187.99219
21403.0 0.0000467 21029.05078 21170.64844
21405.0 0.0000467 21043.39258 21163.30469
21413.0 0.0000467 21057.72461 21161.02344
21409.0 0.0000467 21072.04492 21163.66016
21403.0 0.0000467 21086.35938 21168.75586
21426.0 0.0000467 21100.66211 21175.51172
21436.0 0.0000467 21114.95703 21183.72656
21435.0 0.0000467 21129.24414 21192.67383
21487.0 0.0000465 21143.51758 21202.36719
21503.0 0.0000465 21157.78516 21212.68359
21509.0 0.0000465 21172.04297 21223.57813
21557.0 0.0000464 21186.29102 21234.88281
21575.0 0.0000463 21200.52930 21246.49219
21599.0 0.0000463 21214.75781 21258.41211
21668.0 0.0000462 21228.97852 21270.58984
21743.0 0.0000460 21243.18945 21283.00000
21848.0 0.0000458 21257.38867 21295.59961
22107.0 0.0000452 21271.58008 21308.37109
22527.0 0.0000444 21285.76367 21321.30078
22945.0 0.0000436 21299.93555 21334.36914
22720.0 0.0000440 21314.09766 21347.54688
22325.0 0.0000448 21328.25195 21360.83984
21992.0 0.0000455 21342.39453 21374.23438
21874.0 0.0000457 21356.52930 21387.72656
21806.0 0.0000459 21370.65430 21401.29297
21780.0 0.0000459 21384.76953 21414.95117
21799.0 0.0000459 21398.87500 21428.68945
21819.0 0.0000458 21412.97070 21442.50195
21808.0 0.0000459 21427.05664 21456.38672
21842.0 0.0000458 21441.13281 21470.34766
21874.0 0.0000457 21455.20117 21484.39258
21855.0 0.0000458 21469.25781 21498.50977
21853.0 0.0000458 21483.30664 21512.70898
21861.0 0.0000457 21497.34180 21526.99805
21863.0 0.0000457 21511.37109 21541.39453
21891.0 0.0000457 21525.38867 21555.88867
21903.0 0.0000457 21539.39844 21570.50781
21927.0 0.0000456 21553.39648 21585.25781
21959.0 0.0000455 21567.38477 21600.15430
21993.0 0.0000455 21581.36328 21615.23828
22010.0 0.0000454 21595.33398 21630.52539
22042.0 0.0000454 21609.29102 21646.07227
22047.0 0.0000454 21623.24023 21661.93750
22046.0 0.0000454 21637.17969 21678.21094
22077.0 0.0000453 21651.10938 21695.05469
22104.0 0.0000452 21665.02930 21712.70117
22107.0 0.0000452 21678.93945 21731.56836
22099.0 0.0000453 21692.83789 21752.25391
22098.0 0.0000453 21706.72852 21775.71875
22096.0 0.0000453 21720.60742 21803.02148
22106.0 0.0000452 21734.47656 21835.61719
22135.0 0.0000452 21748.33594 21874.89844
22144.0 0.0000452 21762.18555 21921.95508
22168.0 0.0000451 21776.02344 21977.09570
22201.0 0.0000450 21789.85352 22039.25977
22229.0 0.0000450 21803.67383 22105.19141
22267.0 0.0000449 21817.48242 22168.95117
22294.0 0.0000449 21831.28125 22221.24805
22316.0 0.0000448 21845.06836 22255.90234
22351.0 0.0000447 21858.84766 22273.34766
22393.0 0.0000447 21872.61719 22279.33398
22408.0 0.0000446 21886.37500 22279.03516
22416.0 0.0000446 21900.12109 22274.70703
22439.0 0.0000446 21913.85938 22267.20508
22446.0 0.0000446 21927.58594 22257.38477
22421.0 0.0000446 21941.30469 22245.48633
22404.0 0.0000446 21955.00977 22231.17969
22371.0 0.0000447 21968.70703 22210.68750
22334.0 0.0000448 21982.39258 22193.81836
22331.0 0.0000448 21996.06836 22178.71875
22316.0 0.0000448 22009.73242 22166.20898
22313.0 0.0000448 22023.38867 22157.33594
22320.0 0.0000448 22037.03320 22152.22070
22332.0 0.0000448 22050.66797 22150.62695
22322.0 0.0000448 22064.28906 22152.15039
22340.0 0.0000448 22077.90234 22156.37695
22350.0 0.0000447 22091.50586 22162.88867
22358.0 0.0000447 22105.09766 22171.35547
22374.0 0.0000447 22118.67969 22181.29492
22379.0 0.0000447 22132.25000 22192.47656
22382.0 0.0000447 22145.81250 22204.70508
22398.0 0.0000446 22159.36133 22217.93945
22405.0 0.0000446 22172.90234 22231.78711
22411.0 0.0000446 22186.42969 22246.32617
22428.0 0.0000446 22199.94727 22261.58789
22419.0 0.0000446 22213.45508 22277.60156
22404.0 0.0000446 22226.95313 22294.48242
22430.0 0.0000446 22240.43945 22312.41602
22445.0 0.0000446 22253.91406 22331.65625
22454.0 0.0000445 22267.38086 22352.56445
22473.0 0.0000445 22280.83398 22375.58984
22502.0 0.0000444 22294.27734 22401.27148
22503.0 0.0000444 22307.71094 22430.17578
22493.0 0.0000445 22321.13281 22462.90625
22510.0 0.0000444 22334.54492 22499.96875
22528.0 0.0000444 22347.94336 22541.72070
22535.0 0.0000444 22361.33398 22588.13477
22569.0 0.0000443 22374.71289 22638.60742
22595.0 0.0000443 22388.08203 22691.64648
22633.0 0.0000442 22401.43750 22744.92578
22696.0 0.0000441 22414.78320 22796.10742
22805.0 0.0000439 22428.11914 22844.30664
22921.0 0.0000436 22441.44531 22891.05469
23046.0 0.0000434 22454.75781 22939.34766
23142.0 0.0000432 22468.06055 22991.91406
23127.0 0.0000432 22481.35156 23049.37891
23064.0 0.0000434 22494.63281 23109.45313
23003.0 0.0000435 22507.90430 23166.83984
22975.0 0.0000435 22521.16211 23213.73828
23020.0 0.0000434 22534.41016 23241.58203
23069.0 0.0000433 22547.64648 23246.05078
23095.0 0.0000433 22560.87305 23232.66406
23143.0 0.0000432 22574.08594 23214.30664
23249.0 0.0000430 22587.28906 23202.88281
23356.0 0.0000428 22600.48242 23203.71680
23400.0 0.0000427 22613.66406 23213.75977
23373.0 0.0000428 22626.83398 23223.87500
23268.0 0.0000430 22639.99219 23224.23047
23174.0 0.0000432 22653.14063 23208.93164
23116.0 0.0000433 22666.27930 23177.21289
23070.0 0.0000433 22679.40234 23132.84766
23014.0 0.0000435 22692.51758 23082.60742
22969.0 0.0000435 22705.62109 23033.22656
22925.0 0.0000436 22718.71289 22989.52930
22914.0 0.0000436 22731.79297 22953.32031
22917.0 0.0000436 22744.86328 22927.21875
22897.0 0.0000437 22757.92188 22909.69336
22899.0 0.0000437 22770.96875 22899.36719
22913.0 0.0000436 22784.00391 22894.76758
22941.0 0.0000436 22797.02734 22894.79102
22946.0 0.0000436 22810.04102 22898.93750
22968.0 0.0000435 22823.04297 22907.25977
22970.0 0.0000435 22836.03320 22920.00391
22975.0 0.0000435 22849.01172 22937.17188
22989.0 0.0000435 22861.97852 22958.63281
23004.0 0.0000435 22874.93555 22984.58594
23015.0 0.0000434 22887.88086 23015.74023
23032.0 0.0000434 22900.81250 23053.41992
23066.0 0.0000434 22913.73438 23099.45117
23117.0 0.0000433 22926.64453 23155.95313
23181.0 0.0000431 22939.54297 23224.83008
23269.0 0.0000430 22952.42969 23307.68945
23362.0 0.0000428 22965.30664 23400.74414
23450.0 0.0000426 22978.16992 23498.60156
23515.0 0.0000425 22991.02344 23590.83984
23597.0 0.0000424 23003.86328 23665.46875
23650.0 0.0000423 23016.69336 23711.49219
23687.0 0.0000422 23029.51172 23720.11523
23686.0 0.0000422 23042.31641 23689.34180
23630.0 0.0000423 23055.11133 23629.18555
23548.0 0.0000425 23067.89453 23558.70703
23466.0 0.0000426 23080.66602 23493.37695
23407.0 0.0000427 23093.42578 23447.97656
23382.0 0.0000428 23106.17383 23430.73633
23406.0 0.0000427 23118.91016 23445.07422
23447.0 0.0000426 23131.63477 23488.80664
23505.0 0.0000425 23144.34766 23554.73047
23598.0 0.0000424 23157.04883 23630.11914
23688.0 0.0000422 23169.73828 23696.88086
23772.0 0.0000421 23182.41602 23734.31250
23784.0 0.0000420 23195.08203 23728.93945
23732.0 0.0000421 23207.73633 23684.47461
23618.0 0.0000423 23220.37695 23617.65039
23536.0 0.0000425 23233.00781 23545.99414
23470.0 0.0000426 23245.62695 23481.81055
23428.0 0.0000427 23258.23438 23431.65039
23394.0 0.0000427 23270.82813 23397.28516
23378.0 0.0000428 23283.41016 23377.25195
23375.0 0.0000428 23295.98242 23368.41016
23379.0 0.0000428 23308.54297 23367.36914
23393.0 0.0000427 23321.08789 23371.26172
23404.0 0.0000427 23333.62305 23378.11523
23400.0 0.0000427 23346.14844 23386.66406
23426.0 0.0000427 23358.66016 23396.20898
23437.0 0.0000427 23371.15820 23406.37305
23432.0 0.0000427 23383.64648 23416.97461
23441.0 0.0000427 23396.12109 23427.90625
23437.0 0.0000427 23408.58594 23439.10156
23445.0 0.0000427 23421.03516 23450.52930
23459.0 0.0000426 23433.47461 23462.16406
23490.0 0.0000426 23445.90234 23474.01758
23496.0 0.0000426 23458.31836 23486.09961
23504.0 0.0000425 23470.72266 23498.46289
23511.0 0.0000425 23483.11328 23511.20508
23517.0 0.0000425 23495.49219 23524.45508
23538.0 0.0000425 23507.85938 23538.38867
23546.0 0.0000425 23520.21484 23553.23633
23572.0 0.0000424 23532.55664 23569.06445
23588.0 0.0000424 23544.88672 23585.96289
23612.0 0.0000424 23557.20508 23604.55859
23633.0 0.0000423 23569.51172 23622.88672
23626.0 0.0000423 23581.80469 23641.02344
23635.0 0.0000423 23594.08594 23657.87305
23645.0 0.0000423 23606.35742 23672.51367
23658.0 0.0000423 23618.61328 23684.73828
23657.0 0.0000423 23630.85742 23695.39063
23680.0 0.0000422 23643.09180 23705.80469
23687.0 0.0000422 23655.31250 23717.05469
23717.0 0.0000422 23667.51953 23729.97266
23747.0 0.0000421 23679.71484 23744.93945
23756.0 0.0000421 23691.90039 23762.00391
23782.0 0.0000420 23704.07031 23780.90039
23814.0 0.0000420 23716.23047 23800.58984
23843.0 0.0000419 23728.37695 23820.80859
23841.0 0.0000419 23740.51172 23839.83594
23846.0 0.0000419 23752.63281 23856.25977
23862.0 0.0000419 23764.74219 23869.16797
23850.0 0.0000419 23776.83984 23878.46680
23848.0 0.0000419 23788.92383 23884.83008
23846.0 0.0000419 23800.99609 23889.31055
23853.0 0.0000419 23813.05664 23893.04102
23872.0 0.0000419 23825.10547 23896.92578
23876.0 0.0000419 23837.13867 23901.50781
23879.0 0.0000419 23849.16211 23907.08008
23889.0 0.0000419 23861.17188 23913.71875
23921.0 0.0000418 23873.16992 23921.38672
23928.0 0.0000418 23885.15430 23930.00000
23939.0 0.0000418 23897.12695 23939.46094
23959.0 0.0000417 23909.08789 23949.63672
23957.0 0.0000417 23921.03516 23960.45313
23947.0 0.0000418 23932.96875 23971.80273
23957.0 0.0000417 23944.89258 23983.63477
23989.0 0.0000417 23956.80273 23995.86914
24011.0 0.0000416 23968.69922 24008.48633
24025.0 0.0000416 23980.58398 24021.46484
24041.0 0.0000416 23992.45703 24034.80078
24050.0 0.0000416 24004.31641 24048.50977
24059.0 0.0000416 24016.16406 24062.65820
24073.0 0.0000415 24027.99609 24077.32422
24098.0 0.0000415 24039.81836 24092.63281
24109.0 0.0000415 24051.62891 24108.76953
24127.0 0.0000414 24063.42578 24125.83984
24134.0 0.0000414 24075.20898 24144.47070
24148.0 0.0000414 24086.97852 24164.93359
24164.0 0.0000414 24098.73828 24187.75000
24194.0 0.0000413 24110.48438 24213.49023
24236.0 0.0000413 24122.21680 24242.75391
24259.0 0.0000412 24133.93555 24276.10156
24316.0 0.0000411 24145.64453 24314.00000
24381.0 0.0000410 24157.33984 24356.65234
24455.0 0.0000409 24169.02148 24403.90039
24546.0 0.0000407 24180.68945 24455.08008
24633.0 0.0000406 24192.34570 24509.12305
24699.0 0.0000405 24203.99023 24565.08984
24758.0 0.0000404 24215.62109 24622.85156
24824.0 0.0000403 24227.23828 24683.38867
24829.0 0.0000403 24238.84375 24748.42383
24783.0 0.0000404 24250.43750 24820.21680
24760.0 0.0000404 24262.01758 24901.78711
24742.0 0.0000404 24273.58203 24996.23438
24768.0 0.0000404 24285.13672 25104.24023
24895.0 0.0000402 24296.67773 25221.27148
25095.0 0.0000398 24308.20703 25334.92773
25339.0 0.0000395 24319.72070 25424.80664
25558.0 0.0000391 24331.22461 25466.95898
25648.0 0.0000390 24342.71289 25446.32422
25532.0 0.0000392 24354.19141 25368.07617
25242.0 0.0000396 24365.65430 25253.81641
24992.0 0.0000400 24377.10547 25127.97461
24816.0 0.0000403 24388.54297 25009.00391
24714.0 0.0000405 24399.96875 24907.94922
24680.0 0.0000405 24411.38086 24829.85547
24693.0 0.0000405 24422.77930 24774.78516
24733.0 0.0000404 24434.16602 24739.65234
24772.0 0.0000404 24445.53906 24718.87891
24796.0 0.0000403 24456.89844 24705.89648
24799.0 0.0000403 24468.24609 24695.03906
24775.0 0.0000404 24479.58008 24683.32813
24723.0 0.0000404 24490.90039 24670.67773
24688.0 0.0000405 24502.20898 24658.24609
24651.0 0.0000406 24513.50391 24647.42383
24633.0 0.0000406 24524.78516 24639.09570
24636.0 0.0000406 24536.05469 24633.75586
24620.0 0.0000406 24547.31250 24631.35156
24608.0 0.0000406 24558.55273 24631.73828
24609.0 0.0000406 24569.78320 24634.55078
24623.0 0.0000406 24581.00195 24639.31055
24633.0 0.0000406 24592.20508 24645.58008
24647.0 0.0000406 24603.39453 24652.94922
24652.0 0.0000406 24614.57227 24661.14453
24659.0 0.0000406 24625.73828 24669.92578
24660.0 0.0000406 24636.88867 24679.12109
24679.0 0.0000405 24648.02734 24688.64063
24697.0 0.0000405 24659.15234 24698.41406
24701.0 0.0000405 24670.26367 24708.38672
24723.0 0.0000404 24681.36328 24718.53711
24741.0 0.0000404 24692.44922 24728.55078
24733.0 0.0000404 24703.52148 24738.97461
24745.0 0.0000404 24714.58008 24749.50391
24747.0 0.0000404 24725.62695 24760.14648
24763.0 0.0000404 24736.66016 24771.05859
24766.0 0.0000404 24747.67969 24781.88477
24801.0 0.0000403 24758.68555 24792.79102
24814.0 0.0000403 24769.67969 24803.77148
24801.0 0.0000403 24780.66016 24814.83203
24817.0 0.0000403 24791.62695 24825.96289
24832.0 0.0000403 24802.58203 24836.23633
24838.0 0.0000403 24813.52148 24847.47852
24837.0 0.0000403 24824.44922 24858.78125
24849.0 0.0000402 24835.36328 24870.14844
24850.0 0.0000402 24846.26563 24881.58984
24869.0 0.0000402 24857.15234 24892.17578
24884.0 0.0000402 24868.02734 24903.76758
24915.0 0.0000401 24878.88867 24915.44141
24908.0 0.0000401 24889.73633 24927.20117
24926.0 0.0000401 24900.57227 24939.08594
24950.0 0.0000401 24911.39258 24951.01953
24967.0 0.0000401 24922.20117 24963.09375
24958.0 0.0000401 24932.99609 24975.24805
24958.0 0.0000401 24943.77734 24987.51172
24975.0 0.0000400 24954.54688 24999.91992
24979.0 0.0000400 24965.30273 25012.46094
24985.0 0.0000400 24976.04297 25025.17578
25004.0 0.0000400 24986.77148 25038.07617
25016.0 0.0000400 24997.48633 25051.20508
25022.0 0.0000400 25008.18945 25064.59766
25043.0 0.0000399 25018.87695 25078.30273
25062.0 0.0000399 25029.55273 25092.41211
25068.0 0.0000399 25040.21484 25107.01367
25085.0 0.0000399 25050.86328 25122.23633
25097.0 0.0000398 25061.49805 25138.22070
25106.0 0.0000398 25072.12109 25155.11133
25118.0 0.0000398 25082.72852 25173.03711
25140.0 0.0000398 25093.32422 25192.07617
25144.0 0.0000398 25103.90625 25212.23438
25156.0 0.0000398 25114.47461 25233.34766
25183.0 0.0000397 25125.02930 25255.10352
25202.0 0.0000397 25135.57227 25276.89453
25233.0 0.0000396 25146.09961 25297.93359
25267.0 0.0000396 25156.61523 25316.99414
25303.0 0.0000395 25167.11719 25333.37109
25310.0 0.0000395 25177.60547 25346.96289
25323.0 0.0000395 25188.08008 25358.60547
25328.0 0.0000395 25198.54102 25369.82422
25347.0 0.0000395 25208.99023 25382.91602
25392.0 0.0000394 25219.42383 25400.93164
25453.0 0.0000393 25229.84570 25425.94141
25527.0 0.0000392 25240.25391 25463.09961
25573.0 0.0000391 25250.64844 25518.98828
25630.0 0.0000390 25261.02930 25596.52930
25720.0 0.0000389 25271.39648 25699.86328
25812.0 0.0000387 25281.75000 25825.01953
25897.0 0.0000386 25292.09180 25958.13477
25963.0 0.0000385 25302.41992 26077.37695
26044.0 0.0000384 25312.73438 26159.46289
26105.0 0.0000383 25323.03320 26187.48828
26130.0 0.0000383 25333.32227 26158.86523
26151.0 0.0000382 25343.59570 26090.08398
26158.0 0.0000382 25353.85547 26015.40039
26153.0 0.0000382 25364.10352 25974.74219
26158.0 0.0000382 25374.33594 25992.89648
26164.0 0.0000382 25384.55664 26065.20703
26182.0 0.0000382 25394.76367 26164.46484
26195.0 0.0000382 25404.95703 26257.09766
26183.0 0.0000382 25415.13672 26314.88086
26145.0 0.0000382 25425.30273 26323.18750
26080.0 0.0000383 25435.45703 26284.71875
25989.0 0.0000385 25445.59570 26216.38672
25922.0 0.0000386 25455.72070 26138.88477
25878.0 0.0000386 25465.83398 26066.44727
25833.0 0.0000387 25475.93359 26004.63281
25824.0 0.0000387 25486.01953 25953.59766
25848.0 0.0000387 25496.09180 25911.34375
25946.0 0.0000385 25506.15039 25875.48828
26172.0 0.0000382 25516.19531 25844.48438
26237.0 0.0000381 25526.22852 25817.68750
26356.0 0.0000379 25536.24609 25795.05469
26638.0 0.0000375 25546.25000 25776.86719
26395.0 0.0000379 25556.24219 25763.31250
26007.0 0.0000385 25566.22070 25754.45313
25826.0 0.0000387 25576.18555 25750.29492
25758.0 0.0000388 25586.13672 25750.92578
25747.0 0.0000388 25596.07422 25756.63281
25743.0 0.0000388 25606.00000 25767.87500
25751.0 0.0000388 25615.91016 25785.09961
25783.0 0.0000388 25625.80664 25808.50977
25831.0 0.0000387 25635.69141 25837.65625
25859.0 0.0000387 25645.56250 25871.13086
25876.0 0.0000386 25655.41797 25906.32227
25905.0 0.0000386 25665.26172 25939.20313
25938.0 0.0000386 25675.09180 25964.67188
25963.0 0.0000385 25684.91016 25978.09570
25987.0 0.0000385 25694.71289 25977.83594
25995.0 0.0000385 25704.50195 25966.45508
25970.0 0.0000385 25714.27930 25948.91211
25950.0 0.0000385 25724.04297 25930.13477
25947.0 0.0000385 25733.79297 25913.55078
25938.0 0.0000386 25743.52734 25901.49023
25949.0 0.0000385 25753.25000 25895.03516
25958.0 0.0000385 25762.95898 25894.39063
25949.0 0.0000385 25772.65625 25899.21289
25947.0 0.0000385 25782.33789 25908.92969
25938.0 0.0000386 25792.00781 25922.91211
25953.0 0.0000385 25801.66211 25940.46680
25983.0 0.0000385 25811.30469 25960.75000
26011.0 0.0000384 25820.93359 25982.62891
26058.0 0.0000384 25830.54883 26004.83008
26092.0 0.0000383 25840.15039 26026.35352
26096.0 0.0000383 25849.73828 26047.24023
26105.0 0.0000383 25859.31250 26068.93359
26125.0 0.0000383 25868.87500 26093.66016
26162.0 0.0000382 25878.42383 26122.64063
26192.0 0.0000382 25887.95898 26155.15039
26194.0 0.0000382 25897.48047 26188.14648
26212.0 0.0000382 25906.98828 26216.30664
26219.0 0.0000381 25916.48242 26233.91602
26222.0 0.0000381 25925.96484 26237.92773
26227.0 0.0000381 25935.43164 26230.19336
26225.0 0.0000381 25944.88672 26216.09375
26214.0 0.0000381 25954.32813 26202.08984
26212.0 0.0000382 25963.75586 26191.96289
26216.0 0.0000381 25973.16992 26189.31445
26243.0 0.0000381 25982.57031 26195.47266
26280.0 0.0000381 25991.95703 26210.23633
26319.0 0.0000380 26001.33203 26232.45313
26359.0 0.0000379 26010.69336 26260.85156
26392.0 0.0000379 26020.04102 26294.01172
26424.0 0.0000378 26029.37500 26332.43750
26461.0 0.0000378 26038.69531 26379.24023
26544.0 0.0000377 26048.00391 26439.30469
26628.0 0.0000376 26057.29688 26519.26172
26732.0 0.0000374 26066.57813 26625.73633
26882.0 0.0000372 26075.84570 26763.39063
27060.0 0.0000370 26085.09961 26932.32617
27237.0 0.0000367 26094.33984 27125.88672
27406.0 0.0000365 26103.56836 27328.17188
27551.0 0.0000363 26112.78320 27514.73438
27623.0 0.0000362 26121.98438 27653.49414
27612.0 0.0000362 26131.16992 27712.74219
27525.0 0.0000363 26140.34570 27676.28906
27380.0 0.0000365 26149.50586 27554.26367
27190.0 0.0000368 26158.65430 27376.34570
27013.0 0.0000370 26167.78906 27175.72852
26846.0 0.0000372 26176.91016 26979.22266
26726.0 0.0000374 26186.01758 26804.51953
26644.0 0.0000375 26195.11328 26661.16211
26590.0 0.0000376 26204.19531 26551.66602
26538.0 0.0000377 26213.26367 26473.57031
26489.0 0.0000378 26222.31836 26421.54492
26438.0 0.0000378 26231.35938 26389.33203
26421.0 0.0000378 26240.38867 26371.13867
26415.0 0.0000379 26249.40430 26362.28906
26420.0 0.0000379 26258.40625 26359.45313
26417.0 0.0000379 26267.39648 26360.52539
26430.0 0.0000378 26276.37109 26363.91797
26421.0 0.0000378 26285.33398 26368.94531
26436.0 0.0000378 26294.28320 26375.16797
26425.0 0.0000378 26303.22070 26382.50195
26428.0 0.0000378 26312.14258 26391.11523
26452.0 0.0000378 26321.05273 26399.98828
26470.0 0.0000378 26329.94922 26409.69922
26483.0 0.0000378 26338.83398 26420.24023
26496.0 0.0000377 26347.70508 26431.75586
26512.0 0.0000377 26356.56055 26444.45117
26541.0 0.0000377 26365.40625 26458.58203
26582.0 0.0000376 26374.23828 26474.54102
26644.0 0.0000375 26383.05664 26492.85156
26661.0 0.0000375 26391.86133 26514.16797
26601.0 0.0000376 26400.65234 26539.22852
26608.0 0.0000376 26409.43164 26568.91016
26628.0 0.0000376 26418.19727 26604.02344
26656.0 0.0000375 26426.95117 26645.24805
26688.0 0.0000375 26435.68945 26693.36719
26745.0 0.0000374 26444.41797 26747.86523
26807.0 0.0000373 26453.13086 26808.91797
26874.0 0.0000372 26461.83203 26876.32813
26942.0 0.0000371 26470.51953 26950.31641
27013.0 0.0000370 26479.19531 27032.01563
27115.0 0.0000369 26487.85742 27123.27148
27231.0 0.0000367 26496.50586 27224.72461
27345.0 0.0000366 26505.14063 27332.79492
27473.0 0.0000364 26513.76367 27436.20117
27556.0 0.0000363 26522.37500 27516.37500
27589.0 0.0000362 26530.97266 27554.89648
27580.0 0.0000363 26539.55469 27544.25586
27520.0 0.0000363 26548.12695 27492.14258
27443.0 0.0000364 26556.68555 27416.99609
27348.0 0.0000366 26565.23047 27341.45117
27281.0 0.0000367 26573.76367 27288.78711
27244.0 0.0000367 26582.28320 27280.98828
27235.0 0.0000367 26590.78906 27336.19336
27257.0 0.0000367 26599.28320 27464.06250
27344.0 0.0000366 26607.76563 27660.17969
27512.0 0.0000363 26616.23438 27901.83984
27759.0 0.0000360 26624.68945 28148.53320
28092.0 0.0000356 26633.13086 28349.04883
28432.0 0.0000352 26641.56055 28454.89648
28583.0 0.0000350 26649.97852 28437.70703
28449.0 0.0000352 26658.38477 28302.15430
28078.0 0.0000356 26666.77539 28083.30859
27720.0 0.0000361 26675.15430 27831.25391
27457.0 0.0000364 26683.52148 27594.39648
27314.0 0.0000366 26691.87500 27407.74023
27263.0 0.0000367 26700.21484 27288.30078
27251.0 0.0000367 26708.54297 27236.25781
27238.0 0.0000367 26716.85938 27239.91797
27243.0 0.0000367 26725.16211 27281.39063
27273.0 0.0000367 26733.45313 27340.84766
27334.0 0.0000366 26741.73047 27398.58789
27389.0 0.0000365 26749.99609 27436.85547
27433.0 0.0000365 26758.24805 27443.21875
27457.0 0.0000364 26766.48633 27414.97852
27447.0 0.0000364 26774.71484 27359.36133
27383.0 0.0000365 26782.92969 27288.42578
27286.0 0.0000366 26791.13086 27213.91211
27194.0 0.0000368 26799.32227 27144.46094
27126.0 0.0000369 26807.50000 27085.92188
27084.0 0.0000369 26815.66406 27041.03516
27066.0 0.0000369 26823.81641 27010.22266
27046.0 0.0000370 26831.95703 26992.40820
27019.0 0.0000370 26840.08203 26984.95117
27024.0 0.0000370 26848.19727 26985.65039
27027.0 0.0000370 26856.30078 26992.36719
27051.0 0.0000370 26864.39063 27002.99023
27057.0 0.0000370 26872.46875 27016.30859
27062.0 0.0000370 26880.53320 27031.46680
27068.0 0.0000369 26888.58594 27047.92969
27076.0 0.0000369 26896.62695 27065.26367
27069.0 0.0000369 26904.65430 27082.96875
27067.0 0.0000369 26912.66992 27100.57031
27087.0 0.0000369 26920.67383 27117.56055
27113.0 0.0000369 26928.66602 27133.18555
27114.0 0.0000369 26936.64453 27146.39453
27100.0 0.0000369 26944.61133 27156.17578
27085.0 0.0000369 26952.56641 27162.03320
27100.0 0.0000369 26960.50977 27164.32617
27114.0 0.0000369 26968.43750 27164.20313
27119.0 0.0000369 26976.35547 27163.16602
27134.0 0.0000369 26984.26172 27162.55273
27149.0 0.0000368 26992.15625 27163.25586
27155.0 0.0000368 27000.03711 27165.68164
27170.0 0.0000368 27007.90820 27169.81250
27182.0 0.0000368 27015.76563 27175.27930
27192.0 0.0000368 27023.61133 27181.48633
27204.0 0.0000368 27031.44336 27187.73047
27215.0 0.0000367 27039.26367 27193.29102
27224.0 0.0000367 27047.07227 27197.55859
27241.0 0.0000367 27054.87109 27200.06055
27247.0 0.0000367 27062.65625 27200.55469
27232.0 0.0000367 27070.42969 27199.26758
27241.0 0.0000367 27078.19141 27196.58398
27246.0 0.0000367 27085.94141 27193.18359
27241.0 0.0000367 27093.67773 27188.64453
27235.0 0.0000367 27101.40234 27185.88867
27245.0 0.0000367 27109.11719 27184.12109
27256.0 0.0000367 27116.81836 27183.42383
27264.0 0.0000367 27124.50977 27184.09961
27277.0 0.0000367 27132.18750 27185.96094
27267.0 0.0000367 27139.85352 27188.71680
27272.0 0.0000367 27147.50977 27192.73047
27273.0 0.0000367 27155.15234 27197.50586
27280.0 0.0000367 27162.78320 27202.94922
27297.0 0.0000366 27170.40234 27208.95117
27296.0 0.0000366 27178.00977 27215.38477
27313.0 0.0000366 27185.60547 27222.38086
27301.0 0.0000366 27193.19141 27229.45898
27308.0 0.0000366 27200.76367 27236.78125
27325.0 0.0000366 27208.32617 27244.31055
27343.0 0.0000366 27215.87500 27252.02539
27340.0 0.0000366 27223.41406 27259.91797
27342.0 0.0000366 27230.93945 27268.00391
27357.0 0.0000366 27238.45508 27276.28125
27368.0 0.0000365 27245.95898 27284.76172
27360.0 0.0000365 27253.45117 27293.50195
27370.0 0.0000365 27260.93164 27302.53516
27390.0 0.0000365 27268.40234 27311.94141
27398.0 0.0000365 27275.85938 27321.85156
27415.0 0.0000365 27283.30664 27332.40625
27421.0 0.0000365 27290.74023 27343.77344
27442.0 0.0000364 27298.16406 27356.36328
27470.0 0.0000364 27305.57617 27370.56250
27494.0 0.0000364 27312.97852 27386.66992
27549.0 0.0000363 27320.36914 27405.28125
27672.0 0.0000361 27327.74805 27426.96680
27810.0 0.0000360 27335.11523 27452.29883
27935.0 0.0000358 27342.47070 27481.76367
27867.0 0.0000359 27349.81641 27515.65820
27777.0 0.0000360 27357.15039 27553.92773
27702.0 0.0000361 27364.47266 27596.01367
27643.0 0.0000362 27371.78516 27640.65430
27631.0 0.0000362 27379.08594 27685.80273
27654.0 0.0000362 27386.37500 27728.91016
27675.0 0.0000361 27393.65430 27767.34961
27691.0 0.0000361 27400.92188 27798.83008
27723.0 0.0000361 27408.17773 27821.45898
27773.0 0.0000360 27415.42383 27833.87305
27827.0 0.0000359 27422.65820 27835.96094
27857.0 0.0000359 27429.88281 27829.54297
27850.0 0.0000359 27437.09570 27818.02344
27827.0 0.0000359 27444.29688 27805.05859
27797.0 0.0000360 27451.49023 27793.71289
27759.0 0.0000360 27458.66992 27785.94336
27728.0 0.0000361 27465.83984 27782.53320
27716.0 0.0000361 27472.99805 27783.16406
27719.0 0.0000361 27480.14648 27786.58789
27726.0 0.0000361 27487.28320 27791.05273
27710.0 0.0000361 27494.41016 27794.81250
27717.0 0.0000361 27501.52734 27796.57617
27748.0 0.0000360 27508.63281 27795.65820
27778.0 0.0000360 27515.72852 27791.82031
27816.0 0.0000360 27522.81250 27785.47461
27827.0 0.0000359 27529.88672 27778.38086
27832.0 0.0000359 27536.94922 27773.35156
27811.0 0.0000360 27544.00391 27772.95508
27807.0 0.0000360 27551.04492 27778.08398
27799.0 0.0000360 27558.07813 27788.06055
27793.0 0.0000360 27565.09961 27801.38867
27805.0 0.0000360 27572.11133 27816.81445
27812.0 0.0000360 27579.11328 27833.79688
27816.0 0.0000360 27586.10352 27852.41602
27816.0 0.0000360 27593.08398 27872.91992
27850.0 0.0000359 27600.05273 27895.31250
27892.0 0.0000359 27607.01367 27919.21094
27945.0 0.0000358 27613.96289 27943.82422
28008.0 0.0000357 27620.90430 27968.15430
28054.0 0.0000356 27627.83398 27991.01563
28050.0 0.0000357 27634.75391 28011.13672
28015.0 0.0000357 27641.66211 28027.03516
28031.0 0.0000357 27648.56055 28037.08398
28034.0 0.0000357 27655.45117 28039.82813
28005.0 0.0000357 27662.33008 28034.49609
27954.0 0.0000358 27669.19922 28021.51172
27929.0 0.0000358 27676.05859 28002.35742
27914.0 0.0000358 27682.90820 27979.19141
27899.0 0.0000358 27689.74805 27954.21484
27881.0 0.0000359 27696.57813 27929.39453
27891.0 0.0000359 27703.39844 27906.33008
27899.0 0.0000358 27710.20898 27886.39063
27897.0 0.0000358 27717.00977 27870.73828
27896.0 0.0000358 27723.80078 27860.04688
27878.0 0.0000359 27730.58203 27854.33398
27882.0 0.0000359 27737.35352 27853.02148
27895.0 0.0000358 27744.11523 27855.27930
27893.0 0.0000359 27750.86719 27860.37305
27897.0 0.0000358 27757.61133 27867.83008
27902.0 0.0000358 27764.34375 27877.41602
27920.0 0.0000358 27771.06836 27889.15039
27928.0 0.0000358 27777.78320 27903.30078
27943.0 0.0000358 27784.48828 27920.19922
27967.0 0.0000358 27791.18359 27940.18945
27977.0 0.0000357 27797.86914 27963.47070
27991.0 0.0000357 27804.54688 27989.92578
28021.0 0.0000357 27811.21484 28018.72656
28057.0 0.0000356 27817.87305 28049.47266
28082.0 0.0000356 27824.52148 28080.14648
28102.0 0.0000356 27831.16211 28108.40430
28142.0 0.0000355 27837.79297 28131.70898
28167.0 0.0000355 27844.41602 28148.05859
28176.0 0.0000355 27851.02734 28157.02344
28170.0 0.0000355 27857.63281 28159.95313
28165.0 0.0000355 27864.22656 28159.33789
28134.0 0.0000355 27870.81250 28157.77539
28122.0 0.0000356 27877.38867 28157.25000
28121.0 0.0000356 27883.95703 28158.92773
28119.0 0.0000356 27890.51563 28162.97461
28143.0 0.0000355 27897.06641 28168.85938
28166.0 0.0000355 27903.60742 28175.53125
28177.0 0.0000355 27910.14063 28181.96289
28182.0 0.0000355 27916.66602 28187.49023
28177.0 0.0000355 27923.18164 28191.82617
28188.0 0.0000355 27929.68750 28194.78320
28214.0 0.0000354 27936.18555 28196.02734
28214.0 0.0000354 27942.67383 28195.13477
28230.0 0.0000354 27949.15625 28192.16797
28221.0 0.0000354 27955.62891 28187.91406
28199.0 0.0000355 27962.09180 28183.73047
28177.0 0.0000355 27968.54883 28181.08594
28165.0 0.0000355 27974.99609 28181.17969
28149.0 0.0000355 27981.43359 28184.77930
28152.0 0.0000355 27987.86523 28192.29883
28158.0 0.0000355 27994.28711 28203.74219
28182.0 0.0000355 28000.70117 28218.78516
28210.0 0.0000354 28007.10742 28236.76758
28266.0 0.0000354 28013.50586 28256.69141
28318.0 0.0000353 28019.89453 28277.27734
28352.0 0.0000353 28026.27539 28296.98047
28351.0 0.0000353 28032.64844 28314.09375
28328.0 0.0000353 28039.01367 28327.04688
28298.0 0.0000353 28045.37305 28334.67578
28249.0 0.0000354 28051.72266 28336.53711
28203.0 . . .
28189.0 . . .
28171.0 . . .
28180.0 . . .
28172.0 . . .
28175.0 . . .
28183.0 . . .
28187.0 . . .
28187.0 . . .
28188.0 . . .
28188.0 . . .
28196.0 . . .
28203.0 . . .
28225.0 . . .
28237.0 . . .
28232.0 . . .
28219.0 . . .
28239.0 . . .
28246.0 . . .
28251.0 . . .
28261.0 . . .
28268.0 . . .
28266.0 . . .
28282.0 . . .
28285.0 . . .
28300.0 . . .
28317.0 . . .
28322.0 . . .
28315.0 . . .
28312.0 . . .
28341.0 . . .
28361.0 . . .
28393.0 . . .
28421.0 . . .
28452.0 . . .
28486.0 . . .
28520.0 . . .
28532.0 . . .
28530.0 . . .
28526.0 . . .
28521.0 . . .
28497.0 . . .
28467.0 . . .
28443.0 . . .
28438.0 . . .
28425.0 . . .
28431.0 . . .
28448.0 . . .
28452.0 . . .
28484.0 . . .
28504.0 . . .
28528.0 . . .
28522.0 . . .
28506.0 . . .
28477.0 . . .
28461.0 . . .
28461.0 . . .
28462.0 . . .
28465.0 . . .
28475.0 . . .
28466.0 . . .
28457.0 . . .
28444.0 . . .
28431.0 . . .
28418.0 . . .
28429.0 . . .
28456.0 . . .
28466.0 . . .
28465.0 . . .
28465.0 . . .
28489.0 . . .
28507.0 . . .
28532.0 . . .
28555.0 . . .
28572.0 . . .
28592.0 . . .
28617.0 . . .
28609.0 . . .
28583.0 . . .
28565.0 . . .
28559.0 . . .
28561.0 . . .
28552.0 . . .
28543.0 . . .
28548.0 . . .
28549.0 . . .
28557.0 . . .
28557.0 . . .
28565.0 . . .
28551.0 . . .
28541.0 . . .
28559.0 . . .
28556.0 . . .
28546.0 . . .
28551.0 . . .
28563.0 . . .
28573.0 . . .
28578.0 . . .
28576.0 . . .
28577.0 . . .
28585.0 . . .
28609.0 . . .
28643.0 . . .
28664.0 . . .
28685.0 . . .
28725.0 . . .
28739.0 . . .
28760.0 . . .
28766.0 . . .
28751.0 . . .
28740.0 . . .
28740.0 . . .
28728.0 . . .
28716.0 . . .
28742.0 . . .
28756.0 . . .
28768.0 . . .
28775.0 . . .
28789.0 . . .
28791.0 . . .
28778.0 . . .
28758.0 . . .
28738.0 . . .
28724.0 . . .
28701.0 . . .
28687.0 . . .
28675.0 . . .
28652.0 . . .
28631.0 . . .
28629.0 . . .
28625.0 . . .
28629.0 . . .
28628.0 . . .
28618.0 . . .
28612.0 . . .
28622.0 . . .
28614.0 . . .
28609.0 . . .
28602.0 . . .
28602.0 . . .
28610.0 . . .
28614.0 . . .
28610.0 . . .
28614.0 . . .
28604.0 . . .
28604.0 . . .
28604.0 . . .
28610.0 . . .
28612.0 . . .
28626.0 . . .
28651.0 . . .
28661.0 . . .
28648.0 . . .
28629.0 . . .
28614.0 . . .
28608.0 . . .
28600.0 . . .
28580.0 . . .
28583.0 . . .
28587.0 . . .
28594.0 . . .
28610.0 . . .
28613.0 . . .
28637.0 . . .
28668.0 . . .
28715.0 . . .
28766.0 . . .
28820.0 . . .
28837.0 . . .
28835.0 . . .
28803.0 . . .
28767.0 . . .
28712.0 . . .
28682.0 . . .
28656.0 . . .
28617.0 . . .
28601.0 . . .
28606.0 . . .
28595.0 . . .
28570.0 . . .
28558.0 . . .
28547.0 . . .
28538.0 . . .
28501.0 . . .
28491.0 . . .
28469.0 . . .
28429.0 . . .
28394.0 . . .
28377.0 . . .
28351.0 . . .
28311.0 . . .
28280.0 . . .
28247.0 . . .
28209.0 . . .
28147.0 . . .
28085.0 . . .
28038.0 . . .
27971.0 . . .
27914.0 . . .
27833.0 . . .
27724.0 . . .
27621.0 . . .
27521.0 . . .
27499.0 . . .
27647.0 . . .
27719.0 . . .
27751.0 . . .
27777.0 . . .
27782.0 . . .
27815.0 . . .
27849.0 . . .
27856.0 . . .
27859.0 . . .
27854.0 . . .
27881.0 . . .
27920.0 . . .
27939.0 . . .
27940.0 . . .
27953.0 . . .
27952.0 . . .
27971.0 . . .
27994.0 . . .
28008.0 . . .
28004.0 . . .
28022.0 . . .
28016.0 . . .
27995.0 . . .
27979.0 . . .
27963.0 . . .
27958.0 . . .
27946.0 . . .
27935.0 . . .
27918.0 . . .
27879.0 . . .
27847.0 . . .
27825.0 . . .
27818.0 . . .
27799.0 . . .
27772.0 . . .
27751.0 . . .
27733.0 . . .
27709.0 . . .
27707.0 . . .
27705.0 . . .
27706.0 . . .
27706.0 . . .
27677.0 . . .
27652.0 . . .
27649.0 . . .
27647.0 . . .
27633.0 . . .
27620.0 . . .
27606.0 . . .
27615.0 . . .
27610.0 . . .
27606.0 . . .
27610.0 . . .
27613.0 . . .
27621.0 . . .
27614.0 . . .
27596.0 . . .
27562.0 . . .
27501.0 . . .
27457.0 . . .
27433.0 . . .
27416.0 . . .
27409.0 . . .
27400.0 . . .
27397.0 . . .
27406.0 . . .
27396.0 . . .
27370.0 . . .
27339.0 . . .
27323.0 . . .
27297.0 . . .
27276.0 . . .
27273.0 . . .
27270.0 . . .
27260.0 . . .
27223.0 . . .
27167.0 . . .
27126.0 . . .
27095.0 . . .
27076.0 . . .
27052.0 . . .
27031.0 . . .
27026.0 . . .
27004.0 . . .
26997.0 . . .
26995.0 . . .
26978.0 . . .
26965.0 . . .
26956.0 . . .
26942.0 . . .
26921.0 . . .
26913.0 . . .
26914.0 . . .
26926.0 . . .
26905.0 . . .
26886.0 . . .
26880.0 . . .
26878.0 . . .
26885.0 . . .
26897.0 . . .
26881.0 . . .
26882.0 . . .
26877.0 . . .
26872.0 . . .
26857.0 . . .
26841.0 . . .
26851.0 . . .
26848.0 . . .
26829.0 . . .
26830.0 . . .
26794.0 . . .
26748.0 . . .
26735.0 . . .
26737.0 . . .
26709.0 . . .
26677.0 . . .
26662.0 . . .
26650.0 . . .
26640.0 . . .
26625.0 . . .
26608.0 . . .
26590.0 . . .
26570.0 . . .
26523.0 . . .
26488.0 . . .
26463.0 . . .
26423.0 . . .
26386.0 . . .
26350.0 . . .
26312.0 . . .
26264.0 . . .
26235.0 . . .
26225.0 . . .
26215.0 . . .
26175.0 . . .
26149.0 . . .
26140.0 . . .
26131.0 . . .
26093.0 . . .
26047.0 . . .
26029.0 . . .
26010.0 . . .
25977.0 . . .
25963.0 . . .
25946.0 . . .
25919.0 . . .
25878.0 . . .
25844.0 . . .
25837.0 . . .
25818.0 . . .
25799.0 . . .
25769.0 . . .
25742.0 . . .
25731.0 . . .
25740.0 . . .
25734.0 . . .
25704.0 . . .
25674.0 . . .
25644.0 . . .
25624.0 . . .
25602.0 . . .
25582.0 . . .
25557.0 . . .
25524.0 . . .
25500.0 . . .
25460.0 . . .
25451.0 . . .
25427.0 . . .
25389.0 . . .
25371.0 . . .
25327.0 . . .
25279.0 . . .
25259.0 . . .
25238.0 . . .
25223.0 . . .
25206.0 . . .
25185.0 . . .
25165.0 . . .
25141.0 . . .
25086.0 . . .
25060.0 . . .
25022.0 . . .
24993.0 . . .
24960.0 . . .
24925.0 . . .
24897.0 . . .
24886.0 . . .
24864.0 . . .
24845.0 . . .
24842.0 . . .
24832.0 . . .
24787.0 . . .
24763.0 . . .
24725.0 . . .
24698.0 . . .
24680.0 . . .
24661.0 . . .
24657.0 . . .
24646.0 . . .
24625.0 . . .
24599.0 . . .
24546.0 . . .
24520.0 . . .
24485.0 . . .
24468.0 . . .
24446.0 . . .
24426.0 . . .
24398.0 . . .
24391.0 . . .
24403.0 . . .
24392.0 . . .
24373.0 . . .
24354.0 . . .
24330.0 . . .
24327.0 . . .
24316.0 . . .
24292.0 . . .
24275.0 . . .
24236.0 . . .
24217.0 . . .
24191.0 . . .
24180.0 . . .
24160.0 . . .
24135.0 . . .
24100.0 . . .
24088.0 . . .
24073.0 . . .
24074.0 . . .
24080.0 . . .
24074.0 . . .
24076.0 . . .
24083.0 . . .
24077.0 . . .
24058.0 . . .
24038.0 . . .
23991.0 . . .
23955.0 . . .
23933.0 . . .
23900.0 . . .
23859.0 . . .
23814.0 . . .
23788.0 . . .
23747.0 . . .
23723.0 . . .
23723.0 . . .
23694.0 . . .
23652.0 . . .
23616.0 . . .
23584.0 . . .
23550.0 . . .
23525.0 . . .
23491.0 . . .
23452.0 . . .
23423.0 . . .
23431.0 . . .
23390.0 . . .
23332.0 . . .
23310.0 . . .
23279.0 . . .
23244.0 . . .
23201.0 . . .
23168.0 . . .
23159.0 . . .
23139.0 . . .
23129.0 . . .
23124.0 . . .
23072.0 . . .
23024.0 . . .
23000.0 . . .
22984.0 . . .
22967.0 . . .
22944.0 . . .
22934.0 . . .
22909.0 . . .
22878.0 . . .
22861.0 . . .
22824.0 . . .
22808.0 . . .
22790.0 . . .
22769.0 . . .
22768.0 . . .
22742.0 . . .
22697.0 . . .
22671.0 . . .
22612.0 . . .
22565.0 . . .
22546.0 . . .
22526.0 . . .
22498.0 . . .
22466.0 . . .
22418.0 . . .
22387.0 . . .
22337.0 . . .
22315.0 . . .
22272.0 . . .
22234.0 . . .
22225.0 . . .
22179.0 . . .
22146.0 . . .
22139.0 . . .
22119.0 . . .
22090.0 . . .
22017.0 . . .
21991.0 . . .
21976.0 . . .
21974.0 . . .
21964.0 . . .
21897.0 . . .
21857.0 . . .
21843.0 . . .
21832.0 . . .
21820.0 . . .
21766.0 . . .
21738.0 . . .
21700.0 . . .
21668.0 . . .
21641.0 . . .
21572.0 . . .
21549.0 . . .
21533.0 . . .
21503.0 . . .
21497.0 . . .
21453.0 . . .
21433.0 . . .
21395.0 . . .
21358.0 . . .
21370.0 . . .
21329.0 . . .
21304.0 . . .
21252.0 . . .
21234.0 . . .
21224.0 . . .
21173.0 . . .
21135.0 . . .
21086.0 . . .
21067.0 . . .
21065.0 . . .
21014.0 . . .
21004.0 . . .
20964.0 . . .
20950.0 . . .
20934.0 . . .
20871.0 . . .
20851.0 . . .
20841.0 . . .
20838.0 . . .
20778.0 . . .
20709.0 . . .
20681.0 . . .
20650.0 . . .
20645.0 . . .
20619.0 . . .
20545.0 . . .
20514.0 . . .
20496.0 . . .
20508.0 . . .
20475.0 . . .
20439.0 . . .
20422.0 . . .
20393.0 . . .
20397.0 . . .
20328.0 . . .
20292.0 . . .
20272.0 . . .
20259.0 . . .
20234.0 . . .
20168.0 . . .
20132.0 . . .
20102.0 . . .
20113.0 . . .
20081.0 . . .
20027.0 . . .
19998.0 . . .
19976.0 . . .
19978.0 . . .
19949.0 . . .
19894.0 . . .
19840.0 . . .
19787.0 . . .
19804.0 . . .
19781.0 . . .
19761.0 . . .
19729.0 . . .
19703.0 . . .
19690.0 . . .
19599.0 . . .
19582.0 . . .
19535.0 . . .
19510.0 . . .
19467.0 . . .
19403.0 . . .
19390.0 . . .
19369.0 . . .
19378.0 . . .
19327.0 . . .
19290.0 . . .
19270.0 . . .
19247.0 . . .
19241.0 . . .
19186.0 . . .
19145.0 . . .
19109.0 . . .
19085.0 . . .
19031.0 . . .
18989.0 . . .
18968.0 . . .
18965.0 . . .
18982.0 . . .
18921.0 . . .
18881.0 . . .
18854.0 . . .
18876.0 . . .
18862.0 . . .
18783.0 . . .
18757.0 . . .
18722.0 . . .
18712.0 . . .
18678.0 . . .
18625.0 . . .
18584.0 . . .
18547.0 . . .
18540.0 . . .
18439.0 . . .
18404.0 . . .
18381.0 . . .
18389.0 . . .
18349.0 . . .
18311.0 . . .
18272.0 . . .
18228.0 . . .
18241.0 . . .
18161.0 . . .
18139.0 . . .
18119.0 . . .
18127.0 . . .
18067.0 . . .
17983.0 . . .
17978.0 . . .
17974.0 . . .
17977.0 . . .
17884.0 . . .
17872.0 . . .
17845.0 . . .
17852.0 . . .
17775.0 . . .
17724.0 . . .
17715.0 . . .
17708.0 . . .
17706.0 . . .
17626.0 . . .
17573.0 . . .
17541.0 . . .
17598.0 . . .
17526.0 . . .
17482.0 . . .
17444.0 . . .
17441.0 . . .
17410.0 . . .
17338.0 . . .
17317.0 . . .
17298.0 . . .
17309.0 . . .
17210.0 . . .
17158.0 . . .
17147.0 . . .
17150.0 . . .
17092.0 . . .
16998.0 . . .
17003.0 . . .
16992.0 . . .
17016.0 . . .
16929.0 . . .
16877.0 . . .
16873.0 . . .
16904.0 . . .
16803.0 . . .
16748.0 . . .
16733.0 . . .
16745.0 . . .
16691.0 . . .
16591.0 . . .
16563.0 . . .
16565.0 . . .
16548.0 . . .
16452.0 . . .
16420.0 . . .
16419.0 . . .
16433.0 . . .
16367.0 . . .
16319.0 . . .
16281.0 . . .
16310.0 . . .
16252.0 . . .
16165.0 . . .
16146.0 . . .
16203.0 . . .
16192.0 . . .
16076.0 . . .
16029.0 . . .
16021.0 . . .
16022.0 . . .
15921.0 . . .
15871.0 . . .
15872.0 . . .
15897.0 . . .
15832.0 . . .
15777.0 . . .
15785.0 . . .
15794.0 . . .
15703.0 . . .
15607.0 . . .
15587.0 . . .
15594.0 . . .
15577.0 . . .
15478.0 . . .
15458.0 . . .
15465.0 . . .
15430.0 . . .
15313.0 . . .
15288.0 . . .
15293.0 . . .
15307.0 . . .
15180.0 . . .
15138.0 . . .
15137.0 . . .
15151.0 . . .
15071.0 . . .
15001.0 . . .
15001.0 . . .
14999.0 . . .
14918.0 . . .
14840.0 . . .
14842.0 . . .
14849.0 . . .
14791.0 . . .
14706.0 . . .
14688.0 . . .
14679.0 . . .
14625.0 . . .
14549.0 . . .
14529.0 . . .
14568.0 . . .
14543.0 . . .
14419.0 . . .
14389.0 . . .
14373.0 . . .
14336.0 . . .
14240.0 . . .
14187.0 . . .
14208.0 . . .
14235.0 . . .
14160.0 . . .
14062.0 . . .
14018.0 . . .
14022.0 . . .
13945.0 . . .
13899.0 . . .
13917.0 . . .
13938.0 . . .
13852.0 . . .
13783.0 . . .
13741.0 . . .
13755.0 . . .
13657.0 . . .
13591.0 . . .
13578.0 . . .
13605.0 . . .
13485.0 . . .
13396.0 . . .
13372.0 . . .
13420.0 . . .
13338.0 . . .
13248.0 . . .
13234.0 . . .
13256.0 . . .
13146.0 . . .
13044.0 . . .
13042.0 . . .
13071.0 . . .
12996.0 . . .
12904.0 . . .
12879.0 . . .
12884.0 . . .
12819.0 . . .
12712.0 . . .
12687.0 . . .
12693.0 . . .
12622.0 . . .
12530.0 . . .
12501.0 . . .
12533.0 . . .
12448.0 . . .
12371.0 . . .
12362.0 . . .
12399.0 . . .
12275.0 . . .
12219.0 . . .
12187.0 . . .
12183.0 . . .
12060.0 . . .
12000.0 . . .
11995.0 . . .
12001.0 . . .
11879.0 . . .
11846.0 . . .
11818.0 . . .
11777.0 . . .
11617.0 . . .
11580.0 . . .
11588.0 . . .
11558.0 . . .
11420.0 . . .
11384.0 . . .
11420.0 . . .
11381.0 . . .
11197.0 . . .
11171.0 . . .
11210.0 . . .
11169.0 . . .
11037.0 . . .
11000.0 . . .
11010.0 . . .
10883.0 . . .
10756.0 . . .
10729.0 . . .
10771.0 . . .
10659.0 . . .
10574.0 . . .
10563.0 . . .
10596.0 . . .
10440.0 . . .
10398.0 . . .
10413.0 . . .
10401.0 . . .
10283.0 . . .
10259.0 . . .
10342.0 . . .
10360.0 . . .
10226.0 . . .
10184.0 . . .
10238.0 . . .
10167.0 . . .
10059.0 . . .
10076.0 . . .
10170.0 . . .
10026.0 . . .
9899.0 . . .
9896.0 . . .
9975.0 . . .
9858.0 . . .
9841.0 . . .
9924.0 . . .
9923.0 . . .
9788.0 . . .
9759.0 . . .
9819.0 . . .
9741.0 . . .
9625.0 . . .
9633.0 . . .
9666.0 . . .
9554.0 . . .
9529.0 . . .
9550.0 . . .
9558.0 . . .
9404.0 . . .
9389.0 . . .
9471.0 . . .
9397.0 . . .
9230.0 . . .
9247.0 . . .
9357.0 . . .
9255.0 . . .
9158.0 . . .
9178.0 . . .
9240.0 . . .
9094.0 . . .
9093.0 . . .
9149.0 . . .
9123.0 . . .
8932.0 . . .
8961.0 . . .
9099.0 . . .
8958.0 . . .
8822.0 . . .
8879.0 . . .
8936.0 . . .
8749.0 . . .
8758.0 . . .
8801.0 . . .
8715.0 . . .
8545.0 . . .
8627.0 . . .
8728.0 . . .
8534.0 . . .
8477.0 . . .
8546.0 . . .
8546.0 . . .
8393.0 . . .
8426.0 . . .
8476.0 . . .
8376.0 . . .
8263.0 . . .
8322.0 . . .
8377.0 . . .
8279.0 . . .
8256.0 . . .
8296.0 . . .
8251.0 . . .
8125.0 . . .
8161.0 . . .
8161.0 . . .
8057.0 . . .
7970.0 . . .
8038.0 . . .
8053.0 . . .
7961.0 . . .
7946.0 . . .
7901.0 . . .
7888.0 . . .
7799.0 . . .
7806.0 . . .
7842.0 . . .
7749.0 . . .
7729.0 . . .
7701.0 . . .
7669.0 . . .
7595.0 . . .
7615.0 . . .
7642.0 . . .
7601.0 . . .
7559.0 . . .
7543.0 . . .
7555.0 . . .
7467.0 . . .
7437.0 . . .
7401.0 . . .
7366.0 . . .
7351.0 . . .
7329.0 . . .
7347.0 . . .
7302.0 . . .
7232.0 . . .
7212.0 . . .
7195.0 . . .
7086.0 . . .
7096.0 . . .
7055.0 . . .
7034.0 . . .
7030.0 . . .
6969.0 . . .
6894.0 . . .
6828.0 . . .
6840.0 . . .
6832.0 . . .
6824.0 . . .
6794.0 . . .
6716.0 . . .
6711.0 . . .
6721.0 . . .
6643.0 . . .
6635.0 . . .
6683.0 . . .
6589.0 . . .
6624.0 . . .
6540.0 . . .
6457.0 . . .
6418.0 . . .
6411.0 . . .
6401.0 . . .
6313.0 . . .
6256.0 . . .
6315.0 . . .
6293.0 . . .
6273.0 . . .
6231.0 . . .
6135.0 . . .
6098.0 . . .
6058.0 . . .
6042.0 . . .
6023.0 . . .
5926.0 . . .
5921.0 . . .
5865.0 . . .
5741.0 . . .
5758.0 . . .
5698.0 . . .
5693.0 . . .
5702.0 . . .
5613.0 . . .
5557.0 . . .
5540.0 . . .
5492.0 . . .
5509.0 . . .
5442.0 . . .
5386.0 . . .
5420.0 . . .
5299.0 . . .
5235.0 . . .
5224.0 . . .
5117.0 . . .
5110.0 . . .
5026.0 . . .
4821.0 . . .
4856.0 . . .
4718.0 . . .
4726.0 . . .
4682.0 . . .
4381.0 . . .
4360.0 . . .
4260.0 . . .
3898.0 . . .
3840.0 . . .
3454.0 . . .
3051.0 . . .
2978.0 . . .
2519.0 . . .
2195.0 . . .
2160.0 . . .
4716.0 . . .
5892.0 . . .
loop_
_refln_index_h
_refln_index_k
_refln_index_l
_refln_observed_status
_refln_F_squared_meas
_refln_F_squared_calc
_refln_phase_calc
_refln_d_spacing
_gsas_i100_meas
1 1 0 o 2209.548 8.550 180.00 4.68801 2.05
1 1 1 o 1438.586 556.497 -178.43 4.48625 12.81
0 0 4 o 10816.914 7315.191 -132.12 3.86467 9.21
1 1 2 o 7463.396 6354.571 -76.09 4.00836 39.21
0 2 0 o 9312.083 8199.000 0.00 3.85370 12.16
0 2 1 o 416.619 135.340 61.78 3.73926 0.80
1 1 3 o 223.947 50.612 146.35 3.46765 1.19
0 2 2 o 2247.635 837.666 99.54 3.44881 5.08
1 1 4 o 6060.415 4872.984 -82.34 2.98202 24.16
0 2 3 o 9988.717 7818.482 -64.84 3.08611 16.17
0 0 6 o 566.618 323.893 127.52 2.57645 0.21
2 0 0 o 150295.66 145695.69 0.00 2.95308 100.00
0 2 4 o 884.885 761.690 112.86 2.72885 2.17
1 1 5 o 4585.559 3033.618 -96.41 2.58099 8.02
2 0 2 o 143.446 98.623 -140.67 2.75860 0.89
0 2 5 o 1427.563 979.438 120.10 2.41156 1.16
2 0 4 o 5327.996 4987.543 -130.47 2.34647 10.71
1 1 6 o 22318.807 20507.455 -79.33 2.25792 29.26
1 3 1 o 4562.628 4366.357 -47.01 2.32900 6.87
2 2 1 o 97.229 84.132 73.48 2.31751 0.19
1 3 0 o 6725.438 6425.927 180.00 2.35590 3.12
2 2 0 o 5662.424 5575.143 0.00 2.34400 1.31
1 3 2 o 17588.086 16966.330 139.26 2.25354 23.90
2 2 2 o 557.393 578.208 96.02 2.24313 1.24
0 2 6 o 3365.868 2010.878 113.44 2.14186 0.62
2 2 3 o 8340.254 5401.060 -64.40 2.13363 13.75
1 3 3 o 1548.578 1117.087 49.35 2.14258 6.48
1 1 7 o 3547.201 1439.470 -115.73 1.99782 4.22
0 0 8 o 24533.150 19466.889 -163.74 1.93234 5.24
2 0 6 o 407.528 317.912 135.16 1.94142 1.84
1 3 4 o 1371.809 575.532 11.31 2.01160 5.20
2 2 4 o 1322.842 623.742 114.98 2.00418 1.74
0 2 7 o 10340.234 8928.292 -143.77 1.91607 5.00
1 3 5 o 2808.659 2789.855 -147.61 1.87387 2.59
2 2 5 o 655.086 649.825 122.35 1.86787 0.76
1 1 8 o 828.773 949.429 82.65 1.78652 0.72
0 4 1 o 1100.989 1120.032 140.85 1.91205 0.49
0 4 0 o 3133.188 3575.828 180.00 1.92685 1.03
0 2 8 o 213.431 227.998 125.79 1.72735 0.16
0 4 2 o 4426.888 4662.788 78.97 1.86963 2.13
3 1 1 o 0.000 64.485 -165.01 1.89312 0.00
3 1 2 o 3327.003 3307.844 -73.24 1.85192 3.30
1 3 6 o 3371.666 3174.003 -14.18 1.73862 1.11
2 2 6 o 1625.236 1631.652 113.42 1.73383 2.16
3 1 0 o 34.733 38.922 180.00 1.90748 0.03
3 1 3 o 25.562 29.135 140.66 1.78885 0.12
0 4 3 o 277.659 347.449 -78.07 1.80480 0.21
0 4 4 o 13623.172 14834.740 113.22 1.72441 7.72
2 0 8 o 16171.528 15910.431 -164.02 1.61694 17.62
3 1 4 o 2997.308 2849.736 -81.64 1.71048 1.08
1 1 9 o 2995.700 2883.593 169.71 1.61279 1.41
1 3 7 o 225.674 218.013 -13.10 1.61119 0.17
0 0 10 o 1658.781 1402.546 -112.49 1.54587 0.23
2 2 7 o 7819.977 7434.857 -143.87 1.60737 10.25
0 4 5 o 1040.672 1445.252 167.38 1.63527 0.30
0 2 9 o 754.394 629.472 -150.62 1.56886 0.53
3 1 5 o 0.000 1924.739 -97.37 1.62338 0.00
0 4 6 o 3226.614 2668.957 105.01 1.54306 1.31
3 1 6 o 13647.470 12521.120 -81.08 1.53305 1.55
1 1 10 o 5392.638 5154.700 111.32 1.46811 0.80
1 3 8 o 1654.753 1480.698 22.56 1.49406 1.09
2 2 8 o 214.250 198.945 135.78 1.49101 0.21
2 4 1 o 0.000 895.913 142.23 1.60500 0.00
2 4 2 o 3992.113 3768.325 79.82 1.57966 1.67
2 4 0 o 0.000 3020.791 180.00 1.61372 0.00
0 2 10 o 2041.795 1569.862 -99.09 1.43474 1.06
2 4 3 o 344.118 287.216 -79.92 1.53997 0.40
3 1 7 o 871.851 852.007 -118.37 1.44355 1.70
3 3 1 o 2903.917 2699.496 -45.76 1.55475 1.69
2 4 4 o 13354.849 12876.931 112.06 1.48912 10.56
3 3 2 o 10631.097 10383.075 141.45 1.53168 11.05
3 3 0 o 5446.449 4545.833 180.00 1.56267 0.56
0 4 7 o 719.321 626.269 -155.90 1.45189 0.45
3 3 3 o 667.601 611.692 54.61 1.49542 0.66
1 3 9 o 4288.339 3745.497 164.74 1.38792 0.85
2 2 9 o 579.524 530.655 -152.39 1.38548 0.38
3 3 4 o 363.496 340.995 12.11 1.44872 0.29
1 1 11 o 0.000 1860.625 95.25 1.34615 0.00
2 0 10 o 1258.581 1211.268 -112.81 1.36957 1.67
2 4 5 o 1708.400 1157.044 165.38 1.43058 0.65
1 5 1 o 0.000 556.539 -132.25 1.48462 0.00
1 5 2 o 7446.202 7132.231 164.18 1.46450 4.86
0 2 11 o 14070.762 14153.390 122.19 1.32029 4.19
1 5 0 o 0.000 3540.133 180.00 1.49152 0.00
1 5 3 o 191.426 147.970 57.53 1.43271 0.17
0 4 8 o 5156.204 5092.560 30.37 1.36442 3.18
4 0 2 o 0.000 42.059 -39.43 1.45032 0.00
3 1 8 o 679.379 625.045 75.63 1.35749 1.16
3 3 5 o 2906.098 1969.200 -142.24 1.39465 1.99
1 5 4 o 2645.395 2291.916 -59.57 1.39148 2.47
4 0 0 o 54513.33 59686.75 0.00 1.47654 9.11
2 4 6 o 2322.853 2297.064 104.92 1.36761 0.30
4 0 4 o 2844.716 2769.158 -121.59 1.37930 4.45
3 3 6 o 2464.599 2487.360 -9.41 1.33612 1.45
1 5 5 o 2533.417 2463.162 83.58 1.34337 2.48
4 2 1 o 0.000 69.406 112.27 1.37335 0.00
4 2 2 o 0.000 440.236 88.21 1.35737 0.00
4 2 0 o 0.000 2890.794 0.00 1.37880 0.00
4 2 3 o 3153.335 3144.953 -64.64 1.33194 0.85
