#------------------------------------------------------------------------------
#$Date: 2019-11-25 04:54:22 +0200 (Mon, 25 Nov 2019) $
#$Revision: 240053 $
#$URL: file:///home/coder/svn-repositories/cod/cif/4/12/93/4129308.cif $
#------------------------------------------------------------------------------
#
# This file is available in the Crystallography Open Database (COD),
# http://www.crystallography.net/
#
# All data on this site have been placed in the public domain by the
# contributors.
#
data_4129308
loop_
_publ_author_name
'Harada, Jun'
'Ohtani, Masaki'
'Takahashi, Yukihiro'
'Inabe, Tamotsu'
_publ_section_title
;
 Molecular motion, dielectric response, and phase transition of
 charge-transfer crystals: acquired dynamic and dielectric properties of
 polar molecules in crystals.
;
_journal_issue                   13
_journal_name_full               'Journal of the American Chemical Society'
_journal_page_first              4477
_journal_page_last               4486
_journal_paper_doi               10.1021/jacs.5b00412
_journal_volume                  137
_journal_year                    2015
_chemical_formula_moiety         'Br4 C8 O3'
_chemical_formula_sum            'C8 Br4 O3'
_chemical_formula_weight         463.72
_space_group_crystal_system      monoclinic
_space_group_IT_number           14
_space_group_name_Hall           '-P 2yn'
_space_group_name_H-M_alt        'P 1 21/n 1'
_atom_sites_solution_primary     direct
_audit_creation_date             2014-12-18
_audit_creation_method
;
Olex2 1.2
(compiled 2014.11.28 svn.r3106 for OlexSys, GUI svn.r4959)
;
_cell_angle_alpha                90
_cell_angle_beta                 90.8147(12)
_cell_angle_gamma                90
_cell_formula_units_Z            4
_cell_length_a                   12.6749(10)
_cell_length_b                   6.1713(5)
_cell_length_c                   13.4149(11)
_cell_measurement_reflns_used    8321
_cell_measurement_temperature    300
_cell_measurement_theta_max      27.420
_cell_measurement_theta_min      2.195
_cell_volume                     1049.22(15)
_computing_cell_refinement       'SAINT v8.34A (Bruker, 2013)'
_computing_data_collection       'Bruker APEX2 2014.1-1 (Bruker, 2014)'
_computing_data_reduction        'SAINT v8.34A (Bruker, 2013)'
_computing_molecular_graphics    'Olex2 (Dolomanov et al., 2009)'
_computing_publication_material  'Olex2 (Dolomanov et al., 2009)'
_computing_structure_refinement  'ShelXL (Sheldrick, 2008)'
_computing_structure_solution    'ShelXT (Sheldrick, 2008)'
_diffrn_ambient_temperature      300
_diffrn_detector_area_resol_mean 8.3333
_diffrn_measured_fraction_theta_full 1.000
_diffrn_measured_fraction_theta_max 0.998
_diffrn_measurement_device_type  'Bruker APEX-II CCD'
_diffrn_measurement_method       '\f and \w scans'
_diffrn_radiation_type           MoK\a
_diffrn_radiation_wavelength     0.71073
_diffrn_reflns_av_R_equivalents  0.0348
_diffrn_reflns_av_unetI/netI     0.0221
_diffrn_reflns_Laue_measured_fraction_full 1.000
_diffrn_reflns_Laue_measured_fraction_max 0.998
_diffrn_reflns_limit_h_max       16
_diffrn_reflns_limit_h_min       -16
_diffrn_reflns_limit_k_max       7
_diffrn_reflns_limit_k_min       -7
_diffrn_reflns_limit_l_max       17
_diffrn_reflns_limit_l_min       -17
_diffrn_reflns_number            14615
_diffrn_reflns_point_group_measured_fraction_full 1.000
_diffrn_reflns_point_group_measured_fraction_max 0.998
_diffrn_reflns_theta_full        25.242
_diffrn_reflns_theta_max         27.433
_diffrn_reflns_theta_min         2.195
_diffrn_source                   'rotating-anode X-ray tube'
_diffrn_standards_number         0
_exptl_absorpt_coefficient_mu    15.322
_exptl_absorpt_correction_T_max  0.1591
_exptl_absorpt_correction_T_min  0.0813
_exptl_absorpt_correction_type   multi-scan
_exptl_absorpt_process_details
'SADABS-2014/2 (Bruker,2014/2) was used for absorption correction. wR2(int) was 0.1140 before and 0.0444 after correction. The Ratio of minimum to maximum transmission is 0.5110. The \l/2 correction factor is Not present.'
_exptl_crystal_colour            colourless
_exptl_crystal_colour_primary    colourless
_exptl_crystal_density_diffrn    2.936
_exptl_crystal_description       block
_exptl_crystal_F_000             848
_exptl_crystal_size_max          0.22
_exptl_crystal_size_mid          0.16
_exptl_crystal_size_min          0.1
_refine_diff_density_max         0.601
_refine_diff_density_min         -0.640
_refine_diff_density_rms         0.093
_refine_ls_extinction_coef       0.0066(3)
_refine_ls_extinction_expression Fc^*^=kFc[1+0.001xFc^2^\l^3^/sin(2\q)]^-1/4^
_refine_ls_extinction_method     SHELXL
_refine_ls_goodness_of_fit_ref   1.040
_refine_ls_hydrogen_treatment    undef
_refine_ls_matrix_type           full
_refine_ls_number_parameters     137
_refine_ls_number_reflns         2379
_refine_ls_number_restraints     0
_refine_ls_restrained_S_all      1.040
_refine_ls_R_factor_all          0.0244
_refine_ls_R_factor_gt           0.0214
_refine_ls_shift/su_max          0.001
_refine_ls_shift/su_mean         0.000
_refine_ls_structure_factor_coef Fsqd
_refine_ls_weighting_details
'w=1/[\s^2^(Fo^2^)+(0.0264P)^2^+0.9891P] where P=(Fo^2^+2Fc^2^)/3'
_refine_ls_weighting_scheme      calc
_refine_ls_wR_factor_gt          0.0533
_refine_ls_wR_factor_ref         0.0547
_reflns_Friedel_coverage         0.000
_reflns_number_gt                2174
_reflns_number_total             2379
_reflns_threshold_expression     'I > 2\s(I)'
_cod_data_source_file            ja5b00412_si_002.cif
_cod_data_source_block           TBPA_300K
_cod_database_code               4129308
_shelxl_version_number           2014/6
_shelx_space_group_comment
;
The symmetry employed for this shelxl refinement is uniquely defined
by the following loop, which should always be used as a source of
symmetry information in preference to the above space-group names.
They are only intended as comments.
;
_shelx_estimated_absorpt_t_max   0.310
_shelx_estimated_absorpt_t_min   0.134
_olex2_refinement_description
;
;
_shelx_res_file
;
TITL TBPA_300K in P2(1)/n
CELL 0.71073  12.67490   6.17130  13.41490  90.0000  90.8147  90.0000
ZERR    4.00   0.00100   0.00050   0.00110   0.0000   0.0012   0.0000
LATT  1
SYMM 0.5-X, 0.5+Y, 0.5-Z
SFAC C O BR
UNIT 32 12 16
TEMP 27.000
SIZE 0.10 0.16 0.22
L.S. 5
BOND $H
CONF
ACTA
LIST 4
FMAP 2
PLAN 20
WGHT    0.026400    0.989100
EXTI    0.006598
FVAR       0.08652
BR1   3    0.432798    0.919481    0.382327    11.00000    0.04377    0.03762 =
         0.03797   -0.01269   -0.00040    0.00277
BR2   3    0.304020    0.806562    0.172320    11.00000    0.03385    0.04024 =
         0.04695   -0.00015   -0.01103    0.00980
BR3   3    0.366796    0.378832    0.044028    11.00000    0.03834    0.05182 =
         0.03558   -0.01298   -0.01525    0.00169
BR4   3    0.574880    0.085710    0.111921    11.00000    0.04566    0.04252 =
         0.04749   -0.01666   -0.00205    0.01012
O1    2    0.723786    0.111697    0.307630    11.00000    0.04727    0.06414 =
         0.06514    0.00091   -0.00752    0.02495
O2    2    0.615845    0.653990    0.497342    11.00000    0.05579    0.07048 =
         0.04205   -0.01829   -0.02307    0.00151
O3    2    0.687154    0.372801    0.417760    11.00000    0.03267    0.05860 =
         0.03770    0.00317   -0.01336    0.00526
C1    1    0.670746    0.263218    0.328712    11.00000    0.02730    0.04474 =
         0.03799    0.00494   -0.00361    0.00230
C2    1    0.616758    0.543519    0.426201    11.00000    0.02989    0.05012 =
         0.03232    0.00127   -0.00729   -0.00329
C3    1    0.468587    0.678889    0.304969    11.00000    0.02628    0.02810 =
         0.02683   -0.00293    0.00029   -0.00150
C4    1    0.415564    0.629932    0.216006    11.00000    0.02136    0.02910 =
         0.02924    0.00136   -0.00284   -0.00162
C5    1    0.444374    0.450159    0.159068    11.00000    0.02331    0.03265 =
         0.02502   -0.00195   -0.00577   -0.00377
C6    1    0.529846    0.320510    0.188141    11.00000    0.02633    0.02823 =
         0.02839   -0.00307    0.00014   -0.00149
C7    1    0.581451    0.370110    0.276885    11.00000    0.02156    0.03272 =
         0.02900    0.00243   -0.00176    0.00048
C8    1    0.550244    0.543681    0.334437    11.00000    0.02499    0.03362 =
         0.02403   -0.00187   -0.00359   -0.00452
HKLF 4

REM  TBPA_300K in P2(1)/n
REM R1 =  0.0214 for    2174 Fo > 4sig(Fo)  and  0.0244 for all    2379 data
REM    137 parameters refined using      0 restraints

END

WGHT      0.0264      0.9891

REM Highest difference peak  0.601,  deepest hole -0.640,  1-sigma level  0.093
Q1    1   0.3595  0.5010  0.0422  11.00000  0.05    0.60
Q2    1   0.4862  0.8806  0.4160  11.00000  0.05    0.49
Q3    1   0.3812  0.8564  0.3570  11.00000  0.05    0.46
Q4    1   0.4137  0.4205  0.1194  11.00000  0.05    0.40
Q5    1   0.4774  0.9282  0.3364  11.00000  0.05    0.40
Q6    1   0.5607  0.0826  0.1649  11.00000  0.05    0.40
Q7    1   0.5933  0.0762  0.1758  11.00000  0.05    0.39
Q8    1   0.6382  0.6774  0.4402  11.00000  0.05    0.38
Q9    1   0.5789  0.5515  0.3823  11.00000  0.05    0.37
Q10   1   0.3896  0.8916  0.4400  11.00000  0.05    0.37
Q11   1   0.3623  0.8262  0.2037  11.00000  0.05    0.37
Q12   1   0.3425  0.3547  0.0917  11.00000  0.05    0.37
Q13   1   0.2689  0.7978  0.2279  11.00000  0.05    0.37
Q14   1   0.6334  0.1089  0.1413  11.00000  0.05    0.36
Q15   1   0.3745  0.6882  0.2001  11.00000  0.05    0.36
Q16   1   0.4232  0.3804  0.0892  11.00000  0.05    0.35
Q17   1   0.3215  0.9200  0.1750  11.00000  0.05    0.33
Q18   1   0.5752  0.3561  0.2260  11.00000  0.05    0.32
Q19   1   0.5200  0.6313  0.3145  11.00000  0.05    0.32
Q20   1   0.5166  0.1165  0.0723  11.00000  0.05    0.30
;
_shelx_res_checksum              15791
_shelx_hkl_file
;
   2   0   0   48.51    2.26
   2   0   0   57.65    2.27
   2   0   0   51.31    2.27
   3   0   0    0.06    0.02
   3   0   0    0.02    0.02
   3   0   0    0.06    0.03
   4   0   0  124.37    5.75
   4   0   0  145.62    5.78
   4   0   0  129.58    5.74
   5   0   0    0.08    0.05
   5   0   0    0.02    0.04
   5   0   0    0.02    0.05
   6   0   0   70.06    3.05
   6   0   0   72.45    3.05
   6   0   0   68.93    3.05
   7   0   0    0.07    0.05
   7   0   0    0.09    0.06
   7   0   0   -0.01    0.07
   8   0   0  127.53    5.74
   8   0   0  136.16    5.73
   8   0   0  132.57    5.73
   9   0   0   -0.05    0.10
   9   0   0   -0.01    0.09
   9   0   0    0.05    0.07
  10   0   0    0.33    0.09
  10   0   0    0.07    0.11
  10   0   0    0.13    0.11
  11   0   0   -0.10    0.12
  11   0   0    0.04    0.09
  11   0   0   -0.06    0.12
  12   0   0    3.72    0.24
  12   0   0    3.51    0.27
 -12   0   0    4.18    0.33
  12   0   0    3.62    0.27
 -13   0   0   -0.05    0.19
  13   0   0    0.04    0.12
  13   0   0   -0.05    0.14
  14   0   0   19.62    0.96
 -14   0   0   22.52    1.01
  15   0   0    0.05    0.17
 -15   0   0    0.00    0.22
 -16   0   0   15.14    0.76
  16   0   0   13.07    0.70
   0  -1   0    0.05    0.02
   0  -1   0    0.15    0.03
   0   1   0    0.17    0.02
  -1  -1   0   14.62    0.64
   1  -1   0   14.81    0.63
   1  -1   0   14.54    0.64
  -1  -1   0   14.55    0.64
   1  -1   0   14.61    0.64
   1   1   0   14.38    0.63
  -1   1   0   14.59    0.64
  -1   1   0   15.33    0.63
   1   1   0   14.79    0.64
   1   1   0   14.54    0.64
   2  -1   0  108.49    4.78
   2  -1   0  110.45    4.79
   2  -1   0  104.05    4.77
   2  -1   0  110.17    4.78
  -2  -1   0  110.96    4.96
   2   1   0  108.22    4.78
   2   1   0  102.97    4.76
  -2   1   0  127.46    4.80
   2   1   0  113.36    4.80
   2   1   0  112.70    4.78
   3  -1   0   38.79    1.68
   3  -1   0   38.73    1.67
   3  -1   0   35.65    1.66
   3  -1   0   39.67    1.68
  -3  -1   0   40.30    1.67
   3   1   0   38.49    1.67
  -3   1   0   40.81    1.67
   3   1   0   38.61    1.67
   3   1   0   38.72    1.68
   3   1   0   37.65    1.68
   4  -1   0    0.28    0.03
   4  -1   0    0.21    0.04
   4  -1   0    0.39    0.03
   4  -1   0    0.29    0.05
   4   1   0    0.40    0.03
   4   1   0    0.25    0.04
  -4   1   0    0.28    0.06
   4   1   0    0.24    0.05
   4   1   0    0.36    0.03
   5  -1   0    0.10    0.03
  -5  -1   0    0.37    0.06
   5  -1   0    0.09    0.04
   5   1   0    0.18    0.03
  -5   1   0    0.07    0.07
   5   1   0    0.03    0.05
   5   1   0    0.05    0.02
   5   1   0    0.08    0.04
   6  -1   0  285.75   11.78
   6  -1   0  290.09   11.87
   6  -1   0  253.96   11.79
   6  -1   0  275.71   11.77
  -6  -1   0  289.20   11.85
   6   1   0  287.39   11.83
   6   1   0  260.51   11.80
   6   1   0  278.76   12.02
  -6   1   0  235.20   11.82
   6   1   0  285.99   12.02
   6   1   0  274.37   11.84
   7  -1   0  212.39    9.17
  -7  -1   0  226.00    9.25
   7  -1   0  199.91    9.20
   7  -1   0  226.09    9.30
   7   1   0  206.91    9.15
   7   1   0  209.33    9.20
   7   1   0  222.48    9.15
  -7   1   0  196.93    9.26
   7   1   0  212.13    9.23
   7   1   0  221.22    9.23
   8  -1   0   33.99    1.44
   8  -1   0   34.00    1.47
  -8  -1   0   35.59    1.47
   8  -1   0   31.05    1.45
   8  -1   0   32.70    1.44
  -8   1   0   33.46    1.48
   8   1   0   33.80    1.46
   8   1   0   33.70    1.46
   8   1   0   33.57    1.47
  -9  -1   0   29.11    1.21
   9  -1   0   28.05    1.21
   9  -1   0   26.71    1.18
   9  -1   0   25.89    1.19
   9  -1   0   25.96    1.18
   9   1   0   28.53    1.20
   9   1   0   27.65    1.20
  -9   1   0   27.33    1.23
   9   1   0   27.50    1.21
  10  -1   0   65.44    2.81
  10  -1   0   60.95    2.79
 -10  -1   0   68.26    2.80
 -10   1   0   66.24    2.82
  10   1   0   63.05    2.79
  10   1   0   63.70    2.80
  11  -1   0   18.41    0.86
  11  -1   0   18.99    0.88
 -11  -1   0   20.92    0.88
  11   1   0   18.52    0.87
  11   1   0   18.37    0.86
 -11   1   0   20.79    0.91
  12  -1   0    5.72    0.32
 -12  -1   0    7.00    0.36
  12  -1   0    6.31    0.37
  12   1   0    6.04    0.37
 -12   1   0    6.48    0.42
  12   1   0    5.64    0.34
  13  -1   0   11.29    0.60
 -13  -1   0   13.16    0.61
  13   1   0   12.51    0.60
  13   1   0   11.82    0.59
 -13   1   0   13.06    0.64
 -14  -1   0   -0.02    0.16
  14  -1   0    0.10    0.16
 -14   1   0    0.08    0.20
  14   1   0   -0.10    0.18
  15  -1   0    2.52    0.26
  15   1   0    2.93    0.26
  16  -1   0    2.90    0.29
 -16  -1   0    3.27    0.34
  16   1   0    2.93    0.28
   0  -2   0    6.18    0.30
   0  -2   0    6.77    0.29
   0  -2   0    6.53    0.30
   0   2   0    6.45    0.30
   1  -2   0  300.83   13.46
   1  -2   0  317.15   14.05
   1  -2   0  328.09   13.48
  -1  -2   0  300.99   13.49
  -1  -2   0  329.04   13.48
  -1   2   0  329.59   13.48
   1   2   0  290.27   13.70
  -1   2   0  315.50   13.46
   1   2   0  313.39   13.48
   1   2   0  302.64   13.47
   2  -2   0  121.42    5.58
   2  -2   0  129.80    5.63
   2  -2   0  129.70    5.61
  -2  -2   0  130.88    5.60
  -2  -2   0  127.38    5.63
  -2   2   0  136.83    5.63
   2   2   0  132.32    5.63
  -2   2   0  129.24    5.62
   2   2   0  127.44    5.56
   2   2   0  132.00    5.61
   3  -2   0  223.47    9.08
  -3  -2   0  207.07    9.07
   3  -2   0  200.58    9.05
   3  -2   0  211.32    9.08
  -3   2   0  225.98    9.08
   3   2   0  213.72    9.09
  -3   2   0  205.77    9.06
   3   2   0  202.93    9.04
   3   2   0  213.14    9.06
   3   2   0  196.19    8.99
   4  -2   0   11.65    0.51
  -4  -2   0   11.40    0.53
   4  -2   0   11.92    0.52
   4  -2   0   11.45    0.51
   4  -2   0   11.47    0.51
   4   2   0   11.57    0.51
   4   2   0   11.18    0.50
  -4   2   0   12.20    0.52
   4   2   0   11.11    0.51
   5  -2   0    4.30    0.21
   5  -2   0    4.49    0.23
   5  -2   0    4.53    0.21
   5  -2   0    4.31    0.21
  -5  -2   0    4.32    0.23
   5   2   0    4.25    0.22
   5   2   0    4.20    0.20
   5   2   0    4.14    0.21
  -5   2   0    4.80    0.23
   5   2   0    4.09    0.21
   6  -2   0   77.66    3.45
  -6  -2   0   82.15    3.46
   6  -2   0   80.50    3.48
   6  -2   0   77.93    3.46
   6  -2   0   81.60    3.49
   6   2   0   81.14    3.46
   6   2   0   78.15    3.47
   6   2   0   78.17    3.46
  -6   2   0   86.76    3.46
   6   2   0   77.64    3.46
   7  -2   0    2.43    0.14
   7  -2   0    2.34    0.15
   7  -2   0    2.56    0.15
   7  -2   0    2.38    0.18
  -7  -2   0    2.54    0.19
   7   2   0    2.53    0.14
   7   2   0    2.60    0.19
   7   2   0    2.60    0.14
  -7   2   0    2.89    0.20
   7   2   0    2.63    0.14
   8  -2   0    1.24    0.10
   8  -2   0    1.50    0.14
  -8  -2   0    1.76    0.15
   8  -2   0    1.57    0.11
   8  -2   0    1.41    0.11
   8   2   0    1.40    0.12
  -8   2   0    1.64    0.16
   8   2   0    1.58    0.10
   8   2   0    1.61    0.15
   8   2   0    1.53    0.10
   9  -2   0    9.95    0.48
   9  -2   0   10.72    0.52
   9  -2   0   10.08    0.47
  -9  -2   0   11.22    0.51
   9  -2   0   10.82    0.48
   9   2   0   10.89    0.47
  -9   2   0   10.80    0.54
   9   2   0   10.49    0.49
   9   2   0   10.72    0.47
   9   2   0   10.64    0.51
  10  -2   0   22.53    0.99
 -10  -2   0   22.76    0.98
  10  -2   0   20.56    0.95
  10  -2   0   20.36    0.96
  10  -2   0   22.65    0.95
  10   2   0   21.34    0.96
  10   2   0   22.61    0.94
  10   2   0   22.32    0.98
  10   2   0   20.99    0.94
 -10   2   0   21.85    1.01
  11  -2   0    4.99    0.28
  11  -2   0    5.44    0.25
 -11  -2   0    5.64    0.33
  11  -2   0    5.30    0.35
  11  -2   0    4.90    0.25
  11   2   0    5.46    0.34
 -11   2   0    4.93    0.36
  12  -2   0    4.53    0.22
 -12  -2   0    5.00    0.32
  12  -2   0    4.95    0.35
  12  -2   0    4.37    0.22
  12   2   0    4.98    0.31
 -12   2   0    4.67    0.36
 -13  -2   0   30.71    1.33
  13  -2   0   28.08    1.34
 -13   2   0   30.59    1.36
  13   2   0   29.28    1.33
 -14  -2   0    5.39    0.36
  14  -2   0    4.98    0.37
  14   2   0    4.98    0.35
  15  -2   0    0.11    0.21
 -15  -2   0    0.09    0.20
  15   2   0    0.26    0.21
   0  -3   0   -0.06    0.06
   0  -3   0    0.03    0.06
   0   3   0    0.02    0.04
   0   3   0    0.00    0.06
   0   3   0    0.02    0.05
  -1  -3   0   13.63    0.64
  -1  -3   0   14.39    0.63
   1  -3   0   14.15    0.63
   1  -3   0   15.03    0.64
   1  -3   0   14.15    0.64
   1   3   0   14.04    0.63
   1   3   0   14.51    0.64
  -1   3   0   13.59    0.63
   1   3   0   13.72    0.62
  -1   3   0   14.81    0.64
  -2  -3   0   12.13    0.54
   2  -3   0   11.82    0.54
   2  -3   0   11.49    0.55
   2  -3   0   12.07    0.54
  -2  -3   0   12.80    0.56
  -2   3   0   11.71    0.54
   2   3   0   12.28    0.55
   2   3   0   12.28    0.52
   2   3   0   12.06    0.55
   3  -3   0    3.83    0.21
  -3  -3   0    4.16    0.21
  -3  -3   0    3.87    0.23
   3  -3   0    3.77    0.21
   3  -3   0    3.96    0.22
   3   3   0    4.18    0.21
   3   3   0    4.02    0.22
  -3   3   0    4.16    0.22
  -3   3   0    4.15    0.21
   4  -3   0  200.43    8.83
   4  -3   0  200.98    8.83
  -4  -3   0  200.88    8.84
   4  -3   0  204.49    8.86
   4   3   0  211.08    8.87
   4   3   0  194.30    8.83
  -4   3   0  215.30    8.85
   4   3   0  210.03    8.85
  -4   3   0  201.31    8.83
   5  -3   0   39.07    1.79
   5  -3   0   42.16    1.79
   5  -3   0   40.22    1.79
   5  -3   0   42.44    1.80
  -5  -3   0   43.45    1.81
   5   3   0   38.21    1.79
   5   3   0   42.02    1.79
  -5   3   0   43.37    1.80
   5   3   0   41.08    1.80
   6  -3   0   38.70    1.66
  -6  -3   0   39.01    1.68
   6  -3   0   39.07    1.67
   6  -3   0   38.25    1.66
   6  -3   0   36.54    1.66
  -6   3   0   40.77    1.67
   6   3   0   37.42    1.64
   6   3   0   36.61    1.67
   6   3   0   38.05    1.66
   6   3   0   37.61    1.66
   7  -3   0   32.86    1.43
  -7  -3   0   33.61    1.45
   7  -3   0   32.76    1.43
   7  -3   0   33.29    1.45
   7   3   0   32.03    1.43
  -7   3   0   34.07    1.44
   7   3   0   32.24    1.43
   7   3   0   32.09    1.44
   8  -3   0   24.90    1.09
  -8  -3   0   24.53    1.11
   8  -3   0   24.22    1.08
   8  -3   0   24.17    1.11
  -8   3   0   25.97    1.11
   8   3   0   24.99    1.08
   8   3   0   24.32    1.10
   9  -3   0    0.00    0.14
   9  -3   0    0.16    0.09
  -9  -3   0   -0.09    0.14
   9  -3   0    0.04    0.08
  -9   3   0    0.05    0.13
   9   3   0    0.15    0.07
   9   3   0   -0.03    0.14
  10  -3   0   65.81    3.07
  10  -3   0   73.84    3.07
 -10  -3   0   73.85    3.10
  10  -3   0   71.93    3.10
  10   3   0   69.92    3.07
  10   3   0   70.00    3.09
 -10   3   0   73.14    3.10
 -11  -3   0   10.39    0.52
  11  -3   0    9.67    0.53
  11  -3   0    9.79    0.46
  11   3   0    9.51    0.44
  11   3   0    9.51    0.50
 -11   3   0    9.72    0.53
  12  -3   0   10.79    0.57
 -12  -3   0   11.20    0.58
  12  -3   0   10.92    0.51
  12   3   0   10.78    0.49
  12   3   0   11.44    0.49
  12   3   0   11.18    0.57
 -13  -3   0    2.58    0.25
  13  -3   0    3.02    0.28
  13  -3   0    2.80    0.19
  13   3   0    2.59    0.25
 -14  -3   0    6.36    0.43
  14  -3   0    6.03    0.30
  14  -3   0    6.17    0.45
  14   3   0    5.93    0.40
 -15  -3   0    0.15    0.22
  15  -3   0    0.16    0.24
  15   3   0    0.17    0.19
   0  -4   0  150.96    6.52
   0   4   0  148.07    6.50
   0   4   0  147.62    6.54
   0   4   0  154.82    6.51
  -1  -4   0    0.21    0.09
   1  -4   0    0.17    0.09
  -1  -4   0    0.24    0.11
   1  -4   0    0.16    0.09
   1   4   0    0.15    0.09
  -1   4   0    0.06    0.07
  -1   4   0    0.21    0.10
   1   4   0    0.34    0.10
  -1   4   0    0.15    0.08
   1   4   0    0.20    0.05
   2  -4   0   10.30    0.48
  -2  -4   0    9.83    0.49
   2  -4   0   10.25    0.49
  -2  -4   0   10.21    0.49
   2  -4   0   10.30    0.49
  -2   4   0   10.47    0.48
  -2   4   0   10.59    0.49
   2   4   0   10.42    0.48
   2   4   0   10.19    0.45
   2   4   0   10.69    0.49
   3  -4   0  164.56    7.38
  -3  -4   0  169.80    7.41
   3  -4   0  178.29    7.48
  -3  -4   0  166.16    7.40
   3  -4   0  172.63    7.44
   3   4   0  168.13    7.43
  -3   4   0  177.08    7.42
  -3   4   0  174.86    8.41
   3   4   0  175.29    7.43
   4  -4   0   40.92    1.81
   4  -4   0   41.18    1.81
  -4  -4   0   42.35    1.83
   4  -4   0   40.82    1.81
   4   4   0   43.27    1.82
   4   4   0   41.25    1.81
  -4   4   0   41.86    1.81
  -4   4   0   40.69    1.81
  -5  -4   0   72.63    3.13
   5  -4   0   72.74    3.12
   5  -4   0   69.36    3.11
   5  -4   0   72.14    3.12
  -5   4   0   75.05    3.12
   5   4   0   71.64    3.12
   5   4   0   71.10    3.11
   6  -4   0   12.59    0.59
  -6  -4   0   12.64    0.62
   6  -4   0   12.95    0.61
   6  -4   0   12.55    0.60
   6   4   0   13.06    0.59
  -6   4   0   13.34    0.60
   6   4   0   12.91    0.61
   7  -4   0    1.11    0.15
   7  -4   0    1.10    0.13
  -7  -4   0    1.36    0.19
   7  -4   0    1.29    0.12
  -7   4   0    1.38    0.14
   7   4   0    1.10    0.11
   7   4   0    1.27    0.15
   8  -4   0    0.31    0.10
   8  -4   0    0.24    0.15
  -8  -4   0    0.07    0.17
   8  -4   0    0.23    0.10
   8   4   0    0.22    0.10
  -8   4   0    0.31    0.13
   8   4   0    0.30    0.13
  -9  -4   0   -0.18    0.17
   9  -4   0    0.19    0.10
   9  -4   0    0.25    0.12
   9  -4   0    0.00    0.14
  -9   4   0    0.19    0.13
   9   4   0    0.12    0.14
   9   4   0    0.20    0.09
  10  -4   0    0.83    0.12
  10  -4   0    0.94    0.14
 -10  -4   0    0.85    0.20
  10  -4   0    0.87    0.19
  10   4   0    0.78    0.17
  10   4   0    1.00    0.11
 -11  -4   0   30.97    1.34
  11  -4   0   28.81    1.33
  11  -4   0   31.00    1.30
  11   4   0   28.18    1.28
  11   4   0   27.93    1.32
  12  -4   0    0.54    0.20
  12  -4   0    0.56    0.13
 -12  -4   0    0.71    0.22
  12   4   0    0.90    0.21
  12   4   0    0.70    0.09
 -13  -4   0    1.62    0.25
  13  -4   0    1.60    0.24
  13  -4   0    1.42    0.14
  13   4   0    1.39    0.11
  13   4   0    1.40    0.21
  14  -4   0    2.64    0.31
  14  -4   0    2.68    0.22
 -14  -4   0    2.71    0.29
  14   4   0    2.53    0.26
  14   4   0    2.59    0.13
   0  -5   0    0.00    0.12
   0  -5   0    0.03    0.14
   0   5   0    0.01    0.11
   0   5   0    0.39    0.08
   0   5   0    0.01    0.12
  -1  -5   0   14.33    0.67
   1  -5   0   14.76    0.67
   1  -5   0   14.08    0.67
  -1  -5   0   13.77    0.68
   1   5   0   14.64    0.67
  -1   5   0   14.99    0.68
   1   5   0   13.46    0.66
  -1   5   0   14.04    0.66
  -1   5   0   14.13    0.65
  -2  -5   0   10.56    0.55
   2  -5   0   11.29    0.53
   2  -5   0   11.17    0.55
  -2   5   0   11.03    0.53
  -2   5   0   11.20    0.53
  -2   5   0   10.98    0.55
   2   5   0   11.20    0.54
   2   5   0   11.60    0.54
  -3  -5   0   50.54    2.32
   3  -5   0   51.78    2.30
   3  -5   0   53.78    2.31
   3   5   0   54.83    2.31
  -3   5   0   52.70    2.30
   3   5   0   54.18    2.31
  -3   5   0   52.98    2.31
  -4  -5   0    6.61    0.40
   4  -5   0    6.42    0.36
   4  -5   0    6.45    0.37
   4  -5   0    6.89    0.36
   4   5   0    6.78    0.36
  -4   5   0    6.77    0.37
   4   5   0    7.09    0.37
   5  -5   0   27.82    1.26
   5  -5   0   28.45    1.25
   5  -5   0   27.28    1.26
  -5  -5   0   26.93    1.27
  -5   5   0   28.54    1.25
   5   5   0   29.11    1.26
   5   5   0   29.15    1.25
   6  -5   0    1.28    0.16
  -6  -5   0    1.90    0.21
   6  -5   0    1.32    0.17
   6  -5   0    1.60    0.15
   6   5   0    1.46    0.17
   6   5   0    1.65    0.15
  -6   5   0    1.48    0.16
   7  -5   0   16.51    0.80
   7  -5   0   17.35    0.79
  -7  -5   0   17.79    0.83
   7  -5   0   16.80    0.77
  -7   5   0   16.87    0.78
   7   5   0   16.99    0.78
   7   5   0   17.19    0.80
   8  -5   0    0.16    0.12
  -8  -5   0    0.19    0.21
   8  -5   0   -0.04    0.17
   8  -5   0   -0.02    0.13
   8   5   0    0.01    0.11
  -8   5   0    0.03    0.13
   8   5   0    0.01    0.17
   9  -5   0    9.02    0.45
   9  -5   0    8.98    0.50
   9  -5   0    9.58    0.49
  -9  -5   0    9.23    0.55
   9   5   0    9.35    0.46
   9   5   0    8.78    0.50
  10  -5   0   -0.05    0.15
  10  -5   0    0.04    0.20
 -10  -5   0   -0.03    0.20
  10   5   0    0.17    0.18
  10   5   0   -0.01    0.12
  11  -5   0    0.09    0.22
  11  -5   0    0.13    0.15
 -11  -5   0   -0.01    0.20
  11   5   0   -0.14    0.11
  11   5   0    0.46    0.21
  12  -5   0    6.56    0.45
 -12  -5   0    7.64    0.50
  12  -5   0    6.79    0.40
  12   5   0    5.89    0.35
  12   5   0    7.24    0.46
   0  -6   0   18.21    0.89
   0   6   0   19.69    0.88
   0   6   0   18.58    0.87
  -1  -6   0    1.03    0.20
   1  -6   0    1.28    0.19
   1   6   0    1.02    0.17
  -1   6   0    1.10    0.16
   1   6   0    0.70    0.16
   2  -6   0   17.16    0.81
   2  -6   0   16.31    0.82
  -2  -6   0   16.99    0.84
   2   6   0   17.73    0.82
  -2   6   0   17.49    0.81
   2   6   0   18.41    0.82
   3  -6   0    2.77    0.23
   3  -6   0    2.63    0.22
  -3  -6   0    3.15    0.28
  -3   6   0    2.98    0.26
   3   6   0    2.79    0.23
   3   6   0    2.27    0.21
  -3   6   0    2.68    0.26
  -4  -6   0    2.76    0.28
   4  -6   0    2.12    0.20
   4  -6   0    2.32    0.21
  -4   6   0    2.29    0.21
   4   6   0    2.47    0.21
   4   6   0    2.16    0.21
  -4   6   0    2.31    0.20
   5  -6   0    6.10    0.39
  -5  -6   0    6.59    0.43
   5  -6   0    6.21    0.37
  -5   6   0    6.27    0.38
   5   6   0    6.52    0.38
  -5   6   0    5.75    0.39
   5   6   0    6.67    0.39
   6  -6   0   24.12    1.09
  -6  -6   0   23.77    1.11
   6  -6   0   23.17    1.07
   6   6   0   24.75    1.10
  -6   6   0   23.69    1.08
   6   6   0   24.31    1.08
  -6   6   0   22.17    1.10
  -7  -6   0    6.74    0.49
   7  -6   0    6.08    0.38
   7  -6   0    5.79    0.41
   7  -6   0    6.41    0.37
  -7   6   0    5.86    0.45
   7   6   0    6.41    0.40
   7   6   0    6.74    0.38
   8  -6   0    5.97    0.35
  -8  -6   0    6.60    0.45
   8  -6   0    5.66    0.40
   8  -6   0    5.61    0.38
   8   6   0    6.11    0.43
  -8   6   0    4.94    0.45
   8   6   0    5.95    0.37
   9  -6   0   12.15    0.64
   9  -6   0   11.94    0.65
  -9  -6   0   12.63    0.67
   9   6   0   12.45    0.60
   9   6   0   12.57    0.66
  -9   6   0   10.76    0.69
  10  -6   0    2.22    0.28
 -10  -6   0    2.03    0.31
  10  -6   0    2.17    0.24
  10   6   0    2.01    0.25
 -10   6   0    2.31    0.32
  10   6   0    2.25    0.20
   0  -7   0    0.22    0.19
   0   7   0    0.44    0.18
   1  -7   0   19.21    0.97
  -1  -7   0   20.92    1.00
   1   7   0   21.89    0.98
  -1   7   0   21.50    0.98
  -2  -7   0    0.24    0.23
   2  -7   0    0.18    0.19
   2   7   0   -0.12    0.18
  -2   7   0    0.07    0.17
   2   7   0   -0.05    0.18
   3  -7   0    0.95    0.20
  -3  -7   0    0.86    0.26
  -3   7   0    0.90    0.19
   3   7   0    0.79    0.20
   3   7   0    1.03    0.20
   4  -7   0   10.50    0.56
  -4  -7   0   11.10    0.63
   4  -7   0   11.46    0.61
  -4   7   0   11.14    0.58
   4   7   0   11.50    0.59
   4   7   0   11.31    0.59
  -5  -7   0    1.40    0.30
   5  -7   0    1.52    0.20
   5  -7   0    1.76    0.24
   5   7   0    1.27    0.22
   5   7   0    1.32    0.21
   6  -7   0    0.03    0.16
  -6  -7   0    0.14    0.25
   6  -7   0   -0.14    0.20
   6   7   0   -0.03    0.19
   6   7   0    0.10    0.18
  -7  -7   0   10.25    0.60
   7  -7   0    8.86    0.50
   7  -7   0    9.55    0.55
   7   7   0   10.02    0.57
  -7   7   0    8.90    0.56
   7   7   0    9.02    0.53
  16   0  -1    0.16    0.19
 -15   0   1   14.46    0.71
  15   0  -1   11.62    0.64
  14   0  -1    0.12    0.14
 -14   0   1    0.20    0.20
  14   0  -1   -0.07    0.15
  13   0  -1    4.85    0.30
 -13   0   1    5.34    0.38
  13   0  -1    4.51    0.32
  13   0  -1    5.29    0.33
  12   0  -1    0.14    0.11
  12   0  -1    0.13    0.13
  12   0  -1    0.01    0.13
  11   0  -1   15.71    0.70
  11   0  -1   15.01    0.69
  11   0  -1   14.81    0.70
  10   0  -1    0.04    0.10
  10   0  -1   -0.03    0.09
  10   0  -1   -0.03    0.10
   9   0  -1   18.90    0.84
   9   0  -1   18.25    0.84
   9   0  -1   19.34    0.84
   8   0  -1   -0.01    0.07
   8   0  -1    0.11    0.07
   8   0  -1    0.03    0.08
   7   0  -1    1.17    0.09
   7   0  -1    1.20    0.10
   7   0  -1    0.93    0.09
   6   0  -1    0.11    0.06
   6   0  -1   -0.01    0.05
   6   0  -1    0.00    0.05
   5   0  -1    0.08    0.04
   5   0  -1    0.11    0.04
   5   0  -1    0.09    0.05
   4   0  -1    0.05    0.03
   4   0  -1    0.00    0.01
   4   0  -1    0.03    0.03
   4   0  -1    0.02    0.01
   4   0  -1    0.05    0.04
   3   0  -1   42.19    1.82
   3   0  -1   43.71    1.81
   3   0  -1   47.55    1.85
   3   0  -1   37.45    1.81
   3   0  -1   40.01    1.81
   2   0  -1    0.04    0.02
   2   0  -1    0.02    0.02
   1   0  -1    1.85    0.09
  -1   0   1    2.21    0.09
   1   0  -1    2.14    0.09
   1   0  -1    1.64    0.09
   0   0   1    0.03    0.01
   1   0   1   86.87    3.92
   1   0   1   92.67    3.92
   1   0   1   81.98    3.91
  -1   0  -1   92.34    3.94
   1   0   1   99.90    3.92
   2   0   1    0.02    0.01
   2   0   1    0.00    0.01
   2   0   1    0.01    0.02
   2   0   1    0.01    0.02
   2   0   1    0.02    0.03
   3   0   1   75.01    3.18
   3   0   1   76.32    3.18
   3   0   1   74.43    3.20
   3   0   1   76.54    3.20
   3   0   1   66.23    3.17
   4   0   1    0.13    0.03
   4   0   1    0.10    0.04
   4   0   1    0.02    0.02
   4   0   1   -0.02    0.02
   4   0   1    0.02    0.05
   5   0   1    9.89    0.44
   5   0   1    9.69    0.45
   5   0   1   10.22    0.43
   5   0   1   10.28    0.45
   5   0   1    9.38    0.43
   6   0   1    0.00    0.06
   6   0   1    0.04    0.05
   6   0   1    0.07    0.02
   6   0   1    0.07    0.04
   6   0   1    0.10    0.03
   7   0   1   58.95    2.54
   7   0   1   57.04    2.55
   7   0   1   60.92    2.54
   7   0   1   57.94    2.54
   7   0   1   60.38    2.55
   8   0   1    0.08    0.09
   8   0   1   -0.01    0.06
   8   0   1   -0.13    0.08
   9   0   1    0.18    0.07
   9   0   1    0.11    0.09
   9   0   1    0.11    0.11
  10   0   1   -0.04    0.10
  10   0   1   -0.09    0.12
  10   0   1    0.01    0.08
  11   0   1    1.30    0.16
  11   0   1    1.46    0.12
  11   0   1    1.51    0.16
 -11   0  -1    1.58    0.21
  12   0   1    0.02    0.10
 -12   0  -1    0.05    0.18
  12   0   1    0.10    0.13
 -13   0  -1   10.31    0.57
  13   0   1    9.76    0.52
  14   0   1   -0.10    0.16
 -14   0  -1    0.03    0.21
  15   0   1    2.61    0.25
 -15   0  -1    2.71    0.30
 -16   0  -1    0.20    0.25
  16   0   1   -0.25    0.20
  16  -1  -1    0.17    0.21
  16   1  -1    0.38    0.21
 -15  -1   1    3.27    0.26
  15  -1  -1    2.86    0.27
  15   1  -1    3.15    0.27
 -14  -1   1    0.08    0.17
  14  -1  -1    0.07    0.18
  14   1  -1    0.17    0.17
  13  -1  -1    1.05    0.14
 -13  -1   1    1.39    0.18
  13  -1  -1    0.98    0.17
  13   1  -1    0.94    0.17
 -13   1   1    1.19    0.20
  13   1  -1    0.86    0.15
 -12  -1   1    0.65    0.15
  12  -1  -1    0.71    0.12
  12  -1  -1    0.66    0.14
  12   1  -1    0.49    0.13
 -12   1   1    0.70    0.18
  12   1  -1    0.55    0.14
  12   1  -1    0.55    0.12
  11  -1  -1   10.33    0.51
  11  -1  -1    9.76    0.48
  11   1  -1   10.39    0.50
  11   1  -1    9.64    0.48
  11   1  -1    9.55    0.48
 -11   1   1   10.58    0.52
  10  -1  -1   26.72    1.19
  10  -1  -1   25.66    1.18
 -10   1   1   28.80    1.21
  10   1  -1   26.27    1.18
  10   1  -1   25.81    1.18
  10   1  -1   27.86    1.19
   9  -1  -1   26.13    1.16
   9  -1  -1   25.26    1.18
   9  -1  -1   26.47    1.16
   9  -1  -1   27.43    1.20
   9   1  -1   27.88    1.19
   9   1  -1   27.50    1.19
   9   1  -1   27.15    1.18
  -9   1   1   28.73    1.21
   8  -1  -1   17.52    0.76
   8  -1  -1   17.74    0.77
   8  -1  -1   16.61    0.78
   8  -1  -1   17.83    0.79
   8   1  -1   17.59    0.79
  -8   1   1   18.27    0.81
   8   1  -1   18.28    0.79
   8   1  -1   17.78    0.78
   7  -1  -1   10.29    0.46
   7  -1  -1    9.58    0.47
   7  -1  -1   10.78    0.49
   7  -1  -1   10.76    0.46
   7   1  -1   10.62    0.48
   7   1  -1   11.02    0.45
   7   1  -1   10.52    0.45
  -7   1   1   10.44    0.49
   7   1  -1   10.46    0.47
   7   1  -1   10.24    0.48
   6  -1  -1   21.37    0.91
   6  -1  -1   19.40    0.92
   6  -1  -1   21.69    0.91
   6  -1  -1   21.73    0.93
   6   1  -1   21.42    0.92
   6   1  -1   21.07    0.91
   6   1  -1   20.82    0.92
   6   1  -1   20.39    0.92
  -6   1   1   20.56    0.93
   6   1  -1   21.63    0.90
   5  -1  -1   89.93    3.78
   5  -1  -1   92.83    3.83
   5  -1  -1   90.09    3.78
   5  -1  -1   79.38    3.78
   5   1  -1   87.15    3.78
   5   1  -1   85.78    3.77
   5   1  -1   89.21    3.80
   5   1  -1   87.78    3.80
  -5   1   1   85.28    3.79
   5   1  -1   88.88    3.78
   4  -1  -1   18.61    0.83
   4  -1  -1   18.90    0.83
   4  -1  -1   19.12    0.82
   4  -1  -1   19.20    0.82
   4   1  -1   18.89    0.83
   4   1  -1   18.41    0.82
   4   1  -1   19.40    0.82
   4   1  -1   19.18    0.83
  -4   1   1   19.49    0.83
   4   1  -1   19.39    0.82
   3  -1  -1   29.48    1.30
   3  -1  -1   30.23    1.30
   3  -1  -1   28.16    1.30
   3  -1  -1   29.71    1.30
   3   1  -1   30.38    1.31
   3   1  -1   29.02    1.30
   3   1  -1   29.57    1.29
  -3   1   1   32.92    1.30
   3   1  -1   30.69    1.30
   3   1  -1   30.83    1.30
   2  -1  -1    4.25    0.19
  -2  -1   1    4.39    0.18
  -2  -1   1    4.26    0.20
   2  -1  -1    4.04    0.19
   2  -1  -1    4.19    0.19
   2  -1  -1    4.06    0.19
   2   1  -1    3.74    0.19
   2   1  -1    4.11    0.19
  -2   1   1    4.45    0.19
   2   1  -1    4.08    0.19
  -1  -1   1    0.96    0.06
  -1  -1   1    1.16    0.05
   1  -1  -1    0.91    0.06
  -1  -1   1    0.94    0.06
   1  -1  -1    0.99    0.06
  -1   1   1    1.06    0.05
   1   1  -1    1.02    0.06
  -1   1   1    0.93    0.06
  -1   1   1    1.06    0.06
   1   1  -1    1.01    0.06
   0  -1   1    4.65    0.22
   0  -1   1    5.28    0.23
   0  -1  -1    4.96    0.23
   0  -1  -1    5.00    0.23
   0  -1   1    5.13    0.23
   0   1   1    5.16    0.22
   0   1   1    5.00    0.23
   0   1   1    5.29    0.22
   0   1  -1    5.26    0.23
   0   1  -1    5.00    0.23
   1  -1   1    4.13    0.19
   1  -1   1    4.17    0.19
  -1  -1  -1    4.10    0.19
   1  -1   1    4.43    0.19
  -1  -1  -1    4.16    0.19
  -1   1  -1    4.49    0.19
   1   1   1    4.34    0.19
   1   1   1    4.26    0.19
   1   1   1    4.29    0.19
  -1   1  -1    4.24    0.19
   2  -1   1    0.44    0.04
   2  -1   1    0.33    0.03
   2  -1   1    0.32    0.03
  -2  -1  -1    0.30    0.04
   2   1   1    0.35    0.03
   2   1   1    0.26    0.03
  -2   1  -1    0.30    0.04
   2   1   1    0.28    0.04
   2   1   1    0.32    0.03
  -3  -1  -1    0.24    0.04
   3  -1   1    0.21    0.03
   3  -1   1    0.15    0.03
   3  -1   1    0.14    0.03
   3   1   1    0.16    0.03
  -3   1  -1    0.20    0.05
   3   1   1    0.17    0.03
   3   1   1    0.10    0.04
   3   1   1    0.20    0.03
   4  -1   1    1.68    0.09
  -4  -1  -1    1.85    0.11
   4  -1   1    1.88    0.10
   4  -1   1    1.86    0.10
   4  -1   1    1.72    0.11
   4   1   1    1.79    0.12
   4   1   1    1.80    0.09
  -4   1  -1    2.03    0.13
   4   1   1    1.80    0.09
   4   1   1    1.77    0.10
   5  -1   1    6.42    0.29
   5  -1   1    6.56    0.31
   5  -1   1    6.73    0.29
   5  -1   1    5.87    0.29
  -5  -1  -1    6.66    0.30
   5   1   1    6.46    0.31
  -5   1  -1    6.35    0.32
   5   1   1    6.62    0.29
   5   1   1    6.40    0.30
   5   1   1    6.78    0.29
   6  -1   1    7.29    0.32
  -6  -1  -1    7.68    0.34
   6  -1   1    7.41    0.35
   6  -1   1    6.53    0.33
   6  -1   1    7.14    0.32
  -6   1  -1    6.97    0.36
   6   1   1    7.49    0.33
   6   1   1    7.24    0.34
   6   1   1    7.25    0.32
   6   1   1    7.60    0.32
   7  -1   1   27.11    1.29
   7  -1   1   30.06    1.29
   7  -1   1   30.58    1.31
   7  -1   1   28.35    1.28
  -7  -1  -1   31.39    1.30
   7   1   1   29.59    1.28
   7   1   1   29.16    1.30
   7   1   1   30.93    1.28
  -7   1  -1   30.92    1.32
   7   1   1   30.08    1.30
   8  -1   1    9.07    0.44
   8  -1   1    8.66    0.43
   8  -1   1   10.31    0.47
   8  -1   1   10.27    0.43
  -8  -1  -1    9.96    0.45
   8   1   1    9.83    0.46
  -8   1  -1   10.14    0.49
   8   1   1   10.15    0.43
   8   1   1    9.87    0.45
   9  -1   1   26.80    1.19
   9  -1   1   25.63    1.18
   9  -1   1   27.64    1.18
  -9  -1  -1   29.01    1.20
   9  -1   1   26.85    1.21
  -9   1  -1   28.14    1.24
   9   1   1   28.10    1.20
   9   1   1   26.99    1.21
  10  -1   1    5.73    0.34
  10  -1   1    5.84    0.27
  10  -1   1    5.76    0.29
  10  -1   1    5.90    0.26
 -10  -1  -1    6.29    0.32
  10   1   1    5.83    0.34
  10   1   1    6.20    0.31
 -10   1  -1    5.97    0.37
 -11  -1  -1   -0.03    0.11
  11  -1   1    0.11    0.13
  11  -1   1   -0.02    0.08
  11   1   1    0.04    0.14
 -11   1  -1    0.16    0.17
  11   1   1   -0.06    0.10
  12  -1   1   10.52    0.53
 -12  -1  -1   11.04    0.52
 -12   1  -1   10.55    0.57
  12   1   1   10.11    0.51
  12   1   1   10.04    0.53
 -13  -1  -1   22.26    0.97
  13  -1   1   20.95    1.00
 -13   1  -1   22.56    1.02
  13   1   1   20.11    0.97
  13   1   1   21.34    0.99
  14  -1   1    9.69    0.53
  14   1   1    9.80    0.53
  14   1   1    9.07    0.50
 -14   1  -1   10.14    0.56
  15  -1   1    2.28    0.24
  15   1   1    2.42    0.24
 -15   1  -1    2.73    0.28
 -16  -1  -1    0.91    0.29
  16  -1   1    0.81    0.24
  15  -2  -1    0.67    0.22
 -15  -2   1    0.79    0.21
  15   2  -1    0.77    0.20
 -14  -2   1    1.62    0.22
  14  -2  -1    1.60    0.23
  14   2  -1    1.71    0.21
  13  -2  -1    0.25    0.16
 -13  -2   1    0.16    0.17
  13   2  -1    0.14    0.17
  12  -2  -1    3.28    0.16
  12  -2  -1    3.45    0.22
  12  -2  -1    3.43    0.17
  12  -2  -1    3.14    0.28
 -12  -2   1    3.39    0.30
  12   2  -1    3.72    0.26
 -12   2   1    3.22    0.27
 -11  -2   1    7.00    0.38
  11  -2  -1    7.14    0.32
  11  -2  -1    6.63    0.31
  11  -2  -1    6.60    0.39
  11  -2  -1    6.36    0.34
 -11   2   1    7.29    0.41
  11   2  -1    7.17    0.37
 -10  -2   1    4.10    0.28
  10  -2  -1    3.42    0.22
  10  -2  -1    3.64    0.26
  10  -2  -1    3.44    0.19
  10  -2  -1    3.80    0.20
 -10   2   1    3.84    0.28
  10   2  -1    3.66    0.21
  10   2  -1    3.97    0.27
  10   2  -1    3.81    0.17
  10   2  -1    3.81    0.17
   9  -2  -1    9.90    0.47
   9  -2  -1   10.36    0.48
  -9  -2   1   10.29    0.50
   9  -2  -1   10.47    0.47
   9  -2  -1   11.04    0.51
   9   2  -1   10.18    0.48
   9   2  -1   10.57    0.46
   9   2  -1   10.77    0.50
   9   2  -1   10.28    0.46
  -9   2   1   11.01    0.52
   8  -2  -1    5.20    0.25
   8  -2  -1    4.82    0.26
   8  -2  -1    5.36    0.29
  -8  -2   1    5.18    0.30
   8  -2  -1    5.05    0.24
   8   2  -1    5.23    0.29
   8   2  -1    4.96    0.25
  -8   2   1    5.38    0.30
   8   2  -1    5.18    0.24
   8   2  -1    5.25    0.24
  -7  -2   1   13.42    0.60
   7  -2  -1   11.80    0.58
   7  -2  -1   12.93    0.60
   7  -2  -1   12.79    0.57
   7  -2  -1   13.15    0.58
   7   2  -1   12.91    0.57
  -7   2   1   13.80    0.60
   7   2  -1   13.14    0.57
   7   2  -1   13.15    0.60
   7   2  -1   12.94    0.57
   6  -2  -1    0.29    0.05
   6  -2  -1    0.26    0.08
  -6  -2   1    0.31    0.10
   6  -2  -1    0.26    0.06
  -6   2   1    0.40    0.08
   6   2  -1    0.25    0.05
   6   2  -1    0.24    0.05
   6   2  -1    0.19    0.04
   6   2  -1    0.28    0.08
   5  -2  -1    9.09    0.43
   5  -2  -1    9.10    0.42
  -5  -2   1    9.93    0.42
  -5  -2   1    8.94    0.44
   5  -2  -1    9.63    0.43
   5  -2  -1    9.48    0.44
  -5   2   1   10.49    0.43
   5   2  -1    9.52    0.42
   5   2  -1    9.57    0.44
   5   2  -1    9.17    0.42
  -4  -2   1   44.01    1.88
   4  -2  -1   41.89    1.87
   4  -2  -1   42.60    1.87
  -4  -2   1   44.90    1.87
   4  -2  -1   43.92    1.88
   4  -2  -1   42.71    1.87
   4   2  -1   41.05    1.87
  -4   2   1   47.06    1.87
   4   2  -1   42.76    1.88
   4   2  -1   43.00    1.87
  -3  -2   1    3.44    0.18
   3  -2  -1    3.54    0.17
   3  -2  -1    3.38    0.17
   3  -2  -1    3.28    0.17
  -3   2   1    3.50    0.17
   3   2  -1    3.07    0.16
   3   2  -1    3.51    0.17
  -3   2   1    3.16    0.17
   3   2  -1    3.26    0.18
  -2  -2   1   43.61    1.93
   2  -2  -1   42.70    1.93
   2  -2  -1   46.24    1.93
  -2  -2   1   43.80    1.93
   2  -2  -1   45.39    1.94
  -2   2   1   46.30    1.93
  -2   2   1   45.57    1.93
   2   2  -1   44.51    1.93
   2   2  -1   44.27    1.93
   1  -2  -1   17.89    0.81
  -1  -2   1   18.74    0.82
   1  -2  -1   18.87    0.82
  -1  -2   1   18.10    0.82
  -1  -2   1   18.67    0.80
   1   2  -1   18.57    0.81
  -1   2   1   18.69    0.81
  -1   2   1   18.95    0.82
  -1   2   1   18.94    0.81
   1   2  -1   19.27    0.82
   0  -2   1   49.59    2.15
   0  -2  -1   49.79    2.15
   0  -2  -1   49.49    2.15
   0  -2   1   50.71    2.16
   0  -2   1   49.56    2.15
   0   2  -1   51.47    2.15
   0   2   1   48.58    2.15
   0   2   1   50.27    2.16
   0   2   1   50.20    2.15
   0   2  -1   47.74    2.31
   1  -2   1   41.11    1.76
  -1  -2  -1   41.93    1.77
   1  -2   1   41.49    1.78
  -1  -2  -1   41.06    1.77
   1  -2   1   39.50    1.77
  -1   2  -1   41.36    1.77
   1   2   1   39.76    1.77
   1   2   1   42.52    1.77
  -1   2  -1   40.30    1.77
   1   2   1   40.36    1.77
  -2  -2  -1  142.07    6.18
  -2  -2  -1  139.65    6.76
   2  -2   1  141.62    6.16
   2  -2   1  141.73    6.18
   2  -2   1  140.18    6.17
  -2   2  -1  148.38    6.17
  -2   2  -1  138.46    6.16
   2   2   1  145.85    6.14
   2   2   1  144.19    6.17
   2   2   1  143.21    6.19
   3  -2   1   20.57    0.94
   3  -2   1   21.84    0.93
   3   2   1   20.01    0.93
   3   2   1   22.29    0.94
  -3   2  -1   21.28    0.94
   3   2   1   21.43    0.93
  -3   2  -1   23.09    0.94
   3   2   1   21.12    0.93
  -4  -2  -1   16.70    0.72
   4  -2   1   16.21    0.71
   4  -2   1   16.29    0.70
   4  -2   1   15.20    0.71
   4  -2   1   16.40    0.71
   4   2   1   16.41    0.71
   4   2   1   16.62    0.72
   4   2   1   14.38    0.70
   4   2   1   15.54    0.70
  -4   2  -1   17.56    0.72
   5  -2   1    5.61    0.26
   5  -2   1    5.63    0.27
   5  -2   1    5.44    0.27
  -5  -2  -1    6.03    0.29
   5   2   1    5.87    0.28
  -5   2  -1    6.31    0.29
   5   2   1    5.55    0.26
   5   2   1    5.80    0.27
   5   2   1    5.88    0.27
  -6  -2  -1   55.92    2.36
   6  -2   1   53.98    2.35
   6  -2   1   52.29    2.35
   6  -2   1   52.91    2.35
   6  -2   1   54.87    2.37
   6   2   1   54.58    2.36
   6   2   1   53.44    2.35
  -6   2  -1   56.98    2.37
   6   2   1   54.62    2.35
   6   2   1   56.36    2.35
  -7  -2  -1    0.27    0.09
   7  -2   1    0.14    0.05
   7  -2   1    0.08    0.05
   7  -2   1    0.06    0.05
   7  -2   1    0.11    0.09
  -7   2  -1    0.20    0.11
   7   2   1    0.08    0.05
   7   2   1    0.09    0.06
   7   2   1    0.07    0.10
   7   2   1    0.15    0.05
  -8  -2  -1   15.88    0.72
   8  -2   1   16.74    0.70
   8  -2   1   15.60    0.72
   8  -2   1   14.77    0.69
   8  -2   1   15.02    0.70
   8   2   1   16.20    0.69
   8   2   1   15.46    0.70
   8   2   1   16.26    0.73
  -8   2  -1   16.42    0.74
   9  -2   1    9.05    0.42
   9  -2   1    8.77    0.43
   9  -2   1    9.71    0.46
   9  -2   1    9.96    0.43
  -9  -2  -1    9.50    0.46
   9   2   1    9.38    0.43
   9   2   1    9.56    0.42
  -9   2  -1    8.34    0.49
   9   2   1    9.37    0.42
  10  -2   1    0.35    0.07
  10  -2   1    0.19    0.13
 -10  -2  -1    0.37    0.12
  10  -2   1    0.42    0.08
  10  -2   1    0.52    0.07
  10   2   1    0.43    0.09
  10   2   1    0.35    0.14
  10   2   1    0.47    0.05
 -10   2  -1    0.35    0.17
  10   2   1    0.38    0.05
 -11  -2  -1   10.57    0.48
  11  -2   1    8.64    0.42
  11  -2   1    9.83    0.43
  11  -2   1    9.94    0.49
  11   2   1    9.29    0.41
  11   2   1    9.77    0.50
  11   2   1    9.58    0.41
 -11   2  -1    8.78    0.52
  11   2   1    8.96    0.46
  12  -2   1    4.16    0.30
  12  -2   1    3.56    0.19
  12  -2   1    3.14    0.18
 -12  -2  -1    3.63    0.28
  12   2   1    3.79    0.28
 -12   2  -1    3.62    0.35
  13  -2   1    3.83    0.18
  13  -2   1    3.57    0.35
  13  -2   1    3.96    0.18
 -13  -2  -1    4.25    0.32
  13   2   1    4.43    0.34
 -13   2  -1    4.12    0.38
  14  -2   1    2.75    0.28
 -14  -2  -1    3.03    0.25
  14   2   1    2.65    0.26
 -14   2  -1    2.78    0.30
  15  -2   1    0.48    0.23
  15   2   1    0.59    0.22
  15  -3  -1    0.22    0.24
 -15  -3   1    0.04    0.22
  15   3  -1    0.44    0.21
  14  -3  -1    0.27    0.19
 -14  -3   1    0.42    0.21
  14  -3  -1    0.25    0.07
  14   3  -1    0.46    0.20
 -13  -3   1   11.22    0.56
  13  -3  -1    9.45    0.56
  13  -3  -1    9.94    0.46
  13   3  -1    9.61    0.54
  12  -3  -1    1.96    0.17
  12  -3  -1    1.90    0.21
 -12  -3   1    1.70    0.22
  12   3  -1    1.92    0.11
  12   3  -1    1.86    0.11
  12   3  -1    1.71    0.21
  11  -3  -1    1.72    0.15
  11  -3  -1    1.81    0.17
  11  -3  -1    1.64    0.20
 -11  -3   1    1.89    0.22
  11   3  -1    2.08    0.20
  11   3  -1    1.81    0.13
  10  -3  -1   19.99    0.94
 -10  -3   1   21.60    0.98
  10  -3  -1   21.58    0.98
  10  -3  -1   22.23    0.94
  10   3  -1   20.71    0.96
  10   3  -1   20.54    0.92
 -10   3   1   21.49    0.96
   9  -3  -1   16.70    0.72
  -9  -3   1   15.90    0.75
   9  -3  -1   16.72    0.75
   9  -3  -1   15.34    0.73
   9   3  -1   15.81    0.74
   9   3  -1   16.11    0.72
  -9   3   1   16.40    0.74
   8  -3  -1   11.28    0.53
   8  -3  -1   11.60    0.56
   8  -3  -1   12.20    0.53
  -8  -3   1   11.41    0.56
   8   3  -1   11.16    0.54
  -8   3   1   11.46    0.54
   8   3  -1   10.89    0.52
  -7  -3   1    0.72    0.13
   7  -3  -1    0.52    0.13
   7  -3  -1    0.51    0.09
   7  -3  -1    0.56    0.09
   7   3  -1    0.49    0.08
  -7   3   1    0.75    0.10
   7   3  -1    0.47    0.07
   7   3  -1    0.42    0.11
   6  -3  -1   20.71    0.91
   6  -3  -1   21.53    0.92
   6  -3  -1   20.76    0.93
  -6  -3   1   20.58    0.93
  -6   3   1   21.74    0.92
   6   3  -1   20.64    0.93
   6   3  -1   20.33    0.91
   6   3  -1   19.40    0.91
   5  -3  -1    0.24    0.07
   5  -3  -1    0.16    0.09
   5  -3  -1    0.13    0.08
  -5  -3   1    0.44    0.12
   5  -3  -1    0.05    0.06
  -5   3   1    0.16    0.07
   5   3  -1   -0.02    0.08
   5   3  -1    0.18    0.06
   5   3  -1   -0.01    0.06
   4  -3  -1   68.60    2.95
   4  -3  -1   68.79    2.95
   4  -3  -1   66.14    2.94
  -4  -3   1   70.33    2.96
   4   3  -1   68.24    2.95
   4   3  -1   71.23    2.95
  -4   3   1   66.22    2.95
  -4   3   1   71.78    2.96
   4   3  -1   63.86    2.94
   3  -3  -1   12.67    0.57
   3  -3  -1   12.54    0.57
   3  -3  -1   11.95    0.56
  -3  -3   1   12.21    0.58
  -3  -3   1   12.33    0.56
   3   3  -1   12.69    0.57
  -3   3   1   12.83    0.57
  -3   3   1   13.05    0.56
   3   3  -1   12.49    0.56
   2  -3  -1   14.77    0.70
   2  -3  -1   15.51    0.69
   2  -3  -1   15.36    0.69
  -2  -3   1   15.70    0.70
   2   3  -1   16.18    0.67
   2   3  -1   15.47    0.70
  -2   3   1   15.58    0.70
  -2   3   1   15.60    0.69
  -2   3   1   16.37    0.70
   2   3  -1   16.15    0.70
  -1  -3   1   46.04    1.92
   1  -3  -1   44.92    1.92
   1  -3  -1   44.71    1.92
  -1  -3   1   44.33    1.92
  -1  -3   1   43.52    1.93
  -1   3   1   43.61    1.92
   1   3  -1   43.05    1.92
  -1   3   1   43.88    1.92
  -1   3   1   44.98    1.92
   1   3  -1   44.63    1.92
   0  -3  -1    0.42    0.08
   0  -3  -1    0.39    0.07
   0  -3   1    0.41    0.05
   0  -3   1    0.41    0.08
   0  -3   1    0.41    0.08
   0   3  -1    0.51    0.08
   0   3   1    0.33    0.05
   0   3   1    0.29    0.07
   0   3   1    0.29    0.06
   0   3  -1    0.46    0.08
  -1  -3  -1   16.34    0.72
   1  -3   1   16.02    0.71
   1  -3   1   16.18    0.72
  -1  -3  -1   16.22    0.72
  -1   3  -1   16.36    0.72
   1   3   1   16.48    0.70
  -1   3  -1   15.46    0.71
   1   3   1   16.23    0.72
   1   3   1   16.21    0.72
   2  -3   1   -0.01    0.05
   2  -3   1    0.03    0.06
  -2  -3  -1    0.12    0.08
   2  -3   1   -0.04    0.06
  -2  -3  -1    0.18    0.06
   2   3   1    0.09    0.07
  -2   3  -1   -0.01    0.06
   2   3   1   -0.04    0.06
  -2   3  -1    0.00    0.06
   2   3   1    0.04    0.03
   3  -3   1   22.31    1.01
   3  -3   1   22.80    1.00
   3  -3   1   21.84    1.00
  -3  -3  -1   23.64    1.00
  -3  -3  -1   23.30    1.01
  -3   3  -1   22.39    1.01
  -3   3  -1   23.73    1.01
   3   3   1   22.54    1.00
   3   3   1   22.99    1.01
   3   3   1   22.88    0.98
   4  -3   1    5.44    0.28
   4  -3   1    5.54    0.26
  -4  -3  -1    5.66    0.28
   4  -3   1    5.58    0.28
   4   3   1    5.51    0.28
  -4   3  -1    5.33    0.27
  -4   3  -1    5.88    0.28
   4   3   1    4.52    0.24
   4   3   1    5.62    0.27
   4   3   1    5.25    0.26
  -5  -3  -1   19.50    0.90
   5  -3   1   20.38    0.90
   5  -3   1   21.18    0.88
   5  -3   1   20.02    0.89
  -5   3  -1   20.77    0.90
   5   3   1   19.53    0.89
   5   3   1   19.50    0.87
   5   3   1   20.28    0.89
   5   3   1   20.13    0.90
   6  -3   1   24.72    1.08
   6  -3   1   23.63    1.07
   6  -3   1   24.64    1.06
  -6  -3  -1   24.83    1.09
   6   3   1   23.82    1.06
   6   3   1   23.78    1.06
   6   3   1   24.65    1.08
  -6   3  -1   24.78    1.08
   6   3   1   23.88    1.05
   7  -3   1    7.67    0.38
   7  -3   1    7.52    0.36
  -7  -3  -1    7.04    0.38
   7  -3   1    6.90    0.34
   7   3   1    7.05    0.34
   7   3   1    6.87    0.37
   7   3   1    7.37    0.35
  -7   3  -1    7.54    0.38
   8  -3   1   29.92    1.38
  -8  -3  -1   31.62    1.41
   8  -3   1   32.34    1.41
   8  -3   1   31.61    1.39
  -8   3  -1   33.03    1.41
   8   3   1   32.54    1.41
   8   3   1   31.57    1.38
   9  -3   1    0.09    0.13
   9  -3   1   -0.02    0.07
   9  -3   1   -0.04    0.08
  -9  -3  -1    0.08    0.13
   9   3   1    0.06    0.14
  -9   3  -1    0.05    0.15
   9   3   1    0.06    0.07
  10  -3   1    1.36    0.19
 -10  -3  -1    1.42    0.16
  10  -3   1    1.16    0.12
 -10   3  -1    1.29    0.20
  10   3   1    1.35    0.11
  10   3   1    1.08    0.17
  11  -3   1    0.45    0.10
 -11  -3  -1    0.21    0.16
  11  -3   1    0.42    0.16
 -11   3  -1    0.15    0.18
  11   3   1    0.31    0.07
  11   3   1    0.16    0.17
  12  -3   1    9.98    0.47
  12  -3   1    9.92    0.53
 -12  -3  -1   10.63    0.53
  12   3   1    9.76    0.54
 -12   3  -1    9.45    0.58
  12   3   1    9.90    0.45
  13  -3   1    5.33    0.41
  13  -3   1    4.60    0.27
 -13  -3  -1    5.55    0.38
  13   3   1    5.02    0.38
 -14  -3  -1    7.33    0.44
  14  -3   1    6.31    0.32
  14  -3   1    6.35    0.47
  14   3   1    6.58    0.45
  15  -3   1    2.06    0.11
  15  -3   1    2.40    0.27
  15   3   1    2.40    0.25
  14  -4  -1    1.51    0.14
  14  -4  -1    1.25    0.27
 -14  -4   1    1.75    0.27
  14   4  -1    1.51    0.21
 -13  -4   1    0.32    0.23
  13  -4  -1    0.06    0.11
  13  -4  -1    0.27    0.20
  13   4  -1    0.14    0.20
  13   4  -1   -0.01    0.07
 -12  -4   1    0.03    0.21
  12  -4  -1    0.04    0.11
  12  -4  -1   -0.07    0.20
  12   4  -1    0.04    0.08
  12   4  -1   -0.03    0.18
 -11  -4   1    0.46    0.19
  11  -4  -1    0.40    0.12
  11  -4  -1    0.51    0.12
  11  -4  -1    0.70    0.18
  11   4  -1    0.37    0.18
  11   4  -1    0.43    0.10
 -10  -4   1    7.62    0.46
  10  -4  -1    7.35    0.38
  10  -4  -1    7.00    0.37
  10  -4  -1    7.22    0.42
  10   4  -1    7.18    0.43
  10   4  -1    6.77    0.36
  -9  -4   1    0.72    0.20
   9  -4  -1    0.70    0.12
   9  -4  -1    0.70    0.16
   9  -4  -1    0.64    0.12
   9   4  -1    0.63    0.15
   9   4  -1    0.58    0.10
  -8  -4   1    7.01    0.43
   8  -4  -1    7.19    0.37
   8  -4  -1    6.46    0.35
   8  -4  -1    6.69    0.38
   8   4  -1    6.92    0.35
  -8   4   1    6.92    0.36
   8   4  -1    6.94    0.40
   7  -4  -1    9.48    0.46
   7  -4  -1    9.72    0.49
   7  -4  -1    9.71    0.47
  -7  -4   1    9.67    0.50
   7   4  -1    9.60    0.46
   7   4  -1    9.49    0.48
  -7   4   1    9.56    0.46
   6  -4  -1   23.84    1.06
   6  -4  -1   22.97    1.04
  -6  -4   1   23.60    1.07
   6  -4  -1   23.39    1.05
  -6   4   1   23.82    1.04
   6   4  -1   23.27    1.05
   6   4  -1   23.50    1.04
  -5  -4   1    2.94    0.23
   5  -4  -1    3.19    0.23
   5  -4  -1    3.09    0.21
   5  -4  -1    3.18    0.22
  -5   4   1    3.19    0.20
   5   4  -1    2.86    0.20
   5   4  -1    3.16    0.24
  -4  -4   1    2.61    0.23
   4  -4  -1    2.80    0.20
   4  -4  -1    2.48    0.20
   4  -4  -1    2.58    0.20
   4   4  -1    2.70    0.20
   4   4  -1    2.95    0.20
  -4   4   1    2.75    0.18
  -3  -4   1   26.60    1.13
   3  -4  -1   24.81    1.13
   3  -4  -1   25.15    1.13
  -3  -4   1   25.56    1.14
   3   4  -1   25.92    1.13
  -3   4   1   25.74    1.13
  -3   4   1   25.64    1.12
  -3   4   1   24.79    1.13
   3   4  -1   25.95    1.13
   2  -4  -1   10.05    0.48
  -2  -4   1   10.01    0.50
  -2  -4   1    9.97    0.48
   2  -4  -1   10.14    0.48
   2   4  -1   10.22    0.44
  -2   4   1   10.46    0.47
   2   4  -1   10.12    0.48
   2   4  -1   10.09    0.48
  -2   4   1   10.16    0.47
  -2   4   1   10.45    0.49
   1  -4  -1   12.86    0.60
   1  -4  -1   12.85    0.60
  -1  -4   1   12.52    0.60
  -1  -4   1   13.00    0.60
  -1   4   1   13.19    0.60
   1   4  -1   13.26    0.60
  -1   4   1   13.03    0.58
  -1   4   1   12.54    0.59
   1   4  -1   13.35    0.57
   1   4  -1   12.93    0.59
   0  -4  -1   26.19    1.14
   0  -4   1   26.04    1.15
   0  -4   1   25.39    1.15
   0  -4   1   26.37    1.13
   0  -4  -1   25.41    1.14
   0   4   1   25.46    1.14
   0   4  -1   25.87    1.14
   0   4   1   26.52    1.15
   0   4   1   25.20    1.13
   0   4  -1   26.52    1.15
  -1  -4  -1    7.81    0.39
  -1  -4  -1    8.34    0.40
   1  -4   1    7.76    0.39
   1  -4   1    7.87    0.37
   1  -4   1    7.59    0.39
   1   4   1    7.55    0.39
  -1   4  -1    7.81    0.39
  -1   4  -1    8.09    0.39
   1   4   1    7.94    0.36
   1   4   1    7.80    0.38
   2  -4   1   33.05    1.45
  -2  -4  -1   32.89    1.47
  -2  -4  -1   33.35    1.46
   2  -4   1   32.89    1.46
   2  -4   1   32.62    1.46
   2   4   1   33.28    1.46
   2   4   1   34.53    1.44
  -2   4  -1   33.55    1.47
   2   4   1   33.61    1.46
  -2   4  -1   33.76    1.46
   3  -4   1    1.85    0.16
   3  -4   1    1.64    0.15
   3  -4   1    1.64    0.15
  -3  -4  -1    1.57    0.15
  -3  -4  -1    1.65    0.13
  -3   4  -1    1.83    0.17
   3   4   1    1.48    0.14
   3   4   1    1.82    0.10
   3   4   1    1.48    0.13
   4  -4   1    6.07    0.34
   4  -4   1    6.63    0.33
   4  -4   1    6.46    0.34
  -4  -4  -1    7.42    0.36
  -4   4  -1    6.42    0.34
   4   4   1    6.51    0.34
  -4   4  -1    7.10    0.34
   4   4   1    6.40    0.34
  -5  -4  -1   26.71    1.21
   5  -4   1   27.24    1.20
   5  -4   1   26.40    1.20
   5  -4   1   26.40    1.18
   5   4   1   27.81    1.20
  -5   4  -1   28.07    1.20
   5   4   1   26.37    1.19
   6  -4   1    0.82    0.14
  -6  -4  -1    0.88    0.16
   6  -4   1    0.86    0.10
   6  -4   1    0.57    0.11
   6   4   1    0.86    0.11
  -6   4  -1    0.78    0.13
   6   4   1    0.75    0.13
   7  -4   1   14.95    0.71
   7  -4   1   14.70    0.69
   7  -4   1   15.14    0.72
  -7  -4  -1   15.75    0.73
  -7   4  -1   15.59    0.72
   7   4   1   15.52    0.72
   7   4   1   15.80    0.70
   8  -4   1    5.47    0.29
   8  -4   1    5.79    0.32
   8  -4   1    5.54    0.33
  -8  -4  -1    5.44    0.37
  -8   4  -1    5.55    0.33
   8   4   1    5.60    0.30
   8   4   1    5.29    0.33
   9  -4   1    6.39    0.35
  -9  -4  -1    6.72    0.38
   9  -4   1    5.93    0.39
   9  -4   1    5.91    0.32
  -9   4  -1    6.33    0.37
   9   4   1    6.49    0.39
   9   4   1    6.17    0.33
  10  -4   1   14.62    0.68
 -10  -4  -1   15.08    0.72
  10  -4   1   14.69    0.72
  10   4   1   14.11    0.70
 -10   4  -1   14.70    0.70
  10   4   1   14.08    0.66
  11  -4   1    4.58    0.38
  11  -4   1    4.93    0.30
 -11  -4  -1    5.00    0.38
 -11   4  -1    4.22    0.35
  11   4   1    4.32    0.37
  11   4   1    4.45    0.26
  12  -4   1    2.46    0.26
  12  -4   1    2.76    0.20
 -12  -4  -1    2.94    0.27
  12   4   1    2.63    0.19
  12   4   1    2.67    0.26
  13  -4   1   -0.05    0.23
 -13  -4  -1    0.19    0.22
  13  -4   1    0.06    0.12
  13   4   1   -0.11    0.20
  13   4   1    0.07    0.08
  14  -4   1    0.76    0.13
 -14  -4  -1    0.88    0.23
  14  -4   1    0.73    0.24
  14   4   1    0.74    0.23
  14   4   1    0.75    0.07
 -12  -5   1   10.21    0.58
  12  -5  -1    9.64    0.55
  12  -5  -1    9.57    0.50
 -12   5   1    8.53    0.62
  12   5  -1    9.49    0.53
  12   5  -1    9.29    0.46
 -11  -5   1    0.45    0.25
  11  -5  -1    0.71    0.21
  11  -5  -1    0.61    0.16
  11   5  -1    0.33    0.20
  11   5  -1    0.51    0.12
  10  -5  -1    0.26    0.18
 -10  -5   1   -0.06    0.21
  10  -5  -1    0.17    0.13
  10  -5  -1    0.08    0.15
  10   5  -1   -0.02    0.19
  10   5  -1    0.05    0.12
   9  -5  -1    3.84    0.32
   9  -5  -1    4.07    0.27
  -9  -5   1    4.15    0.33
   9  -5  -1    3.70    0.31
   9   5  -1    4.30    0.35
   9   5  -1    4.08    0.27
   8  -5  -1    4.48    0.34
   8  -5  -1    4.25    0.31
   8  -5  -1    4.07    0.27
  -8  -5   1    4.00    0.33
   8   5  -1    4.51    0.34
   8   5  -1    3.92    0.27
   7  -5  -1    0.80    0.13
   7  -5  -1    0.72    0.15
   7  -5  -1    0.58    0.17
  -7  -5   1    0.75    0.20
  -7   5   1    0.57    0.18
   7   5  -1    0.69    0.16
   7   5  -1    0.70    0.13
   6  -5  -1    0.08    0.13
  -6  -5   1    0.12    0.18
   6  -5  -1    0.11    0.12
   6  -5  -1    0.06    0.13
   6   5  -1   -0.05    0.15
  -6   5   1    0.33    0.12
   6   5  -1    0.15    0.12
  -6   5   1    0.02    0.17
   5  -5  -1    6.61    0.39
  -5  -5   1    8.17    0.45
   5  -5  -1    6.89    0.37
   5   5  -1    7.35    0.38
  -5   5   1    6.57    0.40
  -5   5   1    7.07    0.36
   5   5  -1    7.26    0.41
   4  -5  -1    4.79    0.30
  -4  -5   1    4.43    0.36
   4  -5  -1    4.34    0.29
  -4   5   1    4.73    0.30
  -4   5   1    4.61    0.27
   4   5  -1    4.53    0.31
   4   5  -1    4.77    0.29
  -3  -5   1    0.93    0.18
   3  -5  -1    1.21    0.15
   3  -5  -1    1.19    0.14
   3   5  -1    1.12    0.14
  -3   5   1    1.20    0.14
   3   5  -1    1.20    0.15
  -3   5   1    1.12    0.13
   2  -5  -1   23.58    1.03
  -2  -5   1   21.99    1.04
   2  -5  -1   22.55    1.04
   2   5  -1   23.37    1.04
   2   5  -1   23.87    1.04
  -2   5   1   23.50    1.04
  -2   5   1   22.82    1.02
  -2   5   1   22.29    1.02
  -1  -5   1    2.82    0.24
   1  -5  -1    3.50    0.27
   1  -5  -1    2.84    0.24
  -1  -5   1    3.27    0.25
  -1   5   1    3.30    0.21
  -1   5   1    3.12    0.22
   1   5  -1    2.96    0.25
  -1   5   1    3.28    0.25
   1   5  -1    3.07    0.23
   0  -5  -1   21.83    0.99
   0  -5   1   22.35    0.99
   0  -5   1   21.19    0.99
   0   5   1   22.72    0.99
   0   5  -1   22.39    0.99
   0   5   1   21.38    0.96
   0   5  -1   22.10    0.96
   0   5  -1   21.39    0.98
   0   5   1   21.47    0.98
  -1  -5  -1    0.44    0.12
   1  -5   1    0.31    0.12
  -1  -5  -1    0.23    0.13
   1  -5   1    0.40    0.13
  -1   5  -1    0.34    0.10
   1   5   1    0.37    0.13
  -1   5  -1    0.23    0.12
  -1   5  -1    0.32    0.12
   1   5   1    0.44    0.12
   2  -5   1    2.94    0.22
   2  -5   1    2.85    0.21
   2  -5   1    2.89    0.25
  -2  -5  -1    3.04    0.26
   2   5   1    2.99    0.24
   2   5   1    3.19    0.24
  -2   5  -1    3.27    0.24
  -2   5  -1    3.35    0.25
  -3  -5  -1    0.21    0.14
   3  -5   1    0.08    0.12
   3  -5   1   -0.05    0.10
   3  -5   1    0.05    0.12
  -3   5  -1    0.03    0.12
   3   5   1   -0.04    0.11
   3   5   1    0.00    0.11
   4  -5   1   25.96    1.18
   4  -5   1   26.24    1.17
  -4  -5  -1   26.33    1.20
   4  -5   1   25.25    1.16
  -4   5  -1   27.03    1.17
   4   5   1   26.15    1.18
   4   5   1   27.17    1.17
  -5  -5  -1    0.47    0.16
   5  -5   1    0.31    0.12
   5  -5   1    0.39    0.12
   5  -5   1    0.26    0.13
   5   5   1    0.30    0.13
  -5   5  -1    0.47    0.13
   5   5   1    0.30    0.11
   6  -5   1   10.63    0.54
   6  -5   1   10.62    0.52
  -6  -5  -1   11.74    0.58
   6  -5   1   10.59    0.53
   6   5   1   10.31    0.52
  -6   5  -1   10.82    0.53
   6   5   1   10.87    0.54
  -7  -5  -1    1.52    0.20
   7  -5   1    1.13    0.16
   7  -5   1    1.35    0.15
   7  -5   1    1.30    0.17
  -7   5  -1    1.68    0.18
   7   5   1    1.07    0.17
   7   5   1    1.54    0.15
   8  -5   1    1.62    0.15
  -8  -5  -1    1.31    0.21
   8  -5   1    1.50    0.20
   8  -5   1    1.37    0.17
   8   5   1    1.80    0.21
  -8   5  -1    1.85    0.19
   8   5   1    1.64    0.16
   9  -5   1    0.83    0.18
   9  -5   1    0.58    0.15
  -9  -5  -1    0.79    0.19
   9   5   1    0.62    0.18
   9   5   1    0.56    0.13
  -9   5  -1    0.65    0.17
  10  -5   1    0.11    0.15
 -10  -5  -1    0.14    0.21
  10  -5   1    0.01    0.18
  10   5   1   -0.05    0.12
  10   5   1    0.11    0.19
  11  -5   1    2.25    0.28
  11  -5   1    2.33    0.22
 -11  -5  -1    2.35    0.27
  11   5   1    2.36    0.23
  11   5   1    2.43    0.27
 -12  -5  -1    0.19    0.23
  12  -5   1    0.27    0.25
  12  -5   1    0.51    0.17
  12   5   1    0.52    0.12
  12   5   1    0.58    0.23
 -10  -6   1    0.37    0.25
  10  -6  -1    0.19    0.18
 -10   6   1    0.25    0.27
  10   6  -1    0.61    0.21
  10   6  -1    0.35    0.15
   9  -6  -1    0.25    0.18
   9  -6  -1    0.15    0.15
  -9  -6   1    0.12    0.28
   9   6  -1    0.40    0.22
  -9   6   1    0.02    0.25
   9   6  -1    0.02    0.15
   8  -6  -1    6.33    0.37
   8  -6  -1    6.57    0.42
  -8  -6   1    6.31    0.51
   8   6  -1    6.29    0.38
   8   6  -1    6.05    0.41
  -8   6   1    5.29    0.46
   7  -6  -1    1.27    0.19
  -7  -6   1    1.21    0.25
   7  -6  -1    1.22    0.17
   7   6  -1    1.03    0.16
  -7   6   1    1.30    0.23
   7   6  -1    1.40    0.22
  -6  -6   1    8.73    0.54
   6  -6  -1    7.75    0.43
   6  -6  -1    7.73    0.46
  -6   6   1    7.33    0.45
   6   6  -1    8.53    0.48
   6   6  -1    8.21    0.45
   5  -6  -1    4.88    0.30
   5  -6  -1    4.37    0.35
  -5  -6   1    4.78    0.39
   5   6  -1    5.51    0.37
  -5   6   1    4.74    0.31
  -5   6   1    4.65    0.35
   5   6  -1    4.89    0.33
   4  -6  -1    0.22    0.15
   4  -6  -1   -0.03    0.15
  -4  -6   1    0.54    0.22
  -4   6   1    0.23    0.14
   4   6  -1    0.21    0.15
  -4   6   1   -0.01    0.15
   4   6  -1    0.28    0.18
  -3  -6   1    0.45    0.19
   3  -6  -1    0.50    0.15
   3  -6  -1    0.30    0.15
   3   6  -1    0.42    0.16
  -3   6   1    0.19    0.14
  -3   6   1    0.35    0.13
   3   6  -1    0.47    0.17
   2  -6  -1   15.46    0.74
   2  -6  -1   14.54    0.74
  -2  -6   1   15.38    0.75
   2   6  -1   15.47    0.74
  -2   6   1   15.32    0.73
   2   6  -1   16.21    0.74
  -1  -6   1    2.15    0.23
   1  -6  -1    1.74    0.20
   1   6  -1    1.95    0.20
  -1   6   1    2.25    0.19
   1   6  -1    1.72    0.20
   0  -6  -1    4.12    0.32
   0  -6   1    4.42    0.31
   0   6  -1    4.32    0.30
   0   6  -1    4.31    0.34
   0   6   1    4.62    0.33
   0   6   1    4.08    0.30
  -1  -6  -1    2.42    0.24
   1  -6   1    3.12    0.24
  -1   6  -1    3.11    0.25
   1   6   1    3.34    0.25
   1   6   1    2.81    0.26
   2  -6   1    0.36    0.16
   2  -6   1    0.16    0.16
  -2  -6  -1    0.43    0.20
   2   6   1    0.20    0.14
   2   6   1    0.27    0.15
  -2   6  -1    0.22    0.13
  -3  -6  -1    1.39    0.22
   3  -6   1    0.74    0.16
   3  -6   1    1.15    0.16
   3   6   1    0.94    0.15
   3   6   1    1.18    0.18
  -3   6  -1    0.88    0.17
  -4  -6  -1    4.46    0.33
   4  -6   1    4.24    0.30
   4  -6   1    4.45    0.29
   4  -6   1    3.76    0.33
   4   6   1    4.54    0.31
  -4   6  -1    4.03    0.32
   4   6   1    4.56    0.32
   5  -6   1   -0.20    0.16
  -5  -6  -1   -0.25    0.19
   5  -6   1    0.18    0.14
   5  -6   1    0.10    0.14
  -5   6  -1    0.12    0.16
   5   6   1    0.01    0.18
   5   6   1    0.17    0.14
  -6  -6  -1    7.15    0.47
   6  -6   1    7.56    0.40
   6  -6   1    6.96    0.44
   6  -6   1    6.84    0.42
   6   6   1    7.75    0.43
   6   6   1    6.91    0.41
  -6   6  -1    7.79    0.44
  -7  -6  -1   -0.12    0.23
   7  -6   1   -0.06    0.14
   7  -6   1   -0.08    0.16
   7  -6   1   -0.03    0.17
   7   6   1    0.12    0.15
  -7   6  -1    0.22    0.17
   7   6   1    0.05    0.17
  -8  -6  -1    0.79    0.25
   8  -6   1    0.76    0.18
   8  -6   1    1.20    0.21
   8   6   1    0.87    0.20
   8   6   1    1.06    0.17
   9  -6   1    3.76    0.29
  -9  -6  -1    4.10    0.35
   9  -6   1    3.55    0.31
   9   6   1    3.69    0.35
   9   6   1    3.63    0.30
  10  -6   1    5.92    0.43
 -10  -6  -1    6.65    0.47
  10  -6   1    6.44    0.44
  10   6   1    6.32    0.39
  10   6   1    6.25    0.43
  -7  -7   1   -0.04    0.29
   7  -7  -1   -0.22    0.18
   7  -7  -1   -0.16    0.19
  -7   7   1   -0.13    0.22
   7   7  -1   -0.11    0.18
   7   7  -1   -0.12    0.23
  -6  -7   1    0.22    0.29
   6  -7  -1    0.14    0.17
   6  -7  -1    0.01    0.20
   6   7  -1    0.15    0.16
   6   7  -1    0.56    0.23
   5  -7  -1    0.10    0.17
  -5  -7   1    0.05    0.24
   5  -7  -1   -0.09    0.19
   5   7  -1   -0.19    0.21
   5   7  -1   -0.05    0.18
   4  -7  -1   -0.09    0.18
   4  -7  -1    0.08    0.20
  -4  -7   1    0.23    0.24
   4   7  -1   -0.12    0.17
   4   7  -1    0.00    0.20
  -3  -7   1    2.83    0.30
   3  -7  -1    2.59    0.25
   3   7  -1    2.01    0.23
  -3   7   1    2.35    0.23
   3   7  -1    2.61    0.25
   2  -7  -1    3.68    0.30
  -2  -7   1    4.24    0.37
  -2   7   1    4.40    0.35
   2   7  -1    3.91    0.36
   2   7  -1    4.37    0.33
   1  -7  -1    7.69    0.49
  -1  -7   1    7.72    0.47
  -1   7   1    7.98    0.45
   1   7  -1    7.65    0.45
   0  -7  -1    1.32    0.24
   0  -7   1    1.36    0.24
   0   7  -1    1.43    0.20
   0   7   1    1.59    0.20
   1  -7   1    0.62    0.21
  -1  -7  -1    0.64    0.24
  -1   7  -1    0.55    0.19
   1   7   1    0.60    0.19
  -2  -7  -1    0.01    0.23
   2  -7   1    0.22    0.19
  -2   7  -1    0.16    0.19
   2   7   1    0.06    0.17
   2   7   1    0.15    0.17
  -3  -7  -1    3.88    0.34
   3  -7   1    3.92    0.33
  -3   7  -1    4.30    0.37
   3   7   1    3.43    0.29
   3   7   1    4.03    0.35
  -4  -7  -1    2.43    0.28
   4  -7   1    1.81    0.21
   4   7   1    2.47    0.25
   4   7   1    1.75    0.22
  -4   7  -1    2.07    0.23
  -5  -7  -1    4.32    0.38
   5  -7   1    4.90    0.34
   5  -7   1    4.44    0.39
   5   7   1    4.73    0.38
  -5   7  -1    4.58    0.37
   5   7   1    4.97    0.37
   6  -7   1    1.31    0.23
   6  -7   1    1.65    0.20
  -6  -7  -1    1.98    0.29
   6   7   1    1.84    0.26
   6   7   1    1.95    0.22
   7  -7   1    0.41    0.21
  -7  -7  -1    0.92    0.27
   7   7   1    0.98    0.25
   7   7   1    0.92    0.19
 -16   0   2    2.73    0.28
  15   0  -2   -0.19    0.15
 -15   0   2   -0.13    0.20
  14   0  -2   20.82    0.99
  14   0  -2   20.92    0.98
 -14   0   2   23.67    1.02
 -14   0   2   20.91    1.02
  13   0  -2    0.63    0.14
  13   0  -2   -0.05    0.13
  13   0  -2    0.00    0.14
  12   0  -2   36.97    1.63
  12   0  -2   37.30    1.62
  12   0  -2   36.47    1.62
  11   0  -2   -0.02    0.11
  11   0  -2    0.10    0.12
  11   0  -2   -0.05    0.11
  10   0  -2  103.51    4.59
  10   0  -2  110.50    4.61
  10   0  -2  105.53    4.58
   9   0  -2   -0.02    0.08
   9   0  -2    0.07    0.09
   9   0  -2    0.05    0.09
   8   0  -2   28.41    1.20
   8   0  -2   27.19    1.19
   8   0  -2   26.17    1.19
   7   0  -2    0.01    0.07
   7   0  -2   -0.01    0.06
   7   0  -2    0.06    0.07
   6   0  -2    8.33    0.37
   6   0  -2    8.82    0.37
   6   0  -2    8.77    0.39
   6   0  -2    8.03    0.38
   6   0  -2    8.33    0.39
   5   0  -2    0.02    0.04
   5   0  -2    0.08    0.02
   5   0  -2    0.00    0.04
   5   0  -2    0.12    0.02
   5   0  -2    0.03    0.05
   4   0  -2  166.22    6.86
   4   0  -2  147.99    6.86
   4   0  -2  155.89    6.90
   4   0  -2  168.35    6.88
   3   0  -2    0.03    0.02
   3   0  -2    0.01    0.02
   3   0  -2    0.02    0.03
   3   0  -2    0.00    0.02
  -3   0   2    0.18    0.03
   2   0  -2    0.83    0.04
   2   0  -2    0.67    0.05
   2   0  -2    0.84    0.05
   2   0  -2    0.72    0.05
  -1   0   2    0.01    0.03
   1   0  -2    0.01    0.02
  -1   0   2    0.01    0.02
   1   0  -2    0.07    0.01
   1   0  -2    0.00    0.02
   0   0  -2    0.46    0.03
   0   0  -2    0.35    0.03
   0   0   2    0.35    0.03
   0   0  -2    0.26    0.03
   0   0   2    0.30    0.03
  -1   0  -2    0.06    0.03
   1   0   2    0.02    0.03
  -1   0  -2    0.03    0.01
   1   0   2    0.07    0.02
  -1   0  -2    0.02    0.02
  -2   0  -2   11.85    0.56
   2   0   2   12.59    0.56
  -2   0  -2   14.11    0.55
   2   0   2   12.32    0.56
   3   0   2    0.14    0.03
   3   0   2    0.12    0.04
   4   0   2  778.69   38.85
   4   0   2  860.94   38.58
   4   0   2  901.64   38.49
   4   0   2 1000.00   39.52
  -4   0  -2  886.12   38.33
   5   0   2   -0.01    0.03
   5   0   2    0.22    0.06
   5   0   2    0.05    0.04
   5   0   2    0.02    0.06
   5   0   2    0.07    0.03
   6   0   2    9.04    0.41
   6   0   2    8.54    0.41
   6   0   2    8.98    0.39
   6   0   2    8.45    0.39
   6   0   2    9.16    0.39
   7   0   2   -0.06    0.04
   7   0   2   -0.03    0.03
   7   0   2    0.15    0.08
   7   0   2    0.09    0.05
   7   0   2   -0.07    0.08
   8   0   2  115.25    5.02
   8   0   2  120.21    5.01
   8   0   2  111.41    5.01
   8   0   2  113.92    5.00
   8   0   2  120.58    5.07
   9   0   2    0.17    0.04
   9   0   2   -0.04    0.06
   9   0   2    0.09    0.03
   9   0   2    0.02    0.11
   9   0   2    0.02    0.10
  10   0   2   12.45    0.64
 -10   0  -2   13.59    0.67
  10   0   2   13.72    0.64
 -10   0  -2   14.93    0.62
 -11   0  -2   -0.16    0.10
 -11   0  -2    0.11    0.16
  11   0   2    0.13    0.13
  12   0   2   16.34    0.77
 -12   0  -2   16.43    0.81
  13   0   2   -0.04    0.14
 -13   0  -2    0.25    0.21
 -14   0  -2    4.27    0.38
  14   0   2    3.79    0.33
 -15   0  -2    0.36    0.25
  15   0   2   -0.05    0.19
  16   0   2    0.57    0.22
 -16   0  -2    0.87    0.28
 -16  -1   2    1.92    0.24
 -16   1   2    1.26    0.26
 -15  -1   2    0.56    0.20
  15  -1  -2    0.36    0.17
  15   1  -2    0.43    0.18
 -15   1   2    0.49    0.23
  14  -1  -2    0.34    0.14
  14  -1  -2    0.41    0.16
 -14  -1   2    0.68    0.18
  14   1  -2    0.43    0.17
  13  -1  -2    2.36    0.22
  13  -1  -2    2.24    0.18
 -13  -1   2    1.94    0.22
  13   1  -2    2.33    0.20
  13   1  -2    2.25    0.21
  12  -1  -2    5.25    0.31
 -12  -1   2    5.38    0.34
  12  -1  -2    5.40    0.33
  12   1  -2    5.62    0.33
  12   1  -2    6.08    0.33
  12   1  -2    5.10    0.31
 -12   1   2    5.60    0.37
  11  -1  -2   19.58    0.90
  11  -1  -2   18.88    0.88
 -11   1   2   21.17    0.92
  11   1  -2   20.42    0.90
  11   1  -2   19.83    0.89
  11   1  -2   18.73    0.89
  10  -1  -2    7.66    0.39
  10  -1  -2    6.38    0.36
  10   1  -2    7.51    0.37
  10   1  -2    7.12    0.36
  10   1  -2    7.06    0.36
 -10   1   2    8.34    0.40
   9  -1  -2   38.33    1.70
   9  -1  -2   40.06    1.70
   9  -1  -2   40.17    1.74
   9  -1  -2   38.94    1.72
   9   1  -2   40.57    1.73
  -9   1   2   40.93    1.74
   9   1  -2   39.42    1.72
   9   1  -2   39.22    1.73
   8  -1  -2    3.71    0.22
   8  -1  -2    3.85    0.21
   8  -1  -2    3.81    0.18
   8  -1  -2    3.80    0.18
   8   1  -2    3.71    0.21
   8   1  -2    3.98    0.22
  -8   1   2    3.88    0.24
   8   1  -2    3.68    0.21
   7  -1  -2   36.53    1.58
   7  -1  -2   34.91    1.59
   7  -1  -2   37.41    1.60
   7  -1  -2   38.13    1.58
   7   1  -2   36.41    1.60
   7   1  -2   36.42    1.58
   7   1  -2   36.26    1.58
   7   1  -2   38.40    1.60
  -7   1   2   35.51    1.60
   7   1  -2   37.28    1.59
   6  -1  -2   70.83    3.17
   6  -1  -2   74.25    3.19
   6  -1  -2   75.50    3.19
  -6  -1   2   81.08    3.20
   6  -1  -2   74.97    3.20
   6   1  -2   75.44    3.20
   6   1  -2   73.42    3.18
   6   1  -2   73.87    3.20
   6   1  -2   70.16    3.18
   6   1  -2   75.36    3.18
  -6   1   2   67.03    3.18
   5  -1  -2   59.66    2.60
   5  -1  -2   55.22    2.59
   5  -1  -2   60.32    2.59
  -5  -1   2   65.49    2.61
   5  -1  -2   60.61    2.61
   5   1  -2   61.76    2.60
   5   1  -2   59.70    2.59
  -5   1   2   57.39    2.60
   5   1  -2   60.89    2.61
   5   1  -2   61.27    2.60
  -4  -1   2  101.93    4.06
   4  -1  -2   97.16    4.08
   4  -1  -2   91.33    4.05
   4  -1  -2   87.69    4.05
   4  -1  -2   92.37    4.05
   4   1  -2   95.62    4.05
  -4   1   2   94.26    4.04
   4   1  -2   91.45    4.04
   4   1  -2   90.74    4.05
   4   1  -2   93.83    4.07
   3  -1  -2  725.15   32.12
  -3  -1   2  771.75   32.12
   3  -1  -2  734.99   32.19
  -3   1   2  745.45   32.74
   3   1  -2  661.96   31.98
   3   1  -2  790.83   32.42
  -3   1   2  722.42   31.83
   3   1  -2  736.79   32.14
  -2  -1   2  602.48   24.22
   2  -1  -2  546.84   24.50
   2  -1  -2  481.86   23.86
  -2   1   2  601.07   23.97
   2   1  -2  536.05   24.31
   2   1  -2  464.49   24.51
  -2   1   2  605.64   24.86
   2   1  -2  608.54   24.59
   2   1  -2  562.44   24.48
  -1  -1   2   72.78    3.34
   1  -1  -2   76.70    3.34
  -1  -1   2   77.50    3.34
  -1   1   2   84.24    3.38
  -1   1   2   78.80    3.33
  -1   1   2   77.55    3.35
   1   1  -2   77.98    3.36
   1   1  -2   76.02    3.34
   1   1  -2   74.76    3.35
   0  -1   2   23.04    1.07
   0  -1  -2   25.64    1.07
   0  -1  -2   24.88    1.07
   0  -1   2   23.48    1.07
   0  -1   2   24.82    1.07
   0   1   2   26.36    1.07
   0   1  -2   25.74    1.07
   0   1   2   24.81    1.06
   0   1   2   24.57    1.07
   0   1  -2   23.77    1.07
  -1  -1  -2  117.84    5.05
   1  -1   2  112.11    5.04
  -1  -1  -2  115.84    5.05
   1  -1   2  106.66    5.06
   1  -1   2  125.59    5.04
   1   1   2  117.37    5.06
  -1   1  -2  122.82    5.07
  -1   1  -2  108.21    5.05
   1   1   2  122.52    5.06
   1   1   2  119.32    5.05
  -2  -1  -2   12.90    0.55
   2  -1   2   12.02    0.55
   2  -1   2   13.25    0.54
   2  -1   2   12.16    0.56
   2   1   2   12.71    0.55
  -2   1  -2   11.95    0.55
   2   1   2   12.18    0.55
   2   1   2   12.51    0.55
  -2   1  -2   13.87    0.56
   3  -1   2  123.28    5.53
   3  -1   2  125.15    5.51
   3  -1   2  125.36    5.51
  -3  -1  -2  130.96    5.51
   3  -1   2  130.45    5.48
   3   1   2  123.65    5.88
   3   1   2  129.34    5.53
  -3   1  -2  132.69    5.55
   3   1   2  128.34    5.60
   3   1   2  126.28    5.54
   4  -1   2    1.17    0.11
   4  -1   2    1.06    0.07
   4  -1   2    1.24    0.08
  -4  -1  -2    1.32    0.09
   4  -1   2    1.13    0.09
   4   1   2    1.28    0.08
   4   1   2    1.37    0.10
   4   1   2    1.30    0.08
  -4   1  -2    1.17    0.10
   5  -1   2   82.78    3.53
   5  -1   2   75.28    3.52
  -5  -1  -2   86.00    3.53
   5  -1   2   83.91    3.56
   5  -1   2   79.75    3.54
   5   1   2   83.69    3.53
  -5   1  -2   81.89    3.53
   5   1   2   82.42    3.54
   5   1   2   80.11    3.52
   5   1   2   81.18    3.54
  -6  -1  -2   50.51    2.09
   6  -1   2   44.35    2.08
   6  -1   2   52.64    2.09
   6  -1   2   45.29    2.08
   6  -1   2   50.86    2.10
  -6   1  -2   46.87    2.11
   6   1   2   49.12    2.10
   6   1   2   49.57    2.10
   6   1   2   48.20    2.09
   6   1   2   47.57    2.09
   7  -1   2   10.96    0.51
   7  -1   2   12.10    0.52
  -7  -1  -2   12.51    0.53
   7  -1   2   11.89    0.54
   7  -1   2   10.68    0.51
   7   1   2   12.27    0.51
   7   1   2   11.50    0.53
   7   1   2   11.51    0.54
   7   1   2   11.49    0.51
  -7   1  -2   11.63    0.56
   8  -1   2    6.25    0.30
   8  -1   2    6.79    0.30
   8  -1   2    6.72    0.35
  -8  -1  -2    6.98    0.32
   8  -1   2    6.15    0.30
   8   1   2    6.52    0.33
   8   1   2    6.33    0.34
   8   1   2    6.85    0.30
  -8   1  -2    6.69    0.38
   8   1   2    6.73    0.30
   9  -1   2    0.20    0.11
   9  -1   2    0.04    0.05
   9  -1   2    0.03    0.05
  -9  -1  -2    0.02    0.09
   9  -1   2    0.18    0.06
   9   1   2    0.14    0.04
  -9   1  -2    0.10    0.13
   9   1   2    0.16    0.09
   9   1   2    0.16    0.04
   9   1   2    0.11    0.11
  10  -1   2   71.30    3.19
  10  -1   2   75.26    3.29
  10  -1   2   73.64    3.21
  10  -1   2   76.99    3.19
 -10  -1  -2   78.32    3.20
  10   1   2   73.46    3.21
 -10   1  -2   73.67    3.23
  10   1   2   72.80    3.21
  10   1   2   71.79    3.18
 -11  -1  -2   79.64    3.26
  11  -1   2   76.00    3.27
  11  -1   2   73.99    3.23
  11  -1   2   74.04    3.23
  11   1   2   74.12    3.27
  11   1   2   72.57    3.26
 -11   1  -2   77.16    3.29
 -12  -1  -2    0.41    0.12
  12  -1   2    0.47    0.15
  12   1   2    0.33    0.17
 -12   1  -2    0.52    0.18
  12   1   2    0.57    0.14
  13  -1   2   23.60    1.08
  13   1   2   23.18    1.07
 -13   1  -2   24.48    1.11
  13   1   2   22.99    1.09
  14  -1   2   14.93    0.76
  14   1   2   15.24    0.74
  14   1   2   15.19    0.77
 -14   1  -2   16.86    0.80
  15  -1   2    4.02    0.32
 -15  -1  -2    4.06    0.37
 -15   1  -2    3.53    0.33
  16  -1   2    1.95    0.28
 -16  -1  -2    2.79    0.34
  15  -2  -2    0.18    0.21
 -15  -2   2    0.14    0.21
 -15   2   2    0.43    0.26
  15   2  -2    0.24    0.19
  14  -2  -2    1.67    0.24
 -14  -2   2    2.01    0.23
  14   2  -2    1.51    0.20
 -13  -2   2   37.88    1.65
  13  -2  -2   35.89    1.65
  13  -2  -2   36.27    1.62
  13   2  -2   37.79    1.64
  12  -2  -2    2.42    0.13
  12  -2  -2    2.33    0.13
 -12  -2   2    2.32    0.22
  12  -2  -2    2.32    0.22
  12  -2  -2    2.72    0.21
  12   2  -2    2.76    0.25
  11  -2  -2   12.55    0.61
 -11  -2   2   14.36    0.68
  11  -2  -2   13.83    0.64
  11  -2  -2   13.89    0.61
  11  -2  -2   14.78    0.68
  11   2  -2   14.75    0.66
 -10  -2   2    9.42    0.46
 -10  -2   2    9.78    0.49
  10  -2  -2    9.19    0.46
  10  -2  -2   10.13    0.43
  10  -2  -2    9.68    0.48
  10  -2  -2    8.64    0.43
 -10   2   2   10.08    0.49
  10   2  -2    9.51    0.42
  10   2  -2    9.51    0.42
  10   2  -2    9.87    0.48
  -9  -2   2   83.43    3.56
  -9  -2   2   86.74    3.58
   9  -2  -2   77.58    3.56
   9  -2  -2   84.84    3.58
   9  -2  -2   84.34    3.58
   9  -2  -2   82.30    3.56
   9   2  -2   80.97    3.57
  -9   2   2   86.17    3.58
   9   2  -2   80.01    3.56
   9   2  -2   80.61    3.56
   8  -2  -2   24.07    1.05
   8  -2  -2   22.68    1.05
   8  -2  -2   24.25    1.07
  -8  -2   2   24.87    1.05
   8  -2  -2   23.62    1.04
  -8  -2   2   24.62    1.08
   8   2  -2   23.68    1.06
   8   2  -2   23.20    1.04
  -8   2   2   25.71    1.07
   8   2  -2   23.86    1.04
   7  -2  -2   25.67    1.15
  -7  -2   2   26.63    1.15
  -7  -2   2   28.68    1.17
   7  -2  -2   25.41    1.15
   7  -2  -2   27.09    1.17
   7  -2  -2   24.99    1.15
   7   2  -2   26.36    1.16
   7   2  -2   25.95    1.14
   7   2  -2   25.44    1.14
  -7   2   2   28.32    1.16
   6  -2  -2   47.60    2.11
  -6  -2   2   48.28    2.11
   6  -2  -2   47.96    2.10
  -6  -2   2   50.32    2.15
   6  -2  -2   48.90    2.10
   6  -2  -2   46.47    2.10
   6   2  -2   47.83    2.09
   6   2  -2   46.28    2.09
  -6   2   2   53.50    2.10
   6   2  -2   49.20    2.11
   5  -2  -2   43.28    1.88
   5  -2  -2   44.63    1.89
  -5  -2   2   41.90    1.89
   5  -2  -2   41.59    1.88
  -5  -2   2   44.13    1.87
   5  -2  -2   43.38    1.88
   5   2  -2   42.95    1.87
   5   2  -2   42.23    1.87
   5   2  -2   42.77    1.88
  -5   2   2   47.61    1.87
   4  -2  -2    0.35    0.07
  -4  -2   2    0.41    0.04
   4  -2  -2    0.47    0.06
  -4  -2   2    0.32    0.08
   4  -2  -2    0.41    0.07
  -4   2   2    0.48    0.05
   4   2  -2    0.63    0.05
   4   2  -2    0.36    0.07
   4   2  -2    0.46    0.05
  -3  -2   2   20.87    0.91
   3  -2  -2   21.99    0.93
  -3  -2   2   20.92    0.93
   3  -2  -2   20.85    0.92
   3   2  -2   20.64    0.93
  -3   2   2   22.25    0.92
   3   2  -2   20.23    0.92
  -3   2   2   21.20    0.93
  -3   2   2   21.14    0.93
   3   2  -2   21.82    0.92
   2  -2  -2   36.54    1.60
   2  -2  -2   36.73    1.60
  -2  -2   2   36.74    1.60
  -2  -2   2   33.01    1.59
  -2  -2   2   36.67    1.61
  -2   2   2   38.71    1.60
   2   2  -2   37.69    1.60
   2   2  -2   38.09    1.60
  -2   2   2   36.93    1.60
  -2   2   2   39.44    1.60
   1  -2  -2   12.74    0.58
  -1  -2   2   12.45    0.59
   1  -2  -2   14.17    0.59
  -1  -2   2   12.81    0.59
  -1  -2   2   12.35    0.57
  -1   2   2   13.90    0.59
   1   2  -2   13.23    0.59
  -1   2   2   13.39    0.58
  -1   2   2   14.57    0.59
   1   2  -2   13.01    0.59
   0  -2   2   31.21    1.41
   0  -2   2   33.04    1.42
   0  -2  -2   32.44    1.42
   0  -2  -2   32.14    1.42
   0  -2   2   32.81    1.42
   0   2   2   32.55    1.42
   0   2  -2   32.66    1.42
   0   2   2   33.20    1.42
   0   2  -2   34.39    1.42
   0   2   2   33.75    1.42
   1  -2   2  117.74    5.22
   1  -2   2  126.18    5.23
   1  -2   2  118.88    5.24
  -1  -2  -2  121.09    5.24
  -1  -2  -2  117.40    5.22
  -1   2  -2  117.30    5.22
   1   2   2  120.58    5.22
   1   2   2  124.34    5.25
  -1   2  -2  121.34    5.25
   1   2   2  124.77    5.25
   2  -2   2  104.58    4.76
   2  -2   2  105.03    4.76
  -2  -2  -2  111.54    4.75
  -2  -2  -2  109.23    4.76
   2  -2   2  109.16    4.72
  -2   2  -2  114.43    4.77
   2   2   2  113.53    4.77
   2   2   2  109.99    4.73
   2   2   2  110.78    4.75
  -2   2  -2  107.02    4.75
   3  -2   2  353.29   15.51
   3  -2   2  364.24   15.53
  -3  -2  -2  347.59   15.51
   3  -2   2  359.69   15.46
   3   2   2  370.10   15.50
   3   2   2  348.09   15.46
  -3   2  -2  374.00   15.54
  -3   2  -2  345.16   15.49
   3   2   2  376.84   15.53
   4  -2   2    0.46    0.05
   4  -2   2    0.47    0.06
   4  -2   2    0.53    0.06
  -4  -2  -2    0.47    0.07
   4  -2   2    0.56    0.08
   4   2   2    0.52    0.08
   4   2   2    0.58    0.06
   4   2   2    0.54    0.06
  -4   2  -2    0.63    0.08
   4   2   2    0.69    0.06
   5  -2   2  147.06    6.34
   5  -2   2  146.21    6.36
   5  -2   2  148.15    6.32
  -5  -2  -2  153.29    6.37
   5  -2   2  140.32    6.33
  -5   2  -2  157.62    6.41
   5   2   2  147.92    6.38
   5   2   2  128.48    6.32
   5   2   2  143.24    6.32
   5   2   2  155.73    6.36
   6  -2   2   16.47    0.72
   6  -2   2   15.36    0.71
  -6  -2  -2   16.88    0.73
   6  -2   2   15.71    0.72
   6  -2   2   16.49    0.74
   6   2   2   16.92    0.72
   6   2   2   16.61    0.73
   6   2   2   15.52    0.72
  -6   2  -2   17.38    0.75
   6   2   2   15.83    0.72
   7  -2   2  193.39    8.73
   7  -2   2  201.28    8.76
  -7  -2  -2  209.32    8.78
   7  -2   2  201.47    8.78
   7  -2   2  199.80    8.74
   7   2   2  204.55    8.75
  -7   2  -2  206.66    8.79
   7   2   2  208.24    8.81
   7   2   2  197.92    8.74
   7   2   2  205.32    8.75
  -8  -2  -2    2.54    0.19
   8  -2   2    2.68    0.16
   8  -2   2    2.76    0.21
   8  -2   2    2.62    0.16
   8  -2   2    2.21    0.15
  -8   2  -2    2.95    0.26
   8   2   2    2.66    0.15
   8   2   2    2.66    0.15
   8   2   2    2.84    0.22
   8   2   2    2.78    0.17
   9  -2   2    0.52    0.07
  -9  -2  -2    0.63    0.12
   9  -2   2    0.44    0.07
   9  -2   2    0.57    0.13
   9  -2   2    0.38    0.08
   9   2   2    0.38    0.07
   9   2   2    0.45    0.06
   9   2   2    0.45    0.09
   9   2   2    0.40    0.13
  -9   2  -2    0.39    0.15
  10  -2   2   41.75    1.77
 -10  -2  -2   42.35    1.78
  10  -2   2   41.84    1.80
  10   2   2   39.64    1.77
  10   2   2   40.66    1.79
 -10   2  -2   37.97    1.81
  10   2   2   40.82    1.76
  11  -2   2    5.89    0.28
 -11  -2  -2    5.61    0.33
  11  -2   2    5.92    0.38
 -11   2  -2    5.52    0.41
  11   2   2    5.58    0.26
  11   2   2    5.38    0.31
  11   2   2    5.51    0.26
  11   2   2    5.71    0.35
 -12  -2  -2   -0.05    0.14
  12  -2   2    0.30    0.17
  12  -2   2    0.06    0.07
 -12   2  -2    0.14    0.21
  12   2   2    0.02    0.17
  13  -2   2   11.51    0.54
 -13  -2  -2   12.95    0.61
  13  -2   2   12.02    0.63
 -13   2  -2   12.81    0.67
  13   2   2   12.37    0.63
  14  -2   2    1.04    0.22
  14   2   2    1.49    0.24
 -14   2  -2    1.42    0.26
  15  -2   2    2.09    0.28
 -15   2  -2    2.66    0.31
  15   2   2    2.43    0.28
 -15  -3   2    0.32    0.23
 -15   3   2    0.25    0.27
  15   3  -2    0.22    0.20
 -14  -3   2   12.09    0.63
  14  -3  -2   10.97    0.60
  14  -3  -2   11.97    0.50
  14   3  -2   11.05    0.59
 -14   3   2    9.28    0.63
 -13  -3   2    3.47    0.29
  13  -3  -2    3.27    0.20
  13  -3  -2    3.05    0.27
  13   3  -2    3.07    0.28
  12  -3  -2    0.11    0.09
 -12  -3   2    0.00    0.19
  12  -3  -2    0.09    0.12
  12  -3  -2    0.08    0.18
  12   3  -2    0.01    0.17
  12   3  -2    0.07    0.05
  12   3  -2    0.01    0.05
 -11  -3   2    0.25    0.18
  11  -3  -2    0.25    0.16
  11  -3  -2    0.32    0.11
  11  -3  -2    0.29    0.09
  11   3  -2    0.26    0.14
  11   3  -2    0.26    0.06
 -10  -3   2    1.52    0.19
  10  -3  -2    2.14    0.16
  10  -3  -2    1.34    0.18
  10  -3  -2    1.44    0.14
  10   3  -2    1.31    0.16
  10   3  -2    1.34    0.11
   9  -3  -2    2.64    0.23
   9  -3  -2    2.77    0.18
   9  -3  -2    2.62    0.19
  -9  -3   2    2.19    0.21
   9   3  -2    2.53    0.24
  -9   3   2    2.58    0.20
   9   3  -2    2.59    0.17
  -8  -3   2   45.15    1.98
   8  -3  -2   45.56    1.96
   8  -3  -2   44.44    1.96
   8  -3  -2   45.92    1.98
   8   3  -2   44.47    1.95
   8   3  -2   43.26    1.97
  -8   3   2   46.85    1.96
   7  -3  -2   27.79    1.24
  -7  -3   2   28.46    1.27
   7  -3  -2   28.25    1.26
   7  -3  -2   30.08    1.24
   7   3  -2   28.20    1.26
   7   3  -2   27.81    1.24
   7   3  -2   27.03    1.24
  -7   3   2   29.58    1.24
   6  -3  -2  161.96    7.33
   6  -3  -2  171.02    7.36
  -6  -3   2  164.93    7.30
   6  -3  -2  175.62    7.39
   6   3  -2  165.34    7.34
  -6   3   2  183.59    7.34
   6   3  -2  173.75    7.34
   6   3  -2  161.90    7.32
  -5  -3   2   25.08    1.15
   5  -3  -2   25.01    1.13
   5  -3  -2   25.69    1.14
   5  -3  -2   27.05    1.15
   5  -3  -2   25.04    1.13
   5   3  -2   26.57    1.13
   5   3  -2   25.39    1.14
  -5   3   2   27.72    1.13
   5   3  -2   25.65    1.13
   4  -3  -2   25.24    1.02
   4  -3  -2   22.59    1.01
  -4  -3   2   21.92    1.03
   4   3  -2   21.17    1.01
  -4   3   2   23.26    1.01
   4   3  -2   22.56    1.01
   4   3  -2   23.30    1.02
  -4   3   2   23.71    1.03
  -4   3   2   24.26    1.02
  -3  -3   2   93.03    4.05
  -3  -3   2   93.17    4.04
   3  -3  -2   93.30    4.04
   3  -3  -2   92.80    4.04
  -3   3   2   93.21    4.04
  -3   3   2   98.38    4.06
   3   3  -2   92.21    4.06
  -3   3   2   91.31    4.04
   3   3  -2   97.43    4.07
  -2  -3   2   97.14    4.15
   2  -3  -2   93.95    4.17
  -2  -3   2   98.39    4.14
  -2  -3   2   93.25    4.15
   2  -3  -2   98.73    4.71
  -2   3   2   95.02    4.15
   2   3  -2   95.89    4.14
  -2   3   2   96.67    4.17
  -2   3   2   97.23    4.18
   2   3  -2   97.87    4.19
  -1  -3   2   23.10    1.00
  -1  -3   2   22.36    1.02
  -1  -3   2   22.46    1.01
   1  -3  -2   23.30    1.01
   1  -3  -2   22.18    1.01
  -1   3   2   22.56    1.01
   1   3  -2   22.62    1.01
   1   3  -2   23.62    1.01
  -1   3   2   23.69    1.00
  -1   3   2   24.25    1.01
   0  -3   2  340.51   14.52
   0  -3  -2  342.23   15.82
   0  -3   2  362.22   14.59
   0  -3  -2  325.96   14.58
   0  -3   2  336.30   14.55
   0   3  -2  309.85   14.54
   0   3   2  321.29   15.41
   0   3   2  324.05   14.55
   0   3   2  353.66   14.59
   0   3  -2  357.44   14.59
   1  -3   2    1.18    0.10
  -1  -3  -2    1.03    0.09
  -1  -3  -2    0.87    0.11
   1  -3   2    1.07    0.09
   1  -3   2    1.38    0.13
  -1   3  -2    1.52    0.13
   1   3   2    1.04    0.09
   1   3   2    1.32    0.09
   1   3   2    0.89    0.09
  -1   3  -2    1.56    0.13
  -2  -3  -2   23.05    1.04
   2  -3   2   24.44    1.03
   2  -3   2   22.79    1.04
   2  -3   2   22.38    1.04
   2   3   2   23.96    1.04
  -2   3  -2   25.00    1.04
  -2   3  -2   24.08    1.04
   2   3   2   22.90    1.04
   2   3   2   24.33    1.03
   3  -3   2   20.77    0.93
   3  -3   2   20.21    0.93
   3  -3   2   20.59    0.92
  -3  -3  -2   21.53    0.94
  -3  -3  -2   21.16    0.93
   3   3   2   21.03    0.93
  -3   3  -2   20.81    0.93
   3   3   2   21.41    0.91
  -3   3  -2   21.62    0.93
   3   3   2   21.41    0.93
   4  -3   2   20.09    0.92
   4  -3   2   21.54    0.90
   4  -3   2   20.19    0.92
  -4  -3  -2   20.89    0.92
   4   3   2   20.18    0.91
  -4   3  -2   20.28    0.91
   4   3   2   21.13    0.92
   4   3   2   20.53    0.90
  -4   3  -2   21.22    0.92
  -5  -3  -2    2.19    0.18
   5  -3   2    1.63    0.16
   5  -3   2    1.83    0.15
   5  -3   2    2.11    0.13
   5   3   2    1.95    0.17
   5   3   2    1.72    0.12
   5   3   2    1.88    0.14
   5   3   2    1.98    0.15
  -5   3  -2    1.97    0.16
  -5   3  -2    1.79    0.15
   6  -3   2    2.62    0.20
   6  -3   2    2.65    0.16
  -6  -3  -2    2.88    0.21
   6  -3   2    2.36    0.18
   6   3   2    2.89    0.17
  -6   3  -2    2.90    0.21
   6   3   2    2.68    0.19
   6   3   2    2.67    0.17
   6   3   2    2.50    0.15
  -7  -3  -2   10.39    0.50
   7  -3   2   10.68    0.52
   7  -3   2   10.06    0.47
   7  -3   2   10.47    0.49
   7   3   2   10.38    0.48
  -7   3  -2   11.18    0.52
   7   3   2   10.28    0.47
   7   3   2   10.59    0.50
   8  -3   2   66.43    2.85
  -8  -3  -2   64.82    2.84
   8  -3   2   64.53    2.83
   8  -3   2   61.99    2.82
  -8   3  -2   68.89    2.85
   8   3   2   65.02    2.82
   8   3   2   66.34    2.84
   9  -3   2   14.53    0.67
   9  -3   2   14.65    0.70
  -9  -3  -2   14.93    0.70
   9   3   2   14.72    0.70
  -9   3  -2   15.07    0.72
   9   3   2   14.77    0.66
 -10  -3  -2   18.06    0.82
  10  -3   2   17.08    0.83
  10  -3   2   17.91    0.80
  10   3   2   18.18    0.79
 -10   3  -2   17.76    0.86
  10   3   2   17.27    0.83
 -11  -3  -2    6.75    0.41
  11  -3   2    7.08    0.36
  11  -3   2    7.37    0.42
 -11   3  -2    6.85    0.46
  11   3   2    7.04    0.43
  11   3   2    7.22    0.34
  12  -3   2    3.26    0.22
 -12  -3  -2    3.13    0.24
  12  -3   2    2.86    0.26
  12   3   2    2.84    0.25
  12   3   2    2.81    0.18
 -12   3  -2    2.82    0.30
  13  -3   2    1.21    0.24
  13  -3   2    1.18    0.12
 -13  -3  -2    1.55    0.21
  13   3   2    1.43    0.23
 -13   3  -2    1.12    0.26
  13   3   2    1.23    0.10
  14  -3   2   10.71    0.50
  14  -3   2   11.07    0.60
  14   3   2   10.96    0.58
  15  -3   2    8.38    0.39
  15  -3   2    8.61    0.53
  15   3   2    8.52    0.53
 -14  -4   2    1.25    0.28
  14  -4  -2    1.16    0.13
 -14   4   2    1.01    0.27
  14   4  -2    1.42    0.22
  13  -4  -2    1.93    0.15
 -13  -4   2    1.82    0.28
  13   4  -2    2.11    0.23
  13   4  -2    1.61    0.14
 -13   4   2    1.42    0.30
  12  -4  -2    4.45    0.27
 -12  -4   2    4.72    0.35
  12  -4  -2    4.23    0.35
  12   4  -2    3.87    0.23
  12   4  -2    3.94    0.32
 -12   4   2    3.46    0.34
  11  -4  -2    1.02    0.14
  11  -4  -2    0.99    0.20
 -11  -4   2    1.55    0.25
  11  -4  -2    1.24    0.14
  11   4  -2    1.01    0.11
  11   4  -2    1.14    0.19
 -11   4   2    1.18    0.24
  10  -4  -2   14.14    0.65
  10  -4  -2   13.87    0.66
  10  -4  -2   14.99    0.69
 -10  -4   2   14.34    0.73
  10   4  -2   14.13    0.64
 -10   4   2   12.78    0.72
  10   4  -2   14.21    0.68
  -9  -4   2    1.04    0.22
   9  -4  -2    0.96    0.13
   9  -4  -2    1.11    0.13
   9  -4  -2    0.70    0.16
  -9   4   2    0.61    0.20
   9   4  -2    0.84    0.17
   9   4  -2    0.84    0.11
  -8  -4   2    0.65    0.18
   8  -4  -2    0.54    0.16
   8  -4  -2    0.41    0.12
   8  -4  -2    0.31    0.11
   8   4  -2    0.47    0.10
  -8   4   2    0.28    0.18
   8   4  -2    0.44    0.14
  -7  -4   2   70.04    3.13
   7  -4  -2   72.71    3.11
   7  -4  -2   69.25    3.11
   7  -4  -2   73.80    3.12
  -7   4   2   73.97    3.14
   7   4  -2   73.39    3.11
  -7   4   2   71.46    3.10
   7   4  -2   70.70    3.12
   6  -4  -2   22.63    1.01
   6  -4  -2   22.07    1.00
  -6  -4   2   21.48    1.03
  -6   4   2   21.61    1.03
   6   4  -2   22.00    1.00
   6   4  -2   22.11    1.02
  -6   4   2   25.48    0.99
   5  -4  -2    0.76    0.12
   5  -4  -2    0.82    0.12
  -5  -4   2    0.86    0.16
  -5   4   2    0.95    0.15
   5   4  -2    0.74    0.11
  -5   4   2    0.90    0.10
   5   4  -2    0.68    0.12
   4  -4  -2    1.46    0.13
   4  -4  -2    1.11    0.12
  -4  -4   2    0.95    0.16
  -4   4   2    1.12    0.10
   4   4  -2    0.95    0.12
  -4   4   2    1.13    0.14
   4   4  -2    1.00    0.12
   3  -4  -2    0.58    0.11
  -3  -4   2    0.34    0.10
  -3  -4   2    0.46    0.13
   3  -4  -2    0.79    0.11
  -3   4   2    0.48    0.08
  -3   4   2    0.37    0.10
  -3   4   2    0.94    0.11
   3   4  -2    0.39    0.10
   3   4  -2    0.31    0.10
  -2  -4   2    2.00    0.15
  -2  -4   2    1.90    0.17
   2  -4  -2    1.92    0.17
   2  -4  -2    1.92    0.17
  -2   4   2    2.19    0.19
  -2   4   2    1.65    0.14
   2   4  -2    1.75    0.16
  -2   4   2    1.92    0.16
   2   4  -2    1.91    0.15
   2   4  -2    1.82    0.10
  -1  -4   2   43.56    1.91
   1  -4  -2   44.44    1.91
  -1  -4   2   42.72    1.91
  -1  -4   2   44.73    1.88
   1  -4  -2   44.64    1.91
  -1   4   2   43.40    1.90
   1   4  -2   43.39    1.91
   1   4  -2   42.48    1.90
  -1   4   2   43.95    1.90
  -1   4   2   44.07    1.91
   0  -4   2   28.93    1.25
   0  -4   2   28.79    1.27
   0  -4  -2   27.98    1.27
   0  -4  -2   28.94    1.27
   0  -4   2   28.53    1.27
   0   4   2   28.80    1.26
   0   4   2   28.77    1.26
   0   4   2   28.97    1.27
   0   4  -2   30.17    1.28
   0   4  -2   28.66    1.27
   1  -4   2  143.41    6.23
  -1  -4  -2  143.51    6.18
   1  -4   2  149.36    6.23
  -1  -4  -2  143.11    6.20
   1  -4   2  146.15    6.24
   1   4   2  139.94    6.20
   1   4   2  140.78    6.22
   1   4   2  141.60    6.18
  -1   4  -2  141.58    6.20
  -1   4  -2  147.79    6.22
   2  -4   2    6.94    0.31
   2  -4   2    5.55    0.29
  -2  -4  -2    5.92    0.33
   2  -4   2    5.82    0.32
  -2   4  -2    6.02    0.32
   2   4   2    5.76    0.31
   2   4   2    5.77    0.28
   2   4   2    5.90    0.31
  -2   4  -2    5.76    0.32
  -3  -4  -2    5.33    0.27
   3  -4   2    4.95    0.29
  -3  -4  -2    5.26    0.30
   3  -4   2    4.86    0.27
   3  -4   2    4.78    0.27
  -3   4  -2    5.20    0.28
   3   4   2    4.97    0.28
  -3   4  -2    4.88    0.29
   3   4   2    5.13    0.24
   3   4   2    4.47    0.27
  -4  -4  -2   85.76    3.58
   4  -4   2   82.55    3.57
   4  -4   2   81.44    3.58
   4  -4   2   81.82    3.58
   4   4   2   81.96    3.58
  -4   4  -2   86.74    3.58
   4   4   2   79.42    3.57
   5  -4   2    1.37    0.12
  -5  -4  -2    1.22    0.16
   5  -4   2    1.32    0.13
   5  -4   2    1.34    0.14
   5   4   2    1.40    0.15
  -5   4  -2    1.17    0.15
   5   4   2    1.15    0.12
   6  -4   2    4.84    0.31
   6  -4   2    5.24    0.27
   6  -4   2    4.96    0.30
  -6  -4  -2    5.41    0.31
   6   4   2    5.38    0.32
   6   4   2    5.23    0.29
  -6   4  -2    5.18    0.32
   7  -4   2   53.29    2.32
  -7  -4  -2   52.19    2.34
   7  -4   2   53.48    2.34
   7  -4   2   54.77    2.33
  -7   4  -2   52.70    2.34
   7   4   2   53.04    2.32
   7   4   2   55.61    2.34
   8  -4   2   16.58    0.77
   8  -4   2   16.83    0.76
  -8  -4  -2   16.77    0.78
   8  -4   2   15.65    0.73
   8   4   2   15.97    0.76
   8   4   2   16.41    0.74
  -8   4  -2   16.33    0.77
   9  -4   2   29.66    1.28
  -9  -4  -2   28.78    1.30
   9  -4   2   29.38    1.31
  -9   4  -2   29.51    1.31
   9   4   2   27.65    1.27
   9   4   2   28.54    1.30
  10  -4   2    3.64    0.27
 -10  -4  -2    3.93    0.32
  10  -4   2    4.13    0.35
  10   4   2    3.78    0.25
 -10   4  -2    4.05    0.33
  10   4   2    4.04    0.31
  11  -4   2    5.98    0.34
  11  -4   2    5.96    0.39
 -11  -4  -2    5.91    0.39
  11   4   2    5.63    0.37
 -11   4  -2    5.75    0.41
  11   4   2    5.41    0.31
 -12  -4  -2    2.27    0.24
  12  -4   2    2.34    0.19
  12  -4   2    2.02    0.25
  12   4   2    2.02    0.18
 -12   4  -2    1.93    0.27
  12   4   2    2.20    0.23
  13  -4   2   -0.10    0.21
 -13  -4  -2    0.03    0.20
  13  -4   2    0.15    0.13
  13   4   2    0.08    0.21
  13   4   2    0.01    0.09
  14  -4   2   -0.09    0.23
  14  -4   2    0.15    0.12
 -14  -4  -2    0.19    0.21
  14   4   2    0.19    0.20
  14   4   2    0.17    0.08
 -12  -5   2    1.36    0.30
  12  -5  -2    1.68    0.18
 -12   5   2    1.18    0.30
  12   5  -2    1.40    0.14
  12   5  -2    1.26    0.23
 -11  -5   2    1.23    0.26
  11  -5  -2    1.29    0.17
  11  -5  -2    1.20    0.16
  11   5  -2    1.21    0.14
  11   5  -2    1.07    0.22
 -11   5   2    0.87    0.25
  10  -5  -2    1.30    0.17
 -10  -5   2    0.89    0.27
  10  -5  -2    1.25    0.17
  10   5  -2    1.42    0.15
  10   5  -2    1.58    0.22
 -10   5   2    0.96    0.26
  -9  -5   2   23.73    1.06
   9  -5  -2   23.16    1.01
   9  -5  -2   21.50    1.00
   9   5  -2   22.03    0.99
  -9   5   2   20.92    1.05
   9   5  -2   21.71    1.03
   8  -5  -2   24.97    1.09
  -8  -5   2   24.39    1.14
   8  -5  -2   23.94    1.08
   8   5  -2   23.60    1.10
   8   5  -2   24.14    1.08
  -8   5   2   23.04    1.13
   7  -5  -2    4.73    0.31
   7  -5  -2    4.56    0.29
  -7  -5   2    4.68    0.37
   7   5  -2    4.85    0.29
   7   5  -2    4.14    0.31
  -7   5   2    4.21    0.33
   6  -5  -2    7.18    0.38
  -6  -5   2    6.86    0.44
   6  -5  -2    7.00    0.40
   6   5  -2    7.02    0.40
  -6   5   2    7.34    0.43
   6   5  -2    7.39    0.38
   5  -5  -2   23.53    1.05
  -5  -5   2   23.26    1.09
   5  -5  -2   23.35    1.06
   5   5  -2   23.77    1.05
  -5   5   2   23.12    1.04
  -5   5   2   23.19    1.07
   5   5  -2   24.08    1.06
   4  -5  -2    0.11    0.13
  -4  -5   2   -0.01    0.16
   4  -5  -2    0.27    0.13
   4   5  -2    0.19    0.14
  -4   5   2    0.15    0.13
  -4   5   2    0.16    0.10
   4   5  -2    0.07    0.11
  -3  -5   2   34.56    1.62
   3  -5  -2   36.51    1.61
   3  -5  -2   37.84    1.61
  -3   5   2   36.18    1.60
   3   5  -2   37.11    1.61
  -3   5   2   36.68    1.59
   3   5  -2   36.16    1.61
   2  -5  -2    0.16    0.12
   2  -5  -2    0.28    0.14
  -2  -5   2    0.27    0.16
  -2   5   2    0.06    0.10
   2   5  -2    0.16    0.13
  -2   5   2    0.04    0.10
   2   5  -2    0.07    0.12
   1  -5  -2   49.95    2.20
   1  -5  -2   49.87    2.20
  -1  -5   2   50.17    2.20
  -1   5   2   48.89    2.18
   1   5  -2   50.73    2.20
   1   5  -2   52.02    2.20
  -1   5   2   50.88    2.20
  -1   5   2   50.20    2.19
   0  -5   2   20.71    0.92
   0  -5   2   20.21    0.95
   0  -5  -2   21.66    0.95
   0  -5  -2   20.52    0.95
   0  -5   2   21.03    0.95
   0   5   2   21.10    0.95
   0   5   2   20.70    0.93
   0   5   2   20.96    0.94
   0   5  -2   21.78    0.95
   0   5  -2   20.75    0.95
  -1  -5  -2   51.66    2.28
  -1  -5  -2   51.59    2.28
   1  -5   2   51.50    2.28
   1  -5   2   51.45    2.28
   1  -5   2   52.31    2.26
  -1   5  -2   52.28    2.28
  -1   5  -2   51.97    2.28
   1   5   2   53.61    2.27
   1   5   2   53.89    2.28
  -2  -5  -2   32.55    1.44
   2  -5   2   32.13    1.42
   2  -5   2   31.81    1.43
   2  -5   2   31.71    1.42
   2   5   2   33.07    1.43
  -2   5  -2   31.36    1.43
  -2   5  -2   33.33    1.43
   2   5   2   32.42    1.42
   3  -5   2   31.92    1.44
   3  -5   2   32.14    1.43
   3  -5   2   31.93    1.45
  -3  -5  -2   31.82    1.45
   3   5   2   34.14    1.44
  -3   5  -2   33.24    1.45
   3   5   2   33.07    1.44
  -4  -5  -2    1.14    0.17
   4  -5   2    1.40    0.15
   4  -5   2    1.33    0.14
   4  -5   2    1.38    0.17
   4   5   2    1.31    0.15
   4   5   2    1.48    0.17
  -4   5  -2    1.19    0.16
   5  -5   2    3.69    0.27
   5  -5   2    3.93    0.25
  -5  -5  -2    4.21    0.33
   5  -5   2    3.69    0.28
   5   5   2    4.10    0.27
  -5   5  -2    4.01    0.29
   5   5   2    3.98    0.28
   6  -5   2   14.86    0.71
   6  -5   2   14.97    0.72
   6  -5   2   15.15    0.69
  -6  -5  -2   15.28    0.73
  -6   5  -2   15.02    0.72
   6   5   2   15.58    0.73
   6   5   2   14.97    0.71
   7  -5   2   28.02    1.27
   7  -5   2   28.27    1.25
   7  -5   2   28.43    1.28
  -7  -5  -2   28.81    1.29
  -7   5  -2   29.01    1.27
   7   5   2   28.38    1.26
   7   5   2   27.17    1.27
   8  -5   2   15.09    0.73
  -8  -5  -2   15.73    0.76
   8  -5   2   15.22    0.74
   8   5   2   15.03    0.72
   8   5   2   15.79    0.74
  -8   5  -2   15.41    0.74
   9  -5   2   13.33    0.65
  -9  -5  -2   12.56    0.63
   9  -5   2   12.66    0.62
   9   5   2   12.46    0.59
   9   5   2   11.39    0.62
  -9   5  -2   12.13    0.64
  10  -5   2    0.19    0.19
 -10  -5  -2    0.08    0.18
  10  -5   2   -0.07    0.15
 -10   5  -2    0.12    0.18
  10   5   2   -0.02    0.12
  10   5   2    0.20    0.18
  11  -5   2    9.04    0.47
 -11  -5  -2    8.39    0.51
  11  -5   2    8.38    0.50
  11   5   2    7.66    0.42
  11   5   2    7.44    0.48
 -12  -5  -2    0.20    0.22
  12  -5   2    0.32    0.17
  12  -5   2    0.44    0.23
  12   5   2    0.13    0.22
  12   5   2    0.20    0.12
  10  -6  -2   10.26    0.54
  10  -6  -2   10.21    0.55
 -10  -6   2   11.11    0.67
  10   6  -2    9.99    0.52
 -10   6   2    8.82    0.63
  10   6  -2   10.39    0.59
   9  -6  -2    0.88    0.19
  -9  -6   2    0.69    0.30
   9  -6  -2    0.89    0.17
  -9   6   2    0.71    0.24
   9   6  -2    0.86    0.21
   9   6  -2    0.67    0.16
   8  -6  -2    6.42    0.43
   8  -6  -2    6.59    0.39
  -8  -6   2    7.67    0.54
   8   6  -2    6.96    0.40
   8   6  -2    6.94    0.43
  -8   6   2    6.08    0.48
   7  -6  -2    3.37    0.26
   7  -6  -2    3.26    0.24
  -7  -6   2    3.40    0.32
  -7   6   2    2.92    0.27
   7   6  -2    3.74    0.32
   7   6  -2    3.81    0.30
   6  -6  -2    6.11    0.39
  -6  -6   2    6.06    0.45
   6  -6  -2    6.21    0.37
  -6   6   2    5.41    0.40
   6   6  -2    6.37    0.38
   6   6  -2    5.68    0.38
  -5  -6   2    7.28    0.47
   5  -6  -2    7.27    0.39
   5  -6  -2    6.98    0.43
   5   6  -2    7.09    0.41
   5   6  -2    7.39    0.42
  -5   6   2    6.69    0.42
   4  -6  -2   15.14    0.73
   4  -6  -2   15.12    0.71
  -4  -6   2   14.58    0.77
   4   6  -2   14.69    0.72
   4   6  -2   15.04    0.72
  -4   6   2   14.00    0.70
   3  -6  -2    5.66    0.35
   3  -6  -2    5.60    0.37
  -3  -6   2    5.94    0.43
  -3   6   2    5.24    0.33
   3   6  -2    5.76    0.38
  -3   6   2    5.66    0.32
   3   6  -2    5.85    0.38
   2  -6  -2   26.92    1.29
   2  -6  -2   29.21    1.29
  -2  -6   2   29.51    1.31
  -2   6   2   28.49    1.27
   2   6  -2   28.33    1.29
   2   6  -2   29.58    1.30
   1  -6  -2    5.93    0.39
  -1  -6   2    5.60    0.39
   1   6  -2    5.69    0.37
   1   6  -2    5.84    0.35
  -1   6   2    5.56    0.33
   0  -6  -2    4.31    0.32
   0  -6   2    3.95    0.30
   0   6  -2    4.02    0.33
   0   6   2    4.21    0.32
   0   6   2    4.63    0.29
   0   6  -2    3.97    0.32
   1  -6   2   13.96    0.70
  -1  -6  -2   14.30    0.71
   1   6   2   14.73    0.69
  -1   6  -2   14.89    0.71
   1   6   2   14.77    0.71
   2  -6   2   20.97    0.99
  -2  -6  -2   20.81    1.02
   2  -6   2   21.51    1.00
   2   6   2   21.88    0.99
  -2   6  -2   21.89    1.00
   2   6   2   22.58    1.00
  -3  -6  -2    0.68    0.19
   3  -6   2    0.87    0.16
   3  -6   2    0.87    0.17
   3  -6   2    1.21    0.15
   3   6   2    1.04    0.18
   3   6   2    1.06    0.17
  -3   6  -2    1.09    0.17
   4  -6   2   13.09    0.66
   4  -6   2   13.32    0.66
  -4  -6  -2   14.74    0.72
   4  -6   2   14.16    0.70
   4   6   2   13.87    0.69
   4   6   2   14.76    0.69
  -4   6  -2   14.63    0.69
  -5  -6  -2    0.66    0.20
   5  -6   2    0.73    0.17
   5  -6   2    0.81    0.17
   5  -6   2    0.97    0.15
  -5   6  -2    0.85    0.19
   5   6   2    0.97    0.19
   5   6   2    0.78    0.16
   6  -6   2    5.84    0.34
  -6  -6  -2    5.38    0.40
   6  -6   2    5.43    0.37
   6  -6   2    5.22    0.39
  -6   6  -2    5.82    0.38
   6   6   2    5.79    0.40
   6   6   2    5.62    0.36
   7  -6   2    6.71    0.43
   7  -6   2    6.93    0.44
  -7  -6  -2    7.86    0.49
  -7   6  -2    6.66    0.42
   7   6   2    7.65    0.46
   7   6   2    6.69    0.41
  -8  -6  -2    0.88    0.22
   8  -6   2    0.80    0.20
   8  -6   2    1.07    0.22
  -8   6  -2    0.95    0.20
   8   6   2    1.12    0.22
   8   6   2    0.91    0.17
  -9  -6  -2   -0.01    0.24
   9  -6   2    0.20    0.18
   9  -6   2   -0.12    0.21
   9   6   2    0.41    0.20
   9   6   2    0.02    0.15
  10  -6   2   12.75    0.67
 -10  -6  -2   13.12    0.68
  10  -6   2   12.52    0.69
  10   6   2   12.60    0.69
  10   6   2   12.71    0.63
   7  -7  -2    1.49    0.23
  -7  -7   2    1.79    0.34
   7  -7  -2    1.44    0.21
  -7   7   2    1.17    0.25
   7   7  -2    1.86    0.25
   7   7  -2    1.47    0.21
   6  -7  -2    4.39    0.40
  -6  -7   2    5.21    0.42
   6  -7  -2    4.13    0.33
   6   7  -2    4.77    0.42
   6   7  -2    5.46    0.39
  -5  -7   2    5.18    0.42
   5  -7  -2    4.93    0.42
   5  -7  -2    5.76    0.40
   5   7  -2    5.43    0.43
   5   7  -2    5.89    0.41
   4  -7  -2    1.21    0.21
   4  -7  -2    0.75    0.21
  -4  -7   2    0.93    0.28
   4   7  -2    1.12    0.21
   4   7  -2    0.54    0.20
  -3  -7   2   12.66    0.69
   3  -7  -2   12.58    0.67
   3   7  -2   13.23    0.68
   3   7  -2   13.72    0.69
  -2  -7   2    0.15    0.23
   2  -7  -2    0.22    0.20
   2   7  -2   -0.01    0.19
  -2   7   2    0.03    0.17
   2   7  -2    0.25    0.20
  -1  -7   2    0.11    0.21
   1  -7  -2    0.19    0.21
   1   7  -2    0.28    0.20
  -1   7   2    0.07    0.16
   0  -7   2    6.48    0.46
   0  -7  -2    7.11    0.48
   0   7  -2    6.87    0.45
   0   7   2    7.22    0.42
   1  -7   2    0.32    0.20
  -1  -7  -2    0.15    0.23
  -1   7  -2    0.43    0.20
   1   7   2    0.01    0.17
   2  -7   2    0.44    0.19
  -2  -7  -2    0.04    0.21
  -2   7  -2    0.42    0.21
   2   7   2    0.48    0.18
   2   7   2    0.23    0.21
   3  -7   2   12.92    0.66
  -3  -7  -2   12.96    0.71
   3   7   2   14.21    0.70
   3   7   2   13.98    0.68
  -3   7  -2   13.14    0.69
   4  -7   2    1.54    0.20
  -4  -7  -2    1.56    0.27
   4   7   2    1.74    0.23
   4   7   2    1.78    0.23
  -4   7  -2    1.70    0.24
  -5  -7  -2   14.34    0.76
   5  -7   2   13.09    0.71
   5  -7   2   15.35    0.76
  -5   7  -2   14.56    0.75
   5   7   2   14.95    0.73
   5   7   2   15.21    0.74
   6  -7   2    0.85    0.21
  -6  -7  -2    1.22    0.29
   6   7   2    0.93    0.21
  -6   7  -2    1.19    0.23
   6   7   2    1.05    0.19
   7  -7   2    0.89    0.22
   7  -7   2    0.62    0.21
  -7  -7  -2    0.96    0.29
   7   7   2    0.76    0.19
   7   7   2    0.62    0.23
 -16   0   3    0.14    0.22
 -15   0   3    0.25    0.22
  15   0  -3    0.10    0.16
  14   0  -3    0.02    0.15
 -14   0   3    0.18    0.19
  13   0  -3   28.71    1.25
 -13   0   3   27.17    1.27
  12   0  -3    0.12    0.12
 -12   0   3    0.21    0.16
  12   0  -3   -0.02    0.11
 -11   0   3   18.68    0.89
  11   0  -3   19.68    0.87
  11   0  -3   19.27    0.87
  10   0  -3    0.01    0.11
  10   0  -3    0.08    0.10
 -10   0   3    0.07    0.13
   9   0  -3   39.53    1.72
   9   0  -3   38.02    1.71
  -9   0   3   40.58    1.73
   8   0  -3    0.07    0.02
   8   0  -3    0.07    0.02
   8   0  -3    0.05    0.09
  -8   0   3   -0.11    0.10
   8   0  -3   -0.08    0.07
   7   0  -3   51.96    2.17
   7   0  -3   49.02    2.17
   7   0  -3   48.13    2.18
   7   0  -3   49.08    2.17
  -7   0   3   53.87    2.19
   6   0  -3   -0.02    0.03
  -6   0   3    0.07    0.07
   6   0  -3    0.02    0.05
   6   0  -3    0.09    0.03
   6   0  -3   -0.03    0.06
   5   0  -3   17.40    0.76
  -5   0   3   19.20    0.77
   5   0  -3   16.20    0.76
   5   0  -3   17.20    0.76
  -4   0   3    0.03    0.05
   4   0  -3    0.11    0.03
   4   0  -3    0.04    0.04
   4   0  -3    0.03    0.03
   4   0  -3   -0.03    0.03
  -3   0   3    0.08    0.04
   3   0  -3    0.13    0.03
   3   0  -3    0.06    0.03
   3   0  -3    0.03    0.04
   2   0  -3    0.04    0.03
   2   0  -3    0.12    0.02
   2   0  -3   -0.04    0.03
  -2   0   3    0.14    0.03
   2   0  -3    0.03    0.03
   1   0  -3    0.41    0.04
  -1   0   3    0.67    0.05
   1   0  -3    0.62    0.05
  -1   0   3    0.60    0.05
   1   0  -3    0.69    0.04
   0   0   3   -0.02    0.04
   0   0  -3    0.00    0.02
   0   0   3    0.07    0.03
   0   0  -3   -0.01    0.03
  -1   0  -3   11.51    0.47
   1   0   3   10.72    0.46
  -1   0  -3   10.77    0.45
  -1   0  -3    9.14    0.46
   1   0   3   10.36    0.47
  -2   0  -3    0.05    0.05
   2   0   3    0.00    0.04
  -2   0  -3    0.03    0.02
   2   0   3    0.01    0.04
  -2   0  -3   -0.01    0.03
   3   0   3   38.73    1.58
   3   0   3   31.94    1.58
  -3   0  -3   38.24    1.58
   3   0   3   37.31    1.59
  -3   0  -3   36.87    1.59
  -4   0  -3    0.01    0.07
   4   0   3    0.07    0.04
   4   0   3    0.05    0.04
  -4   0  -3    0.02    0.03
   4   0   3    0.01    0.05
   5   0   3   85.66    3.89
  -5   0  -3   96.85    3.89
   5   0   3   86.83    3.91
  -5   0  -3   90.66    3.90
   5   0   3   91.48    3.91
  -6   0  -3    0.01    0.04
  -6   0  -3   -0.09    0.10
   6   0   3   -0.02    0.05
   6   0   3    0.05    0.04
   6   0   3    0.05    0.07
   6   0   3    0.04    0.08
   7   0   3   32.11    1.44
   7   0   3   31.97    1.44
  -7   0  -3   33.46    1.48
  -7   0  -3   36.00    1.44
   7   0   3   32.72    1.46
   8   0   3   -0.03    0.05
   8   0   3    0.05    0.05
  -8   0  -3    0.02    0.13
  -8   0  -3    0.05    0.06
   8   0   3    0.11    0.10
   9   0   3   23.04    1.02
  -9   0  -3   24.06    1.08
   9   0   3   23.27    1.05
   9   0   3   22.18    1.02
  -9   0  -3   24.93    1.03
  10   0   3    0.13    0.11
 -10   0  -3    0.19    0.17
  10   0   3    0.00    0.05
 -10   0  -3    0.04    0.08
  10   0   3   -0.01    0.05
  11   0   3   46.81    2.00
 -11   0  -3   48.56    2.03
  11   0   3   41.71    1.95
 -12   0  -3    0.15    0.21
  12   0   3   -0.05    0.15
  13   0   3    0.17    0.17
 -13   0  -3    0.10    0.22
 -14   0  -3    0.19    0.24
  14   0   3   -0.10    0.18
 -15   0  -3    0.63    0.27
  15   0   3    0.75    0.21
 -16   0  -3    0.31    0.27
  16   0   3   -0.38    0.21
 -16  -1   3    0.47    0.22
 -16   1   3    0.27    0.24
  15  -1  -3    0.46    0.16
 -15  -1   3    0.91    0.21
 -15   1   3    0.36    0.23
  15   1  -3    0.42    0.18
  14  -1  -3   -0.12    0.14
 -14   1   3    0.11    0.21
  14   1  -3   -0.08    0.14
  14   1  -3    0.06    0.15
  13  -1  -3    3.08    0.26
 -13  -1   3    3.25    0.29
  13   1  -3    3.16    0.25
 -13   1   3    2.61    0.26
  13   1  -3    3.40    0.26
 -12  -1   3    0.12    0.15
  12  -1  -3    0.00    0.13
  12   1  -3    0.26    0.13
 -12   1   3    0.37    0.19
  12   1  -3    0.38    0.14
  11  -1  -3    9.72    0.47
  11  -1  -3    9.81    0.49
 -11  -1   3    9.58    0.50
 -11   1   3   10.44    0.50
  11   1  -3    9.34    0.48
  11   1  -3    9.97    0.48
 -11   1   3    9.25    0.51
 -10  -1   3    0.00    0.12
  10  -1  -3   -0.15    0.11
  10  -1  -3   -0.10    0.09
  10  -1  -3    0.00    0.03
  10  -1  -3    0.02    0.03
  10   1  -3   -0.10    0.10
  10   1  -3   -0.01    0.11
 -10   1   3   -0.11    0.11
 -10   1   3   -0.07    0.15
   9  -1  -3    3.14    0.21
   9  -1  -3    3.11    0.16
   9  -1  -3    3.17    0.15
  -9  -1   3    3.24    0.23
   9  -1  -3    2.98    0.22
   9   1  -3    3.26    0.23
   9   1  -3    3.08    0.21
  -9   1   3    3.49    0.23
   8  -1  -3    0.51    0.05
   8  -1  -3    0.51    0.06
   8  -1  -3    0.46    0.09
  -8  -1   3    0.56    0.10
   8  -1  -3    0.51    0.11
  -8   1   3    0.41    0.12
   8   1  -3    0.52    0.04
  -8   1   3    0.59    0.10
   8   1  -3    0.51    0.04
   8   1  -3    0.44    0.09
   8   1  -3    0.46    0.10
   7  -1  -3   19.44    0.90
  -7  -1   3   20.75    0.90
   7  -1  -3   20.50    0.88
   7  -1  -3   20.49    0.89
   7   1  -3   19.64    0.88
   7   1  -3   20.08    0.88
   7   1  -3   20.96    0.90
  -7   1   3   20.96    0.92
   7   1  -3   20.67    0.90
  -7   1   3   20.36    0.90
   6  -1  -3   49.11    2.26
  -6  -1   3   54.29    2.26
   6  -1  -3   52.75    2.25
   6  -1  -3   52.87    2.25
   6   1  -3   52.80    2.26
  -6   1   3   48.73    2.26
  -6   1   3   55.63    2.27
   6   1  -3   53.16    2.27
   6   1  -3   52.23    2.26
   6   1  -3   52.29    2.26
   5  -1  -3   19.82    0.88
  -5  -1   3   21.27    0.88
   5  -1  -3   18.77    0.88
   5  -1  -3   19.91    0.88
   5   1  -3   20.63    0.87
   5   1  -3   20.18    0.89
   5   1  -3   20.17    0.88
  -5   1   3   21.18    0.89
  -5   1   3   20.29    0.88
   5   1  -3   19.63    0.88
   4  -1  -3   14.62    0.69
   4  -1  -3   15.28    0.68
  -4  -1   3   16.43    0.68
   4  -1  -3   14.86    0.68
   4   1  -3   15.62    0.68
   4   1  -3   15.29    0.68
   4   1  -3   15.51    0.68
   4   1  -3   14.84    0.69
  -4   1   3   16.86    0.68
  -4   1   3   16.60    0.69
   3  -1  -3   56.92    2.54
   3  -1  -3   56.71    2.52
  -3  -1   3   62.41    2.55
   3  -1  -3   55.58    2.52
  -3   1   3   61.65    2.53
   3   1  -3   57.34    2.52
   3   1  -3   59.50    2.55
   3   1  -3   57.27    2.53
   3   1  -3   60.45    2.55
   2  -1  -3   34.57    1.53
   2  -1  -3   35.16    1.53
  -2  -1   3   37.49    1.54
   2   1  -3   34.42    1.53
  -2   1   3   37.72    1.53
  -2   1   3   33.25    1.53
   2   1  -3   35.39    1.53
   2   1  -3   35.27    1.53
   1  -1  -3  136.52    6.00
  -1  -1   3  132.07    5.98
   1  -1  -3  142.59    6.00
  -1  -1   3  140.92    5.99
  -1   1   3  131.73    5.96
   1   1  -3  136.40    5.99
   1   1  -3  139.18    5.99
  -1   1   3  146.01    6.01
   1   1  -3  144.43    6.00
  -1   1   3  136.82    6.51
   0  -1  -3   21.73    0.90
   0  -1   3   19.36    0.90
   0  -1   3   21.06    0.90
   0  -1  -3   20.67    0.90
   0   1  -3   20.18    0.90
   0   1  -3   21.59    0.90
   0   1   3   19.51    0.89
   0   1   3   20.51    0.90
   0   1  -3   21.10    0.89
   0   1   3   21.45    0.90
  -1  -1  -3   16.07    0.72
  -1  -1  -3   17.64    0.72
   1  -1   3   15.90    0.72
   1  -1   3   16.06    0.73
   1  -1   3   17.57    0.72
   1   1   3   15.69    0.72
  -1   1  -3   15.85    0.72
   1   1   3   17.15    0.72
  -1   1  -3   17.39    0.73
   1   1   3   16.20    0.72
  -2  -1  -3    0.50    0.05
   2  -1   3    0.62    0.06
   2  -1   3    0.69    0.04
  -2  -1  -3    0.74    0.05
   2  -1   3    0.39    0.06
   2   1   3    0.63    0.06
  -2   1  -3    0.73    0.06
   2   1   3    0.72    0.06
  -2   1  -3    0.52    0.06
   2   1   3    0.53    0.06
   3  -1   3   10.37    0.46
   3  -1   3   10.55    0.44
   3  -1   3    9.71    0.47
  -3  -1  -3   10.55    0.46
   3   1   3   10.34    0.46
   3   1   3   10.63    0.46
   3   1   3   10.19    0.46
   3   1   3    9.41    0.46
  -3   1  -3   11.33    0.47
   4  -1   3   10.54    0.52
   4  -1   3   10.54    0.53
  -4  -1  -3   13.05    0.53
   4  -1   3   12.47    0.54
   4  -1   3   12.31    0.55
  -4   1  -3   12.64    0.55
   4   1   3   11.66    0.53
   4   1   3   12.18    0.54
   4   1   3   13.09    0.54
   4   1   3   12.21    0.53
   5  -1   3    6.90    0.32
  -5  -1  -3    7.02    0.30
   5  -1   3    5.76    0.30
   5  -1   3    6.91    0.31
   5  -1   3    6.44    0.28
   5   1   3    6.35    0.30
   5   1   3    6.46    0.31
   5   1   3    6.62    0.31
  -5   1  -3    6.53    0.33
   5   1   3    6.45    0.30
   6  -1   3    1.55    0.08
   6  -1   3    1.37    0.10
   6  -1   3    1.81    0.14
   6  -1   3    1.90    0.12
  -6  -1  -3    1.63    0.11
   6   1   3    1.52    0.11
   6   1   3    1.51    0.10
   6   1   3    1.22    0.12
   6   1   3    1.33    0.13
  -6   1  -3    1.41    0.14
   7  -1   3    0.53    0.07
  -7  -1  -3    0.51    0.07
   7  -1   3    0.72    0.11
   7  -1   3    0.53    0.05
   7  -1   3    0.52    0.06
   7   1   3    0.40    0.09
   7   1   3    0.52    0.06
   7   1   3    0.60    0.06
  -7   1  -3    0.44    0.12
   7   1   3    0.57    0.10
   8  -1   3    1.54    0.15
   8  -1   3    1.35    0.12
  -8  -1  -3    1.88    0.14
   8  -1   3    1.73    0.11
   8  -1   3    1.72    0.13
   8   1   3    1.71    0.14
   8   1   3    1.74    0.15
   8   1   3    1.71    0.12
   8   1   3    1.65    0.11
  -8   1  -3    2.05    0.19
  -9  -1  -3   15.42    0.66
   9  -1   3   13.38    0.65
   9  -1   3   15.26    0.69
   9  -1   3   15.37    0.65
   9  -1   3   14.48    0.64
  -9   1  -3   15.21    0.72
   9   1   3   15.25    0.64
   9   1   3   13.82    0.68
   9   1   3   14.40    0.67
   9   1   3   14.18    0.64
  10  -1   3    5.04    0.25
  10  -1   3    4.78    0.24
 -10  -1  -3    5.27    0.28
  10  -1   3    5.45    0.33
  10   1   3    4.64    0.30
  10   1   3    5.36    0.24
  10   1   3    4.79    0.24
  10   1   3    4.89    0.31
 -10   1  -3    5.23    0.36
 -11  -1  -3   20.31    0.85
  11  -1   3   18.99    0.88
  11  -1   3   18.48    0.82
  11  -1   3   18.63    0.82
  11   1   3   17.88    0.86
 -11   1  -3   19.66    0.91
  11   1   3   19.14    0.81
  11   1   3   17.66    0.81
  11   1   3   18.79    0.88
  12  -1   3    4.80    0.33
  12  -1   3    4.80    0.23
  12  -1   3    4.87    0.23
 -12   1  -3    5.49    0.40
  12   1   3    4.76    0.31
  12   1   3    4.74    0.36
  13  -1   3    2.55    0.25
 -13   1  -3    3.04    0.29
  13   1   3    2.35    0.22
  13   1   3    2.57    0.25
  14  -1   3   -0.03    0.20
 -14  -1  -3    0.36    0.26
  14   1   3   -0.10    0.16
 -14   1  -3   -0.11    0.22
  15  -1   3    1.75    0.27
 -15  -1  -3    2.06    0.32
 -15   1  -3    1.85    0.28
 -16  -1  -3    4.31    0.39
 -16   1  -3    3.39    0.34
 -15  -2   3    3.35    0.30
 -15   2   3    2.64    0.30
  15   2  -3    3.88    0.33
 -14  -2   3    0.59    0.21
  14  -2  -3    0.78    0.16
  14   2  -3    0.92    0.19
 -14   2   3    0.58    0.22
 -13  -2   3    2.33    0.24
  13  -2  -3    2.08    0.18
 -13   2   3    1.61    0.24
  13   2  -3    2.06    0.20
  12  -2  -3   31.68    1.30
 -12  -2   3   31.74    1.37
  12  -2  -3   27.88    1.30
  12  -2  -3   30.96    1.33
 -12   2   3   27.87    1.38
  12   2  -3   31.36    1.35
  11  -2  -3    0.17    0.11
 -11  -2   3    0.03    0.17
  11  -2  -3    0.13    0.05
  11  -2  -3    0.16    0.07
  11  -2  -3   -0.05    0.14
  11   2  -3    0.20    0.14
 -11   2   3    0.09    0.17
  10  -2  -3    0.51    0.15
 -10  -2   3    0.23    0.14
  10  -2  -3    0.34    0.06
  10  -2  -3    0.33    0.10
 -10  -2   3    0.12    0.10
  10  -2  -3    0.29    0.07
  10   2  -3    0.40    0.05
  10   2  -3    0.25    0.05
  10   2  -3    0.30    0.12
 -10   2   3    0.09    0.18
   9  -2  -3    0.94    0.15
   9  -2  -3    0.72    0.07
  -9  -2   3    0.62    0.16
   9  -2  -3    1.19    0.09
  -9  -2   3    0.60    0.10
   9  -2  -3    0.66    0.11
   9   2  -3    0.78    0.13
   9   2  -3    0.85    0.07
  -9   2   3    0.69    0.17
   9   2  -3    0.85    0.07
  -9   2   3    0.77    0.12
   8  -2  -3   20.29    0.91
  -8  -2   3   20.00    0.89
  -8  -2   3   20.29    0.92
   8  -2  -3   20.14    0.88
   8  -2  -3   20.10    0.90
   8  -2  -3   20.07    0.88
   8   2  -3   20.49    0.91
  -8   2   3   20.49    0.92
   8   2  -3   19.85    0.88
  -8   2   3   21.60    0.89
   8   2  -3   19.62    0.90
   8   2  -3   19.21    0.88
  -7  -2   3   19.61    0.88
  -7  -2   3   19.74    0.84
   7  -2  -3   18.55    0.84
   7  -2  -3   18.10    0.85
   7  -2  -3   19.28    0.84
   7   2  -3   19.88    0.86
  -7   2   3   19.67    0.88
  -7   2   3   20.11    0.85
   7   2  -3   18.70    0.84
   7   2  -3   18.85    0.84
   7   2  -3   19.17    0.86
  -6  -2   3    3.97    0.25
   6  -2  -3    3.50    0.19
  -6  -2   3    3.79    0.19
   6  -2  -3    3.71    0.20
   6  -2  -3    3.62    0.19
   6   2  -3    3.66    0.19
   6   2  -3    3.77    0.21
  -6   2   3    4.05    0.19
   6   2  -3    3.65    0.19
   5  -2  -3   13.35    0.60
  -5  -2   3   13.54    0.62
   5  -2  -3   13.24    0.60
   5  -2  -3   12.94    0.60
  -5  -2   3   13.69    0.59
   5   2  -3   12.75    0.60
  -5   2   3   14.51    0.59
   5   2  -3   14.04    0.60
   5   2  -3   13.62    0.61
  -5   2   3   13.36    0.62
  -4  -2   3    0.38    0.04
  -4  -2   3    0.26    0.09
   4  -2  -3    0.32    0.05
   4  -2  -3    0.56    0.06
   4  -2  -3    0.29    0.06
  -4   2   3    0.30    0.08
   4   2  -3    0.27    0.05
   4   2  -3    0.28    0.06
  -4   2   3    0.37    0.04
   4   2  -3    0.35    0.06
  -3  -2   3   11.57    0.53
   3  -2  -3   12.06    0.52
   3  -2  -3   11.86    0.52
  -3  -2   3   11.38    0.51
  -3   2   3   12.05    0.53
   3   2  -3   11.58    0.52
  -3   2   3   11.70    0.52
   3   2  -3   11.67    0.52
  -3   2   3   12.07    0.50
   3   2  -3   10.37    0.51
  -2  -2   3    0.74    0.08
  -2  -2   3    0.65    0.07
  -2  -2   3    0.89    0.07
   2  -2  -3    0.66    0.07
   2   2  -3    0.60    0.07
  -2   2   3    0.78    0.06
  -2   2   3    0.75    0.07
   2   2  -3    0.91    0.08
  -2   2   3    0.80    0.08
   1  -2  -3    7.05    0.33
   1  -2  -3    7.38    0.33
  -1  -2   3    6.52    0.32
  -1  -2   3    6.97    0.33
  -1  -2   3    6.68    0.33
  -1   2   3    7.51    0.33
  -1   2   3    7.36    0.32
   1   2  -3    7.31    0.33
  -1   2   3    7.38    0.33
   1   2  -3    7.34    0.33
   0  -2   3   50.95    2.07
   0  -2   3   44.27    2.07
   0  -2  -3   48.29    2.07
   0  -2  -3   47.12    2.07
   0  -2   3   47.17    2.08
   0   2   3   48.67    2.07
   0   2  -3   48.31    2.07
   0   2  -3   48.38    2.08
   0   2   3   49.26    2.08
   0   2   3   48.42    2.08
   1  -2   3   10.48    0.50
  -1  -2  -3   10.95    0.50
   1  -2   3   11.26    0.49
  -1  -2  -3   10.95    0.49
   1  -2   3   10.62    0.49
   1   2   3   11.27    0.50
   1   2   3   11.43    0.49
  -1   2  -3   11.76    0.50
   1   2   3   10.96    0.49
  -1   2  -3   11.07    0.50
   2  -2   3    7.47    0.36
   2  -2   3    7.16    0.36
   2  -2   3    8.25    0.35
  -2  -2  -3    7.48    0.36
  -2  -2  -3    7.79    0.36
   2   2   3    7.92    0.36
   2   2   3    7.73    0.36
  -2   2  -3    7.73    0.36
   2   2   3    8.35    0.35
  -2   2  -3    8.11    0.37
   3  -2   3   23.90    1.07
  -3  -2  -3   24.26    1.07
   3  -2   3   24.20    1.07
  -3  -2  -3   24.98    1.07
   3  -2   3   25.33    1.06
   3   2   3   24.36    1.06
  -3   2  -3   25.15    1.07
   3   2   3   24.67    1.07
  -3   2  -3   23.75    1.07
   3   2   3   23.95    1.07
  -4  -2  -3   47.29    2.03
   4  -2   3   45.49    2.04
   4  -2   3   47.22    2.03
   4  -2   3   47.82    2.02
  -4   2  -3   50.04    2.04
   4   2   3   46.13    2.02
   4   2   3   43.40    2.03
   4   2   3   48.05    2.03
  -4   2  -3   45.80    2.03
   4   2   3   48.18    2.03
   5  -2   3   26.16    1.22
  -5  -2  -3   27.91    1.22
   5  -2   3   27.31    1.21
   5  -2   3   28.57    1.23
   5  -2   3   29.08    1.22
   5   2   3   28.52    1.23
  -5   2  -3   28.85    1.24
   5   2   3   28.86    1.22
   5   2   3   28.29    1.22
   5   2   3   26.38    1.22
   6  -2   3   62.25    2.59
   6  -2   3   58.28    2.58
   6  -2   3   59.92    2.60
   6  -2   3   57.80    2.58
  -6  -2  -3   59.60    2.59
   6   2   3   58.28    2.59
   6   2   3   58.16    2.58
   6   2   3   62.46    2.59
   6   2   3   61.60    2.60
  -6   2  -3   61.51    2.61
   7  -2   3    4.24    0.21
   7  -2   3    4.92    0.25
   7  -2   3    4.91    0.28
   7  -2   3    4.15    0.23
  -7  -2  -3    4.66    0.26
  -7   2  -3    4.99    0.29
   7   2   3    4.63    0.23
   7   2   3    4.54    0.23
   7   2   3    4.43    0.25
   7   2   3    4.80    0.26
   8  -2   3    0.19    0.08
   8  -2   3   -0.02    0.06
  -8  -2  -3    0.10    0.09
   8  -2   3    0.11    0.11
   8  -2   3    0.19    0.05
  -8   2  -3    0.02    0.13
   8   2   3    0.07    0.07
   8   2   3    0.40    0.07
   8   2   3    0.12    0.10
   8   2   3    0.09    0.09
   9  -2   3    0.66    0.14
   9  -2   3    0.54    0.09
  -9  -2  -3    0.48    0.11
   9   2   3    0.48    0.07
   9   2   3    0.39    0.14
  -9   2  -3    0.29    0.18
   9   2   3    0.61    0.11
   9   2   3    0.58    0.08
  10  -2   3   38.40    1.67
 -10  -2  -3   38.56    1.64
  10  -2   3   38.97    1.63
  10   2   3   37.14    1.62
  10   2   3   37.26    1.64
  10   2   3   37.91    1.66
 -10   2  -3   35.54    1.68
  10   2   3   35.56    1.62
  11  -2   3    0.28    0.09
  11  -2   3    0.14    0.18
 -11  -2  -3    0.26    0.13
  11   2   3    0.25    0.12
  11   2   3    0.21    0.06
 -11   2  -3    0.06    0.20
  11   2   3    0.30    0.15
  11   2   3    0.15    0.06
  12  -2   3    1.95    0.16
  12  -2   3    1.65    0.22
 -12  -2  -3    1.97    0.19
  12   2   3    2.07    0.12
 -12   2  -3    1.56    0.25
  12   2   3    1.89    0.12
  12   2   3    1.97    0.21
  13  -2   3    7.77    0.37
  13  -2   3    7.71    0.47
  13   2   3    8.21    0.48
 -13   2  -3    7.77    0.53
  14  -2   3    0.36    0.23
  14  -2   3    0.52    0.06
 -14   2  -3    0.24    0.24
  14   2   3    0.60    0.20
  15  -2   3    2.85    0.30
  15   2   3    3.48    0.31
 -15   2  -3    3.32    0.34
 -14  -3   3    0.78    0.24
  14  -3  -3    0.64    0.08
  14   3  -3    0.73    0.19
 -14   3   3    0.54    0.28
 -13  -3   3    0.66    0.23
  13  -3  -3    0.97    0.15
  13  -3  -3    1.03    0.10
 -13   3   3    0.66    0.24
  13   3  -3    1.10    0.19
  12  -3  -3    1.20    0.11
  12  -3  -3    1.46    0.15
 -12  -3   3    1.39    0.21
  12   3  -3    1.18    0.10
  12   3  -3    1.11    0.10
  12   3  -3    1.21    0.18
 -12   3   3    1.07    0.25
  11  -3  -3    0.68    0.13
 -11  -3   3    0.76    0.20
  11  -3  -3    0.85    0.11
 -11   3   3    0.75    0.22
  11   3  -3    0.73    0.08
  11   3  -3    0.52    0.14
 -10  -3   3    0.73    0.18
  10  -3  -3    0.85    0.11
  10  -3  -3    0.67    0.12
 -10   3   3    0.53    0.19
  10   3  -3    0.78    0.09
  10   3  -3    0.80    0.15
  -9  -3   3   15.29    0.73
   9  -3  -3   15.34    0.69
   9  -3  -3   16.11    0.69
   9   3  -3   14.91    0.68
   9   3  -3   15.00    0.70
  -9   3   3   14.66    0.74
  -8  -3   3    7.17    0.43
   8  -3  -3    7.59    0.36
   8  -3  -3    7.56    0.37
  -8   3   3    7.09    0.42
   8   3  -3    7.21    0.39
   8   3  -3    7.36    0.35
   7  -3  -3    0.10    0.07
  -7  -3   3   -0.11    0.13
   7  -3  -3    0.17    0.09
  -7   3   3    0.16    0.07
   7   3  -3    0.08    0.07
  -7   3   3    0.57    0.15
   7   3  -3    0.08    0.11
  -6  -3   3   32.08    1.47
   6  -3  -3   33.91    1.44
   6  -3  -3   33.32    1.45
  -6   3   3   35.55    1.43
   6   3  -3   33.30    1.45
  -6   3   3   32.53    1.46
   6   3  -3   33.07    1.44
   6   3  -3   31.04    1.44
  -5  -3   3   33.07    1.52
   5  -3  -3   34.67    1.50
   5  -3  -3   35.15    1.50
   5   3  -3   33.41    1.50
   5   3  -3   34.91    1.50
  -5   3   3   34.26    1.51
   5   3  -3   33.96    1.50
  -5   3   3   35.82    1.49
   4  -3  -3    1.51    0.13
   4  -3  -3    1.56    0.14
  -4  -3   3    1.53    0.15
   4   3  -3    1.60    0.14
  -4   3   3    1.39    0.12
  -4   3   3    1.89    0.11
  -4   3   3    1.32    0.13
   4   3  -3    1.65    0.14
   4   3  -3    1.30    0.12
  -3  -3   3    0.02    0.06
  -3  -3   3    0.18    0.03
   3  -3  -3    0.10    0.07
  -3  -3   3    0.02    0.09
  -3  -3   3    0.17    0.07
   3  -3  -3    0.13    0.08
   3   3  -3    0.03    0.07
  -3   3   3    0.03    0.08
  -3   3   3    0.10    0.08
   3   3  -3    0.02    0.07
  -3   3   3    0.10    0.05
   2  -3  -3   63.68    2.79
  -2  -3   3   61.98    2.78
  -2  -3   3   62.87    2.79
  -2  -3   3   62.44    2.80
   2  -3  -3   65.64    2.79
  -2   3   3   66.81    2.80
  -2   3   3   67.96    2.79
   2   3  -3   64.16    2.79
   2   3  -3   65.51    2.79
  -2   3   3   66.02    2.81
  -1  -3   3    1.27    0.11
   1  -3  -3    1.37    0.11
  -1  -3   3    1.19    0.11
   1  -3  -3    1.49    0.13
  -1  -3   3    1.41    0.09
   1   3  -3    1.49    0.12
  -1   3   3    1.31    0.12
  -1   3   3    1.33    0.10
   1   3  -3    1.42    0.13
  -1   3   3    1.65    0.14
   0  -3   3   52.35    2.29
   0  -3  -3   50.67    2.29
   0  -3  -3   54.16    2.29
   0  -3   3   51.15    2.28
   0  -3   3   54.97    2.29
   0   3   3   51.56    2.29
   0   3  -3   51.95    2.29
   0   3   3   54.32    2.28
   0   3  -3   55.37    2.29
   0   3   3   52.89    2.28
   1  -3   3   10.37    0.49
  -1  -3  -3   10.80    0.49
  -1  -3  -3   10.83    0.49
   1  -3   3   10.13    0.48
   1  -3   3   10.71    0.48
  -1   3  -3   10.72    0.49
  -1   3  -3   10.63    0.49
   1   3   3   10.54    0.48
   1   3   3   10.64    0.47
   1   3   3   10.51    0.49
   2  -3   3    0.45    0.07
  -2  -3  -3    0.28    0.06
   2  -3   3    0.44    0.09
   2  -3   3    0.36    0.07
  -2  -3  -3    0.34    0.08
  -2   3  -3    0.49    0.09
   2   3   3    0.30    0.07
  -2   3  -3    0.36    0.08
   2   3   3    0.44    0.06
   2   3   3    0.38    0.08
   3  -3   3   48.70    2.08
   3  -3   3   46.43    2.09
   3  -3   3   48.18    2.09
  -3  -3  -3   47.69    2.09
  -3  -3  -3   48.12    2.09
   3   3   3   47.54    2.09
   3   3   3   48.53    2.09
  -3   3  -3   46.19    2.09
   3   3   3   50.73    2.08
  -3   3  -3   49.96    2.10
   4  -3   3    1.54    0.13
   4  -3   3    1.66    0.12
  -4  -3  -3    1.70    0.14
   4  -3   3    1.65    0.14
  -4  -3  -3    1.85    0.15
   4   3   3    1.62    0.14
   4   3   3    1.70    0.12
   4   3   3    1.63    0.16
  -4   3  -3    1.37    0.12
  -4   3  -3    1.71    0.16
   5  -3   3    4.25    0.22
   5  -3   3    4.25    0.25
   5  -3   3    4.47    0.25
  -5  -3  -3    4.66    0.26
   5   3   3    4.62    0.23
  -5   3  -3    4.47    0.26
   5   3   3    4.62    0.26
   5   3   3    4.54    0.24
  -5   3  -3    4.23    0.25
   6  -3   3    0.16    0.06
   6  -3   3    0.21    0.09
   6  -3   3    0.16    0.09
   6  -3   3    0.12    0.10
  -6  -3  -3    0.12    0.10
   6   3   3    0.13    0.07
   6   3   3    0.21    0.11
   6   3   3    0.24    0.08
  -6   3  -3    0.20    0.12
   7  -3   3   22.71    1.03
   7  -3   3   24.91    1.07
  -7  -3  -3   23.01    1.06
   7  -3   3   24.49    1.05
  -7   3  -3   23.99    1.08
   7   3   3   24.53    1.05
   7   3   3   21.46    1.04
   7   3   3   25.10    1.07
   8  -3   3    6.29    0.33
  -8  -3  -3    6.12    0.34
   8   3   3    6.48    0.37
   8   3   3    6.45    0.32
  -8   3  -3    6.49    0.39
  -9  -3  -3    6.89    0.38
   9  -3   3    6.98    0.37
   9  -3   3    7.11    0.41
  -9   3  -3    7.35    0.45
   9   3   3    7.33    0.39
   9   3   3    7.28    0.35
  10  -3   3   13.89    0.63
  10  -3   3   13.32    0.67
 -10  -3  -3   13.14    0.64
 -10   3  -3   13.63    0.70
  10   3   3   13.71    0.62
  11  -3   3    1.15    0.14
  11  -3   3    1.42    0.20
 -11  -3  -3    0.96    0.17
 -11   3  -3    0.93    0.23
  11   3   3    1.09    0.11
  11   3   3    1.18    0.20
  12  -3   3    6.20    0.34
 -12  -3  -3    6.30    0.38
  12  -3   3    6.15    0.45
  12   3   3    6.23    0.31
 -12   3  -3    5.77    0.47
  12   3   3    6.30    0.42
  13  -3   3    0.12    0.11
 -13  -3  -3    0.21    0.17
  13  -3   3    0.09    0.23
  13   3   3    0.15    0.07
 -13   3  -3   -0.40    0.24
  13   3   3    0.24    0.21
  14  -3   3   -0.06    0.25
  14  -3   3    0.08    0.10
  14   3   3    0.14    0.22
 -14   3  -3    0.02    0.26
  13  -4  -3    2.08    0.16
 -13  -4   3    2.77    0.31
  13   4  -3    1.93    0.15
 -13   4   3    1.88    0.32
  13   4  -3    2.27    0.24
 -12  -4   3    0.53    0.25
  12  -4  -3    0.37    0.12
  12  -4  -3    0.36    0.14
  12   4  -3    0.52    0.18
 -12   4   3    0.36    0.27
  12   4  -3    0.23    0.09
  11  -4  -3    6.65    0.33
 -11  -4   3    5.11    0.44
  11  -4  -3    5.49    0.32
 -11   4   3    4.61    0.42
  11   4  -3    4.91    0.34
  11   4  -3    5.08    0.29
 -10  -4   3    0.94    0.23
  10  -4  -3    0.90    0.14
  10  -4  -3    0.78    0.12
 -10   4   3    0.18    0.23
  10   4  -3    0.67    0.11
  10   4  -3    0.58    0.17
   9  -4  -3    2.57    0.19
  -9  -4   3    2.07    0.24
   9  -4  -3    2.49    0.21
   9   4  -3    2.72    0.20
  -9   4   3    1.94    0.24
   9   4  -3    2.47    0.24
  -8  -4   3    2.49    0.24
   8  -4  -3    2.91    0.22
   8  -4  -3    2.79    0.23
   8   4  -3    2.82    0.20
  -8   4   3    2.54    0.24
   8   4  -3    3.19    0.27
   7  -4  -3    2.29    0.20
  -7  -4   3    2.03    0.22
   7  -4  -3    2.52    0.19
   7   4  -3    1.97    0.19
  -7   4   3    2.39    0.23
   7   4  -3    2.51    0.24
  -6  -4   3   17.07    0.81
   6  -4  -3   17.41    0.78
   6  -4  -3   17.07    0.77
  -6   4   3   16.95    0.80
   6   4  -3   16.94    0.77
   6   4  -3   16.86    0.78
   5  -4  -3    4.06    0.25
   5  -4  -3    3.78    0.23
  -5  -4   3    4.02    0.32
  -5   4   3    3.80    0.26
   5   4  -3    3.76    0.24
  -5   4   3    3.75    0.21
   5   4  -3    4.11    0.25
   4  -4  -3   11.63    0.54
  -4  -4   3   10.68    0.57
   4  -4  -3   11.10    0.53
  -4   4   3   11.10    0.54
   4   4  -3   11.90    0.53
   4   4  -3   11.27    0.54
  -4   4   3   11.39    0.51
  -3  -4   3   12.85    0.64
   3  -4  -3   13.51    0.62
   3  -4  -3   12.79    0.61
  -3   4   3   12.98    0.61
   3   4  -3   13.35    0.62
  -3   4   3   13.37    0.62
   3   4  -3   13.89    0.62
  -3   4   3   13.26    0.59
  -2  -4   3   17.87    0.86
  -2  -4   3   19.31    0.85
   2  -4  -3   18.54    0.85
  -2  -4   3   18.95    0.82
   2  -4  -3   18.62    0.85
  -2   4   3   19.07    0.83
  -2   4   3   18.85    0.85
   2   4  -3   18.79    0.85
   2   4  -3   19.75    0.85
  -2   4   3   18.85    0.86
  -1  -4   3    0.27    0.11
  -1  -4   3    0.20    0.06
  -1  -4   3    0.05    0.10
   1  -4  -3   -0.07    0.10
   1  -4  -3    0.20    0.09
  -1   4   3    0.16    0.08
  -1   4   3    0.12    0.07
   1   4  -3    0.17    0.10
  -1   4   3    0.18    0.10
   1   4  -3    0.21    0.09
   0  -4   3    0.28    0.10
   0  -4   3    0.44    0.11
   0  -4   3    0.40    0.07
   0  -4  -3    0.41    0.09
   0  -4  -3    0.46    0.12
   0   4   3    0.37    0.10
   0   4  -3    0.21    0.10
   0   4  -3    0.41    0.10
   0   4   3    0.31    0.08
   0   4   3    0.49    0.09
   1  -4   3   14.54    0.69
  -1  -4  -3   14.70    0.69
   1  -4   3   15.48    0.68
   1  -4   3   14.65    0.67
  -1  -4  -3   15.02    0.68
  -1   4  -3   15.50    0.69
   1   4   3   14.88    0.69
   1   4   3   15.36    0.67
  -1   4  -3   14.99    0.69
   1   4   3   14.65    0.67
   2  -4   3   23.06    1.05
   2  -4   3   23.66    1.04
  -2  -4  -3   23.11    1.04
   2  -4   3   23.17    1.04
  -2  -4  -3   23.45    1.05
  -2   4  -3   23.49    1.05
   2   4   3   23.50    1.05
   2   4   3   24.08    1.03
  -2   4  -3   24.01    1.05
   2   4   3   23.38    1.04
  -3  -4  -3    0.44    0.11
  -3  -4  -3    0.51    0.10
   3  -4   3    0.56    0.10
   3  -4   3    0.67    0.10
   3  -4   3    0.48    0.11
   3   4   3    0.67    0.11
  -3   4  -3    0.41    0.10
  -3   4  -3    0.69    0.13
   3   4   3    0.40    0.10
   3   4   3    0.66    0.08
   4  -4   3   27.08    1.22
   4  -4   3   26.98    1.23
   4  -4   3   28.06    1.21
  -4  -4  -3   28.39    1.23
   4   4   3   28.13    1.20
   4   4   3   27.01    1.22
   4   4   3   27.79    1.23
  -4   4  -3   27.81    1.23
   5  -4   3    4.97    0.29
   5  -4   3    5.17    0.30
   5  -4   3    5.10    0.26
  -5  -4  -3    5.24    0.31
   5   4   3    4.97    0.29
  -5   4  -3    5.10    0.31
   5   4   3    4.87    0.28
   6  -4   3   12.38    0.58
   6  -4   3   12.79    0.61
   6  -4   3   13.09    0.62
  -6  -4  -3   12.74    0.62
   6   4   3   12.59    0.61
  -6   4  -3   13.33    0.63
   6   4   3   12.90    0.59
  -7  -4  -3    0.06    0.13
   7  -4   3    0.13    0.13
   7  -4   3    0.10    0.08
   7  -4   3    0.04    0.12
   7   4   3    0.17    0.14
   7   4   3    0.63    0.11
  -7   4  -3    0.19    0.15
  -8  -4  -3    0.06    0.15
   8  -4   3    0.08    0.16
   8  -4   3    0.05    0.12
   8   4   3    0.00    0.10
  -8   4  -3    0.06    0.16
   8   4   3    0.23    0.16
  -9  -4  -3   19.48    0.89
   9  -4   3   19.28    0.88
   9  -4   3   19.29    0.90
   9   4   3   18.81    0.89
   9   4   3   18.21    0.86
  -9   4  -3   19.57    0.91
  10  -4   3    0.10    0.17
 -10  -4  -3   -0.19    0.16
  10  -4   3   -0.01    0.13
 -10   4  -3   -0.01    0.19
  10   4   3    0.24    0.18
  10   4   3   -0.09    0.10
  11  -4   3    3.59    0.35
  11  -4   3    3.77    0.29
 -11  -4  -3    3.87    0.33
  11   4   3    4.07    0.25
 -11   4  -3    4.02    0.37
  11   4   3    3.79    0.32
  12  -4   3    4.64    0.32
  12  -4   3    4.70    0.43
 -12  -4  -3    4.44    0.36
 -12   4  -3    3.76    0.34
  12   4   3    4.53    0.27
  12   4   3    4.71    0.39
 -13  -4  -3    4.33    0.37
  13  -4   3    4.61    0.37
  13  -4   3    4.48    0.31
  13   4   3    4.82    0.41
  13   4   3    4.36    0.26
 -13   4  -3    3.91    0.39
 -12  -5   3    0.60    0.29
  12  -5  -3    0.91    0.16
  12   5  -3    0.75    0.12
  12   5  -3    0.93    0.22
 -12   5   3    0.41    0.26
  11  -5  -3    0.50    0.15
  11  -5  -3    0.66    0.16
 -11  -5   3    0.62    0.28
  11   5  -3    0.61    0.21
 -11   5   3    0.25    0.27
  11   5  -3    0.44    0.12
  10  -5  -3    5.96    0.37
 -10  -5   3    6.66    0.51
  10  -5  -3    5.94    0.36
  10   5  -3    6.16    0.34
 -10   5   3    5.80    0.49
  10   5  -3    5.76    0.39
   9  -5  -3   -0.06    0.13
   9  -5  -3    0.19    0.15
  -9  -5   3   -0.05    0.22
   9   5  -3   -0.05    0.12
  -9   5   3   -0.28    0.20
   9   5  -3   -0.07    0.19
  -8  -5   3   15.17    0.80
   8  -5  -3   15.81    0.72
   8  -5  -3   15.55    0.71
   8   5  -3   14.90    0.71
   8   5  -3   14.69    0.74
  -8   5   3   15.19    0.78
  -7  -5   3    3.65    0.31
   7  -5  -3    3.32    0.25
   7  -5  -3    3.77    0.29
  -7   5   3    3.56    0.34
   7   5  -3    3.97    0.27
   7   5  -3    3.63    0.29
   6  -5  -3    2.68    0.22
   6  -5  -3    2.59    0.21
  -6  -5   3    3.14    0.28
  -6   5   3    2.92    0.27
   6   5  -3    3.22    0.24
   6   5  -3    2.84    0.24
   5  -5  -3    3.38    0.28
   5  -5  -3    4.11    0.28
  -5  -5   3    4.54    0.38
   5   5  -3    3.53    0.27
   5   5  -3    4.06    0.28
  -5   5   3    4.15    0.30
   4  -5  -3   12.50    0.59
   4  -5  -3   12.49    0.59
  -4  -5   3   12.01    0.62
   4   5  -3   12.11    0.59
  -4   5   3   11.73    0.58
   4   5  -3   12.58    0.60
  -4   5   3   12.27    0.57
   3  -5  -3    0.70    0.14
  -3  -5   3    0.91    0.17
   3  -5  -3    0.78    0.14
  -3   5   3    1.54    0.15
   3   5  -3    0.60    0.14
  -3   5   3    0.92    0.11
   3   5  -3    0.53    0.13
  -2  -5   3    0.93    0.18
   2  -5  -3    1.01    0.14
   2  -5  -3    0.96    0.16
   2   5  -3    0.83    0.14
  -2   5   3    0.96    0.11
  -2   5   3    0.96    0.13
   2   5  -3    0.97    0.14
   1  -5  -3   14.51    0.68
  -1  -5   3   14.71    0.69
   1  -5  -3   14.51    0.68
   1   5  -3   14.48    0.69
  -1   5   3   14.52    0.66
  -1   5   3   14.57    0.66
   1   5  -3   14.33    0.69
  -1   5   3   14.45    0.69
   0  -5  -3    7.25    0.39
   0  -5   3    6.65    0.38
   0  -5  -3    7.35    0.41
   0  -5   3    6.99    0.40
   0   5  -3    7.39    0.40
   0   5  -3    7.16    0.40
   0   5   3    7.39    0.36
   0   5   3    7.35    0.37
   0   5   3    7.68    0.41
   1  -5   3    0.03    0.12
   1  -5   3    0.22    0.09
   1  -5   3   -0.11    0.11
  -1  -5  -3   -0.18    0.15
  -1   5  -3    0.20    0.12
  -1   5  -3    0.02    0.12
   1   5   3    0.02    0.08
   1   5   3    0.17    0.11
   1   5   3   -0.08    0.12
   2  -5   3   21.92    0.98
   2  -5   3   20.93    0.99
   2  -5   3   21.36    0.97
   2   5   3   22.01    0.99
  -2   5  -3   22.59    0.99
  -2   5  -3   21.20    0.99
   2   5   3   22.31    0.98
   3  -5   3    7.07    0.41
  -3  -5  -3    8.23    0.43
   3  -5   3    7.42    0.38
   3  -5   3    6.88    0.39
  -3   5  -3    7.75    0.40
   3   5   3    7.58    0.41
   3   5   3    7.52    0.39
   4  -5   3    6.31    0.34
   4  -5   3    6.98    0.38
   4  -5   3    6.48    0.36
  -4  -5  -3    6.48    0.40
   4   5   3    6.48    0.37
  -4   5  -3    6.59    0.38
   4   5   3    6.67    0.37
   5  -5   3    0.19    0.14
   5  -5   3    0.28    0.15
   5  -5   3    0.37    0.11
  -5  -5  -3    0.41    0.17
  -5   5  -3    0.48    0.16
   5   5   3    0.29    0.15
   5   5   3    0.13    0.12
   6  -5   3   11.90    0.58
  -6  -5  -3   12.76    0.62
   6  -5   3   12.95    0.62
   6  -5   3   12.84    0.62
   6   5   3   12.81    0.62
   6   5   3   11.72    0.60
  -6   5  -3   13.28    0.63
   7  -5   3   -0.15    0.15
  -7  -5  -3   -0.07    0.15
   7  -5   3    0.01    0.14
   7   5   3    0.12    0.12
   7   5   3   -0.03    0.16
  -7   5  -3   -0.01    0.16
   8  -5   3   18.32    0.87
  -8  -5  -3   18.35    0.86
   8  -5   3   19.15    0.86
   8   5   3   17.68    0.85
   8   5   3   17.28    0.83
  -8   5  -3   17.89    0.87
  -9  -5  -3    0.10    0.19
   9  -5   3   -0.01    0.15
   9  -5   3    0.01    0.18
   9   5   3   -0.01    0.19
   9   5   3    0.00    0.13
  -9   5  -3    0.11    0.19
  10  -5   3    2.42    0.26
  10  -5   3    2.23    0.22
 -10  -5  -3    2.40    0.25
 -10   5  -3    2.19    0.27
  10   5   3    2.20    0.19
  10   5   3    2.18    0.24
  11  -5   3    0.21    0.24
 -11  -5  -3    0.38    0.20
  11  -5   3    0.02    0.17
  11   5   3    0.02    0.21
 -11   5  -3   -0.12    0.22
  11   5   3    0.04    0.12
 -12  -5  -3    0.00    0.21
  12  -5   3    0.11    0.17
  12  -5   3    0.03    0.23
  12   5   3    0.22    0.12
  12   5   3    0.19    0.22
  10  -6  -3   -0.09    0.17
  10  -6  -3    0.13    0.16
 -10  -6   3    0.04    0.27
 -10   6   3   -0.14    0.26
  10   6  -3   -0.08    0.22
  10   6  -3    0.09    0.14
  -9  -6   3    0.38    0.27
   9  -6  -3    0.55    0.17
   9  -6  -3    0.25    0.16
   9   6  -3    0.55    0.22
   9   6  -3    0.51    0.16
  -9   6   3    0.53    0.26
   8  -6  -3    0.28    0.17
   8  -6  -3    0.26    0.16
  -8  -6   3    0.55    0.26
   8   6  -3    0.05    0.15
  -8   6   3   -0.05    0.20
   8   6  -3    0.19    0.21
   7  -6  -3    1.06    0.19
   7  -6  -3    1.35    0.18
  -7  -6   3    1.31    0.30
   7   6  -3    1.16    0.17
  -7   6   3    1.07    0.23
   7   6  -3    1.52    0.22
  -6  -6   3    2.62    0.32
   6  -6  -3    2.90    0.23
   6  -6  -3    2.53    0.23
  -6   6   3    2.62    0.25
   6   6  -3    2.42    0.23
   6   6  -3    2.26    0.21
   5  -6  -3    0.99    0.19
  -5  -6   3    1.07    0.24
   5  -6  -3    0.97    0.16
   5   6  -3    1.16    0.19
   5   6  -3    0.69    0.17
  -5   6   3    0.78    0.18
  -4  -6   3   15.99    0.81
   4  -6  -3   16.14    0.76
   4  -6  -3   15.47    0.77
   4   6  -3   16.41    0.77
  -4   6   3   15.45    0.76
   4   6  -3   16.11    0.77
   3  -6  -3    2.86    0.23
  -3  -6   3    2.94    0.28
   3  -6  -3    2.57    0.22
   3   6  -3    2.28    0.21
   3   6  -3    2.26    0.22
  -3   6   3    2.43    0.21
   2  -6  -3    4.20    0.30
   2  -6  -3    3.44    0.31
  -2  -6   3    3.85    0.30
  -2   6   3    3.70    0.28
  -2   6   3    3.88    0.27
   2   6  -3    3.54    0.31
   2   6  -3    3.84    0.33
  -1  -6   3    1.18    0.20
   1  -6  -3    1.64    0.21
  -1   6   3    1.28    0.16
   1   6  -3    1.42    0.18
   1   6  -3    1.36    0.20
   0  -6   3    4.56    0.33
   0  -6  -3    4.50    0.34
   0   6   3    4.59    0.30
   0   6  -3    4.83    0.34
   0   6  -3    4.67    0.32
  -1  -6  -3    2.29    0.24
   1  -6   3    2.47    0.22
   1   6   3    2.52    0.20
   1   6   3    2.94    0.24
  -1   6  -3    2.32    0.22
   2  -6   3   13.80    0.71
   2  -6   3   14.04    0.68
  -2  -6  -3   13.76    0.70
   2   6   3   14.75    0.70
   2   6   3   14.93    0.69
  -2   6  -3   14.48    0.70
  -3  -6  -3    2.96    0.27
   3  -6   3    2.27    0.23
   3  -6   3    2.99    0.26
  -3   6  -3    2.99    0.25
   3   6   3    3.51    0.30
   3   6   3    3.17    0.27
   4  -6   3    1.38    0.19
   4  -6   3    1.82    0.18
   4  -6   3    2.04    0.18
  -4  -6  -3    1.63    0.22
   4   6   3    2.03    0.21
  -4   6  -3    2.42    0.23
   4   6   3    1.82    0.19
   5  -6   3    2.05    0.18
   5  -6   3    1.78    0.20
  -5  -6  -3    2.27    0.26
   5  -6   3    2.22    0.23
   5   6   3    2.42    0.21
   5   6   3    2.07    0.22
  -5   6  -3    2.40    0.23
   6  -6   3    0.12    0.16
  -6  -6  -3    0.00    0.21
   6  -6   3   -0.10    0.17
   6   6   3    0.07    0.15
  -6   6  -3   -0.04    0.18
   6   6   3    0.02    0.16
   7  -6   3   -0.09    0.17
  -7  -6  -3    0.10    0.21
   7  -6   3   -0.01    0.17
  -7   6  -3    0.18    0.19
   7   6   3    0.07    0.14
   7   6   3    0.04    0.19
   8  -6   3    2.49    0.25
   8  -6   3    2.93    0.28
  -8  -6  -3    3.54    0.30
  -8   6  -3    3.32    0.28
   8   6   3    2.62    0.23
   8   6   3    3.47    0.29
   9  -6   3    0.12    0.19
  -9  -6  -3    0.08    0.20
   9  -6   3   -0.05    0.22
  -9   6  -3   -0.08    0.21
   9   6   3    0.18    0.16
   9   6   3   -0.12    0.19
  10  -6   3    0.96    0.23
  10  -6   3    0.63    0.21
 -10  -6  -3    0.75    0.25
  10   6   3    0.87    0.24
  10   6   3    0.70    0.17
   7  -7  -3    1.17    0.21
   7  -7  -3    0.86    0.21
  -7  -7   3    0.94    0.33
  -7   7   3    0.98    0.25
   7   7  -3    1.15    0.25
   7   7  -3    1.01    0.21
   6  -7  -3    0.00    0.19
   6  -7  -3    0.20    0.19
  -6  -7   3    0.00    0.30
  -6   7   3    0.16    0.21
   6   7  -3    0.33    0.20
   6   7  -3    0.11    0.18
   5  -7  -3    1.64    0.24
   5  -7  -3    1.94    0.23
  -5  -7   3    1.83    0.29
   5   7  -3    1.85    0.26
   5   7  -3    1.32    0.22
   4  -7  -3    0.83    0.22
   4  -7  -3    0.75    0.21
  -4  -7   3    1.13    0.28
   4   7  -3    0.94    0.21
   4   7  -3    0.69    0.21
   3  -7  -3    0.38    0.19
  -3  -7   3    0.45    0.22
   3   7  -3    0.12    0.19
   3   7  -3    0.69    0.22
  -2  -7   3    0.68    0.24
   2  -7  -3    0.43    0.19
   2   7  -3    0.04    0.19
   2   7  -3   -0.09    0.21
  -1  -7   3    0.15    0.21
   1  -7  -3    0.19    0.19
   1   7  -3   -0.10    0.20
   0  -7   3    0.26    0.20
   0  -7  -3    0.55    0.21
   0   7  -3    0.43    0.20
   0   7   3    0.51    0.17
   1  -7   3    2.69    0.25
  -1  -7  -3    2.91    0.28
   1   7   3    2.85    0.24
  -1   7  -3    2.75    0.27
   2  -7   3    4.26    0.36
  -2  -7  -3    5.67    0.45
  -2   7  -3    5.37    0.41
   2   7   3    5.03    0.36
   3  -7   3    4.61    0.35
  -3  -7  -3    4.74    0.38
   3   7   3    5.13    0.38
  -3   7  -3    5.86    0.39
   3   7   3    5.17    0.40
   4  -7   3    0.05    0.16
  -4  -7  -3    0.46    0.23
   4   7   3    0.23    0.19
  -4   7  -3    0.24    0.21
   4   7   3    0.26    0.19
  -5  -7  -3    0.43    0.23
   5  -7   3    0.40    0.22
   5   7   3    0.32    0.19
   5   7   3    0.51    0.20
  -5   7  -3    0.51    0.21
  -6  -7  -3    1.11    0.27
   6  -7   3    0.82    0.23
   6   7   3    0.68    0.19
   6   7   3    0.85    0.22
  -6   7  -3    0.67    0.23
  -7  -7  -3    4.58    0.38
   7  -7   3    4.66    0.42
  -7   7  -3    4.70    0.42
   7   7   3    5.12    0.38
   7   7   3    5.42    0.43
  16   0  -4    1.54    0.21
  15   0  -4    0.10    0.17
 -15   0   4    0.32    0.22
 -14   0   4    7.17    0.48
  14   0  -4    8.01    0.44
  13   0  -4    0.05    0.15
 -13   0   4    0.13    0.19
  12   0  -4    3.17    0.26
 -12   0   4    2.89    0.25
 -11   0   4   -0.03    0.15
  11   0  -4    0.05    0.12
  11   0  -4   -0.01    0.10
  10   0  -4   40.76    1.77
 -10   0   4   39.79    1.78
  10   0  -4   40.51    1.76
  -9   0   4   -0.12    0.12
   9   0  -4    0.04    0.03
   9   0  -4   -0.02    0.10
   9   0  -4    0.04    0.03
   9   0  -4    0.05    0.08
   8   0  -4   49.04    2.06
  -8   0   4   49.25    2.09
   8   0  -4   45.82    2.08
   8   0  -4   47.32    2.07
   8   0  -4   47.92    2.06
   7   0  -4    0.01    0.04
   7   0  -4   -0.03    0.08
   7   0  -4    0.03    0.04
   7   0  -4   -0.03    0.06
  -7   0   4    0.08    0.08
   6   0  -4  398.87   16.21
   6   0  -4  338.14   16.19
  -6   0   4  418.73   16.30
   6   0  -4  387.33   16.38
   6   0  -4  342.83   16.23
  -5   0   4    0.00    0.07
   5   0  -4   -0.02    0.04
   5   0  -4   -0.03    0.05
   5   0  -4    0.02    0.04
   5   0  -4    0.11    0.04
  -4   0   4   12.56    0.51
   4   0  -4   10.24    0.50
   4   0  -4   11.75    0.49
   4   0  -4   10.33    0.49
  -3   0   4    0.02    0.05
   3   0  -4    0.01    0.03
   3   0  -4   -0.01    0.04
   3   0  -4   -0.01    0.05
   3   0  -4   -0.01    0.04
   2   0  -4   31.85    1.57
  -2   0   4   41.42    1.58
   2   0  -4   35.73    1.57
  -2   0   4   32.01    1.58
   2   0  -4   41.11    1.58
   1   0  -4    0.00    0.03
   1   0  -4    0.02    0.04
  -1   0   4    0.00    0.05
   1   0  -4    0.09    0.03
  -1   0   4    0.01    0.04
   0   0  -4  240.83    9.48
   0   0  -4  187.64    9.48
   0   0   4  239.37    9.51
   0   0   4  212.32    9.51
   0   0  -4  218.60    9.46
   1   0   4    0.09    0.05
  -1   0  -4    0.01    0.03
  -1   0  -4    0.08    0.04
   1   0   4    0.00    0.04
  -1   0  -4    0.00    0.04
  -2   0  -4   73.19    3.34
   2   0   4   82.02    3.36
  -2   0  -4   77.08    3.35
  -2   0  -4   79.32    3.35
   2   0   4   77.16    3.37
  -3   0  -4    0.00    0.02
   3   0   4    0.10    0.05
  -3   0  -4    0.04    0.04
  -3   0  -4    0.08    0.07
   3   0   4    0.16    0.05
   4   0   4    4.30    0.21
  -4   0  -4    4.32    0.18
  -4   0  -4    3.96    0.23
   4   0   4    3.47    0.20
   4   0   4    4.13    0.21
  -5   0  -4    0.02    0.03
   5   0   4    0.04    0.08
   5   0   4    0.06    0.05
   5   0   4    0.03    0.05
  -5   0  -4   -0.01    0.09
  -6   0  -4   29.41    1.22
   6   0   4   27.45    1.23
   6   0   4   28.99    1.23
  -6   0  -4   28.38    1.26
   6   0   4   27.43    1.25
  -7   0  -4   -0.05    0.04
  -7   0  -4    0.05    0.12
   7   0   4    0.07    0.06
   7   0   4   -0.14    0.10
   7   0   4   -0.03    0.06
  -8   0  -4  413.02   17.69
   8   0   4  426.72   17.59
   8   0   4  375.68   17.64
   8   0   4  411.58   17.59
  -8   0  -4  415.99   17.55
   9   0   4   -0.07    0.06
  -9   0  -4    0.19    0.15
   9   0   4    0.18    0.07
   9   0   4    0.06    0.13
  -9   0  -4    0.09    0.06
  10   0   4   59.26    2.65
  10   0   4   62.42    2.69
  10   0   4   59.86    2.65
 -10   0  -4   65.06    2.71
 -11   0  -4    0.53    0.21
  11   0   4   -0.14    0.13
  11   0   4    0.00    0.06
  11   0   4    0.06    0.07
  12   0   4   23.19    1.01
 -12   0  -4   24.83    1.11
  12   0   4   23.38    1.07
  12   0   4   22.28    1.01
  13   0   4   -0.30    0.18
 -13   0  -4   -0.12    0.20
 -14   0  -4    3.61    0.33
  14   0   4    3.70    0.35
 -15   0  -4   -0.01    0.23
  15   0   4   -0.04    0.18
  15  -1  -4    7.71    0.43
  15   1  -4    6.96    0.42
 -15   1   4    6.34    0.46
  14  -1  -4    0.44    0.16
 -14   1   4    0.31    0.20
  14   1  -4    0.47    0.18
 -13  -1   4   18.40    0.94
  13  -1  -4   21.77    0.92
  13   1  -4   21.06    0.92
 -13   1   4   18.89    0.97
  13   1  -4   20.21    0.93
  12  -1  -4    5.06    0.29
 -12  -1   4    4.36    0.32
 -12   1   4    4.81    0.38
  12   1  -4    4.69    0.31
  12   1  -4    5.48    0.31
  11  -1  -4    0.43    0.13
 -11  -1   4    0.21    0.13
  11   1  -4    0.41    0.11
  11   1  -4    0.31    0.14
 -11   1   4    0.27    0.16
  10  -1  -4    0.03    0.05
  10  -1  -4    0.09    0.04
  10  -1  -4    0.04    0.11
 -10  -1   4    0.03    0.11
 -10   1   4    0.02    0.11
  10   1  -4   -0.05    0.11
  10   1  -4    0.12    0.10
 -10   1   4   -0.14    0.14
  -9  -1   4   12.83    0.62
   9  -1  -4   13.32    0.62
   9  -1  -4   12.90    0.59
   9  -1  -4   13.22    0.59
   9   1  -4   13.81    0.62
   9   1  -4   13.78    0.58
  -9   1   4   14.57    0.62
   9   1  -4   12.96    0.58
   9   1  -4   12.78    0.62
  -9   1   4   14.49    0.65
   8  -1  -4   14.44    0.66
   8  -1  -4   15.00    0.65
  -8  -1   4   14.75    0.67
   8  -1  -4   14.37    0.64
   8   1  -4   14.54    0.64
  -8   1   4   14.47    0.68
   8   1  -4   14.70    0.64
   8   1  -4   15.12    0.66
  -8   1   4   14.66    0.67
   8   1  -4   14.67    0.67
   7  -1  -4   53.88    2.38
   7  -1  -4   55.14    2.39
  -7  -1   4   56.95    2.39
   7  -1  -4   55.04    2.38
   7   1  -4   54.48    2.38
  -7   1   4   56.20    2.41
   7   1  -4   57.01    2.39
   7   1  -4   54.69    2.38
  -7   1   4   55.31    2.39
   7   1  -4   54.66    2.40
   6  -1  -4    4.42    0.21
   6  -1  -4    4.48    0.22
  -6  -1   4    4.71    0.23
   6  -1  -4    4.36    0.23
  -6   1   4    4.61    0.25
   6   1  -4    4.39    0.21
   6   1  -4    4.51    0.22
   6   1  -4    4.48    0.24
  -6   1   4    4.15    0.22
   6   1  -4    4.51    0.23
   5  -1  -4   28.14    1.29
   5  -1  -4   29.61    1.29
   5  -1  -4   28.99    1.30
  -5  -1   4   31.93    1.30
  -5   1   4   29.70    1.29
  -5   1   4   30.96    1.31
   5   1  -4   30.56    1.30
   5   1  -4   29.24    1.30
   5   1  -4   29.25    1.29
   5   1  -4   30.05    1.29
   4  -1  -4   12.28    0.58
   4  -1  -4   12.68    0.57
  -4  -1   4   13.39    0.57
   4  -1  -4   11.28    0.57
   4   1  -4   12.59    0.57
   4   1  -4   12.95    0.58
  -4   1   4   14.17    0.55
   4   1  -4   13.01    0.57
   4   1  -4   12.70    0.57
  -4   1   4   13.64    0.58
  -3  -1   4    6.92    0.29
   3  -1  -4    6.37    0.30
   3  -1  -4    5.50    0.29
   3  -1  -4    5.91    0.29
   3   1  -4    6.51    0.29
   3   1  -4    6.36    0.29
   3   1  -4    6.31    0.30
   3   1  -4    6.45    0.30
  -3   1   4    7.01    0.31
   2  -1  -4   17.48    0.72
   2  -1  -4   16.27    0.74
  -2  -1   4   15.47    0.74
   2  -1  -4   16.80    0.73
  -2  -1   4   17.49    0.73
  -2   1   4   17.53    0.74
   2   1  -4   16.23    0.73
  -2   1   4   15.64    0.74
   2   1  -4   17.46    0.74
   2   1  -4   17.25    0.73
   1  -1  -4   29.78    1.31
   1  -1  -4   30.73    1.31
  -1  -1   4   29.03    1.31
   1  -1  -4   30.52    1.30
  -1  -1   4   29.88    1.30
  -1   1   4   30.73    1.31
   1   1  -4   30.23    1.30
   1   1  -4   30.09    1.31
  -1   1   4   29.26    1.31
   1   1  -4   31.33    1.30
   0  -1   4  229.01    9.95
   0  -1  -4  235.44    9.96
   0  -1   4  234.26    9.98
   0   1  -4  233.67    9.95
   0   1  -4  221.09    9.92
   0   1   4  245.57    9.96
   0   1  -4  226.56    9.97
   0   1   4  232.39    9.97
   0   1   4  215.34   10.34
  -1  -1  -4  493.96   22.52
   1  -1   4  522.67   21.97
   1  -1   4  536.70   23.18
  -1  -1  -4  517.16   23.02
   1   1   4  465.45   22.91
  -1   1  -4  454.55   21.94
  -1   1  -4  505.16   23.06
   1   1   4  591.55   23.24
  -1   1  -4  491.96   22.20
   1   1   4  544.53   22.86
  -2  -1  -4  298.36   13.44
   2  -1   4  324.57   13.52
   2  -1   4  300.34   13.49
   2  -1   4  330.41   13.58
  -2  -1  -4  307.13   13.47
  -2   1  -4  318.94   13.51
   2   1   4  304.34   13.48
   2   1   4  324.23   13.49
  -2   1  -4  288.30   13.47
   2   1   4  332.30   13.49
   3  -1   4    4.17    0.21
   3  -1   4    3.88    0.21
  -3  -1  -4    3.60    0.19
  -3  -1  -4    4.14    0.19
   3   1   4    3.80    0.20
   3   1   4    3.99    0.20
  -3   1  -4    4.00    0.20
   3   1   4    3.93    0.20
   4  -1   4   50.60    2.44
   4  -1   4   51.43    2.46
   4  -1   4   59.95    2.45
  -4  -1  -4   60.99    2.44
   4   1   4   58.55    2.46
   4   1   4   56.16    2.45
   4   1   4   56.65    2.45
   4   1   4   57.89    2.45
  -4   1  -4   58.94    2.46
  -5  -1  -4  154.55    6.37
   5  -1   4  141.62    6.39
   5  -1   4  129.87    6.36
   5  -1   4  146.72    6.38
   5   1   4  150.99    6.40
   5   1   4  152.46    6.39
  -5   1  -4  146.63    6.40
   5   1   4  154.52    6.41
   5   1   4  152.69    6.42
   6  -1   4    0.77    0.08
   6  -1   4    0.76    0.11
  -6  -1  -4    1.50    0.10
   6  -1   4    0.98    0.09
   6   1   4    0.89    0.08
   6   1   4    0.89    0.11
   6   1   4    0.93    0.08
   6   1   4    0.96    0.11
  -6   1  -4    0.70    0.14
  -6   1  -4    0.91    0.05
   7  -1   4   55.68    2.45
  -7  -1  -4   58.59    2.42
   7  -1   4   49.76    2.42
   7  -1   4   58.77    2.43
   7   1   4   51.96    2.42
   7   1   4   55.05    2.42
   7   1   4   56.16    2.44
  -7   1  -4   62.42    2.41
  -7   1  -4   57.46    2.46
   7   1   4   56.01    2.44
  -8  -1  -4    0.39    0.07
   8  -1   4    0.01    0.11
   8  -1   4   -0.01    0.06
   8  -1   4    0.12    0.08
   8   1   4   -0.04    0.06
  -8   1  -4    0.17    0.15
  -8   1  -4    0.06    0.04
   8   1   4    0.07    0.10
   8   1   4   -0.21    0.10
   8   1   4    0.22    0.06
  -9  -1  -4    6.96    0.34
   9  -1   4    6.36    0.33
   9  -1   4    7.12    0.38
   9  -1   4    7.38    0.34
   9   1   4    6.52    0.37
   9   1   4    6.89    0.33
   9   1   4    7.25    0.33
  -9   1  -4    6.85    0.42
   9   1   4    6.69    0.37
 -10  -1  -4   24.13    1.02
  10  -1   4   23.74    1.02
  10  -1   4   23.12    1.06
 -10   1  -4   24.42    1.08
  10   1   4   22.18    1.04
  10   1   4   22.32    1.05
  10   1   4   24.29    1.01
  10   1   4   21.25    1.01
  11  -1   4    4.80    0.26
  11  -1   4    4.71    0.33
  11   1   4    4.60    0.33
 -11   1  -4    4.85    0.36
  11   1   4    5.24    0.24
  11   1   4    4.67    0.24
  11   1   4    4.66    0.32
  12  -1   4    1.21    0.10
  12  -1   4    0.86    0.19
  12   1   4    1.22    0.10
  12   1   4    1.10    0.18
  12   1   4    1.25    0.11
  12   1   4    1.13    0.21
 -12   1  -4    1.13    0.21
  13  -1   4    0.59    0.19
 -13  -1  -4    1.20    0.25
  13  -1   4    1.02    0.09
  13   1   4    1.18    0.19
 -13   1  -4    1.23    0.25
  14  -1   4   14.23    0.77
 -14  -1  -4   16.39    0.84
 -14   1  -4   16.92    0.81
  14   1   4   13.95    0.74
 -15  -1  -4    9.25    0.62
  15  -1   4    7.37    0.53
 -15   1  -4    8.52    0.57
  15  -2  -4    0.78    0.17
 -15  -2   4    0.99    0.23
 -15   2   4    0.57    0.24
  14  -2  -4    0.31    0.15
 -14  -2   4    0.41    0.22
  14   2  -4    0.36    0.16
 -14   2   4    0.24    0.22
 -13  -2   4    2.41    0.25
  13  -2  -4    2.69    0.21
  13   2  -4    2.88    0.22
 -13   2   4    2.25    0.29
  12  -2  -4   11.24    0.53
 -12  -2   4   11.08    0.59
  12  -2  -4   11.01    0.49
 -12   2   4   10.22    0.61
  12   2  -4   10.89    0.54
  11  -2  -4    3.21    0.23
  11  -2  -4    3.12    0.18
 -11  -2   4    2.97    0.24
  11   2  -4    3.49    0.26
 -11   2   4    2.73    0.26
  11   2  -4    2.95    0.14
  11   2  -4    2.98    0.25
  11   2  -4    2.92    0.14
  10  -2  -4    6.80    0.33
  10  -2  -4    7.31    0.36
 -10   2   4    6.68    0.41
  10   2  -4    6.58    0.31
  10   2  -4    6.69    0.38
  10   2  -4    6.76    0.31
  10   2  -4    7.12    0.36
   9  -2  -4  102.24    4.33
   9  -2  -4  101.11    4.31
  -9  -2   4   95.00    4.30
   9   2  -4  102.78    4.32
  -9   2   4  100.71    4.34
   9   2  -4   96.28    4.31
   9   2  -4  105.08    4.31
   9   2  -4   97.13    4.31
   8  -2  -4   27.42    1.23
   8  -2  -4   27.59    1.22
   8  -2  -4   28.53    1.23
  -8  -2   4   28.08    1.23
   8   2  -4   27.57    1.22
  -8   2   4   28.36    1.26
   8   2  -4   28.96    1.23
   8   2  -4   28.99    1.25
   8   2  -4   27.77    1.24
   7  -2  -4   41.89    1.88
   7  -2  -4   43.68    1.88
  -7  -2   4   43.64    1.88
   7  -2  -4   42.49    1.89
   7   2  -4   43.04    1.89
   7   2  -4   42.58    1.89
   7   2  -4   43.16    1.87
  -7   2   4   44.33    1.90
   7   2  -4   42.94    1.88
  -7   2   4   46.16    1.87
   6  -2  -4   27.64    1.23
  -6  -2   4   27.85    1.23
   6  -2  -4   28.12    1.23
   6  -2  -4   28.48    1.24
  -6   2   4   30.80    1.22
   6   2  -4   28.03    1.23
  -6   2   4   27.94    1.25
   6   2  -4   27.82    1.23
   6   2  -4   27.36    1.24
   5  -2  -4  320.76   13.85
   5  -2  -4  305.49   13.85
   5  -2  -4  323.22   13.85
  -5  -2   4  326.90   13.82
   5   2  -4  330.20   13.85
  -5   2   4  334.68   13.91
  -5   2   4  327.07   13.92
   5   2  -4  307.35   13.84
   5   2  -4  310.48   13.88
   5   2  -4  326.16   13.87
   4  -2  -4   71.18    3.16
   4  -2  -4   72.56    3.15
   4  -2  -4   65.32    3.15
  -4  -2   4   73.70    3.16
   4   2  -4   70.80    3.15
  -4   2   4   76.02    3.14
   4   2  -4   74.54    3.18
   4   2  -4   75.00    3.15
  -4   2   4   76.70    3.16
   4   2  -4   75.81    3.16
   3  -2  -4  155.05    6.73
  -3  -2   4  154.74    6.71
   3  -2  -4  153.58    6.72
  -3  -2   4  153.92    6.71
  -3   2   4  161.70    6.78
  -3   2   4  152.47    6.70
   3   2  -4  150.87    7.35
   3   2  -4  159.35    6.75
  -3   2   4  156.60    6.67
  -2  -2   4   99.64    4.45
   2  -2  -4  102.69    4.49
   2  -2  -4  103.73    4.47
  -2  -2   4  103.66    4.46
  -2  -2   4   99.74    4.43
   2   2  -4  104.58    4.49
  -2   2   4  104.42    4.46
  -2   2   4  105.94    4.50
   2   2  -4  104.44    4.49
  -2   2   4  102.23    4.44
   1  -2  -4   39.32    1.65
  -1  -2   4   37.82    1.65
  -1  -2   4   36.40    1.65
   1  -2  -4   38.68    1.65
  -1  -2   4   36.88    1.65
  -1   2   4   37.92    1.64
   1   2  -4   37.61    1.65
  -1   2   4   38.77    1.65
  -1   2   4   39.42    1.65
   1   2  -4   37.55    1.65
   0  -2  -4   44.96    1.93
   0  -2   4   43.41    1.93
   0  -2   4   46.14    1.93
   0  -2  -4   45.37    1.93
   0  -2   4   41.56    1.93
   0   2   4   46.12    1.93
   0   2  -4   45.18    1.93
   0   2  -4   44.17    1.93
   0   2   4   43.92    1.93
   0   2   4   45.86    1.93
  -1  -2  -4    4.38    0.22
  -1  -2  -4    4.90    0.23
   1  -2   4    4.12    0.23
   1  -2   4    4.84    0.22
   1   2   4    4.70    0.22
  -1   2  -4    4.64    0.23
   1   2   4    4.32    0.22
  -1   2  -4    4.78    0.23
   1   2   4    4.81    0.23
  -2  -2  -4   28.34    1.23
   2  -2   4   28.07    1.24
   2  -2   4   25.51    1.24
   2  -2   4   28.33    1.22
  -2  -2  -4   28.84    1.23
   2   2   4   29.30    1.23
  -2   2  -4   29.56    1.24
   2   2   4   28.54    1.23
  -2   2  -4   28.43    1.24
   2   2   4   28.26    1.23
  -3  -2  -4   59.96    2.54
   3  -2   4   60.68    2.53
   3  -2   4   57.04    2.55
  -3  -2  -4   60.91    2.54
   3  -2   4   57.52    2.55
   3   2   4   57.94    2.54
  -3   2  -4   56.76    2.54
  -3   2  -4   59.36    2.55
   3   2   4   61.02    2.54
   3   2   4   58.28    2.54
   4  -2   4   43.21    1.88
  -4  -2  -4   43.20    1.87
   4  -2   4   45.09    1.86
   4  -2   4   41.34    1.88
   4   2   4   42.88    1.88
   4   2   4   43.34    1.88
   4   2   4   42.66    1.87
  -4   2  -4   45.65    1.89
  -4   2  -4   42.45    1.88
   5  -2   4   13.05    0.52
   5  -2   4   10.58    0.48
  -5  -2  -4   10.87    0.50
   5  -2   4   11.29    0.53
   5  -2   4    9.93    0.50
   5   2   4   11.26    0.51
   5   2   4   10.36    0.50
   5   2   4   11.24    0.51
   5   2   4   11.48    0.51
  -5   2  -4   11.60    0.53
   6  -2   4   52.10    2.35
   6  -2   4   50.97    2.34
   6  -2   4   55.49    2.37
  -6  -2  -4   54.54    2.35
   6  -2   4   57.12    2.36
   6   2   4   55.84    2.36
   6   2   4   55.96    2.36
  -6   2  -4   56.09    2.38
   6   2   4   55.48    2.35
   6   2   4   51.40    2.35
   7  -2   4  136.15    5.77
   7  -2   4  119.77    5.75
   7  -2   4  136.50    5.82
  -7  -2  -4  132.84    5.80
   7   2   4  139.69    5.82
   7   2   4  136.25    5.78
  -7   2  -4  137.04    5.78
   7   2   4  136.40    5.82
   7   2   4  131.20    5.75
   8  -2   4    1.17    0.12
   8  -2   4    1.03    0.16
  -8  -2  -4    1.04    0.11
   8   2   4    1.14    0.12
   8   2   4    0.95    0.13
   8   2   4    1.04    0.10
  -8   2  -4    0.79    0.17
   9  -2   4   31.86    1.33
   9  -2   4   31.43    1.36
  -9  -2  -4   31.31    1.33
   9   2   4   27.63    1.33
   9   2   4   30.32    1.34
   9   2   4   30.51    1.32
  -9   2  -4   28.33    1.38
  10  -2   4    4.86    0.27
  10  -2   4    4.52    0.35
 -10  -2  -4    4.86    0.27
  10   2   4    4.43    0.31
  10   2   4    4.09    0.28
 -10   2  -4    4.19    0.39
  10   2   4    4.21    0.24
  11  -2   4   75.44    3.29
 -11  -2  -4   78.40    3.26
  11  -2   4   75.95    3.26
  11   2   4   75.59    3.28
 -11   2  -4   75.83    3.31
  11   2   4   75.17    3.25
  11   2   4   71.96    3.27
  12  -2   4    0.66    0.11
  12  -2   4    0.49    0.19
  12   2   4    0.65    0.08
 -12   2  -4    0.73    0.24
  12   2   4    0.65    0.20
  13  -2   4    1.20    0.22
  13  -2   4    1.14    0.12
  13   2   4    0.93    0.23
  13   2   4    1.27    0.10
 -13   2  -4    1.04    0.27
  14  -2   4    8.42    0.41
  14  -2   4    8.38    0.52
 -14   2  -4    9.68    0.59
  14   2   4    9.10    0.54
  15  -2   4    1.67    0.27
  15   2   4    2.27    0.27
 -15   2  -4    2.57    0.32
  14  -3  -4    0.81    0.09
 -14  -3   4    0.66    0.25
  14  -3  -4    1.03    0.17
 -14   3   4    0.96    0.29
  14   3  -4    0.99    0.19
  13  -3  -4    0.78    0.15
  13  -3  -4    0.48    0.09
 -13  -3   4    0.31    0.21
  13   3  -4    0.45    0.16
 -13   3   4    0.34    0.24
 -12  -3   4    9.47    0.54
  12  -3  -4    9.61    0.46
  12  -3  -4    9.20    0.43
 -12   3   4    7.72    0.53
  12   3  -4    8.66    0.40
  12   3  -4    8.84    0.48
 -11  -3   4    2.17    0.24
  11  -3  -4    2.41    0.20
  11  -3  -4    2.73    0.23
  11   3  -4    2.54    0.21
  11   3  -4    2.49    0.16
 -11   3   4    2.57    0.29
 -10  -3   4   33.12    1.47
  10  -3  -4   32.44    1.44
  10  -3  -4   33.98    1.43
  10   3  -4   31.75    1.45
  10   3  -4   32.57    1.42
 -10   3   4   32.37    1.49
   9  -3  -4    2.08    0.18
  -9  -3   4    1.89    0.21
   9  -3  -4    1.74    0.15
   9   3  -4    1.98    0.16
   9   3  -4    1.83    0.17
  -9   3   4    1.88    0.22
  -8  -3   4    0.59    0.16
   8  -3  -4    1.11    0.13
   8  -3  -4    0.97    0.11
   8   3  -4    0.76    0.13
  -8   3   4    1.00    0.19
   8   3  -4    0.87    0.10
   7  -3  -4   12.03    0.55
   7  -3  -4   12.24    0.56
  -7  -3   4   11.76    0.59
   7   3  -4   11.41    0.56
   7   3  -4   12.16    0.54
  -7   3   4   11.79    0.58
   6  -3  -4    3.47    0.20
  -6  -3   4    3.01    0.25
   6  -3  -4    3.27    0.20
  -6   3   4    2.77    0.23
   6   3  -4    2.99    0.19
   6   3  -4    3.22    0.22
  -5  -3   4    0.27    0.05
   5  -3  -4    0.37    0.10
   5  -3  -4    0.23    0.08
  -5  -3   4    0.22    0.14
   5   3  -4    0.37    0.08
  -5   3   4    0.30    0.04
   5   3  -4    0.21    0.09
  -5   3   4    0.23    0.12
   4  -3  -4   28.41    1.25
   4  -3  -4   28.62    1.25
  -4  -3   4   27.13    1.23
  -4  -3   4   27.65    1.26
  -4   3   4   28.44    1.25
  -4   3   4   29.01    1.23
   4   3  -4   29.97    1.25
   4   3  -4   27.96    1.25
  -4   3   4   28.76    1.26
   3  -3  -4    9.86    0.46
  -3  -3   4    9.14    0.43
   3  -3  -4   10.18    0.45
  -3  -3   4    9.27    0.47
  -3  -3   4    9.71    0.46
  -3   3   4   10.50    0.46
   3   3  -4    9.60    0.45
  -3   3   4    9.64    0.43
  -3   3   4    9.83    0.47
   3   3  -4    9.70    0.45
  -2  -3   4  172.88    7.50
  -2  -3   4  165.69    7.49
   2  -3  -4  167.67    7.49
   2  -3  -4  175.57    7.91
  -2  -3   4  168.57    7.49
  -2   3   4  179.59    7.50
  -2   3   4  181.55    8.63
  -2   3   4  176.53    7.49
   2   3  -4  177.92    7.52
   2   3  -4  175.16    7.54
   1  -3  -4   29.85    1.30
   1  -3  -4   28.66    1.30
  -1  -3   4   30.32    1.31
  -1  -3   4   28.15    1.29
  -1  -3   4   30.17    1.31
  -1   3   4   29.92    1.29
  -1   3   4   30.58    1.31
  -1   3   4   31.31    1.31
   1   3  -4   30.84    1.31
   1   3  -4   28.77    1.30
   0  -3  -4   20.91    0.90
   0  -3   4   18.91    0.90
   0  -3   4   19.62    0.89
   0  -3   4   19.95    0.90
   0  -3  -4   20.44    0.90
   0   3   4   20.73    0.89
   0   3  -4   20.02    0.90
   0   3   4   21.34    0.90
   0   3  -4   20.32    0.90
   0   3   4   20.76    0.89
  -1  -3  -4  150.26    7.30
   1  -3   4  150.36    6.58
   1  -3   4  152.89    6.59
  -1  -3  -4  148.42    6.53
   1  -3   4  150.92    6.60
  -1   3  -4  152.02    6.61
   1   3   4  151.63    6.60
   1   3   4  156.69    6.57
  -1   3  -4  150.04    6.60
   1   3   4  156.19    6.60
   2  -3   4   39.88    1.72
  -2  -3  -4   40.51    1.73
   2  -3   4   38.58    1.73
   2  -3   4   38.63    1.73
  -2  -3  -4   39.22    1.73
   2   3   4   41.09    1.72
  -2   3  -4   40.40    1.73
   2   3   4   40.62    1.73
  -2   3  -4   38.99    1.73
   2   3   4   39.38    1.72
   3  -3   4    7.36    0.38
  -3  -3  -4    7.61    0.37
   3  -3   4    7.39    0.35
  -3  -3  -4    7.53    0.36
   3  -3   4    7.21    0.38
  -3   3  -4    7.55    0.38
   3   3   4    7.44    0.36
  -3   3  -4    7.56    0.37
   3   3   4    7.55    0.37
   3   3   4    8.76    0.36
   4  -3   4  215.09    9.25
   4  -3   4  213.16    9.32
  -4  -3  -4  222.97    9.28
   4  -3   4  213.99    9.23
  -4  -3  -4  210.87    9.28
   4   3   4  216.85    9.30
   4   3   4  222.63    9.32
   4   3   4  210.14    9.26
  -4   3  -4  210.85    9.30
  -4   3  -4  208.08    9.24
   5  -3   4    5.34    0.29
   5  -3   4    4.92    0.28
  -5  -3  -4    4.96    0.27
   5  -3   4    4.98    0.24
   5   3   4    5.29    0.28
  -5   3  -4    4.56    0.29
   5   3   4    5.16    0.27
   5   3   4    5.02    0.26
  -6  -3  -4   16.78    0.76
   6  -3   4   17.15    0.77
   6  -3   4   16.25    0.74
   6  -3   4   17.07    0.78
  -6   3  -4   16.70    0.78
   6   3   4   17.08    0.77
   6   3   4   17.14    0.75
   6   3   4   16.60    0.76
   7  -3   4   12.09    0.55
   7  -3   4   11.36    0.56
  -7  -3  -4   10.92    0.54
   7   3   4   11.78    0.54
  -7   3  -4   11.70    0.58
   7   3   4   11.33    0.56
   7   3   4   11.42    0.53
   8  -3   4   29.83    1.24
   8  -3   4   28.25    1.26
  -8  -3  -4   26.86    1.24
   8   3   4   27.62    1.25
   8   3   4   27.08    1.23
  -8   3  -4   27.83    1.27
   8   3   4   28.31    1.23
  -9  -3  -4    0.37    0.13
   9  -3   4    0.27    0.16
   9  -3   4    0.41    0.12
  -9   3  -4    0.35    0.20
   9   3   4    0.47    0.14
   9   3   4    0.45    0.10
  10  -3   4    1.74    0.23
  10  -3   4    1.61    0.15
 -10  -3  -4    1.59    0.17
  10   3   4    1.60    0.19
  10   3   4    1.54    0.13
 -10   3  -4    1.65    0.23
  11  -3   4    7.68    0.45
  11  -3   4    6.96    0.39
 -11  -3  -4    7.37    0.40
  11   3   4    7.22    0.37
  11   3   4    8.06    0.45
 -11   3  -4    6.56    0.50
 -12  -3  -4   15.26    0.72
  12  -3   4   15.41    0.70
  12  -3   4   15.34    0.76
  12   3   4   15.19    0.75
  12   3   4   15.48    0.68
 -12   3  -4   13.66    0.80
  13  -3   4    6.93    0.37
  13  -3   4    6.46    0.50
 -13   3  -4    6.36    0.52
  13   3   4    6.46    0.32
  13   3   4    6.79    0.43
  14  -3   4    3.72    0.25
  14  -3   4    3.46    0.32
  14   3   4    3.20    0.18
 -14   3  -4    3.43    0.36
  14   3   4    3.13    0.31
  13  -4  -4    0.80    0.13
  13  -4  -4    1.16    0.16
 -13  -4   4    0.52    0.28
 -13   4   4    0.61    0.27
  13   4  -4    0.81    0.09
  13   4  -4    0.96    0.21
 -12  -4   4    2.30    0.30
  12  -4  -4    2.40    0.19
  12  -4  -4    2.07    0.17
  12   4  -4    1.81    0.22
  12   4  -4    2.06    0.17
 -12   4   4    1.61    0.28
  11  -4  -4   26.89    1.18
  11  -4  -4   27.13    1.17
 -11  -4   4   27.15    1.24
  11   4  -4   25.36    1.18
  11   4  -4   25.93    1.15
 -11   4   4   25.09    1.23
 -10  -4   4    8.30    0.52
  10  -4  -4    8.12    0.41
  10  -4  -4    7.94    0.42
  10   4  -4    7.51    0.39
  10   4  -4    7.79    0.44
 -10   4   4    7.14    0.49
   9  -4  -4   15.08    0.68
   9  -4  -4   15.17    0.69
  -9  -4   4   14.51    0.73
   9   4  -4   14.08    0.69
  -9   4   4   13.81    0.73
   9   4  -4   14.62    0.66
  -8  -4   4    0.88    0.20
   8  -4  -4    1.01    0.13
   8   4  -4    0.64    0.11
   8   4  -4    0.59    0.14
  -8   4   4    0.57    0.21
   7  -4  -4    0.43    0.11
  -7  -4   4   -0.02    0.17
   7  -4  -4    0.00    0.11
  -7   4   4   -0.13    0.17
   7   4  -4   -0.02    0.12
   7   4  -4    0.02    0.10
  -6  -4   4   24.36    1.15
   6  -4  -4   24.92    1.11
   6  -4  -4   24.64    1.11
  -6   4   4   26.59    1.14
   6   4  -4   23.71    1.11
   6   4  -4   25.29    1.11
  -5  -4   4    3.95    0.34
   5  -4  -4    4.34    0.26
   5  -4  -4    4.16    0.25
   5   4  -4    4.36    0.27
  -5   4   4    4.40    0.28
   5   4  -4    4.25    0.26
  -4  -4   4    7.59    0.43
   4  -4  -4    7.85    0.39
   4  -4  -4    7.42    0.39
  -4   4   4    7.59    0.41
   4   4  -4    7.72    0.39
   4   4  -4    8.12    0.39
  -4   4   4    7.98    0.36
   3  -4  -4  148.03    6.37
   3  -4  -4  146.61    6.68
  -3  -4   4  137.48    6.37
  -3   4   4  147.09    6.39
   3   4  -4  148.46    6.43
  -3   4   4  151.72    6.36
  -3   4   4  145.64    6.41
   3   4  -4  157.99    6.43
   2  -4  -4   23.40    1.03
  -2  -4   4   23.02    1.03
   2  -4  -4   23.59    1.03
  -2  -4   4   21.99    1.00
  -2  -4   4   21.69    1.04
  -2   4   4   23.66    1.01
   2   4  -4   22.68    1.03
   2   4  -4   23.79    1.03
  -2   4   4   23.70    1.03
   1  -4  -4    1.90    0.16
  -1  -4   4    2.26    0.17
  -1  -4   4    2.01    0.19
   1  -4  -4    1.96    0.18
  -1  -4   4    2.17    0.19
  -1  -4   4    1.86    0.13
  -1   4   4    2.24    0.20
   1   4  -4    2.22    0.19
  -1   4   4    1.90    0.15
  -1   4   4    2.24    0.17
   1   4  -4    1.90    0.18
   0  -4   4    0.79    0.12
   0  -4  -4    0.70    0.12
   0  -4   4    0.76    0.11
   0  -4  -4    0.86    0.11
   0  -4   4    0.76    0.09
   0   4   4    1.05    0.13
   0   4  -4    0.74    0.13
   0   4   4    0.77    0.10
   0   4  -4    0.74    0.11
   0   4   4    0.73    0.10
  -1  -4  -4    7.04    0.34
   1  -4   4    6.58    0.35
   1  -4   4    6.34    0.33
  -1  -4  -4    6.17    0.34
   1  -4   4    6.55    0.34
   1   4   4    6.79    0.32
  -1   4  -4    6.60    0.35
  -1   4  -4    6.70    0.34
   1   4   4    6.77    0.35
   1   4   4    6.44    0.33
  -2  -4  -4    0.21    0.12
   2  -4   4    0.34    0.09
   2  -4   4    0.32    0.09
   2  -4   4    0.22    0.11
  -2  -4  -4    0.06    0.09
   2   4   4    0.08    0.09
   2   4   4    0.11    0.10
   2   4   4    0.03    0.08
  -2   4  -4    0.24    0.12
  -2   4  -4    0.09    0.10
   3  -4   4   27.49    1.20
   3  -4   4   26.06    1.22
  -3  -4  -4   28.22    1.22
   3  -4   4   26.45    1.21
  -3   4  -4   26.77    1.21
  -3   4  -4   27.96    1.22
   3   4   4   27.49    1.21
   3   4   4   26.71    1.21
   3   4   4   29.11    1.20
   4  -4   4   27.03    1.18
   4  -4   4   26.09    1.20
   4  -4   4   26.32    1.20
   4  -4   4   26.38    1.20
  -4  -4  -4   27.86    1.20
   4   4   4   28.14    1.18
  -4   4  -4   26.83    1.21
   4   4   4   27.27    1.20
   4   4   4   26.95    1.20
   5  -4   4  125.84    5.40
   5  -4   4  125.97    5.40
   5  -4   4  126.30    5.40
  -5  -4  -4  127.35    5.39
   5   4   4  121.43    5.39
   5   4   4  123.92    5.39
  -5   4  -4  125.48    5.40
   6  -4   4    0.10    0.14
   6  -4   4    0.42    0.09
   6  -4   4    0.51    0.13
  -6  -4  -4   -0.01    0.13
   6   4   4    0.10    0.10
   6   4   4    0.07    0.13
  -6   4  -4    0.66    0.16
   7  -4   4    0.90    0.17
  -7  -4  -4    0.61    0.15
   7  -4   4    0.40    0.13
   7   4   4    0.81    0.12
   7   4   4    0.57    0.14
  -7   4  -4    1.07    0.18
   8  -4   4   32.98    1.46
   8  -4   4   34.49    1.48
  -8  -4  -4   31.28    1.45
   8   4   4   33.42    1.44
   8   4   4   32.12    1.46
  -8   4  -4   32.14    1.47
  -9  -4  -4    0.98    0.16
   9  -4   4    0.83    0.19
   9  -4   4    0.53    0.15
   9   4   4    0.96    0.17
   9   4   4    0.75    0.13
  -9   4  -4    1.00    0.21
  10  -4   4    7.76    0.46
 -10  -4  -4    7.27    0.42
  10  -4   4    7.53    0.42
 -10   4  -4    7.22    0.48
  10   4   4    7.26    0.39
  10   4   4    7.54    0.43
 -11  -4  -4    9.67    0.51
  11  -4   4    9.86    0.58
  11  -4   4    9.96    0.50
 -11   4  -4    8.98    0.57
  11   4   4    9.05    0.47
  11   4   4    9.66    0.52
  12  -4   4    4.52    0.40
 -12  -4  -4    4.64    0.34
  12  -4   4    4.07    0.32
 -12   4  -4    3.53    0.34
  12   4   4    4.27    0.36
  12   4   4    3.83    0.26
  13  -4   4   14.85    0.76
  13  -4   4   14.06    0.68
 -13   4  -4   13.09    0.77
  13   4   4   13.92    0.65
  13   4   4   15.08    0.75
 -12  -5   4    1.78    0.31
  12  -5  -4    1.81    0.18
  12  -5  -4    1.98    0.20
 -12   5   4    1.86    0.30
  12   5  -4    1.71    0.15
  12   5  -4    1.83    0.22
  11  -5  -4    4.72    0.32
  11  -5  -4    4.90    0.32
 -11  -5   4    3.77    0.37
  11   5  -4    4.05    0.37
  11   5  -4    4.54    0.29
 -11   5   4    3.79    0.36
  10  -5  -4    2.96    0.28
  10  -5  -4    3.45    0.28
 -10  -5   4    2.84    0.35
 -10   5   4    2.86    0.32
  10   5  -4    2.90    0.25
  10   5  -4    3.18    0.30
  -9  -5   4   12.18    0.71
   9  -5  -4   12.93    0.60
   9  -5  -4   12.40    0.60
   9   5  -4   11.94    0.61
  -9   5   4   11.67    0.68
   9   5  -4   12.00    0.59
  -8  -5   4    1.61    0.26
   8  -5  -4    1.99    0.19
   8  -5  -4    1.74    0.18
   8   5  -4    1.30    0.19
   8   5  -4    1.31    0.16
  -8   5   4    1.83    0.23
   7  -5  -4    0.26    0.14
   7  -5  -4    0.02    0.12
  -7  -5   4    0.20    0.21
   7   5  -4    0.18    0.13
   7   5  -4    0.37    0.16
  -7   5   4    0.30    0.18
   6  -5  -4    5.08    0.30
   6  -5  -4    4.62    0.31
  -6  -5   4    4.43    0.35
   6   5  -4    5.46    0.35
   6   5  -4    4.82    0.31
  -6   5   4    4.48    0.35
   5  -5  -4   24.43    1.10
  -5  -5   4   24.30    1.15
   5  -5  -4   24.57    1.09
   5   5  -4   25.02    1.10
   5   5  -4   24.54    1.10
  -5   5   4   23.70    1.11
   4  -5  -4   33.73    1.45
  -4  -5   4   28.94    1.47
   4  -5  -4   33.15    1.45
  -4   5   4   32.42    1.46
   4   5  -4   33.17    1.46
   4   5  -4   34.81    1.45
   3  -5  -4    6.43    0.38
   3  -5  -4    6.92    0.39
  -3  -5   4    6.62    0.43
  -3   5   4    6.80    0.37
   3   5  -4    7.84    0.39
   3   5  -4    6.97    0.38
  -3   5   4    6.21    0.34
   2  -5  -4    4.57    0.29
   2  -5  -4    4.36    0.29
  -2  -5   4    4.05    0.30
   2   5  -4    4.13    0.29
  -2   5   4    4.19    0.27
   2   5  -4    4.08    0.28
  -2   5   4    4.17    0.25
  -1  -5   4   44.38    1.90
   1  -5  -4   42.39    1.89
   1  -5  -4   45.21    1.90
  -1   5   4   41.44    1.90
   1   5  -4   42.98    1.89
  -1   5   4   42.26    1.88
  -1   5   4   43.12    1.88
   1   5  -4   43.63    1.90
   0  -5   4    6.83    0.37
   0  -5   4    6.17    0.39
   0  -5  -4    7.07    0.38
   0  -5  -4    7.30    0.40
   0   5  -4    6.74    0.38
   0   5  -4    6.85    0.39
   0   5   4    6.58    0.35
   0   5   4    6.75    0.35
   1  -5   4   33.33    1.50
  -1  -5  -4   35.77    1.53
   1  -5   4   33.66    1.51
   1  -5   4   34.60    1.53
   1   5   4   34.47    1.50
  -1   5  -4   34.54    1.53
   1   5   4   34.93    1.53
   1   5   4   34.41    1.51
  -1   5  -4   34.29    1.52
   2  -5   4    1.68    0.15
  -2  -5  -4    1.69    0.18
   2  -5   4    1.91    0.19
   2  -5   4    1.60    0.15
  -2   5  -4    1.66    0.17
   2   5   4    1.73    0.16
   2   5   4    1.83    0.18
   3  -5   4   26.09    1.19
   3  -5   4   26.07    1.19
   3  -5   4   26.95    1.22
  -3  -5  -4   27.55    1.22
   3   5   4   27.06    1.21
   3   5   4   26.26    1.20
  -3   5  -4   28.55    1.22
   4  -5   4    3.55    0.23
   4  -5   4    3.78    0.26
   4  -5   4    3.60    0.30
  -4  -5  -4    3.56    0.30
  -4   5  -4    3.65    0.30
   4   5   4    3.08    0.24
   4   5   4    3.19    0.26
   5  -5   4   37.00    1.61
  -5  -5  -4   38.10    1.64
   5  -5   4   37.34    1.64
   5  -5   4   35.79    1.63
   5   5   4   36.91    1.63
  -5   5  -4   36.13    1.63
   5   5   4   36.42    1.62
   6  -5   4    4.84    0.33
  -6  -5  -4    4.91    0.32
   6  -5   4    4.62    0.35
   6   5   4    4.52    0.31
  -6   5  -4    4.67    0.35
   6   5   4    4.22    0.30
   7  -5   4   30.17    1.32
  -7  -5  -4   29.35    1.31
   7  -5   4   28.91    1.32
   7   5   4   28.50    1.31
  -7   5  -4   28.78    1.32
   7   5   4   29.24    1.30
   8  -5   4    0.50    0.18
   8  -5   4    0.51    0.17
  -8  -5  -4    0.36    0.18
  -8   5  -4    0.30    0.20
   8   5   4    0.52    0.18
   8   5   4    0.36    0.14
   9  -5   4    0.33    0.17
  -9  -5  -4    0.33    0.18
   9  -5   4    0.13    0.20
   9   5   4    0.29    0.14
  -9   5  -4    0.07    0.21
   9   5   4    0.15    0.19
  10  -5   4    8.25    0.48
 -10  -5  -4    8.21    0.48
  10  -5   4    8.68    0.54
  10   5   4    8.17    0.50
  10   5   4    7.69    0.43
 -10   5  -4    7.92    0.53
  11  -5   4    6.18    0.42
 -11  -5  -4    6.52    0.43
  11  -5   4    7.02    0.50
 -11   5  -4    6.31    0.48
  11   5   4    5.97    0.45
  11   5   4    5.62    0.36
  12  -5   4    2.86    0.25
 -12  -5  -4    2.82    0.27
  12  -5   4    2.80    0.33
 -12   5  -4    2.67    0.32
  12   5   4    2.75    0.25
  12   5   4    2.80    0.29
  10  -6  -4    0.75    0.18
  10  -6  -4    0.92    0.19
 -10  -6   4    1.02    0.30
  10   6  -4    1.05    0.24
  10   6  -4    0.61    0.16
 -10   6   4    1.12    0.29
   9  -6  -4    0.71    0.18
   9  -6  -4    0.56    0.18
  -9  -6   4    0.59    0.29
   9   6  -4    0.80    0.23
  -9   6   4    0.53    0.24
   9   6  -4    0.53    0.16
   8  -6  -4   11.14    0.59
  -8  -6   4   11.03    0.68
   8  -6  -4   11.59    0.58
   8   6  -4   11.79    0.58
   8   6  -4   11.21    0.59
  -8   6   4   10.73    0.64
   7  -6  -4    1.33    0.19
  -7  -6   4    1.28    0.28
   7  -6  -4    1.12    0.17
   7   6  -4    1.35    0.18
  -7   6   4    1.11    0.24
   7   6  -4    1.19    0.20
  -6  -6   4   19.65    0.98
   6  -6  -4   19.74    0.93
   6  -6  -4   20.40    0.93
  -6   6   4   19.30    0.95
   6   6  -4   19.86    0.93
   6   6  -4   20.62    0.95
   5  -6  -4    1.19    0.18
   5  -6  -4    1.27    0.18
  -5  -6   4    1.33    0.28
   5   6  -4    1.17    0.19
  -5   6   4    1.35    0.20
   5   6  -4    1.10    0.18
  -4  -6   4    9.60    0.56
   4  -6  -4   10.15    0.54
   4  -6  -4    9.39    0.51
   4   6  -4   10.30    0.53
  -4   6   4    9.78    0.52
   4   6  -4   10.29    0.54
  -3  -6   4    3.85    0.31
   3  -6  -4    4.68    0.32
   3  -6  -4    4.03    0.33
   3   6  -4    3.84    0.31
  -3   6   4    4.15    0.30
   3   6  -4    4.22    0.33
   2  -6  -4   12.73    0.62
  -2  -6   4   12.01    0.62
   2  -6  -4   11.46    0.61
  -2   6   4   11.12    0.59
   2   6  -4   11.71    0.60
   2   6  -4   13.65    0.61
   1  -6  -4   12.52    0.63
  -1  -6   4   12.23    0.64
  -1   6   4   12.25    0.60
   1   6  -4   13.36    0.65
   1   6  -4   13.26    0.64
   0  -6  -4   23.69    1.09
   0  -6   4   23.14    1.08
   0   6  -4   24.94    1.10
   0   6  -4   23.38    1.09
   0   6   4   23.82    1.07
  -1  -6  -4    0.09    0.19
   1  -6   4    0.17    0.15
   1   6   4    0.15    0.14
   1   6   4    0.03    0.17
  -1   6  -4    0.16    0.18
  -2  -6  -4   18.89    0.90
   2  -6   4   17.85    0.86
   2   6   4   19.94    0.89
  -2   6  -4   18.95    0.89
   2   6   4   17.97    0.86
  -3  -6  -4    7.44    0.45
   3  -6   4    7.66    0.41
   3  -6   4    7.99    0.46
  -3   6  -4    8.22    0.47
   3   6   4    7.51    0.43
   3   6   4    7.66    0.45
   4  -6   4    2.82    0.26
   4  -6   4    3.06    0.24
   4  -6   4    3.01    0.26
  -4  -6  -4    2.83    0.26
  -4   6  -4    3.53    0.33
   4   6   4    2.91    0.24
   4   6   4    3.41    0.29
   5  -6   4    1.71    0.22
   5  -6   4    1.63    0.20
  -5  -6  -4    1.73    0.24
   5   6   4    1.66    0.21
  -5   6  -4    2.04    0.24
   5   6   4    1.74    0.20
  -6  -6  -4   14.54    0.73
   6  -6   4   14.24    0.70
   6  -6   4   14.40    0.72
   6   6   4   14.09    0.70
  -6   6  -4   14.38    0.72
   6   6   4   13.45    0.69
   7  -6   4    0.56    0.19
  -7  -6  -4    0.83    0.20
   7  -6   4    0.29    0.20
   7   6   4    0.50    0.16
   7   6   4    0.67    0.20
  -7   6  -4    0.58    0.21
  -8  -6  -4    6.66    0.45
   8  -6   4    6.60    0.45
   8  -6   4    6.46    0.44
   8   6   4    5.82    0.40
   8   6   4    6.47    0.44
  -8   6  -4    5.51    0.45
  -9  -6  -4    0.13    0.22
   9  -6   4    0.08    0.20
   9  -6   4   -0.05    0.21
  -9   6  -4   -0.23    0.22
   9   6   4   -0.39    0.21
   9   6   4   -0.09    0.16
 -10  -6  -4    0.49    0.21
  10  -6   4    1.04    0.22
  10  -6   4    0.62    0.23
  10   6   4    0.61    0.17
 -10   6  -4    0.25    0.24
  10   6   4    1.11    0.22
   7  -7  -4    9.10    0.52
  -7  -7   4    9.14    0.63
   7   7  -4    9.42    0.56
   7   7  -4    9.38    0.53
  -7   7   4    8.49    0.57
  -6  -7   4    2.64    0.35
   6  -7  -4    1.50    0.22
   6  -7  -4    2.07    0.24
  -6   7   4    2.47    0.27
   6   7  -4    1.94    0.25
   6   7  -4    1.86    0.23
   5  -7  -4    3.07    0.26
   5  -7  -4    3.54    0.28
  -5  -7   4    2.86    0.35
   5   7  -4    3.38    0.31
   5   7  -4    3.08    0.28
  -4  -7   4    1.41    0.29
   4  -7  -4    1.17    0.23
   4   7  -4    0.63    0.21
   4   7  -4    1.20    0.22
  -3  -7   4    1.26    0.25
   3  -7  -4    1.79    0.25
   3   7  -4    1.55    0.25
   3   7  -4    1.81    0.24
  -2  -7   4   14.03    0.76
   2  -7  -4   14.69    0.75
   2   7  -4   15.60    0.75
   2   7  -4   14.36    0.74
   1  -7  -4    4.82    0.39
  -1  -7   4    4.84    0.40
   1   7  -4    4.87    0.38
   0  -7   4    2.46    0.25
   0  -7  -4    2.47    0.27
   0   7  -4    2.80    0.28
   1  -7   4    8.47    0.50
  -1  -7  -4    8.23    0.56
   1   7   4    9.40    0.49
  -1   7  -4    9.44    0.55
   2  -7   4    0.17    0.17
  -2  -7  -4    0.68    0.22
   2   7   4    0.33    0.17
  -2   7  -4    0.45    0.22
   3  -7   4    0.11    0.16
  -3  -7  -4   -0.07    0.21
  -3   7  -4    0.23    0.22
   3   7   4    0.10    0.18
   3   7   4    0.07    0.20
  -4  -7  -4    6.98    0.52
  -4   7  -4    7.28    0.49
   4   7   4    7.15    0.45
   4   7   4    7.10    0.46
   5  -7   4    0.17    0.22
  -5  -7  -4    0.04    0.25
   5   7   4    0.29    0.19
   5   7   4    0.36    0.19
  -5   7  -4    0.30    0.22
   6  -7   4    0.73    0.22
  -6  -7  -4    0.31    0.24
  -6   7  -4    0.86    0.24
   6   7   4    0.79    0.19
   6   7   4    0.66    0.22
  15   0  -5    0.58    0.20
 -15   0   5    0.83    0.23
 -14   0   5   -0.26    0.20
  14   0  -5   -0.07    0.17
 -13   0   5    3.38    0.28
  13   0  -5    2.85    0.24
 -12   0   5   -0.05    0.16
  12   0  -5   -0.16    0.14
 -11   0   5    0.58    0.17
  11   0  -5    0.80    0.16
  10   0  -5   -0.03    0.09
  10   0  -5    0.06    0.04
  10   0  -5    0.04    0.04
 -10   0   5   -0.11    0.14
  10   0  -5    0.06    0.13
   9   0  -5   63.95    2.73
  -9   0   5   62.40    2.76
   9   0  -5   65.27    2.76
   9   0  -5   62.93    2.74
   9   0  -5   63.17    2.73
   8   0  -5    0.00    0.11
   8   0  -5    0.07    0.05
   8   0  -5    0.14    0.07
  -8   0   5   -0.08    0.11
   8   0  -5   -0.03    0.05
   7   0  -5   15.27    0.71
   7   0  -5   16.34    0.70
  -7   0   5   16.57    0.73
   7   0  -5   16.51    0.71
   7   0  -5   15.74    0.72
   6   0  -5    0.06    0.05
   6   0  -5   -0.03    0.05
   6   0  -5    0.03    0.07
   6   0  -5    0.06    0.05
  -6   0   5    0.09    0.09
   5   0  -5  102.20    4.65
  -5   0   5  115.88    4.73
   5   0  -5  104.69    4.68
   5   0  -5  115.21    4.69
   5   0  -5  103.95    4.71
   4   0  -5    0.01    0.03
  -4   0   5    0.02    0.07
   4   0  -5   -0.03    0.06
   4   0  -5    0.01    0.04
   4   0  -5   -0.07    0.05
   3   0  -5   85.09    3.45
   3   0  -5   75.23    3.44
  -3   0   5   87.45    3.48
   3   0  -5   74.12    3.43
   3   0  -5   77.44    3.44
  -2   0   5    0.19    0.05
  -2   0   5   -0.03    0.06
   2   0  -5    0.10    0.03
   2   0  -5    0.07    0.05
   2   0  -5   -0.03    0.05
   1   0  -5    4.81    0.26
   1   0  -5    5.20    0.25
   1   0  -5    6.02    0.25
  -1   0   5    4.95    0.26
  -1   0   5    5.59    0.26
   0   0  -5    0.05    0.04
   0   0   5    0.02    0.05
   0   0  -5    0.04    0.04
   0   0   5    0.03    0.06
   0   0  -5    0.01    0.05
   1   0   5    1.17    0.09
  -1   0  -5    1.09    0.10
   1   0   5    1.24    0.11
  -1   0  -5    1.03    0.10
  -1   0  -5    1.06    0.08
  -2   0  -5    0.02    0.03
  -2   0  -5   -0.01    0.06
   2   0   5    0.01    0.06
   2   0   5    0.02    0.06
  -2   0  -5   -0.03    0.05
  -3   0  -5    2.05    0.13
   3   0   5    2.06    0.15
  -3   0  -5    1.95    0.16
  -3   0  -5    2.55    0.11
  -4   0  -5   -0.02    0.02
   4   0   5   -0.01    0.07
   4   0   5    0.04    0.06
  -4   0  -5    0.03    0.09
   5   0   5    0.93    0.09
  -5   0  -5    1.02    0.06
   5   0   5    0.89    0.10
  -5   0  -5    0.97    0.13
   5   0   5    0.65    0.08
  -6   0  -5   -0.01    0.03
   6   0   5    0.03    0.06
   6   0   5    0.02    0.09
   6   0   5   -0.05    0.06
  -6   0  -5    0.17    0.11
  -7   0  -5   55.19    2.35
   7   0   5   52.95    2.37
   7   0   5   58.51    2.37
   7   0   5   53.29    2.38
  -7   0  -5   54.05    2.40
   8   0   5   -0.01    0.07
  -8   0  -5    0.05    0.05
   8   0   5    0.16    0.11
   8   0   5    0.08    0.07
  -8   0  -5    0.18    0.14
   9   0   5   59.39    2.76
   9   0   5   66.68    2.74
  -9   0  -5   64.42    2.79
 -10   0  -5    0.00    0.19
  10   0   5    0.06    0.08
  10   0   5   -0.17    0.15
  11   0   5    1.10    0.18
 -11   0  -5    1.41    0.22
  11   0   5    1.48    0.12
 -12   0  -5    0.13    0.20
  12   0   5   -0.29    0.18
  12   0   5    0.12    0.08
  13   0   5   17.29    0.76
 -13   0  -5   18.48    0.88
  13   0   5   16.41    0.84
  14   0   5   -0.09    0.18
 -14   0  -5    0.03    0.27
  15   0   5   11.59    0.68
 -15   0  -5   14.41    0.76
  15  -1  -5    9.34    0.50
  15   1  -5    8.90    0.52
 -15   1   5    8.56    0.57
  14  -1  -5    3.49    0.30
  14   1  -5    3.13    0.27
 -14   1   5    2.79    0.28
  13  -1  -5    0.76    0.17
 -13  -1   5    0.30    0.19
  13   1  -5    0.66    0.18
 -13   1   5    0.48    0.20
 -12  -1   5    2.53    0.23
  12  -1  -5    3.22    0.24
  12   1  -5    3.06    0.23
 -12   1   5    2.60    0.27
  12   1  -5    3.00    0.24
  11  -1  -5    6.61    0.35
  11  -1  -5    6.46    0.28
 -11  -1   5    5.90    0.37
  11  -1  -5    6.11    0.28
 -11   1   5    5.82    0.41
  11   1  -5    6.34    0.33
  11   1  -5    6.17    0.36
  10  -1  -5    0.46    0.07
  10  -1  -5    0.57    0.13
  10  -1  -5    0.47    0.06
 -10  -1   5    0.34    0.12
  10   1  -5    0.53    0.05
 -10   1   5    0.47    0.15
  10   1  -5    0.61    0.05
  10   1  -5    0.62    0.11
  10   1  -5    0.44    0.15
   9  -1  -5    9.09    0.43
   9  -1  -5    9.07    0.40
  -9  -1   5    8.86    0.44
   9  -1  -5    8.33    0.39
   9   1  -5    8.56    0.39
   9   1  -5    8.58    0.39
  -9   1   5    8.52    0.47
   9   1  -5    8.88    0.42
   9   1  -5    8.74    0.44
   8  -1  -5    0.09    0.05
   8  -1  -5    0.02    0.06
   8  -1  -5    0.11    0.10
  -8  -1   5    0.10    0.10
   8   1  -5    0.07    0.08
   8   1  -5    0.09    0.05
   8   1  -5    0.06    0.10
   8   1  -5    0.12    0.05
  -8   1   5    0.05    0.13
  -8   1   5    0.20    0.08
   7  -1  -5   11.68    0.52
   7  -1  -5   11.22    0.51
  -7  -1   5   11.57    0.53
   7  -1  -5   11.65    0.53
   7   1  -5   11.23    0.51
   7   1  -5   11.54    0.54
   7   1  -5   11.57    0.52
  -7   1   5   11.55    0.55
   7   1  -5   11.58    0.52
  -7   1   5   11.63    0.52
  -6  -1   5    0.20    0.08
   6  -1  -5    0.03    0.05
   6  -1  -5    0.13    0.06
   6  -1  -5    0.13    0.08
   6   1  -5    0.11    0.06
   6   1  -5    0.03    0.06
   6   1  -5    0.09    0.05
  -6   1   5    0.07    0.09
   6   1  -5    0.16    0.08
   5  -1  -5    6.24    0.31
   5  -1  -5    5.92    0.29
  -5  -1   5    6.41    0.30
   5  -1  -5    6.34    0.30
   5   1  -5    6.29    0.29
  -5   1   5    6.23    0.28
  -5   1   5    6.37    0.32
   5   1  -5    6.24    0.30
   5   1  -5    6.28    0.30
   5   1  -5    6.40    0.31
   4  -1  -5    0.16    0.05
   4  -1  -5    0.16    0.06
   4  -1  -5    0.07    0.07
  -4  -1   5    0.17    0.06
   4   1  -5    0.29    0.06
   4   1  -5    0.21    0.08
   4   1  -5    0.10    0.05
  -4   1   5    0.22    0.08
   4   1  -5    0.20    0.06
   3  -1  -5   32.03    1.41
  -3  -1   5   34.00    1.41
   3  -1  -5   32.55    1.41
   3   1  -5   32.77    1.41
  -3   1   5   30.32    1.41
   3   1  -5   32.01    1.42
   3   1  -5   32.48    1.41
  -3   1   5   34.61    1.42
   3   1  -5   31.82    1.41
  -2  -1   5   47.77    2.21
   2  -1  -5   51.49    2.21
   2  -1  -5   54.40    2.20
   2  -1  -5   50.77    2.20
  -2  -1   5   52.25    2.21
  -2   1   5   49.82    2.21
  -2   1   5   53.05    2.21
   2   1  -5   50.48    2.21
   2   1  -5   50.32    2.20
   2   1  -5   50.82    2.21
   1  -1  -5    3.52    0.18
  -1  -1   5    3.27    0.20
   1  -1  -5    3.86    0.17
  -1  -1   5    3.46    0.18
   1  -1  -5    3.53    0.19
  -1   1   5    3.63    0.19
  -1   1   5    3.78    0.19
   1   1  -5    3.74    0.18
   1   1  -5    3.50    0.19
   1   1  -5    3.31    0.18
   0  -1   5    2.37    0.15
   0  -1  -5    1.97    0.13
   0  -1  -5    2.02    0.12
   0  -1  -5    2.10    0.12
   0  -1   5    2.20    0.13
   0   1   5    2.13    0.14
   0   1   5    2.19    0.14
   0   1  -5    2.09    0.12
   0   1  -5    2.19    0.13
   0   1  -5    2.20    0.13
  -1  -1  -5   87.75    3.89
  -1  -1  -5   89.75    3.89
   1  -1   5   90.12    3.88
  -1  -1  -5   87.80    3.90
   1  -1   5   89.04    3.87
  -1   1  -5   94.82    4.19
   1   1   5   90.50    3.91
   1   1   5   90.46    3.89
  -1   1  -5   88.97    3.88
  -2  -1  -5   29.95    1.35
   2  -1   5   30.44    1.36
  -2  -1  -5   31.71    1.35
   2  -1   5   31.01    1.36
   2   1   5   30.85    1.36
  -2   1  -5   32.62    1.36
   2   1   5   33.23    1.36
   2   1   5   29.35    1.35
  -3  -1  -5  104.09    4.34
   3  -1   5  104.98    4.30
  -3  -1  -5   91.42    4.32
   3  -1   5  104.07    4.38
   3  -1   5   95.17    4.33
  -3   1  -5  101.47    4.32
   3   1   5  102.10    4.37
   3   1   5   98.90    4.33
   3   1   5  100.69    4.36
   4  -1   5    9.73    0.48
  -4  -1  -5   10.50    0.45
   4  -1   5   10.18    0.48
  -4   1  -5   10.07    0.47
   4   1   5   10.55    0.48
   4   1   5   10.42    0.47
  -4   1  -5   10.10    0.49
   4   1   5   10.39    0.47
   5  -1   5    3.90    0.23
  -5  -1  -5    4.00    0.19
   5  -1   5    3.76    0.22
   5  -1   5    3.40    0.20
  -5   1  -5    3.83    0.24
   5   1   5    3.86    0.21
   5   1   5    3.70    0.21
   5   1   5    3.76    0.22
  -6  -1  -5    9.93    0.40
   6  -1   5    8.61    0.45
   6  -1   5    8.17    0.41
   6  -1   5    8.98    0.42
   6   1   5    8.99    0.41
  -6   1  -5    8.44    0.45
   6   1   5    8.24    0.42
   6   1   5    9.04    0.42
   6   1   5    9.36    0.43
  -7  -1  -5   13.13    0.56
   7  -1   5   11.96    0.60
   7  -1   5   10.86    0.57
   7  -1   5   13.75    0.58
   7   1   5   12.88    0.59
   7   1   5   12.99    0.57
   7   1   5   11.89    0.57
   7   1   5   13.24    0.58
  -7   1  -5   12.68    0.62
   8  -1   5   13.83    0.70
  -8  -1  -5   15.01    0.65
   8  -1   5   14.44    0.67
   8   1   5   14.83    0.69
  -8   1  -5   14.66    0.72
   8   1   5   14.22    0.66
   8   1   5   14.97    0.66
   8   1   5   16.00    0.69
   9  -1   5    4.34    0.31
   9  -1   5    4.97    0.27
  -9  -1  -5    4.57    0.24
  -9   1  -5    4.95    0.37
   9   1   5    4.70    0.30
   9   1   5    4.88    0.25
   9   1   5    4.74    0.33
  10  -1   5    4.98    0.35
  10  -1   5    5.65    0.30
  10   1   5    5.48    0.34
  10   1   5    5.67    0.28
 -10   1  -5    5.48    0.38
  10   1   5    5.08    0.34
  11  -1   5    1.19    0.12
 -11  -1  -5    1.57    0.25
  11  -1   5    0.84    0.19
  11   1   5    1.13    0.16
 -11   1  -5    1.33    0.24
  11   1   5    1.29    0.21
  11   1   5    1.31    0.10
  12  -1   5    0.17    0.18
 -12  -1  -5    0.38    0.25
  12  -1   5    0.17    0.10
 -12   1  -5    0.31    0.23
  12   1   5    0.42    0.08
  12   1   5    0.19    0.17
  13  -1   5    8.49    0.41
 -13  -1  -5    9.57    0.59
  13  -1   5    7.84    0.53
  13   1   5    7.96    0.49
 -13   1  -5    9.05    0.57
  13   1   5    9.10    0.40
  14  -1   5    2.39    0.29
  14  -1   5    2.91    0.17
 -14  -1  -5    3.09    0.33
 -14   1  -5    3.17    0.33
  14   1   5    2.61    0.26
 -15  -1  -5    5.29    0.44
  15  -1   5    4.07    0.36
 -15   1  -5    5.49    0.49
  15  -2  -5    0.60    0.17
 -15  -2   5    0.60    0.25
 -15   2   5    0.45    0.27
 -14  -2   5    0.53    0.24
  14  -2  -5    0.90    0.17
 -14   2   5    0.48    0.26
 -13  -2   5    1.07    0.23
  13  -2  -5    1.17    0.09
  13  -2  -5    0.96    0.16
 -13   2   5    0.65    0.25
  13   2  -5    0.89    0.19
  13   2  -5    1.22    0.18
  12  -2  -5    0.88    0.08
  12  -2  -5    0.79    0.14
 -12   2   5    0.69    0.23
  12   2  -5    0.59    0.19
  12   2  -5    1.05    0.16
  11  -2  -5    8.64    0.43
  11  -2  -5    9.03    0.39
  11   2  -5    8.70    0.44
  11   2  -5    8.57    0.45
  11   2  -5    7.92    0.37
 -11   2   5    7.72    0.51
  11   2  -5    7.98    0.37
  10  -2  -5    3.58    0.21
  10  -2  -5    3.54    0.23
  10   2  -5    3.67    0.19
 -10   2   5    3.79    0.31
  10   2  -5    3.54    0.19
  10   2  -5    3.96    0.27
  10   2  -5    3.63    0.25
  -9  -2   5    1.69    0.14
   9  -2  -5    2.08    0.16
   9  -2  -5    1.68    0.15
   9   2  -5    1.87    0.14
   9   2  -5    1.73    0.15
  -9   2   5    1.87    0.20
   9   2  -5    1.84    0.14
   9   2  -5    1.87    0.17
   8  -2  -5   54.30    2.32
  -8  -2   5   52.42    2.32
   8  -2  -5   52.40    2.32
   8   2  -5   55.65    2.32
   8   2  -5   51.79    2.32
   8   2  -5   56.40    2.33
   8   2  -5   54.32    2.31
  -8   2   5   51.40    2.34
   7  -2  -5    1.11    0.10
   7  -2  -5    1.33    0.13
  -7  -2   5    1.14    0.11
   7   2  -5    1.61    0.13
   7   2  -5    1.30    0.11
   7   2  -5    1.24    0.10
   7   2  -5    1.17    0.13
  -7   2   5    1.10    0.15
   6  -2  -5    4.32    0.23
  -6  -2   5    4.30    0.23
   6  -2  -5    4.77    0.24
  -6   2   5    4.37    0.27
   6   2  -5    4.57    0.26
   6   2  -5    4.60    0.24
   6   2  -5    4.78    0.23
   6   2  -5    4.43    0.24
   5  -2  -5    5.94    0.30
  -5  -2   5    6.24    0.29
   5  -2  -5    6.23    0.31
   5  -2  -5    5.80    0.30
  -5   2   5    6.03    0.32
   5   2  -5    6.61    0.31
   5   2  -5    6.31    0.30
   5   2  -5    6.29    0.30
   5   2  -5    6.12    0.31
   4  -2  -5   55.21    2.42
   4  -2  -5   55.28    2.42
  -4  -2   5   56.07    2.42
   4   2  -5   56.46    2.42
  -4   2   5   56.19    2.43
   4   2  -5   58.11    2.42
   4   2  -5   58.14    2.43
   4   2  -5   53.35    2.42
  -3  -2   5   17.24    0.85
   3  -2  -5   19.66    0.86
  -3  -2   5   19.35    0.85
   3  -2  -5   19.89    0.85
  -3   2   5   20.63    0.87
  -3   2   5   19.74    0.86
   3   2  -5   19.33    0.85
   3   2  -5   19.35    0.85
   3   2  -5   18.96    0.85
  -2  -2   5    0.46    0.08
   2  -2  -5    0.51    0.07
  -2  -2   5    0.39    0.06
   2  -2  -5    0.35    0.07
  -2   2   5    0.52    0.05
   2   2  -5    0.38    0.07
  -2   2   5    0.42    0.08
  -2   2   5    0.47    0.07
   2   2  -5    0.35    0.07
   2   2  -5    0.38    0.07
  -1  -2   5    7.44    0.37
  -1  -2   5    8.11    0.37
   1  -2  -5    8.20    0.37
   1  -2  -5    8.29    0.37
  -1  -2   5    7.81    0.38
   1   2  -5    8.05    0.38
   1   2  -5    8.15    0.37
  -1   2   5    7.99    0.38
  -1   2   5    8.19    0.38
  -1   2   5    7.87    0.36
   0  -2   5    8.29    0.38
   0  -2  -5    8.44    0.39
   0  -2   5    7.96    0.39
   0  -2   5    8.21    0.39
   0  -2  -5    8.43    0.38
   0   2  -5    8.56    0.39
   0   2   5    7.99    0.37
   0   2  -5    8.22    0.39
   0   2   5    8.27    0.38
   0   2   5    8.20    0.39
   1  -2   5    9.95    0.47
   1  -2   5   10.41    0.46
  -1  -2  -5   10.84    0.47
   1  -2   5   10.09    0.48
  -1  -2  -5    9.86    0.46
   1   2   5   10.76    0.47
  -1   2  -5   10.21    0.47
   1   2   5   10.18    0.46
   1   2   5   10.69    0.47
  -1   2  -5   10.33    0.48
  -2  -2  -5    0.07    0.06
   2  -2   5    0.06    0.04
   2  -2   5    0.11    0.07
   2  -2   5   -0.05    0.08
  -2  -2  -5    0.06    0.06
   2   2   5   -0.03    0.06
   2   2   5    0.13    0.07
   2   2   5    0.14    0.07
  -2   2  -5    0.00    0.06
  -2   2  -5    0.14    0.08
   3  -2   5    1.01    0.11
   3  -2   5    1.16    0.08
  -3  -2  -5    0.93    0.09
   3  -2   5    0.95    0.11
  -3  -2  -5    0.99    0.09
  -3   2  -5    1.27    0.12
   3   2   5    0.95    0.10
  -3   2  -5    1.04    0.10
   3   2   5    1.26    0.10
   3   2   5    1.15    0.10
  -4  -2  -5   23.94    1.05
   4  -2   5   23.50    1.06
   4  -2   5   22.37    1.06
   4  -2   5   25.16    1.03
  -4  -2  -5   24.36    1.04
  -4   2  -5   23.35    1.05
   4   2   5   24.53    1.05
   4   2   5   24.14    1.05
   4   2   5   23.42    1.05
   5  -2   5   16.97    0.75
   5  -2   5   18.59    0.79
   5  -2   5   17.30    0.80
  -5  -2  -5   17.78    0.78
   5   2   5   17.55    0.79
   5   2   5   18.44    0.78
  -5   2  -5   17.63    0.80
   5   2   5   17.11    0.78
   5   2   5   16.60    0.78
  -5   2  -5   17.37    0.78
   6  -2   5    0.52    0.11
   6  -2   5    0.44    0.12
  -6  -2  -5    0.48    0.08
   6   2   5    0.62    0.09
   6   2   5    0.45    0.10
   6   2   5    0.95    0.12
  -6   2  -5    0.52    0.13
  -7  -2  -5   16.57    0.76
   7  -2   5   16.31    0.79
   7  -2   5   17.65    0.78
   7   2   5   17.96    0.77
   7   2   5   17.23    0.78
  -7   2  -5   16.17    0.81
   7   2   5   17.39    0.76
  -8  -2  -5   27.36    1.20
   8  -2   5   28.58    1.22
   8  -2   5   27.22    1.23
   8   2   5   28.21    1.21
   8   2   5   27.34    1.22
   8   2   5   27.53    1.20
  -8   2  -5   25.45    1.24
  -9  -2  -5    8.20    0.40
   9  -2   5    8.36    0.42
   9  -2   5    8.06    0.47
   9   2   5    8.70    0.43
   9   2   5    8.65    0.40
  -9   2  -5    7.42    0.50
 -10  -2  -5   10.40    0.50
  10  -2   5   10.35    0.51
  10  -2   5   10.18    0.57
  10   2   5   10.77    0.52
  10   2   5   10.05    0.49
  10   2   5   11.12    0.55
 -10   2  -5   10.01    0.58
  11  -2   5    0.45    0.20
  11  -2   5    0.90    0.13
 -11   2  -5    0.79    0.22
  11   2   5    0.88    0.10
  11   2   5    0.75    0.15
  11   2   5    0.96    0.18
  12  -2   5    2.02    0.16
  12  -2   5    1.72    0.26
  12   2   5    1.99    0.23
 -12   2  -5    1.68    0.26
  12   2   5    1.61    0.19
  12   2   5    1.76    0.15
  13  -2   5   -0.04    0.20
  13  -2   5    0.01    0.11
  13   2   5    0.18    0.07
 -13   2  -5    0.05    0.25
  13   2   5    0.11    0.22
  14  -2   5   12.85    0.61
  14  -2   5   12.00    0.71
  14   2   5   14.00    0.72
 -14   2  -5   14.75    0.76
  14   2   5   13.77    0.59
  15  -2   5    0.79    0.09
 -15  -2  -5    0.60    0.34
  15  -2   5    0.08    0.27
 -15   2  -5    0.50    0.29
 -14  -3   5    2.91    0.32
  14  -3  -5    2.98    0.23
  14  -3  -5    2.39    0.17
 -14   3   5    2.11    0.31
  14   3  -5    3.41    0.31
 -13  -3   5    0.06    0.24
  13  -3  -5    0.05    0.09
  13  -3  -5    0.05    0.14
  13   3  -5    0.23    0.17
 -13   3   5    0.09    0.24
  12  -3  -5    0.15    0.12
 -12  -3   5    0.11    0.23
  12  -3  -5    0.14    0.10
  12   3  -5    0.14    0.06
  12   3  -5    0.28    0.15
 -12   3   5   -0.23    0.25
  11  -3  -5    0.49    0.11
 -11  -3   5    0.61    0.20
  11  -3  -5    0.53    0.13
 -11   3   5    0.33    0.23
  11   3  -5    0.52    0.15
  11   3  -5    0.55    0.08
 -10  -3   5    4.74    0.36
  10  -3  -5    4.79    0.27
  10  -3  -5    5.14    0.30
  10   3  -5    4.37    0.29
 -10   3   5    4.60    0.37
  10   3  -5    4.63    0.25
   9  -3  -5    3.52    0.23
  -9  -3   5    3.97    0.30
   9  -3  -5    3.66    0.26
  -9   3   5    3.85    0.32
   9   3  -5    3.84    0.22
   9   3  -5    3.37    0.26
   8  -3  -5    1.88    0.18
  -8  -3   5    2.25    0.23
   8  -3  -5    2.08    0.17
  -8   3   5    1.71    0.20
   8   3  -5    1.82    0.16
   8   3  -5    1.86    0.18
   7  -3  -5    2.96    0.21
  -7  -3   5    2.16    0.21
   7  -3  -5    2.16    0.19
   7   3  -5    2.42    0.18
  -7   3   5    2.41    0.22
   7   3  -5    2.15    0.19
  -6  -3   5    1.27    0.18
   6  -3  -5    0.89    0.12
   6  -3  -5    1.16    0.11
   6   3  -5    0.95    0.13
  -6   3   5    1.00    0.15
   6   3  -5    1.01    0.11
  -5  -3   5   12.41    0.61
  -5  -3   5   12.50    0.57
   5  -3  -5   12.58    0.58
   5  -3  -5   13.00    0.59
   5   3  -5   13.16    0.59
  -5   3   5   12.79    0.60
   5   3  -5   12.84    0.59
  -4  -3   5   14.00    0.64
  -4  -3   5   13.79    0.67
   4  -3  -5   14.29    0.65
   4  -3  -5   14.62    0.65
   4   3  -5   14.88    0.66
  -4   3   5   14.00    0.66
   4   3  -5   14.27    0.66
  -4   3   5   14.86    0.63
  -4   3   5   15.14    0.67
  -3  -3   5    2.67    0.21
   3  -3  -5    3.28    0.19
  -3  -3   5    2.72    0.20
   3  -3  -5    2.98    0.20
  -3  -3   5    2.94    0.18
  -3   3   5    3.11    0.22
  -3   3   5    2.92    0.20
  -3   3   5    3.11    0.15
   3   3  -5    3.00    0.20
   3   3  -5    3.04    0.19
   2  -3  -5   16.62    0.73
   2  -3  -5   16.10    0.73
  -2  -3   5   15.07    0.72
  -2  -3   5   15.56    0.73
  -2  -3   5   15.68    0.74
  -2   3   5   16.75    0.71
  -2   3   5   16.73    0.74
  -2   3   5   16.93    0.73
   2   3  -5   16.58    0.73
   2   3  -5   16.23    0.73
  -1  -3   5   33.14    1.53
  -1  -3   5   35.09    1.54
   1  -3  -5   35.40    1.54
  -1  -3   5   34.59    1.55
   1  -3  -5   34.95    1.54
   1   3  -5   34.71    1.54
  -1   3   5   36.15    1.53
  -1   3   5   36.81    1.54
  -1   3   5   36.01    1.55
   1   3  -5   36.55    1.55
   0  -3  -5    7.06    0.35
   0  -3   5    6.87    0.36
   0  -3  -5    7.30    0.35
   0  -3   5    7.13    0.35
   0  -3   5    6.64    0.34
   0   3   5    7.14    0.36
   0   3  -5    7.26    0.35
   0   3  -5    6.92    0.35
   0   3   5    7.08    0.33
   0   3   5    7.87    0.34
   1  -3   5    0.48    0.09
   1  -3   5    0.41    0.11
  -1  -3  -5    0.38    0.09
   1  -3   5    0.51    0.08
  -1  -3  -5    0.33    0.09
  -1   3  -5    0.46    0.10
   1   3   5    0.36    0.07
   1   3   5    0.46    0.09
  -1   3  -5    0.40    0.10
   1   3   5    0.36    0.08
   2  -3   5   64.99    2.78
   2  -3   5   61.70    2.79
  -2  -3  -5   66.06    2.79
   2  -3   5   62.47    2.79
  -2  -3  -5   64.21    2.78
  -2   3  -5   64.27    2.79
  -2   3  -5   63.17    2.79
   2   3   5   64.40    2.78
   2   3   5   66.58    2.78
   2   3   5   66.69    2.79
  -3  -3  -5    1.64    0.13
   3  -3   5    1.39    0.14
   3  -3   5    1.49    0.12
  -3  -3  -5    1.22    0.12
   3  -3   5    1.25    0.14
   3   3   5    1.23    0.12
   3   3   5    1.65    0.13
   3   3   5    1.57    0.13
  -3   3  -5    1.72    0.14
  -3   3  -5    1.39    0.15
   4  -3   5   16.82    0.72
   4  -3   5   16.39    0.75
  -4  -3  -5   16.91    0.74
  -4  -3  -5   16.08    0.74
   4  -3   5   16.18    0.76
  -4   3  -5   15.96    0.75
  -4   3  -5   16.79    0.76
   4   3   5   16.99    0.74
   4   3   5   15.73    0.74
   4   3   5   16.69    0.75
   5  -3   5    6.99    0.38
   5  -3   5    6.99    0.39
   5  -3   5    6.97    0.32
  -5  -3  -5    6.96    0.36
  -5   3  -5    7.26    0.38
   5   3   5    7.42    0.36
   5   3   5    7.17    0.35
   5   3   5    6.80    0.36
   6  -3   5    4.17    0.28
  -6  -3  -5    3.84    0.25
   6  -3   5    4.32    0.28
   6   3   5    4.11    0.24
  -6   3  -5    4.46    0.31
   6   3   5    4.12    0.25
   7  -3   5   28.72    1.28
  -7  -3  -5   27.63    1.26
   7  -3   5   29.10    1.27
  -7   3  -5   28.58    1.29
   7   3   5   28.22    1.25
   7   3   5   29.07    1.26
   7   3   5   28.41    1.27
   8  -3   5    3.25    0.29
   8  -3   5    3.59    0.27
  -8  -3  -5    3.31    0.25
   8   3   5    3.83    0.28
  -8   3  -5    3.79    0.34
   8   3   5    3.32    0.23
   8   3   5    3.41    0.23
  -9  -3  -5    0.15    0.11
   9  -3   5   -0.02    0.12
   9  -3   5   -0.02    0.16
   9   3   5    0.25    0.16
  -9   3  -5    0.03    0.19
   9   3   5   -0.03    0.10
 -10  -3  -5    0.21    0.13
  10  -3   5    0.32    0.13
  10  -3   5    0.22    0.20
 -10   3  -5    0.20    0.23
  10   3   5    0.32    0.11
  10   3   5    0.34    0.18
 -11  -3  -5   15.98    0.73
  11  -3   5   15.56    0.73
  11  -3   5   15.66    0.80
  11   3   5   15.74    0.77
  11   3   5   15.85    0.71
 -11   3  -5   14.72    0.80
  12  -3   5    3.23    0.26
  12  -3   5    2.77    0.29
  12   3   5    3.28    0.22
 -12   3  -5    2.64    0.31
  12   3   5    2.91    0.27
  13  -3   5    1.09    0.15
  13  -3   5    1.10    0.28
 -13   3  -5    1.53    0.31
  13   3   5    1.09    0.11
  13   3   5    1.20    0.22
  14  -3   5    3.35    0.27
  14  -3   5    3.11    0.34
 -14   3  -5    3.76    0.37
  14   3   5    3.50    0.20
  14   3   5    3.16    0.32
  13  -4  -5    1.09    0.14
 -13  -4   5    0.88    0.30
  13  -4  -5    1.21    0.17
 -13   4   5    0.63    0.31
  13   4  -5    1.41    0.21
  13   4  -5    0.91    0.10
  12  -4  -5    3.50    0.26
  12  -4  -5    4.06    0.29
 -12  -4   5    3.55    0.36
  12   4  -5    3.90    0.32
 -12   4   5    3.10    0.33
  12   4  -5    3.14    0.22
  11  -4  -5    2.51    0.21
  11  -4  -5    2.24    0.18
 -11  -4   5    2.21    0.30
  11   4  -5    1.74    0.20
 -11   4   5    1.82    0.28
  11   4  -5    2.21    0.20
  10  -4  -5    8.95    0.44
 -10  -4   5    8.62    0.55
  10  -4  -5    9.18    0.44
  10   4  -5    7.80    0.41
  10   4  -5    8.08    0.46
 -10   4   5    7.98    0.55
   9  -4  -5   10.88    0.53
  -9  -4   5   11.24    0.60
   9  -4  -5   11.29    0.54
   9   4  -5   10.74    0.55
  -9   4   5   10.43    0.59
   9   4  -5   10.41    0.51
  -8  -4   5    0.35    0.22
   8  -4  -5   -0.11    0.13
   8  -4  -5    0.03    0.11
  -8   4   5   -0.01    0.19
   8   4  -5    0.03    0.14
   8   4  -5    0.02    0.10
   7  -4  -5    8.93    0.45
   7  -4  -5    9.83    0.47
  -7  -4   5    9.12    0.52
  -7   4   5    9.25    0.50
   7   4  -5    8.92    0.46
   7   4  -5    9.17    0.45
   6  -4  -5    0.41    0.12
  -6  -4   5    0.25    0.20
   6  -4  -5    0.63    0.12
  -6   4   5    0.52    0.15
   6   4  -5    0.34    0.13
   6   4  -5    0.46    0.11
  -5  -4   5   10.15    0.56
   5  -4  -5   10.67    0.51
   5  -4  -5   10.53    0.50
   5   4  -5   10.11    0.51
   5   4  -5   10.71    0.51
  -5   4   5   10.67    0.53
  -4  -4   5   10.13    0.55
   4  -4  -5   10.28    0.50
   4  -4  -5   10.33    0.51
   4   4  -5   10.53    0.51
   4   4  -5   10.57    0.50
  -4   4   5   10.41    0.52
  -3  -4   5    3.04    0.26
   3  -4  -5    3.14    0.22
   3  -4  -5    3.07    0.23
   3   4  -5    2.99    0.22
   3   4  -5    3.32    0.23
  -3   4   5    3.12    0.18
  -3   4   5    3.20    0.22
  -2  -4   5   16.03    0.77
  -2  -4   5   16.55    0.73
   2  -4  -5   17.08    0.76
   2  -4  -5   16.80    0.76
  -2   4   5   16.65    0.77
   2   4  -5   16.88    0.76
  -2   4   5   16.77    0.76
   2   4  -5   16.22    0.76
  -2   4   5   16.64    0.74
  -1  -4   5    9.61    0.47
   1  -4  -5    9.68    0.47
  -1  -4   5    9.57    0.44
  -1  -4   5    9.24    0.46
   1  -4  -5    9.15    0.46
   1   4  -5    9.64    0.47
  -1   4   5    9.80    0.44
  -1   4   5    9.98    0.46
  -1   4   5    9.10    0.47
   1   4  -5    9.27    0.46
   0  -4   5    9.69    0.44
   0  -4   5    8.72    0.46
   0  -4  -5   10.24    0.46
   0  -4   5    8.95    0.47
   0  -4  -5    9.32    0.47
   0   4   5    9.58    0.45
   0   4   5    9.75    0.44
   0   4   5   10.29    0.47
   0   4  -5    9.06    0.46
   0   4  -5    9.00    0.46
  -1  -4  -5   10.88    0.51
   1  -4   5   10.09    0.52
   1  -4   5   10.87    0.50
   1  -4   5   10.53    0.50
  -1  -4  -5   10.50    0.50
  -1   4  -5   10.34    0.51
   1   4   5   10.45    0.49
   1   4   5   10.88    0.49
  -1   4  -5   10.78    0.51
   1   4   5   10.54    0.51
   2  -4   5    6.47    0.34
   2  -4   5    6.12    0.37
   2  -4   5    6.32    0.33
  -2  -4  -5    6.52    0.34
  -2  -4  -5    6.75    0.35
  -2   4  -5    6.60    0.35
   2   4   5    6.57    0.33
   2   4   5    6.71    0.33
  -2   4  -5    6.24    0.35
   2   4   5    6.46    0.35
   3  -4   5    2.82    0.25
  -3  -4  -5    3.19    0.24
   3  -4   5    2.86    0.22
   3  -4   5    2.67    0.19
   3   4   5    3.08    0.20
   3   4   5    2.82    0.21
   3   4   5    2.61    0.22
  -3   4  -5    2.82    0.23
  -3   4  -5    3.15    0.23
   4  -4   5    6.89    0.38
   4  -4   5    7.32    0.35
   4  -4   5    7.48    0.40
  -4  -4  -5    7.41    0.39
   4   4   5    7.63    0.36
   4   4   5    7.48    0.38
  -4   4  -5    7.56    0.41
   4   4   5    7.13    0.38
   5  -4   5    7.32    0.40
   5  -4   5    6.88    0.40
  -5  -4  -5    7.14    0.38
   5   4   5    6.75    0.37
   5   4   5    7.23    0.38
  -5   4  -5    6.98    0.41
   5   4   5    7.29    0.35
   6  -4   5   23.91    1.09
   6  -4   5   24.72    1.09
  -6  -4  -5   23.23    1.07
  -6   4  -5   23.85    1.10
   6   4   5   24.09    1.07
   6   4   5   23.70    1.08
   7  -4   5    0.92    0.19
  -7  -4  -5    0.77    0.15
   7  -4   5    0.85    0.16
   7  -4   5    0.98    0.16
  -7   4  -5    0.81    0.19
   7   4   5    0.76    0.16
   7   4   5    0.72    0.13
  -8  -4  -5    9.88    0.50
   8  -4   5   10.38    0.55
   8  -4   5   10.01    0.52
  -8   4  -5    9.01    0.53
   8   4   5    9.52    0.49
   8   4   5    9.89    0.50
  -9  -4  -5    1.38    0.17
   9  -4   5    1.37    0.18
   9  -4   5    1.29    0.21
   9   4   5    1.35    0.15
   9   4   5    1.13    0.19
  -9   4  -5    1.43    0.24
  10  -4   5    2.30    0.21
 -10  -4  -5    2.16    0.21
  10  -4   5    2.18    0.25
  10   4   5    1.86    0.24
 -10   4  -5    1.89    0.28
  10   4   5    1.95    0.17
 -11  -4  -5    1.18    0.19
  11  -4   5    0.96    0.18
  11  -4   5    1.16    0.27
 -11   4  -5    1.13    0.27
  11   4   5    1.06    0.14
  11   4   5    1.21    0.21
  12  -4   5    0.29    0.16
  12  -4   5   -0.02    0.26
  12   4   5    0.19    0.12
  12   4   5    0.33    0.22
 -12   4  -5    0.11    0.26
  13  -4   5    5.80    0.38
  13  -4   5    5.59    0.52
  13   4   5    5.44    0.32
  13   4   5    5.87    0.42
 -13   4  -5    5.21    0.50
 -11  -5   5   -0.15    0.29
  11  -5  -5   -0.05    0.15
  11  -5  -5    0.03    0.16
 -11   5   5    0.00    0.27
  11   5  -5    0.10    0.12
  11   5  -5    0.13    0.17
  10  -5  -5    0.71    0.18
 -10  -5   5    0.36    0.30
  10  -5  -5    0.18    0.15
  10   5  -5    0.21    0.13
 -10   5   5    0.40    0.24
  10   5  -5    0.34    0.17
   9  -5  -5    0.29    0.14
   9  -5  -5    0.43    0.15
  -9  -5   5    0.53    0.29
   9   5  -5    0.32    0.13
  -9   5   5    0.33    0.24
   9   5  -5    0.65    0.17
  -8  -5   5    4.86    0.39
   8  -5  -5    5.08    0.33
   8  -5  -5    4.41    0.32
  -8   5   5    4.14    0.40
   8   5  -5    4.66    0.31
   8   5  -5    4.70    0.33
   7  -5  -5    1.28    0.17
   7  -5  -5    1.01    0.15
  -7  -5   5    1.21    0.28
  -7   5   5    0.91    0.20
   7   5  -5    0.89    0.15
   7   5  -5    1.22    0.20
   6  -5  -5   13.96    0.65
   6  -5  -5   13.46    0.65
  -6  -5   5   13.36    0.73
   6   5  -5   14.12    0.65
  -6   5   5   12.90    0.68
   6   5  -5   13.60    0.66
  -5  -5   5    0.53    0.21
   5  -5  -5    0.44    0.14
   5  -5  -5    0.63    0.16
   5   5  -5    0.41    0.14
   5   5  -5    0.55    0.17
  -5   5   5    0.49    0.15
   4  -5  -5    9.33    0.47
   4  -5  -5    9.12    0.47
  -4  -5   5    9.11    0.51
   4   5  -5    8.67    0.48
   4   5  -5    9.39    0.49
  -4   5   5    9.26    0.48
   3  -5  -5    6.81    0.39
   3  -5  -5    7.53    0.41
  -3  -5   5    6.48    0.44
   3   5  -5    6.82    0.40
  -3   5   5    7.24    0.40
   3   5  -5    7.28    0.39
   2  -5  -5    9.14    0.46
   2  -5  -5    8.65    0.46
  -2  -5   5    8.89    0.48
   2   5  -5    9.16    0.47
   2   5  -5    9.00    0.46
  -2   5   5    9.08    0.45
  -2   5   5    8.45    0.43
   1  -5  -5    0.40    0.15
  -1  -5   5    0.54    0.15
   1  -5  -5    0.25    0.12
  -1   5   5    0.39    0.10
   1   5  -5    0.31    0.15
   1   5  -5    0.36    0.14
  -1   5   5    0.44    0.12
   0  -5   5   14.16    0.68
   0  -5  -5   14.45    0.68
   0  -5  -5   14.86    0.69
   0   5  -5   14.13    0.69
   0   5   5   14.67    0.67
   0   5   5   14.96    0.70
   0   5   5   14.30    0.66
   0   5  -5   14.61    0.69
   1  -5   5    5.55    0.37
   1  -5   5    6.26    0.33
  -1  -5  -5    6.43    0.38
   1  -5   5    6.11    0.32
   1   5   5    6.03    0.32
   1   5   5    5.68    0.32
   1   5   5    5.80    0.36
  -1   5  -5    6.09    0.35
  -1   5  -5    5.85    0.35
   2  -5   5    2.11    0.19
  -2  -5  -5    2.48    0.22
   2  -5   5    2.42    0.21
   2  -5   5    1.95    0.17
   2   5   5    2.59    0.21
  -2   5  -5    2.14    0.21
   2   5   5    2.19    0.21
   3  -5   5    7.62    0.45
   3  -5   5    7.61    0.40
  -3  -5  -5    8.87    0.46
   3  -5   5    8.20    0.43
  -3   5  -5    8.18    0.44
   3   5   5    8.31    0.44
   3   5   5    8.21    0.42
   4  -5   5    4.19    0.28
   4  -5   5    4.06    0.25
   4  -5   5    4.40    0.32
  -4  -5  -5    4.23    0.32
  -4   5  -5    4.15    0.32
   4   5   5    3.56    0.26
   4   5   5    3.81    0.29
  -5  -5  -5    3.18    0.24
   5  -5   5    3.16    0.25
   5  -5   5    2.99    0.28
   5   5   5    2.62    0.26
  -5   5  -5    2.91    0.28
   5   5   5    2.64    0.22
  -6  -5  -5   11.60    0.59
   6  -5   5   12.27    0.61
   6  -5   5   12.11    0.62
   6   5   5   12.17    0.58
   6   5   5   11.72    0.60
  -6   5  -5   11.37    0.62
   7  -5   5    4.55    0.36
   7  -5   5    4.03    0.35
  -7  -5  -5    3.74    0.32
   7   5   5    3.63    0.30
   7   5   5    4.08    0.30
  -7   5  -5    4.15    0.37
  -8  -5  -5    0.54    0.16
   8  -5   5    0.49    0.18
   8  -5   5    0.58    0.19
  -8   5  -5    0.33    0.22
   8   5   5    0.44    0.14
   8   5   5    0.69    0.19
   9  -5   5    0.10    0.18
   9  -5   5    0.11    0.22
  -9  -5  -5    0.17    0.18
  -9   5  -5    0.13    0.20
   9   5   5    0.08    0.14
   9   5   5    0.38    0.19
  10  -5   5   13.52    0.67
  10  -5   5   13.08    0.71
 -10  -5  -5   13.27    0.65
  10   5   5   11.63    0.62
  10   5   5   12.73    0.67
 -10   5  -5   12.10    0.70
  11  -5   5    0.01    0.19
 -11  -5  -5    0.01    0.19
  11  -5   5    0.21    0.27
  11   5   5   -0.04    0.22
 -11   5  -5    0.01    0.25
  11   5   5   -0.01    0.13
   9  -6  -5    0.24    0.18
  -9  -6   5    0.23    0.33
   9  -6  -5    0.16    0.17
  -9   6   5    0.19    0.26
   9   6  -5    0.14    0.21
   9   6  -5    0.02    0.16
  -8  -6   5    1.55    0.31
   8  -6  -5    1.31    0.20
   8  -6  -5    1.26    0.20
   8   6  -5    1.50    0.24
  -8   6   5    1.44    0.27
   8   6  -5    1.46    0.19
  -7  -6   5    0.13    0.29
   7  -6  -5    0.10    0.16
   7  -6  -5    0.06    0.18
  -7   6   5    0.18    0.22
   7   6  -5    0.16    0.18
   7   6  -5    0.19    0.16
   6  -6  -5   -0.16    0.15
   6  -6  -5    0.39    0.18
  -6  -6   5    0.20    0.24
  -6   6   5   -0.08    0.19
   6   6  -5    0.04    0.20
   6   6  -5    0.47    0.17
   5  -6  -5    0.03    0.15
   5  -6  -5   -0.10    0.17
  -5  -6   5   -0.09    0.25
   5   6  -5   -0.04    0.16
   5   6  -5    0.03    0.17
  -5   6   5   -0.17    0.18
  -4  -6   5    0.09    0.21
   4  -6  -5    0.07    0.15
   4  -6  -5    0.56    0.19
   4   6  -5    0.39    0.19
  -4   6   5    0.25    0.16
   4   6  -5   -0.07    0.16
   3  -6  -5    2.55    0.21
   3  -6  -5    2.04    0.22
  -3  -6   5    2.47    0.26
   3   6  -5    2.62    0.24
  -3   6   5    2.43    0.22
   3   6  -5    2.41    0.23
   2  -6  -5    7.16    0.44
  -2  -6   5    7.98    0.47
   2  -6  -5    7.69    0.44
   2   6  -5    7.72    0.45
   2   6  -5    7.76    0.46
  -2   6   5    7.43    0.42
   1  -6  -5    0.96    0.19
  -1  -6   5    1.06    0.19
   1   6  -5    0.71    0.18
   1   6  -5    0.96    0.20
   0  -6   5   18.66    0.89
   0  -6  -5   19.68    0.90
   0   6   5   19.14    0.88
   0   6  -5   19.60    0.92
   1  -6   5    1.45    0.17
  -1  -6  -5    1.31    0.20
   1   6   5    1.44    0.17
  -1   6  -5    1.47    0.22
   1   6   5    1.47    0.21
  -2  -6  -5    0.05    0.18
   2  -6   5    0.22    0.14
   2   6   5    0.16    0.14
  -2   6  -5    0.22    0.17
   2   6   5    0.27    0.17
   3  -6   5    0.08    0.18
   3  -6   5   -0.13    0.14
  -3  -6  -5    0.23    0.20
   3   6   5   -0.06    0.14
  -3   6  -5   -0.13    0.19
   3   6   5    0.20    0.17
  -4  -6  -5    8.50    0.48
   4  -6   5    8.12    0.45
   4  -6   5    8.87    0.51
   4   6   5    8.15    0.47
   4   6   5    8.25    0.46
  -4   6  -5    7.85    0.47
  -5  -6  -5    3.99    0.31
   5  -6   5    4.13    0.37
   5  -6   5    4.16    0.32
   5   6   5    4.05    0.33
   5   6   5    3.78    0.33
  -5   6  -5    4.11    0.37
  -6  -6  -5    5.83    0.41
   6  -6   5    4.86    0.38
   6  -6   5    5.57    0.42
   6   6   5    4.89    0.38
   6   6   5    5.46    0.37
  -6   6  -5    5.33    0.42
   7  -6   5    0.97    0.22
  -7  -6  -5    1.09    0.22
   7  -6   5    0.86    0.21
   7   6   5    1.07    0.18
   7   6   5    1.04    0.21
  -7   6  -5    1.30    0.24
   8  -6   5    1.07    0.24
  -8  -6  -5    0.96    0.23
   8  -6   5    1.12    0.23
   8   6   5    0.94    0.18
  -8   6  -5    1.19    0.25
   8   6   5    0.93    0.22
  -9  -6  -5    0.56    0.19
   9  -6   5    0.53    0.22
   9  -6   5    0.56    0.24
   9   6   5    0.47    0.22
   9   6   5    0.54    0.17
  -9   6  -5    0.11    0.23
  -6  -7   5    2.43    0.37
   6  -7  -5    2.67    0.26
   6  -7  -5    2.33    0.24
  -6   7   5    2.49    0.29
   6   7  -5    2.92    0.27
   6   7  -5    2.56    0.28
   5  -7  -5    3.05    0.27
  -5  -7   5    3.48    0.36
   5  -7  -5    3.24    0.27
   5   7  -5    2.84    0.27
   5   7  -5    3.16    0.31
  -4  -7   5    0.20    0.24
   4  -7  -5    0.12    0.19
   4   7  -5    0.15    0.20
   4   7  -5    0.03    0.19
   3  -7  -5    0.39    0.20
  -3  -7   5    0.24    0.25
   3   7  -5   -0.10    0.20
   3   7  -5    0.14    0.23
   2  -7  -5    0.58    0.23
  -2  -7   5    0.60    0.21
   2   7  -5    0.50    0.23
  -1  -7   5    3.38    0.28
   1  -7  -5    3.09    0.30
   1   7  -5    3.25    0.29
   0  -7  -5    0.82    0.25
   0  -7   5    0.74    0.20
   0   7  -5    1.18    0.23
  -1  -7  -5    0.91    0.23
   1  -7   5    0.87    0.19
  -1   7  -5    1.11    0.22
   2  -7   5    0.09    0.17
  -2  -7  -5    0.18    0.24
   2   7   5    0.20    0.17
  -2   7  -5   -0.05    0.23
  -3  -7  -5    0.21    0.22
   3   7   5    0.06    0.18
  -3   7  -5    0.41    0.23
   3   7   5    0.05    0.20
  -4  -7  -5    0.84    0.26
   4   7   5    0.77    0.20
   4   7   5    0.83    0.20
  -4   7  -5    0.89    0.24
  -5  -7  -5    1.21    0.27
   5   7   5    1.06    0.21
  -5   7  -5    1.24    0.27
   5   7   5    0.98    0.20
   6  -7   5    2.87    0.31
  -6  -7  -5    2.61    0.31
  -6   7  -5    3.06    0.32
   6   7   5    3.34    0.27
   6   7   5    2.98    0.28
 -15   0   6   -0.15    0.22
  15   0  -6    0.00    0.19
  14   0  -6    0.30    0.19
 -14   0   6    0.26    0.21
 -13   0   6   -0.18    0.20
  13   0  -6   -0.05    0.17
  12   0  -6    3.19    0.24
 -12   0   6    2.68    0.26
 -11   0   6   -0.02    0.16
  11   0  -6   -0.06    0.04
  11   0  -6   -0.13    0.15
  11   0  -6    0.02    0.04
  10   0  -6   37.29    1.61
 -10   0   6   35.05    1.65
  10   0  -6   40.52    1.65
  10   0  -6   36.71    1.61
   9   0  -6    0.01    0.06
   9   0  -6   -0.03    0.06
   9   0  -6    0.04    0.08
   9   0  -6   -0.01    0.12
  -9   0   6    0.03    0.13
   8   0  -6    6.39    0.35
   8   0  -6    6.74    0.32
  -8   0   6    6.07    0.36
   8   0  -6    7.00    0.31
   8   0  -6    6.83    0.32
   7   0  -6   -0.05    0.09
  -7   0   6   -0.02    0.10
   7   0  -6    0.07    0.06
   7   0  -6    0.18    0.06
   7   0  -6   -0.04    0.06
   6   0  -6   36.98    1.55
   6   0  -6   34.93    1.56
  -6   0   6   36.57    1.57
   6   0  -6   34.02    1.55
   6   0  -6   36.26    1.54
   5   0  -6    0.10    0.07
   5   0  -6    0.01    0.05
   5   0  -6   -0.03    0.06
   5   0  -6    0.02    0.04
  -5   0   6   -0.02    0.08
   4   0  -6   19.00    0.82
   4   0  -6   18.36    0.84
  -4   0   6   19.87    0.84
   4   0  -6   19.07    0.84
   4   0  -6   18.34    0.83
   3   0  -6   -0.03    0.04
  -3   0   6   -0.02    0.07
   3   0  -6    0.06    0.07
   3   0  -6    0.01    0.06
   2   0  -6  491.11   21.85
  -2   0   6  478.17   21.85
  -2   0   6  570.48   23.51
   2   0  -6  505.33   21.82
   1   0  -6    0.14    0.05
   1   0  -6    0.05    0.06
  -1   0   6    0.34    0.07
  -1   0   6    0.05    0.07
   1   0  -6    0.04    0.04
   0   0   6   19.26    0.80
   0   0  -6   19.67    0.80
   0   0  -6   17.10    0.79
   0   0  -6   17.09    0.80
   0   0   6   17.44    0.81
   1   0   6    0.08    0.07
  -1   0  -6    0.01    0.04
  -1   0  -6    0.07    0.06
  -1   0  -6   -0.02    0.06
   1   0   6    0.17    0.06
  -2   0  -6  185.16    8.20
  -2   0  -6  182.19    8.16
  -2   0  -6  188.12    8.13
   2   0   6  195.97    8.21
   2   0   6  193.01    8.20
   3   0   6    0.01    0.07
  -3   0  -6    0.01    0.03
  -3   0  -6    0.03    0.08
  -3   0  -6    0.03    0.06
   3   0   6    0.08    0.07
   4   0   6  148.86    6.31
  -4   0  -6  136.64    6.29
  -4   0  -6  155.90    6.26
  -4   0  -6  142.41    6.29
   4   0   6  144.51    6.35
  -5   0  -6   -0.03    0.03
   5   0   6    0.02    0.07
   5   0   6   -0.07    0.07
   5   0   6   -0.06    0.09
  -5   0  -6    0.04    0.10
   6   0   6   19.90    0.95
  -6   0  -6   22.27    0.92
  -6   0  -6   20.75    0.98
   6   0   6   22.24    0.96
   6   0   6   22.00    0.95
  -7   0  -6   -0.17    0.14
   7   0   6    0.01    0.12
   7   0   6   -0.03    0.07
  -8   0  -6   33.90    1.58
   8   0   6   36.22    1.55
   8   0   6   36.04    1.57
  -9   0  -6    0.06    0.16
   9   0   6    0.10    0.09
   9   0   6   -0.02    0.15
  10   0   6   -0.02    0.14
  10   0   6    0.13    0.09
 -10   0  -6    0.23    0.20
 -11   0  -6   -0.10    0.19
  11   0   6   -0.07    0.16
  12   0   6   83.56    3.66
 -12   0  -6   83.27    3.68
  12   0   6   85.15    3.62
  13   0   6    0.12    0.09
  13   0   6   -0.01    0.18
 -13   0  -6    0.21    0.25
 -14   0  -6   16.40    0.86
  14   0   6   15.60    0.80
  14   0   6   15.44    0.70
  15   0   6    0.03    0.23
 -15   0  -6    0.13    0.26
  15  -1  -6    0.68    0.20
 -15   1   6   -0.12    0.24
  15   1  -6    0.29    0.21
  14  -1  -6   -0.11    0.17
  14   1  -6   -0.23    0.19
 -14   1   6   -0.13    0.23
  13  -1  -6    0.93    0.18
  13   1  -6    1.15    0.20
 -13   1   6    0.86    0.21
  12  -1  -6   23.97    1.09
 -12  -1   6   24.47    1.15
  12  -1  -6   28.53    1.15
  12  -1  -6   26.00    1.09
 -12   1   6   24.43    1.17
  12   1  -6   24.90    1.15
 -11  -1   6   24.18    1.15
  11  -1  -6   26.48    1.11
  11  -1  -6   27.20    1.14
  11   1  -6   24.45    1.10
  11   1  -6   25.39    1.13
  11   1  -6   25.31    1.10
  11   1  -6   26.54    1.16
 -11   1   6   24.75    1.18
 -10  -1   6    7.01    0.40
  10  -1  -6    8.15    0.37
  10  -1  -6    8.22    0.41
  10   1  -6    7.91    0.38
  10   1  -6    7.78    0.36
  10   1  -6    7.70    0.42
  10   1  -6    7.68    0.35
 -10   1   6    7.76    0.45
  -9  -1   6   65.30    3.02
   9  -1  -6   75.17    3.01
   9  -1  -6   71.62    3.02
   9   1  -6   68.39    3.00
  -9   1   6   68.55    3.04
   9   1  -6   70.08    3.01
   9   1  -6   68.79    3.00
   9   1  -6   70.50    3.03
   8  -1  -6   41.77    1.73
   8  -1  -6   42.48    1.75
   8  -1  -6   38.73    1.73
  -8  -1   6   39.33    1.75
   8   1  -6   39.00    1.73
  -8   1   6   40.07    1.76
   8   1  -6   39.37    1.73
   8   1  -6   40.26    1.75
   8   1  -6   38.87    1.73
   7  -1  -6    0.52    0.10
   7  -1  -6    0.71    0.08
  -7  -1   6    0.85    0.11
   7  -1  -6    0.51    0.08
   7   1  -6    0.49    0.08
   7   1  -6    0.84    0.08
  -7   1   6    0.77    0.14
   7   1  -6    0.58    0.12
   7   1  -6    0.68    0.09
   6  -1  -6    7.76    0.36
   6  -1  -6    7.45    0.36
   6  -1  -6    7.63    0.37
  -6  -1   6    7.57    0.37
  -6   1   6    7.55    0.38
   6   1  -6    7.40    0.36
   6   1  -6    7.81    0.38
   6   1  -6    7.74    0.36
   6   1  -6    7.57    0.35
   5  -1  -6   48.08    2.19
   5  -1  -6   50.91    2.20
   5  -1  -6   51.60    2.20
  -5  -1   6   51.35    2.20
  -5   1   6   53.50    2.21
   5   1  -6   50.07    2.20
   5   1  -6   50.74    2.20
   5   1  -6   50.98    2.19
   5   1  -6   49.81    2.20
   4  -1  -6   41.13    1.79
   4  -1  -6   42.20    1.79
   4  -1  -6   36.50    1.79
  -4  -1   6   42.75    1.79
   4   1  -6   40.77    1.79
  -4   1   6   43.17    1.80
   4   1  -6   41.08    1.80
   4   1  -6   40.96    1.78
   4   1  -6   42.89    1.80
   3  -1  -6  125.86    5.35
  -3  -1   6  128.53    5.40
   3  -1  -6  126.29    5.38
   3  -1  -6  121.09    5.38
  -3  -1   6  119.35    5.36
   3   1  -6  129.45    5.41
   3   1  -6  124.43    5.40
   3   1  -6  127.14    5.41
  -3   1   6  117.57    5.36
  -3   1   6  128.64    5.42
  -2  -1   6    8.17    0.42
  -2  -1   6    8.92    0.41
   2  -1  -6    8.91    0.41
   2  -1  -6    8.99    0.42
   2  -1  -6    9.59    0.39
   2   1  -6    8.88    0.41
   2   1  -6    8.83    0.41
   2   1  -6    8.99    0.42
  -2   1   6    8.68    0.42
  -2   1   6    9.52    0.42
  -1  -1   6   34.37    1.55
   1  -1  -6   35.64    1.54
   1  -1  -6   34.56    1.53
   1  -1  -6   38.57    1.53
  -1  -1   6   35.18    1.54
  -1   1   6   35.44    1.54
   1   1  -6   34.67    1.54
   1   1  -6   36.64    1.54
   1   1  -6   33.47    1.53
  -1   1   6   35.48    1.54
   0  -1  -6   12.28    0.53
   0  -1   6   11.33    0.55
   0  -1   6   12.16    0.54
   0  -1  -6   11.70    0.54
   0  -1  -6   11.90    0.53
   0   1   6   11.98    0.54
   0   1  -6   11.57    0.52
   0   1  -6   11.65    0.54
   0   1  -6   12.62    0.54
   0   1   6   11.46    0.54
  -1  -1  -6    6.58    0.30
   1  -1   6    6.59    0.31
  -1  -1  -6    6.25    0.31
  -1  -1  -6    6.35    0.31
   1  -1   6    6.26    0.33
   1   1   6    6.82    0.32
  -1   1  -6    6.91    0.32
  -1   1  -6    6.51    0.29
  -1   1  -6    6.70    0.32
   1   1   6    6.33    0.31
  -2  -1  -6    1.00    0.10
   2  -1   6    1.15    0.10
  -2  -1  -6    0.96    0.08
  -2  -1  -6    1.13    0.11
   2  -1   6    0.79    0.11
  -2   1  -6    0.98    0.10
  -2   1  -6    1.31    0.12
  -2   1  -6    1.00    0.07
   2   1   6    1.03    0.10
  -3  -1  -6    0.27    0.05
  -3  -1  -6    0.25    0.06
  -3  -1  -6    0.17    0.08
   3  -1   6    0.20    0.08
   3  -1   6    0.19    0.03
   3  -1   6    0.12    0.08
   3   1   6    0.15    0.07
  -3   1  -6    0.22    0.09
  -3   1  -6    0.12    0.07
   4  -1   6  143.05    5.93
  -4  -1  -6  146.14    5.89
  -4  -1  -6  135.78    5.90
  -4  -1  -6  124.66    5.89
   4  -1   6  126.92    5.90
   4   1   6  143.14    5.95
   4   1   6  135.26    5.88
  -4   1  -6  137.71    5.92
   5  -1   6  240.44   11.00
  -5  -1  -6  267.65   10.93
   5  -1   6  265.11   10.98
  -5  -1  -6  252.21   11.04
   5   1   6  225.00   10.92
   5   1   6  246.85   10.98
   5   1   6  279.39   11.02
  -5   1  -6  238.44   10.94
   5   1   6  271.49   11.01
  -6  -1  -6  108.26    4.49
   6  -1   6  104.41    4.48
   6  -1   6  105.09    4.49
  -6  -1  -6  101.50    4.50
   6   1   6  107.30    4.49
  -6   1  -6  100.04    4.50
   6   1   6  109.63    4.49
   6   1   6  105.17    4.48
   6   1   6   94.84    4.48
   7  -1   6   25.42    1.11
  -7  -1  -6   24.62    1.12
   7  -1   6   24.51    1.09
  -7  -1  -6   24.83    1.07
   7   1   6   24.80    1.10
   7   1   6   24.15    1.08
  -7   1  -6   23.52    1.12
   7   1   6   25.10    1.10
   8  -1   6   64.38    2.82
   8  -1   6   65.53    2.81
  -8  -1  -6   64.10    2.79
  -8  -1  -6   64.78    2.84
   8   1   6   63.75    2.80
   8   1   6   65.22    2.82
   8   1   6   65.79    2.81
  -8   1  -6   65.09    2.84
  -9  -1  -6   23.93    1.15
   9  -1   6   24.55    1.13
   9  -1   6   25.02    1.10
   9   1   6   26.26    1.12
   9   1   6   23.94    1.09
  -9   1  -6   25.67    1.16
  10  -1   6    0.83    0.12
  10  -1   6    0.48    0.20
 -10  -1  -6    0.74    0.20
  10   1   6    0.53    0.16
 -10   1  -6    0.57    0.20
  10   1   6    0.71    0.10
  11  -1   6    9.23    0.54
 -11  -1  -6    9.02    0.55
  11  -1   6    9.47    0.46
  11   1   6    9.34    0.45
  11   1   6   10.01    0.51
 -11   1  -6    9.56    0.55
  12  -1   6    0.62    0.12
  12  -1   6    0.28    0.20
 -12  -1  -6    0.65    0.25
  12   1   6    0.61    0.09
  12   1   6    0.60    0.18
 -12   1  -6    0.36    0.24
 -13  -1  -6    2.97    0.34
  13  -1   6    2.16    0.20
  13  -1   6    2.32    0.28
  13   1   6    2.49    0.18
 -13   1  -6    2.63    0.32
  13   1   6    2.39    0.24
 -14  -1  -6    7.60    0.58
  14  -1   6    6.99    0.35
  14  -1   6    6.65    0.50
  14   1   6    6.48    0.45
  14   1   6    7.31    0.33
 -14   1  -6    6.66    0.55
  15  -1   6    0.22    0.08
 -15  -1  -6    0.63    0.33
  15  -1   6   -0.03    0.25
 -15   1  -6    0.16    0.25
  15   1   6    0.28    0.22
  14  -2  -6   -0.01    0.15
 -14  -2   6    0.05    0.23
 -14   2   6    0.00    0.27
  13  -2  -6    2.12    0.14
  13  -2  -6    2.25    0.21
 -13   2   6    1.82    0.27
  13   2  -6    1.88    0.23
  12  -2  -6    5.69    0.28
  12  -2  -6    5.81    0.34
  12   2  -6    4.95    0.25
 -12   2   6    4.79    0.44
  12   2  -6    5.74    0.40
  12   2  -6    5.50    0.25
  12   2  -6    5.61    0.33
  11  -2  -6    0.30    0.14
  11  -2  -6    0.19    0.08
  11   2  -6    0.08    0.12
  11   2  -6    0.26    0.16
 -11   2   6    0.13    0.19
  11   2  -6    0.23    0.06
  10  -2  -6    0.24    0.09
  10  -2  -6    0.29    0.13
  10   2  -6    0.36    0.12
  10   2  -6    0.37    0.17
 -10   2   6    0.34    0.17
  10   2  -6    0.25    0.07
   9  -2  -6   10.90    0.49
  -9  -2   6    9.98    0.50
   9  -2  -6   11.10    0.51
  -9   2   6   10.18    0.56
   9   2  -6   10.29    0.48
   9   2  -6   10.18    0.50
   9   2  -6   11.14    0.53
   8  -2  -6   10.47    0.50
  -8  -2   6    9.43    0.48
   8  -2  -6   10.85    0.48
   8   2  -6    9.61    0.48
   8   2  -6   10.68    0.48
  -8   2   6    9.97    0.52
   8   2  -6   11.06    0.52
   7  -2  -6    0.27    0.08
   7  -2  -6    0.36    0.11
  -7  -2   6    0.28    0.09
   7   2  -6    0.24    0.10
   7   2  -6    0.54    0.13
  -7   2   6    0.40    0.15
   7   2  -6    0.29    0.08
   6  -2  -6    9.14    0.42
   6  -2  -6    9.33    0.43
  -6  -2   6    8.75    0.42
  -6   2   6    8.21    0.45
   6   2  -6    8.56    0.42
   6   2  -6    9.73    0.44
   6   2  -6    9.00    0.42
  -5  -2   6   61.06    2.68
   5  -2  -6   62.43    2.69
   5  -2  -6   61.37    2.69
   5   2  -6   65.12    2.70
   5   2  -6   61.12    2.69
   5   2  -6   61.62    2.69
   5   2  -6   63.21    2.69
  -5   2   6   62.10    2.70
   4  -2  -6   44.47    1.93
  -4  -2   6   44.37    1.92
   4  -2  -6   45.74    1.93
   4   2  -6   45.45    1.93
  -4   2   6   42.60    1.93
   4   2  -6   44.38    1.93
   4   2  -6   43.98    1.93
   4   2  -6   44.54    1.93
  -3  -2   6   75.85    3.24
  -3  -2   6   69.83    3.23
   3  -2  -6   76.48    3.23
   3  -2  -6   74.58    3.23
  -3   2   6   76.01    3.23
  -3   2   6   78.09    3.24
   3   2  -6   74.05    3.23
   3   2  -6   73.96    3.23
   3   2  -6   75.78    3.23
   2  -2  -6    2.17    0.11
  -2  -2   6    1.81    0.13
  -2  -2   6    1.70    0.15
   2  -2  -6    2.06    0.15
   2  -2  -6    2.14    0.15
  -2   2   6    1.80    0.15
   2   2  -6    1.65    0.15
   2   2  -6    1.96    0.14
   2   2  -6    1.85    0.15
  -1  -2   6  263.39   11.59
   1  -2  -6  273.21   11.58
  -1  -2   6  275.87   11.58
  -1  -2   6  268.12   11.58
   1  -2  -6  262.85   11.56
  -1   2   6  282.63   11.59
   1   2  -6  270.78   11.58
   1   2  -6  268.34   11.60
  -1   2   6  269.05   11.60
  -1   2   6  246.66   11.53
   0  -2  -6   41.41    1.77
   0  -2   6   38.98    1.77
   0  -2  -6   40.51    1.76
   0  -2   6   41.12    1.76
   0  -2   6   39.74    1.78
   0   2  -6   42.23    1.77
   0   2   6   41.14    1.77
   0   2   6   41.91    1.77
   0   2  -6   40.65    1.77
   0   2   6   39.63    1.76
  -1  -2  -6   94.93    4.11
  -1  -2  -6   93.86    4.12
   1  -2   6   97.45    4.12
   1  -2   6   95.30    4.10
   1  -2   6   92.85    4.11
   1   2   6   95.63    4.12
   1   2   6   99.82    4.12
   1   2   6   92.82    4.14
  -1   2  -6   92.75    4.10
  -1   2  -6   96.95    4.12
  -2  -2  -6   63.82    2.77
   2  -2   6   64.15    2.76
   2  -2   6   64.20    2.77
   2  -2   6   64.78    2.78
  -2  -2  -6   63.82    2.76
   2   2   6   63.02    2.77
  -2   2  -6   63.72    2.77
  -2   2  -6   66.24    2.77
   2   2   6   65.95    2.77
   2   2   6   61.31    2.76
   3  -2   6    5.68    0.25
  -3  -2  -6    5.87    0.28
  -3  -2  -6    5.45    0.27
   3  -2   6    5.21    0.31
   3  -2   6    5.47    0.30
  -3   2  -6    5.40    0.29
   3   2   6    5.67    0.28
  -3   2  -6    5.56    0.31
   3   2   6    5.52    0.28
   3   2   6    5.50    0.29
  -4  -2  -6   39.77    1.74
   4  -2   6   39.94    1.76
   4  -2   6   39.27    1.76
   4  -2   6   42.12    1.72
  -4  -2  -6   39.88    1.75
   4   2   6   40.29    1.75
  -4   2  -6   39.76    1.76
   4   2   6   40.35    1.75
  -4   2  -6   39.72    1.75
   4   2   6   40.04    1.75
   5  -2   6    7.46    0.39
  -5  -2  -6    7.65    0.36
   5  -2   6    7.01    0.39
   5   2   6    7.65    0.37
   5   2   6    7.50    0.38
   5   2   6    7.44    0.37
  -5   2  -6    7.85    0.40
  -5   2  -6    7.69    0.37
   6  -2   6    0.22    0.11
  -6  -2  -6    0.23    0.08
   6  -2   6    0.11    0.12
   6   2   6    0.17    0.09
   6   2   6    0.29    0.11
  -6   2  -6    0.22    0.13
   6   2   6    0.30    0.10
  -7  -2  -6   20.32    0.89
   7  -2   6   21.69    0.92
   7  -2   6   18.88    0.94
  -7   2  -6   18.33    0.94
   7   2   6   21.04    0.91
   7   2   6   21.05    0.92
   7   2   6   20.24    0.90
   8  -2   6    6.80    0.37
   8  -2   6    6.20    0.39
  -8  -2  -6    6.67    0.34
   8   2   6    6.54    0.37
   8   2   6    7.53    0.36
  -8   2  -6    6.43    0.44
   8   2   6    7.30    0.35
   9  -2   6    0.68    0.14
   9  -2   6    0.52    0.20
  -9  -2  -6    0.80    0.11
   9   2   6    0.84    0.11
   9   2   6    0.91    0.14
  -9   2  -6    0.87    0.20
   9   2   6    0.63    0.17
  10  -2   6   25.79    1.16
  10  -2   6   23.95    1.19
  10   2   6   27.56    1.17
  10   2   6   26.69    1.19
  10   2   6   26.14    1.15
 -10   2  -6   26.04    1.23
  11  -2   6   36.26    1.72
  11  -2   6   37.39    1.68
  11   2   6   37.40    1.66
 -11   2  -6   39.79    1.75
  11   2   6   40.69    1.70
  11   2   6   38.01    1.71
  12  -2   6    0.87    0.15
  12  -2   6    1.12    0.26
  12   2   6    1.28    0.19
  12   2   6    1.11    0.11
 -12   2  -6    1.09    0.27
  12   2   6    1.28    0.24
  13  -2   6    0.69    0.23
  13  -2   6    1.03    0.14
  13   2   6    0.95    0.11
  13   2   6    0.96    0.22
 -13   2  -6    0.89    0.29
 -14  -2  -6    0.23    0.32
  14  -2   6    0.10    0.12
  14  -2   6   -0.28    0.25
 -14   2  -6   -0.11    0.27
  14   2   6    0.06    0.07
 -14  -3   6    7.20    0.53
  14  -3  -6    6.41    0.32
  14  -3  -6    6.33    0.39
 -14   3   6    5.85    0.56
  13  -3  -6    6.55    0.38
 -13  -3   6    5.65    0.46
  13  -3  -6    6.73    0.32
  13   3  -6    6.12    0.39
  13   3  -6    5.67    0.28
 -13   3   6    5.61    0.48
  12  -3  -6   13.85    0.63
 -12  -3   6   12.76    0.70
  12  -3  -6   13.92    0.61
  12   3  -6   12.41    0.58
 -12   3   6   12.09    0.73
  12   3  -6   12.73    0.64
 -11  -3   6    0.15    0.23
  11  -3  -6    0.14    0.11
  11  -3  -6    0.20    0.15
  11   3  -6    0.18    0.08
 -11   3   6    0.42    0.22
  10  -3  -6    3.47    0.24
 -10  -3   6    3.48    0.31
  10  -3  -6    3.50    0.25
  10   3  -6    3.50    0.27
  10   3  -6    3.27    0.21
 -10   3   6    3.27    0.29
   9  -3  -6    0.43    0.11
   9  -3  -6    0.33    0.13
  -9  -3   6    0.76    0.20
   9   3  -6    0.48    0.14
  -9   3   6    0.30    0.20
   9   3  -6    0.33    0.09
  -8  -3   6   39.65    1.76
   8  -3  -6   40.34    1.72
   8  -3  -6   39.87    1.71
   8   3  -6   39.23    1.71
   8   3  -6   37.51    1.72
  -8   3   6   38.81    1.75
   7  -3  -6   11.41    0.55
   7  -3  -6   12.06    0.56
  -7  -3   6   11.22    0.59
   7   3  -6   11.45    0.56
   7   3  -6   12.11    0.54
  -7   3   6   11.59    0.58
  -6  -3   6  136.97    6.23
   6  -3  -6  148.32    6.24
   6  -3  -6  145.31    6.21
   6   3  -6  141.62    6.21
   6   3  -6  153.58    6.22
  -6   3   6  140.53    6.22
   5  -3  -6    6.96    0.34
  -5  -3   6    6.05    0.37
  -5  -3   6    6.56    0.32
   5  -3  -6    6.83    0.34
   5   3  -6    6.68    0.34
  -5   3   6    6.56    0.36
   5   3  -6    6.78    0.35
   4  -3  -6    0.10    0.09
  -4  -3   6    0.25    0.08
   4  -3  -6    0.07    0.10
  -4  -3   6    0.08    0.12
   4   3  -6    0.06    0.09
  -4   3   6    0.11    0.12
   4   3  -6    0.46    0.11
   3  -3  -6    1.13    0.12
   3  -3  -6    1.24    0.12
  -3  -3   6    1.61    0.14
  -3  -3   6    0.96    0.15
  -3  -3   6    1.16    0.13
  -3   3   6    1.15    0.13
  -3   3   6    0.90    0.11
   3   3  -6    1.19    0.12
   3   3  -6    1.37    0.13
  -3   3   6    1.09    0.08
  -2  -3   6    1.95    0.16
  -2  -3   6    1.84    0.15
   2  -3  -6    1.83    0.17
   2  -3  -6    1.89    0.15
  -2  -3   6    1.91    0.16
  -2   3   6    2.20    0.19
   2   3  -6    1.84    0.17
  -2   3   6    2.03    0.15
  -2   3   6    1.84    0.11
   2   3  -6    1.83    0.16
  -1  -3   6    5.09    0.28
  -1  -3   6    4.58    0.27
   1  -3  -6    5.35    0.27
   1  -3  -6    5.37    0.28
  -1  -3   6    4.62    0.29
  -1   3   6    5.30    0.28
   1   3  -6    4.80    0.27
  -1   3   6    5.60    0.29
  -1   3   6    5.16    0.25
   1   3  -6    5.38    0.28
   0  -3   6   43.20    2.11
   0  -3   6   48.91    2.11
   0  -3   6   48.48    2.13
   0  -3  -6   51.80    2.12
   0  -3  -6   47.78    2.11
   0   3   6   49.47    2.10
   0   3  -6   47.84    2.12
   0   3   6   50.40    2.12
   0   3   6   49.94    2.12
   0   3  -6   49.59    2.12
   1  -3   6    1.03    0.13
  -1  -3  -6    1.15    0.12
   1  -3   6    1.14    0.14
  -1  -3  -6    1.76    0.13
   1  -3   6    1.17    0.11
  -1   3  -6    1.35    0.13
   1   3   6    1.38    0.12
  -1   3  -6    1.07    0.13
   1   3   6    1.58    0.12
   1   3   6    1.24    0.13
   2  -3   6  160.45    7.22
  -2  -3  -6  174.16    7.24
   2  -3   6  164.17    7.20
  -2  -3  -6  167.26    7.24
   2  -3   6  164.93    7.20
  -2   3  -6  165.97    7.22
   2   3   6  173.89    7.27
   2   3   6  170.46    7.23
  -2   3  -6  163.62    7.25
   2   3   6  169.54    8.25
   3  -3   6   67.88    2.94
   3  -3   6   67.30    2.97
   3  -3   6   66.71    2.97
  -3  -3  -6   69.26    2.96
  -3  -3  -6   69.36    2.96
   3   3   6   71.47    2.96
  -3   3  -6   67.23    2.96
   3   3   6   69.80    2.96
   3   3   6   67.33    2.96
  -3   3  -6   68.10    2.97
   4  -3   6   12.68    0.64
   4  -3   6   13.71    0.65
  -4  -3  -6   13.78    0.62
   4  -3   6   13.84    0.60
   4   3   6   14.19    0.62
  -4   3  -6   13.44    0.64
   4   3   6   12.74    0.62
  -4   3  -6   13.84    0.63
   4   3   6   13.73    0.63
   5  -3   6   58.39    2.49
   5  -3   6   56.23    2.49
  -5  -3  -6   56.42    2.47
  -5   3  -6   54.39    2.49
   5   3   6   57.14    2.48
   5   3   6   56.90    2.47
   5   3   6   59.95    2.48
   6  -3   6   18.15    0.82
   6  -3   6   17.22    0.83
  -6  -3  -6   17.70    0.80
   6   3   6   17.62    0.81
   6   3   6   17.75    0.80
   6   3   6   18.24    0.80
  -6   3  -6   17.12    0.83
  -7  -3  -6    0.31    0.11
   7  -3   6    0.09    0.17
   7  -3   6    0.43    0.14
  -7   3  -6    0.28    0.16
   7   3   6    0.49    0.13
   7   3   6    0.27    0.11
   7   3   6    0.26    0.10
   8  -3   6   96.72    4.16
  -8  -3  -6   92.74    4.14
   8  -3   6   94.65    4.17
  -8   3  -6   93.93    4.18
   8   3   6   97.72    4.14
   8   3   6   98.06    4.14
   8   3   6   98.27    4.16
   9  -3   6    5.53    0.35
  -9  -3  -6    5.56    0.32
   9  -3   6    5.51    0.39
   9   3   6    5.60    0.32
  -9   3  -6    5.40    0.41
   9   3   6    5.74    0.33
   9   3   6    5.39    0.35
 -10  -3  -6    8.64    0.44
  10  -3   6    8.26    0.53
  10  -3   6    8.75    0.46
  10   3   6    8.44    0.43
  10   3   6    9.24    0.50
 -10   3  -6    7.62    0.56
  11  -3   6    5.01    0.43
  11  -3   6    4.52    0.33
 -11   3  -6    4.06    0.37
  11   3   6    5.00    0.29
  11   3   6    5.56    0.36
  12  -3   6   12.79    0.62
  12  -3   6   11.73    0.71
 -12   3  -6   11.72    0.73
  12   3   6   13.07    0.68
  12   3   6   13.34    0.60
  13  -3   6   -0.43    0.25
  13  -3   6   -0.01    0.14
  13   3   6    0.01    0.10
 -13   3  -6   -0.28    0.28
  13   3   6    0.19    0.24
  14  -3   6    0.11    0.14
  14  -3   6   -0.08    0.24
  14   3   6    0.09    0.09
  14   3   6    0.20    0.25
 -14   3  -6    0.05    0.30
 -13  -4   6    7.05    0.57
  13  -4  -6    7.34    0.40
  13  -4  -6    6.36    0.36
  13   4  -6    6.32    0.42
 -13   4   6    5.79    0.56
  13   4  -6    6.14    0.32
  12  -4  -6    0.84    0.14
  12  -4  -6    0.99    0.18
 -12  -4   6    0.83    0.27
  12   4  -6    0.80    0.19
 -12   4   6    1.07    0.31
  12   4  -6    0.84    0.11
  11  -4  -6    0.17    0.13
 -11  -4   6    0.48    0.28
  11  -4  -6    0.01    0.16
  11   4  -6    0.16    0.10
  11   4  -6    0.09    0.17
 -11   4   6    0.46    0.25
 -10  -4   6   -0.03    0.23
  10  -4  -6    0.10    0.12
  10  -4  -6    0.23    0.16
  10   4  -6    0.03    0.17
  10   4  -6    0.05    0.11
 -10   4   6    0.10    0.22
  -9  -4   6    1.15    0.24
   9  -4  -6    1.30    0.15
   9  -4  -6    1.55    0.18
   9   4  -6    1.18    0.14
  -9   4   6    1.17    0.25
   9   4  -6    1.47    0.18
   8  -4  -6   11.98    0.58
   8  -4  -6   12.01    0.56
  -8  -4   6   10.99    0.63
  -8   4   6   11.83    0.63
   8   4  -6   11.64    0.56
   8   4  -6   11.33    0.57
  -7  -4   6   29.89    1.40
   7  -4  -6   30.37    1.36
   7  -4  -6   31.76    1.36
   7   4  -6   31.17    1.36
   7   4  -6   31.26    1.37
  -7   4   6   30.04    1.40
   6  -4  -6   12.34    0.58
   6  -4  -6   11.93    0.57
  -6  -4   6   10.59    0.61
   6   4  -6   12.06    0.58
  -6   4   6   11.99    0.61
   6   4  -6   12.26    0.57
   5  -4  -6   24.34    1.08
   5  -4  -6   24.28    1.08
  -5  -4   6   22.17    1.10
   5   4  -6   24.43    1.09
   5   4  -6   25.54    1.08
  -5   4   6   23.88    1.10
  -4  -4   6    3.80    0.31
   4  -4  -6    4.65    0.27
   4  -4  -6    4.19    0.27
  -4   4   6    4.60    0.31
   4   4  -6    4.47    0.28
   4   4  -6    4.33    0.27
   3  -4  -6    4.10    0.26
  -3  -4   6    3.89    0.29
   3  -4  -6    4.27    0.27
  -3   4   6    4.04    0.27
   3   4  -6    4.34    0.28
   3   4  -6    4.22    0.27
   2  -4  -6   64.95    2.85
   2  -4  -6   64.89    2.85
  -2  -4   6   64.52    2.86
  -2  -4   6   65.57    2.84
  -2   4   6   66.73    2.83
  -2   4   6   67.12    2.86
  -2   4   6   65.81    2.86
   2   4  -6   66.56    2.86
   2   4  -6   65.63    2.85
   1  -4  -6    2.77    0.22
  -1  -4   6    2.88    0.20
   1  -4  -6    3.01    0.22
  -1  -4   6    4.11    0.26
  -1  -4   6    2.61    0.24
   1   4  -6    2.82    0.23
  -1   4   6    3.29    0.24
  -1   4   6    2.81    0.19
   1   4  -6    3.52    0.24
  -1   4   6    2.71    0.23
   0  -4  -6   20.20    0.92
   0  -4   6   19.96    0.92
   0  -4   6   19.91    0.91
   0  -4  -6   20.65    0.92
   0  -4   6   20.30    0.93
   0   4   6   21.18    0.93
   0   4   6   20.92    0.90
   0   4   6   20.12    0.91
   0   4  -6   20.12    0.92
   0   4  -6   20.28    0.92
   1  -4   6   97.47    4.26
   1  -4   6   98.66    4.28
   1  -4   6  102.62    4.27
  -1  -4  -6   99.03    4.27
  -1  -4  -6   97.37    4.27
   1   4   6  101.60    4.26
   1   4   6  100.34    4.28
  -1   4  -6   95.00    4.27
  -1   4  -6   97.03    4.27
   1   4   6  100.48    4.26
   2  -4   6   39.62    1.83
  -2  -4  -6   43.91    1.85
   2  -4   6   43.11    1.85
   2  -4   6   42.24    1.86
   2   4   6   44.20    1.84
  -2   4  -6   40.96    1.85
   2   4   6   42.57    1.84
   2   4   6   41.91    1.85
  -2   4  -6   42.06    1.86
   3  -4   6    0.50    0.15
  -3  -4  -6    0.15    0.12
   3  -4   6    0.45    0.13
   3  -4   6    0.43    0.09
  -3   4  -6    0.33    0.13
   3   4   6    0.54    0.11
   3   4   6    0.34    0.10
   3   4   6    0.32    0.12
   4  -4   6   12.62    0.61
   4  -4   6   12.87    0.61
  -4  -4  -6   12.12    0.59
  -4   4  -6   12.06    0.61
   4   4   6   12.08    0.59
   4   4   6   12.43    0.59
   4   4   6   12.51    0.57
   5  -4   6   24.29    1.08
   5  -4   6   24.01    1.08
  -5  -4  -6   23.60    1.06
   5   4   6   24.11    1.05
  -5   4  -6   22.58    1.08
   5   4   6   23.32    1.06
   5   4   6   23.49    1.06
  -6  -4  -6    0.80    0.15
   6  -4   6    0.66    0.18
   6  -4   6    0.66    0.16
   6   4   6    0.89    0.14
   6   4   6    0.70    0.14
  -6   4  -6    0.63    0.19
   7  -4   6   10.28    0.53
   7  -4   6   10.23    0.55
  -7  -4  -6    9.47    0.48
   7   4   6    9.81    0.50
  -7   4  -6    9.38    0.55
   7   4   6   10.30    0.50
   8  -4   6    4.25    0.34
   8  -4   6    4.40    0.38
  -8  -4  -6    4.20    0.29
   8   4   6    3.95    0.29
   8   4   6    4.13    0.33
  -8   4  -6    4.03    0.39
  -9  -4  -6   45.62    1.99
   9  -4   6   46.88    2.01
   9  -4   6   46.53    2.03
   9   4   6   46.12    2.01
   9   4   6   44.92    1.99
  -9   4  -6   42.05    2.02
  10  -4   6   -0.13    0.21
  10  -4   6    0.11    0.17
 -10  -4  -6    0.02    0.15
 -10   4  -6   -0.18    0.24
  10   4   6    0.14    0.20
  10   4   6   -0.09    0.12
  11  -4   6    1.40    0.26
  11  -4   6    1.44    0.21
  11   4   6    1.90    0.25
  11   4   6    1.48    0.16
 -11   4  -6    1.38    0.29
  12  -4   6    5.50    0.46
  12  -4   6    5.85    0.39
 -12   4  -6    4.88    0.46
  12   4   6    5.95    0.46
  12   4   6    5.57    0.34
 -11  -5   6    2.37    0.34
  11  -5  -6    2.98    0.24
  11  -5  -6    2.27    0.21
 -11   5   6    2.57    0.35
  11   5  -6    2.60    0.26
  11   5  -6    2.41    0.19
  10  -5  -6    2.97    0.24
 -10  -5   6    2.39    0.33
  10  -5  -6    2.31    0.22
  10   5  -6    2.90    0.26
  10   5  -6    2.77    0.26
 -10   5   6    2.70    0.33
   9  -5  -6   12.80    0.60
  -9  -5   6   11.37    0.69
   9  -5  -6   11.27    0.59
  -9   5   6   10.83    0.67
   9   5  -6   11.78    0.58
   9   5  -6   12.10    0.61
   8  -5  -6    5.81    0.36
  -8  -5   6    5.73    0.47
   8  -5  -6    5.96    0.37
   8   5  -6    5.85    0.36
  -8   5   6    5.40    0.45
   8   5  -6    5.57    0.36
  -7  -5   6    9.18    0.59
   7  -5  -6   10.23    0.51
   7  -5  -6    9.56    0.51
   7   5  -6    9.83    0.51
  -7   5   6    9.89    0.56
   7   5  -6    9.95    0.53
   6  -5  -6    5.55    0.34
  -6  -5   6    5.63    0.47
   6  -5  -6    5.38    0.35
   6   5  -6    5.88    0.35
   6   5  -6    5.81    0.36
  -6   5   6    5.22    0.37
   5  -5  -6   24.74    1.11
  -5  -5   6   23.08    1.16
   5  -5  -6   25.69    1.11
   5   5  -6   24.75    1.12
  -5   5   6   24.21    1.12
   5   5  -6   24.68    1.11
   4  -5  -6    2.23    0.20
  -4  -5   6    2.14    0.24
   4  -5  -6    2.37    0.21
   4   5  -6    2.47    0.22
  -4   5   6    2.45    0.22
   4   5  -6    2.47    0.21
   3  -5  -6    1.34    0.17
  -3  -5   6    1.68    0.20
   3  -5  -6    1.36    0.17
  -3   5   6    1.50    0.18
   3   5  -6    1.39    0.18
   3   5  -6    1.63    0.17
  -2  -5   6    4.30    0.33
   2  -5  -6    4.71    0.32
   2  -5  -6    4.08    0.29
  -2   5   6    4.21    0.30
   2   5  -6    4.16    0.30
   2   5  -6    4.07    0.30
  -1  -5   6    7.87    0.43
   1  -5  -6    7.67    0.42
   1  -5  -6    7.76    0.42
  -1   5   6    7.87    0.41
   1   5  -6    7.60    0.42
   0  -5   6   25.94    1.18
   0  -5  -6   26.95    1.19
   0  -5  -6   26.35    1.19
   0   5   6   26.31    1.18
   0   5   6   26.73    1.20
   0   5   6   25.90    1.17
   0   5  -6   27.07    1.20
   0   5  -6   26.55    1.19
  -1  -5  -6    9.72    0.50
   1  -5   6    9.29    0.48
   1  -5   6    9.41    0.48
   1  -5   6    9.84    0.51
   1   5   6    9.76    0.48
   1   5   6   10.45    0.51
   1   5   6    9.49    0.48
  -1   5  -6   10.32    0.51
   2  -5   6    8.66    0.44
   2  -5   6    8.00    0.42
  -2  -5  -6    8.78    0.47
   2  -5   6    8.46    0.47
   2   5   6    8.61    0.43
   2   5   6    8.18    0.46
   2   5   6    8.65    0.42
  -2   5  -6    8.45    0.47
   3  -5   6   24.13    1.10
   3  -5   6   23.92    1.08
   3  -5   6   24.35    1.10
   3  -5   6   22.69    1.06
  -3  -5  -6   24.30    1.09
  -3   5  -6   24.14    1.10
   3   5   6   23.27    1.07
   3   5   6   24.05    1.09
  -4  -5  -6    1.65    0.19
   4  -5   6    1.62    0.20
   4  -5   6    1.97    0.20
   4  -5   6    2.13    0.21
  -4   5  -6    1.93    0.20
   4   5   6    1.83    0.18
   4   5   6    1.89    0.18
   5  -5   6   13.76    0.67
  -5  -5  -6   13.05    0.65
   5  -5   6   13.93    0.68
   5   5   6   13.22    0.65
  -5   5  -6   13.47    0.67
   5   5   6   13.15    0.65
  -6  -5  -6    0.12    0.17
   6  -5   6    0.25    0.18
   6  -5   6   -0.05    0.17
   6   5   6    0.03    0.15
  -6   5  -6    0.15    0.20
   6   5   6    0.03    0.15
   7  -5   6   11.35    0.60
  -7  -5  -6   11.26    0.56
   7  -5   6   11.03    0.59
  -7   5  -6   10.08    0.60
   7   5   6   10.83    0.55
   7   5   6   10.27    0.56
   8  -5   6    0.09    0.22
  -8  -5  -6    0.18    0.17
   8  -5   6    0.20    0.19
  -8   5  -6    0.31    0.22
   8   5   6    0.06    0.15
   8   5   6    0.03    0.17
   9  -5   6    8.52    0.51
   9  -5   6    8.25    0.51
  -9  -5  -6    7.71    0.46
   9   5   6    7.78    0.45
   9   5   6    8.04    0.49
  -9   5  -6    7.87    0.54
  10  -5   6    3.46    0.33
 -10  -5  -6    3.61    0.28
  10  -5   6    4.27    0.39
  10   5   6    3.30    0.31
 -10   5  -6    3.73    0.35
  10   5   6    3.53    0.30
  11  -5   6   12.60    0.68
  11  -5   6   13.80    0.76
 -11  -5  -6   13.76    0.66
  11   5   6   13.44    0.71
 -11   5  -6   11.95    0.74
  11   5   6   12.43    0.63
   9  -6  -6    4.50    0.37
  -9  -6   6    4.50    0.44
   9  -6  -6    4.71    0.37
   9   6  -6    4.99    0.41
   9   6  -6    4.47    0.35
  -9   6   6    4.56    0.40
  -8  -6   6    7.82    0.60
   8  -6  -6    6.37    0.41
   8  -6  -6    6.34    0.42
   8   6  -6    6.42    0.42
   8   6  -6    6.29    0.41
  -8   6   6    5.91    0.46
   7  -6  -6    0.61    0.18
   7  -6  -6    1.05    0.18
  -7  -6   6    1.36    0.29
   7   6  -6    1.27    0.23
   7   6  -6    1.33    0.19
  -7   6   6    0.90    0.22
   6  -6  -6    1.07    0.20
  -6  -6   6    1.12    0.30
   6  -6  -6    1.00    0.19
   6   6  -6    0.63    0.18
  -6   6   6    0.94    0.22
   6   6  -6    0.89    0.20
   5  -6  -6    2.68    0.23
   5  -6  -6    2.48    0.23
  -5  -6   6    2.73    0.29
   5   6  -6    2.41    0.26
  -5   6   6    2.63    0.26
   5   6  -6    2.48    0.23
   4  -6  -6   21.14    0.98
   4  -6  -6   21.53    0.97
  -4  -6   6   21.26    1.02
  -4   6   6   20.31    0.97
   4   6  -6   19.69    0.97
   4   6  -6   21.10    0.97
   3  -6  -6    3.37    0.28
   3  -6  -6    3.39    0.31
  -3  -6   6    3.14    0.29
   3   6  -6    3.41    0.28
  -3   6   6    3.40    0.32
   3   6  -6    3.01    0.25
   2  -6  -6   18.23    0.86
  -2  -6   6   17.63    0.85
  -2   6   6   17.44    0.83
   2   6  -6   17.83    0.85
   2   6  -6   17.72    0.84
   1  -6  -6    4.01    0.32
  -1  -6   6    3.46    0.27
   1   6  -6    3.47    0.31
   1   6  -6    3.65    0.33
   0  -6   6    6.07    0.38
   0  -6  -6    6.84    0.43
   0   6  -6    6.38    0.41
   1  -6   6    4.49    0.31
  -1  -6  -6    5.13    0.38
   1   6   6    4.19    0.30
  -1   6  -6    4.63    0.35
   2  -6   6    8.96    0.48
  -2  -6  -6    9.78    0.52
   2   6   6    9.80    0.53
  -2   6  -6   10.00    0.53
   2   6   6    9.61    0.49
  -3  -6  -6    2.93    0.26
   3   6   6    2.39    0.21
  -3   6  -6    2.50    0.25
   3   6   6    2.17    0.23
  -4  -6  -6   16.16    0.78
   4  -6   6   16.58    0.82
   4   6   6   15.67    0.76
   4   6   6   15.83    0.78
  -4   6  -6   15.83    0.80
   5  -6   6   -0.09    0.17
  -5  -6  -6    0.05    0.20
   5  -6   6   -0.12    0.21
   5   6   6    0.12    0.17
  -5   6  -6    0.04    0.19
   5   6   6   -0.03    0.17
   6  -6   6    4.66    0.39
  -6  -6  -6    5.43    0.40
   6  -6   6    5.37    0.44
  -6   6  -6    5.38    0.44
   6   6   6    5.01    0.37
   6   6   6    5.19    0.38
   7  -6   6   13.31    0.68
   7  -6   6   13.67    0.71
  -7  -6  -6   13.22    0.66
   7   6   6   11.83    0.65
   7   6   6   11.88    0.64
  -7   6  -6   11.97    0.69
   8  -6   6    1.57    0.25
   8  -6   6    1.91    0.27
  -8  -6  -6    1.90    0.25
   8   6   6    1.52    0.24
   8   6   6    1.37    0.20
  -8   6  -6    1.58    0.28
  -9  -6  -6    0.33    0.22
   9  -6   6    0.43    0.23
   9  -6   6   -0.03    0.26
   9   6   6    0.31    0.18
  -9   6  -6    0.36    0.26
   9   6   6    0.41    0.23
   5  -7  -6    0.65    0.20
   5  -7  -6    0.26    0.19
  -5  -7   6    0.51    0.31
   5   7  -6    0.51    0.24
   5   7  -6    0.32    0.21
   4  -7  -6    0.36    0.22
  -4  -7   6    0.45    0.28
   4   7  -6   -0.13    0.23
   4   7  -6    0.32    0.20
  -3  -7   6   16.14    0.85
   3  -7  -6   16.69    0.83
   3   7  -6   16.39    0.82
   3   7  -6   16.71    0.84
  -2  -7   6    0.56    0.23
   2  -7  -6    0.85    0.24
   2   7  -6    0.70    0.22
  -1  -7   6    8.19    0.51
   1  -7  -6    8.96    0.55
   1   7  -6    8.81    0.55
   0  -7   6    0.28    0.19
   0  -7  -6    0.22    0.21
   0   7  -6    0.23    0.24
   1  -7   6    1.85    0.21
  -1  -7  -6    2.32    0.29
  -1   7  -6    1.76    0.26
  -2  -7  -6   10.73    0.63
  -2   7  -6   11.09    0.64
  -3  -7  -6    7.39    0.49
  -3   7  -6    7.80    0.53
  -4  -7  -6    0.44    0.25
   4   7   6    0.57    0.21
   4   7   6    0.21    0.18
  -4   7  -6    0.01    0.25
  -5  -7  -6    7.62    0.51
  -5   7  -6    8.85    0.57
   5   7   6    8.24    0.49
   5   7   6    8.38    0.50
 -15   0   7   -0.30    0.23
  15   0  -7    0.09    0.21
  14   0  -7   -0.04    0.19
 -14   0   7    0.24    0.23
 -13   0   7   -0.13    0.19
  13   0  -7    0.00    0.16
  12   0  -7   -0.04    0.15
  12   0  -7    0.01    0.05
  12   0  -7   -0.02    0.04
 -12   0   7   -0.06    0.19
  11   0  -7    2.00    0.21
  11   0  -7    1.88    0.14
 -11   0   7    1.66    0.21
  10   0  -7   -0.16    0.15
 -10   0   7    0.01    0.15
  10   0  -7    0.10    0.07
  -9   0   7    4.94    0.33
   9   0  -7    5.31    0.27
   9   0  -7    5.81    0.32
  -8   0   7   -0.02    0.12
   8   0  -7    0.01    0.13
   8   0  -7   -0.02    0.07
   7   0  -7    1.64    0.14
  -7   0   7    1.31    0.14
   7   0  -7    1.82    0.16
   7   0  -7    1.37    0.12
  -6   0   7    0.12    0.11
   6   0  -7    0.03    0.09
   6   0  -7   -0.03    0.07
   6   0  -7    0.00    0.05
   6   0  -7    0.04    0.07
   5   0  -7   89.44    3.87
   5   0  -7   92.09    3.85
  -5   0   7   91.50    3.85
   5   0  -7   87.24    4.12
   5   0  -7   85.34    3.84
   4   0  -7    0.00    0.07
   4   0  -7   -0.02    0.07
  -4   0   7   -0.01    0.09
   4   0  -7    0.02    0.04
   4   0  -7   -0.02    0.08
   3   0  -7    4.74    0.22
   3   0  -7    4.52    0.24
   3   0  -7    4.53    0.25
  -3   0   7    5.05    0.26
  -3   0   7    4.19    0.26
  -2   0   7    0.07    0.08
   2   0  -7   -0.07    0.06
  -2   0   7   -0.01    0.08
   2   0  -7    0.07    0.07
   2   0  -7    0.15    0.05
   1   0  -7  138.91    6.21
   1   0  -7  151.73    6.20
  -1   0   7  139.40    6.20
  -1   0   7  148.90    6.22
   1   0  -7  136.26    6.19
   0   0  -7    0.01    0.06
   0   0   7    0.05    0.09
   0   0   7   -0.04    0.07
   0   0  -7    0.04    0.07
   0   0  -7    0.00    0.05
   1   0   7   66.98    2.85
  -1   0  -7   61.81    2.84
  -1   0  -7   67.93    2.84
  -1   0  -7   64.60    2.86
   1   0   7   67.80    2.84
   2   0   7    0.07    0.08
  -2   0  -7   -0.02    0.07
   2   0   7    0.05    0.07
  -2   0  -7    0.00    0.05
  -2   0  -7    0.06    0.08
  -3   0  -7    0.89    0.12
  -3   0  -7    0.99    0.09
   3   0   7    1.22    0.11
  -3   0  -7    0.83    0.08
   3   0   7    0.82    0.10
  -4   0  -7    0.05    0.07
   4   0   7    0.18    0.08
  -4   0  -7    0.04    0.04
  -4   0  -7   -0.03    0.10
   4   0   7    0.05    0.09
  -5   0  -7    3.96    0.22
  -5   0  -7    4.38    0.19
   5   0   7    4.01    0.25
  -5   0  -7    3.84    0.28
   5   0   7    4.25    0.24
   6   0   7   -0.03    0.10
   6   0   7    0.05    0.08
  -6   0  -7    0.05    0.14
   7   0   7    7.04    0.38
  -7   0  -7    6.77    0.41
   7   0   7    7.19    0.35
   8   0   7   -0.03    0.12
   8   0   7    0.06    0.09
  -8   0  -7    0.01    0.17
  -9   0  -7    1.83    0.24
   9   0   7    1.99    0.18
   9   0   7    1.89    0.21
  10   0   7    0.09    0.10
 -10   0  -7   -0.06    0.20
  10   0   7   -0.06    0.15
 -11   0  -7   37.02    1.70
  11   0   7   37.85    1.67
  11   0   7   37.20    1.63
  12   0   7    0.03    0.20
 -12   0  -7   -0.03    0.24
  12   0   7    0.14    0.10
  13   0   7   14.28    0.74
 -13   0  -7   14.69    0.80
  13   0   7   14.50    0.66
 -14   0  -7    0.01    0.29
  14   0   7    0.08    0.10
  14   0   7   -0.10    0.23
  14  -1  -7    0.81    0.20
  14   1  -7    0.57    0.22
 -14   1   7    0.51    0.25
  13  -1  -7    2.63    0.12
  13  -1  -7    2.38    0.13
  13  -1  -7    2.82    0.24
  13   1  -7    2.57    0.26
 -13   1   7    2.16    0.26
  12  -1  -7    5.67    0.33
 -12  -1   7    4.39    0.36
  12  -1  -7    5.16    0.25
  12   1  -7    5.26    0.35
  12   1  -7    4.95    0.23
  12   1  -7    4.74    0.23
 -12   1   7    4.76    0.41
  11  -1  -7   20.21    0.86
 -11  -1   7   17.84    0.90
  11  -1  -7   21.43    0.90
  11   1  -7   18.74    0.85
 -11   1   7   18.26    0.93
  11   1  -7   20.56    0.92
  10  -1  -7    7.33    0.38
  10  -1  -7    6.95    0.32
 -10  -1   7    6.09    0.36
 -10   1   7    6.00    0.39
  10   1  -7    5.97    0.37
  10   1  -7    6.22    0.31
   9  -1  -7    0.38    0.13
  -9  -1   7    0.31    0.13
   9  -1  -7    0.37    0.09
   9   1  -7    0.34    0.09
   9   1  -7    0.33    0.15
  -9   1   7    0.16    0.15
   9   1  -7    0.26    0.08
   8  -1  -7   13.26    0.59
   8  -1  -7   13.08    0.57
  -8  -1   7   11.78    0.59
   8   1  -7   11.98    0.57
   8   1  -7   12.42    0.57
  -8   1   7   12.63    0.61
   8   1  -7   12.01    0.60
   7  -1  -7   23.18    1.00
   7  -1  -7   23.06    1.00
  -7  -1   7   22.13    1.01
   7   1  -7   22.16    0.99
   7   1  -7   23.02    1.01
  -7   1   7   22.52    1.02
   7   1  -7   21.79    0.99
   6  -1  -7    3.69    0.24
  -6  -1   7    3.67    0.24
   6  -1  -7    4.32    0.22
   6   1  -7    3.84    0.26
   6   1  -7    3.89    0.22
  -6   1   7    3.95    0.27
   6   1  -7    3.66    0.21
   5  -1  -7    7.82    0.38
   5  -1  -7    8.12    0.38
   5  -1  -7    7.90    0.38
  -5  -1   7    7.79    0.39
   5   1  -7    7.95    0.38
   5   1  -7    7.87    0.39
   5   1  -7    8.02    0.39
  -5   1   7    7.97    0.40
   5   1  -7    7.98    0.37
   4  -1  -7    0.13    0.08
   4  -1  -7    0.09    0.03
  -4  -1   7    0.29    0.09
   4  -1  -7    0.13    0.07
   4   1  -7    0.26    0.08
  -4   1   7    0.18    0.11
   4   1  -7    0.17    0.06
   4   1  -7    0.09    0.08
   4   1  -7    0.26    0.10
  -4   1   7    0.14    0.08
   3  -1  -7    4.29    0.22
  -3  -1   7    3.32    0.24
   3  -1  -7    4.09    0.23
  -3  -1   7    4.03    0.22
   3  -1  -7    4.16    0.18
   3   1  -7    3.76    0.23
   3   1  -7    4.14    0.21
   3   1  -7    4.17    0.23
  -3   1   7    3.68    0.23
  -3   1   7    4.19    0.23
  -2  -1   7    2.16    0.16
   2  -1  -7    2.37    0.12
   2  -1  -7    2.16    0.16
   2  -1  -7    2.13    0.16
   2   1  -7    2.13    0.16
   2   1  -7    2.27    0.15
   2   1  -7    2.18    0.17
  -2   1   7    1.99    0.16
  -1  -1   7    8.32    0.43
   1  -1  -7    9.61    0.40
  -1  -1   7    8.93    0.41
   1  -1  -7    8.53    0.41
   1  -1  -7    8.46    0.40
  -1   1   7    8.15    0.42
  -1   1   7    9.11    0.42
   1   1  -7    8.65    0.40
   1   1  -7    8.88    0.41
   1   1  -7    8.70    0.42
   0  -1  -7    0.16    0.06
   0  -1   7    0.26    0.08
   0  -1  -7    0.06    0.06
   0  -1   7    0.06    0.10
   0   1  -7    0.23    0.06
   0   1   7    0.10    0.08
   0   1  -7   -0.01    0.07
   0   1   7    0.38    0.08
   0   1  -7    0.09    0.09
   1  -1   7   22.63    1.06
  -1  -1  -7   23.13    1.05
  -1  -1  -7   22.06    1.05
   1  -1   7   24.37    1.05
  -1  -1  -7   24.74    1.04
  -1   1  -7   23.73    1.04
   1   1   7   25.68    1.06
  -1   1  -7   25.31    1.06
   1   1   7   23.21    1.06
  -1   1  -7   23.98    1.06
  -2  -1  -7   27.39    1.15
  -2  -1  -7   26.52    1.16
   2  -1   7   25.09    1.17
   2  -1   7   25.98    1.16
  -2  -1  -7   25.84    1.16
   2   1   7   26.68    1.16
   2   1   7   26.59    1.16
  -2   1  -7   26.22    1.14
  -2   1  -7   25.25    1.16
  -2   1  -7   28.08    1.17
   3  -1   7    0.78    0.11
  -3  -1  -7    0.98    0.10
  -3  -1  -7    1.05    0.08
   3  -1   7    1.06    0.12
  -3  -1  -7    0.87    0.12
  -3   1  -7    1.07    0.11
   3   1   7    0.89    0.10
   3   1   7    1.07    0.12
  -3   1  -7    1.16    0.13
  -4  -1  -7    3.11    0.16
   4  -1   7    2.97    0.21
  -4  -1  -7    3.01    0.21
  -4  -1  -7    2.71    0.18
   4  -1   7    2.88    0.22
  -4   1  -7    2.99    0.19
   4   1   7    3.11    0.20
   4   1   7    2.79    0.19
  -4   1  -7    2.85    0.23
   5  -1   7   70.15    2.88
   5  -1   7   68.08    2.88
  -5  -1  -7   70.54    2.87
  -5  -1  -7   66.18    2.89
  -5  -1  -7   62.29    2.88
   5   1   7   64.64    2.88
   5   1   7   66.67    2.88
  -5   1  -7   63.50    2.90
  -6  -1  -7   25.01    1.14
  -6  -1  -7   25.48    1.09
   6  -1   7   25.88    1.13
   6  -1   7   26.02    1.11
   6   1   7   25.19    1.11
   6   1   7   24.89    1.12
  -6   1  -7   22.81    1.13
   7  -1   7   46.22    1.96
  -7  -1  -7   42.65    1.96
   7  -1   7   46.11    1.94
  -7  -1  -7   44.20    1.92
   7   1   7   43.66    1.94
   7   1   7   44.04    1.94
  -7   1  -7   44.48    1.97
   8  -1   7   -0.11    0.14
  -8  -1  -7    0.22    0.17
   8  -1   7    0.08    0.11
   8   1   7    0.12    0.11
   8   1   7    0.13    0.09
  -8   1  -7    0.36    0.17
  -9  -1  -7    0.44    0.20
   9  -1   7    0.21    0.11
   9  -1   7   -0.12    0.15
  -9   1  -7   -0.14    0.20
   9   1   7   -0.02    0.14
   9   1   7    0.15    0.09
  10  -1   7    9.37    0.45
 -10  -1  -7    9.04    0.52
  10  -1   7    8.95    0.52
  10   1   7    9.04    0.47
 -10   1  -7    8.42    0.52
  10   1   7    8.23    0.43
 -11  -1  -7    9.77    0.58
  11  -1   7   10.34    0.58
  11  -1   7   10.01    0.50
  11   1   7    9.87    0.48
  11   1   7   10.37    0.54
 -11   1  -7   10.06    0.58
 -12  -1  -7    4.71    0.43
  12  -1   7    4.54    0.42
  12  -1   7    4.89    0.30
  12   1   7    5.04    0.28
 -12   1  -7    4.86    0.47
  12   1   7    5.33    0.38
  13  -1   7    1.53    0.15
 -13  -1  -7    1.48    0.29
  13  -1   7    1.24    0.24
  13   1   7    1.97    0.18
 -13   1  -7    1.39    0.27
  13   1   7    1.78    0.24
 -14  -1  -7    1.81    0.32
  14  -1   7    2.01    0.16
  14  -1   7    1.89    0.29
 -14   1  -7    1.84    0.34
  14   1   7    1.74    0.25
  14   1   7    2.11    0.17
  14  -2  -7    0.99    0.09
  14  -2  -7    0.94    0.19
 -14   2   7    0.42    0.29
  14   2  -7    0.59    0.24
  13  -2  -7    0.59    0.08
  13  -2  -7    0.55    0.16
 -13   2   7    0.37    0.26
  13   2  -7    0.65    0.22
  12  -2  -7    0.17    0.09
  12  -2  -7    0.07    0.15
 -12   2   7    0.02    0.24
  12   2  -7   -0.05    0.17
  12   2  -7    0.06    0.06
  11  -2  -7    1.76    0.14
  11  -2  -7    1.97    0.18
  11   2  -7    1.91    0.17
  11   2  -7    1.58    0.15
 -11   2   7    1.48    0.23
  11   2  -7    1.88    0.23
  10  -2  -7    1.48    0.16
  10  -2  -7    1.53    0.13
 -10   2   7    0.96    0.22
  10   2  -7    1.18    0.14
  10   2  -7    1.41    0.19
  10   2  -7    1.20    0.11
  -9  -2   7    1.81    0.16
   9  -2  -7    1.93    0.17
   9  -2  -7    1.95    0.17
   9   2  -7    1.98    0.20
   9   2  -7    1.77    0.16
  -9   2   7    1.81    0.22
   9   2  -7    2.05    0.17
   8  -2  -7    0.08    0.11
   8  -2  -7    0.40    0.10
  -8  -2   7    0.14    0.10
   8   2  -7    0.23    0.10
   8   2  -7    0.03    0.15
   8   2  -7    0.18    0.09
  -8   2   7    0.00    0.14
   7  -2  -7   13.10    0.59
  -7  -2   7   11.93    0.58
   7  -2  -7   12.85    0.58
   7   2  -7   11.50    0.57
  -7   2   7   11.75    0.60
   7   2  -7   13.98    0.61
   7   2  -7   12.41    0.57
   6  -2  -7   11.12    0.51
  -6  -2   7   10.93    0.51
   6  -2  -7   10.84    0.51
   6   2  -7   11.42    0.52
  -6   2   7   10.59    0.53
   6   2  -7   10.71    0.51
   6   2  -7   10.72    0.51
  -5  -2   7    0.18    0.08
   5  -2  -7    0.17    0.10
   5  -2  -7    0.40    0.09
   5   2  -7    0.27    0.10
   5   2  -7    0.27    0.09
   5   2  -7    0.27    0.09
  -5   2   7    0.35    0.12
   4  -2  -7   42.21    1.77
  -4  -2   7   40.58    1.76
   4  -2  -7   40.41    1.77
  -4   2   7   40.54    1.78
   4   2  -7   41.74    1.77
   4   2  -7   41.11    1.77
  -4   2   7   38.36    1.77
   4   2  -7   39.38    1.76
  -3  -2   7    7.47    0.36
   3  -2  -7    7.94    0.37
   3  -2  -7    7.82    0.37
  -3  -2   7    7.05    0.38
   3   2  -7    7.52    0.37
  -3   2   7    7.39    0.37
   3   2  -7    7.63    0.37
   3   2  -7    7.34    0.36
  -3   2   7    7.54    0.38
   2  -2  -7   32.44    1.40
   2  -2  -7   32.04    1.40
  -2  -2   7   31.51    1.40
   2  -2  -7   35.10    1.38
  -2  -2   7   30.72    1.41
  -2   2   7   32.80    1.41
   2   2  -7   30.99    1.40
  -2   2   7   31.42    1.40
   2   2  -7   32.06    1.41
   2   2  -7   30.92    1.40
   1  -2  -7    8.33    0.39
   1  -2  -7    8.50    0.39
  -1  -2   7    7.48    0.41
   1  -2  -7    7.94    0.37
  -1  -2   7    7.66    0.39
   1   2  -7    8.29    0.40
  -1   2   7    8.15    0.39
  -1   2   7    8.31    0.40
   1   2  -7    8.15    0.39
   1   2  -7    8.14    0.38
   0  -2   7   66.72    2.82
   0  -2   7   65.26    2.80
   0  -2  -7   64.58    2.81
   0  -2   7   63.82    2.81
   0  -2  -7   61.58    2.80
   0  -2  -7   64.46    2.80
   0   2   7   63.95    2.81
   0   2   7   64.75    2.81
   0   2  -7   65.89    2.81
   0   2  -7   69.15    2.82
   1  -2   7    9.49    0.44
   1  -2   7   10.12    0.48
  -1  -2  -7    9.56    0.45
   1  -2   7    9.60    0.46
   1   2   7    9.93    0.46
  -1   2  -7   10.19    0.47
   1   2   7    9.58    0.46
  -1   2  -7   10.18    0.47
   1   2   7    9.02    0.45
   2  -2   7    0.49    0.12
   2  -2   7    0.32    0.10
   2  -2   7    0.49    0.06
  -2  -2  -7    0.56    0.09
  -2  -2  -7    0.43    0.08
  -2   2  -7    0.53    0.11
   2   2   7    0.52    0.10
  -2   2  -7    0.44    0.12
   2   2   7    0.39    0.09
   3  -2   7    4.83    0.22
   3  -2   7    4.78    0.30
  -3  -2  -7    4.74    0.25
   3  -2   7    5.08    0.28
   3   2   7    4.28    0.26
   3   2   7    4.92    0.27
   3   2   7    4.91    0.27
  -3   2  -7    5.05    0.28
  -3   2  -7    5.04    0.28
  -4  -2  -7   23.01    0.99
   4  -2   7   21.62    1.02
  -4  -2  -7   21.66    1.00
   4  -2   7   22.90    1.01
  -4   2  -7   22.72    1.01
  -4   2  -7   22.91    1.02
   4   2   7   22.56    1.00
   4   2   7   23.13    1.00
   4   2   7   22.59    1.01
   5  -2   7    6.97    0.37
   5  -2   7    6.10    0.35
  -5  -2  -7    6.36    0.31
  -5   2  -7    6.09    0.37
   5   2   7    6.13    0.34
   5   2   7    6.60    0.34
   5   2   7    6.55    0.34
   6  -2   7    0.37    0.13
  -6  -2  -7    0.44    0.08
   6  -2   7    0.64    0.16
   6   2   7    0.51    0.13
   6   2   7    0.47    0.12
  -6   2  -7    0.19    0.16
   6   2   7    0.46    0.10
  -7  -2  -7    1.55    0.12
   7  -2   7    1.36    0.18
   7  -2   7    1.15    0.15
   7   2   7    1.49    0.16
   7   2   7    1.64    0.14
  -7   2  -7    1.54    0.22
   7   2   7    1.74    0.15
   8  -2   7    9.83    0.51
  -8  -2  -7   10.21    0.45
   8  -2   7    9.16    0.49
   8   2   7    9.58    0.47
   8   2   7   10.15    0.48
   8   2   7    9.62    0.51
  -8   2  -7    8.09    0.52
   9  -2   7   13.47    0.66
   9  -2   7   12.31    0.63
   9   2   7   14.30    0.63
   9   2   7   12.96    0.61
   9   2   7   12.93    0.65
  -9   2  -7   12.18    0.70
  10  -2   7    3.93    0.35
  10  -2   7    3.85    0.30
  10   2   7    3.79    0.26
  10   2   7    4.18    0.32
 -10   2  -7    3.96    0.38
  10   2   7    4.24    0.30
  11  -2   7    5.48    0.35
  11  -2   7    5.21    0.44
  11   2   7    6.12    0.37
  11   2   7    5.86    0.42
  11   2   7    5.58    0.32
 -11   2  -7    5.34    0.44
  12  -2   7   10.79    0.53
  12  -2   7   10.59    0.63
 -12  -2  -7   10.81    0.64
 -12   2  -7   10.22    0.65
  12   2   7    9.86    0.50
  12   2   7   10.33    0.58
  12   2   7   11.41    0.57
 -13  -2  -7    2.32    0.32
  13  -2   7    1.62    0.27
  13  -2   7    1.90    0.18
 -13   2  -7    1.85    0.30
  13   2   7    2.00    0.19
  14  -2   7    0.40    0.24
  14  -2   7    0.28    0.13
 -14  -2  -7    0.13    0.28
  14   2   7    0.12    0.09
 -14   2  -7    0.26    0.30
 -13  -3   7    2.17    0.32
  13  -3  -7    1.76    0.19
  13  -3  -7    1.75    0.14
  13   3  -7    1.60    0.14
 -13   3   7    1.84    0.33
  12  -3  -7    6.96    0.35
 -12  -3   7    6.48    0.53
  12  -3  -7    7.02    0.38
  12   3  -7    6.67    0.39
  12   3  -7    6.03    0.32
 -12   3   7    6.24    0.49
  11  -3  -7    6.59    0.38
 -11  -3   7    6.76    0.46
  11  -3  -7    6.01    0.34
  11   3  -7    5.68    0.31
  11   3  -7    6.17    0.36
 -11   3   7    6.13    0.49
  10  -3  -7    3.02    0.23
  10  -3  -7    2.99    0.23
 -10  -3   7    2.53    0.31
  10   3  -7    2.55    0.25
 -10   3   7    3.36    0.31
  10   3  -7    2.74    0.21
   9  -3  -7   -0.09    0.11
  -9  -3   7   -0.01    0.21
   9  -3  -7    0.08    0.13
  -9   3   7    0.22    0.20
   9   3  -7    0.03    0.10
   9   3  -7    0.12    0.13
   8  -3  -7    5.32    0.33
  -8  -3   7    5.22    0.43
   8  -3  -7    5.13    0.30
   8   3  -7    5.41    0.30
  -8   3   7    4.83    0.36
   8   3  -7    5.24    0.31
  -7  -3   7    1.08    0.23
   7  -3  -7    1.30    0.16
   7  -3  -7    1.32    0.13
  -7   3   7    1.20    0.20
   7   3  -7    1.27    0.15
   7   3  -7    1.36    0.14
   6  -3  -7   12.17    0.59
  -6  -3   7   12.62    0.65
   6  -3  -7   13.44    0.60
   6   3  -7   12.81    0.59
  -6   3   7   12.26    0.62
   6   3  -7   12.42    0.59
  -5  -3   7    6.55    0.41
  -5  -3   7    6.48    0.33
   5  -3  -7    6.98    0.35
   5  -3  -7    6.82    0.36
  -5   3   7    6.61    0.38
   5   3  -7    6.86    0.36
   5   3  -7    6.86    0.36
   4  -3  -7    0.80    0.12
   4  -3  -7    1.00    0.11
  -4  -3   7    0.84    0.10
  -4  -3   7    0.76    0.15
   4   3  -7    0.93    0.12
   4   3  -7    0.78    0.11
  -4   3   7    0.90    0.14
  -3  -3   7    4.96    0.34
   3  -3  -7    5.88    0.31
   3  -3  -7    6.15    0.32
  -3  -3   7    5.90    0.30
   3   3  -7    6.03    0.32
  -3   3   7    6.10    0.34
   3   3  -7    5.85    0.32
  -2  -3   7    0.77    0.11
   2  -3  -7    0.69    0.11
  -2  -3   7    0.86    0.13
  -2  -3   7    0.90    0.13
   2  -3  -7    0.86    0.11
   2   3  -7    0.64    0.11
  -2   3   7    0.84    0.12
   2   3  -7    0.90    0.12
  -2   3   7    0.76    0.07
  -2   3   7    0.73    0.13
   1  -3  -7    6.49    0.33
  -1  -3   7    6.27    0.34
  -1  -3   7    6.27    0.33
  -1  -3   7    6.17    0.33
  -1   3   7    6.21    0.29
   1   3  -7    6.20    0.33
   1   3  -7    5.94    0.32
  -1   3   7    6.30    0.33
  -1   3   7    6.08    0.34
   0  -3   7   11.80    0.53
   0  -3   7   11.32    0.54
   0  -3   7   11.89    0.56
   0  -3  -7   11.95    0.54
   0  -3  -7   11.19    0.54
   0   3  -7   11.68    0.55
   0   3  -7   11.70    0.54
   0   3   7   11.42    0.55
   0   3   7   11.27    0.52
   0   3   7   11.27    0.54
   1  -3   7   10.63    0.48
  -1  -3  -7   10.41    0.50
   1  -3   7   10.47    0.52
  -1  -3  -7   10.45    0.49
   1  -3   7   10.55    0.51
   1   3   7   10.65    0.51
  -1   3  -7   10.06    0.50
   1   3   7   10.28    0.48
  -1   3  -7   10.53    0.51
   1   3   7   10.80    0.50
   2  -3   7    0.89    0.15
   2  -3   7    1.06    0.09
  -2  -3  -7    0.80    0.11
  -2  -3  -7    0.88    0.12
   2  -3   7    0.69    0.13
   2   3   7    0.85    0.11
  -2   3  -7    0.69    0.14
   2   3   7    0.89    0.12
   2   3   7    0.85    0.10
  -2   3  -7    1.06    0.14
  -3  -3  -7   22.35    0.98
   3  -3   7   21.02    0.95
   3  -3   7   22.63    1.00
  -3  -3  -7   21.98    0.97
   3  -3   7   20.22    0.99
  -3   3  -7   21.37    0.99
   3   3   7   22.27    0.97
  -3   3  -7   22.62    0.98
   3   3   7   21.75    0.98
   3   3   7   22.05    0.97
   4  -3   7   26.49    1.15
  -4  -3  -7   24.83    1.12
   4  -3   7   24.37    1.15
   4   3   7   26.41    1.13
   4   3   7   26.14    1.13
  -4   3  -7   24.89    1.14
   4   3   7   24.68    1.13
   5  -3   7    1.16    0.16
   5  -3   7    0.66    0.15
  -5  -3  -7    0.94    0.12
   5   3   7    1.19    0.13
   5   3   7    1.08    0.14
   5   3   7    0.94    0.13
  -5   3  -7    1.30    0.18
  -6  -3  -7   27.53    1.21
   6  -3   7   28.38    1.25
   6  -3   7   26.11    1.25
   6   3   7   29.43    1.23
  -6   3  -7   26.04    1.25
   6   3   7   27.53    1.22
   6   3   7   27.80    1.23
  -7  -3  -7    0.41    0.11
   7  -3   7    0.00    0.16
   7  -3   7    0.05    0.15
   7   3   7    0.10    0.12
  -7   3  -7    0.92    0.18
   7   3   7    0.25    0.12
   7   3   7    0.16    0.13
  -8  -3  -7    0.90    0.13
   8  -3   7    0.75    0.20
   8  -3   7    1.07    0.17
   8   3   7    0.90    0.18
   8   3   7    1.30    0.15
   8   3   7    1.00    0.14
  -8   3  -7    1.02    0.24
   9  -3   7    3.98    0.41
   9  -3   7    5.00    0.35
  -9  -3  -7    4.93    0.30
   9   3   7    5.34    0.31
   9   3   7    5.05    0.34
   9   3   7    5.34    0.31
  -9   3  -7    4.56    0.45
  10  -3   7    4.39    0.39
  10  -3   7    4.78    0.35
 -10   3  -7    4.07    0.37
  10   3   7    5.37    0.36
  10   3   7    5.42    0.31
  11  -3   7    6.49    0.46
  11  -3   7    5.98    0.41
  11   3   7    6.93    0.46
 -11   3  -7    6.35    0.54
  11   3   7    6.84    0.37
  12  -3   7    2.08    0.22
  12  -3   7    2.17    0.31
  12   3   7    2.29    0.18
 -12   3  -7    2.80    0.36
  12   3   7    3.42    0.30
  13  -3   7    1.32    0.30
  13  -3   7    1.18    0.18
  13   3   7    1.00    0.24
  13   3   7    1.13    0.13
 -13   3  -7    0.76    0.32
  12  -4  -7    1.25    0.20
  12  -4  -7    1.09    0.15
 -12  -4   7    1.15    0.33
  12   4  -7    1.10    0.12
 -12   4   7    1.34    0.30
  12   4  -7    1.11    0.19
  11  -4  -7    0.41    0.17
 -11  -4   7    0.07    0.29
  11  -4  -7    0.43    0.14
  11   4  -7    0.55    0.18
  11   4  -7    0.38    0.12
 -11   4   7    0.71    0.26
  10  -4  -7    0.25    0.13
  10  -4  -7    0.12    0.17
 -10  -4   7    0.38    0.25
  10   4  -7    0.21    0.12
 -10   4   7    0.55    0.24
  10   4  -7    0.10    0.16
   9  -4  -7    2.01    0.18
   9  -4  -7    2.37    0.20
  -9  -4   7    2.17    0.28
   9   4  -7    2.07    0.17
  -9   4   7    2.06    0.26
   9   4  -7    2.03    0.19
   8  -4  -7    8.42    0.43
  -8  -4   7    7.93    0.55
   8  -4  -7    8.79    0.45
   8   4  -7    8.08    0.45
  -8   4   7    7.49    0.48
   8   4  -7    8.19    0.43
  -7  -4   7    0.54    0.24
   7  -4  -7    0.43    0.12
   7  -4  -7    0.56    0.16
   7   4  -7    0.47    0.13
  -7   4   7    0.57    0.20
   7   4  -7    0.33    0.15
  -6  -4   7    9.74    0.58
   6  -4  -7   10.12    0.51
   6  -4  -7   10.22    0.50
   6   4  -7   10.24    0.51
   6   4  -7   10.24    0.51
  -6   4   7    9.98    0.55
  -5  -4   7   18.25    0.95
   5  -4  -7   20.74    0.93
   5  -4  -7   20.23    0.93
   5   4  -7   20.88    0.94
   5   4  -7   21.58    0.93
  -5   4   7   20.78    0.95
   4  -4  -7    2.38    0.22
   4  -4  -7    2.59    0.20
  -4  -4   7    2.33    0.23
   4   4  -7    2.08    0.18
   4   4  -7    2.31    0.19
  -4   4   7    2.39    0.21
   3  -4  -7    4.82    0.30
  -3  -4   7    4.39    0.33
   3  -4  -7    4.52    0.29
  -3   4   7    4.76    0.30
   3   4  -7    4.67    0.30
   3   4  -7    4.61    0.29
  -2  -4   7    5.45    0.34
   2  -4  -7    5.16    0.31
  -2  -4   7    5.19    0.29
   2  -4  -7    5.69    0.32
   2   4  -7    5.58    0.32
   2   4  -7    5.25    0.33
  -2   4   7    5.74    0.33
   1  -4  -7   16.17    0.75
  -1  -4   7   15.51    0.75
   1  -4  -7   16.23    0.75
  -1  -4   7   15.88    0.74
  -1   4   7   16.93    0.76
   1   4  -7   15.98    0.76
  -1   4   7   17.00    0.75
  -1   4   7   16.18    0.72
   1   4  -7   16.15    0.75
   0  -4   7   11.39    0.58
   0  -4  -7   11.96    0.56
   0  -4   7   11.08    0.55
   0  -4   7   11.87    0.56
   0  -4  -7   11.35    0.55
   0   4   7   11.67    0.55
   0   4   7   12.01    0.57
   0   4  -7   11.66    0.57
   0   4  -7   11.64    0.57
   0   4   7   11.56    0.53
  -1  -4  -7    1.04    0.15
   1  -4   7    1.38    0.13
  -1  -4  -7    1.26    0.14
   1  -4   7    0.90    0.16
   1  -4   7    1.09    0.15
   1   4   7    1.27    0.14
   1   4   7    1.26    0.12
  -1   4  -7    1.31    0.16
  -1   4  -7    1.16    0.16
   1   4   7    1.27    0.15
  -2  -4  -7    6.99    0.37
   2  -4   7    6.88    0.41
   2  -4   7    6.30    0.34
   2  -4   7    6.96    0.39
   2   4   7    7.03    0.38
  -2   4  -7    6.95    0.39
  -2   4  -7    6.52    0.38
   2   4   7    6.85    0.35
   2   4   7    6.95    0.36
  -3  -4  -7   17.80    0.79
   3  -4   7   17.84    0.81
   3  -4   7   16.72    0.77
   3  -4   7   17.90    0.83
  -3   4  -7   16.84    0.82
   3   4   7   17.78    0.79
   3   4   7   16.86    0.79
   3   4   7   17.05    0.80
   4  -4   7    5.29    0.36
   4  -4   7    5.14    0.35
  -4  -4  -7    5.83    0.32
   4   4   7    5.47    0.30
  -4   4  -7    5.49    0.37
   4   4   7    5.25    0.31
   4   4   7    5.35    0.33
  -5  -4  -7    3.87    0.25
   5  -4   7    3.66    0.32
   5  -4   7    3.82    0.33
   5   4   7    3.97    0.28
  -5   4  -7    3.96    0.34
   5   4   7    4.14    0.28
   5   4   7    3.68    0.25
  -6  -4  -7   -0.14    0.12
   6  -4   7    0.09    0.19
   6  -4   7    0.03    0.17
  -6   4  -7    0.02    0.17
   6   4   7    0.14    0.15
   6   4   7    0.12    0.13
  -7  -4  -7    5.48    0.33
   7  -4   7    5.24    0.38
   7  -4   7    5.98    0.40
   7   4   7    5.70    0.37
  -7   4  -7    5.45    0.42
   7   4   7    5.64    0.35
  -8  -4  -7   10.79    0.54
   8  -4   7   11.14    0.62
   8  -4   7   11.20    0.59
  -8   4  -7   10.84    0.63
   8   4   7   11.04    0.58
   8   4   7   10.94    0.55
  -9  -4  -7    1.74    0.18
   9  -4   7    1.90    0.22
   9  -4   7    1.51    0.24
   9   4   7    1.83    0.21
  -9   4  -7    1.76    0.28
   9   4   7    1.55    0.18
  10  -4   7    8.02    0.50
  10  -4   7    7.98    0.55
  10   4   7    8.38    0.44
 -10   4  -7    7.40    0.56
  10   4   7    8.36    0.51
  11  -4   7    0.34    0.25
  11  -4   7    0.45    0.20
  11   4   7    0.59    0.21
  11   4   7    0.50    0.14
 -11   4  -7    0.09    0.27
  12  -4   7    2.05    0.23
  12  -4   7    1.50    0.31
 -12   4  -7    1.43    0.33
  12   4   7    2.48    0.29
  12   4   7    1.81    0.18
  11  -5  -7    0.96    0.17
 -11  -5   7    0.79    0.31
  11  -5  -7    1.02    0.20
 -11   5   7    0.89    0.28
  11   5  -7    0.90    0.15
  11   5  -7    0.96    0.22
 -10  -5   7    0.31    0.32
  10  -5  -7    0.27    0.18
  10  -5  -7    0.24    0.15
  10   5  -7    0.10    0.14
 -10   5   7    0.78    0.28
  10   5  -7    0.54    0.21
   9  -5  -7    0.19    0.18
  -9  -5   7    0.01    0.27
   9  -5  -7    0.04    0.15
  -9   5   7    0.14    0.22
   9   5  -7    0.03    0.14
   9   5  -7    0.23    0.19
   8  -5  -7    2.57    0.21
  -8  -5   7    2.23    0.31
   8  -5  -7    2.66    0.23
   8   5  -7    2.32    0.24
  -8   5   7    2.21    0.29
   8   5  -7    2.39    0.21
  -7  -5   7    0.75    0.28
   7  -5  -7    0.92    0.16
   7  -5  -7    0.66    0.16
   7   5  -7    0.85    0.19
  -7   5   7    0.96    0.23
   7   5  -7    0.57    0.16
   6  -5  -7    1.65    0.20
  -6  -5   7    1.30    0.25
   6  -5  -7    1.80    0.19
   6   5  -7    1.39    0.18
   6   5  -7    1.84    0.21
  -6   5   7    1.87    0.24
   5  -5  -7    0.13    0.14
   5  -5  -7    0.15    0.14
  -5  -5   7    0.16    0.23
  -5   5   7    0.08    0.18
   5   5  -7    0.18    0.14
   5   5  -7    0.01    0.15
  -4  -5   7   10.27    0.57
   4  -5  -7   10.23    0.52
   4  -5  -7   10.02    0.51
   4   5  -7   10.04    0.51
  -4   5   7    9.65    0.53
   4   5  -7    9.41    0.52
   3  -5  -7    1.25    0.17
   3  -5  -7    1.77    0.18
  -3  -5   7    1.51    0.21
   3   5  -7    1.62    0.20
  -3   5   7    1.56    0.19
   3   5  -7    1.56    0.18
   2  -5  -7   15.33    0.71
  -2  -5   7   14.38    0.73
   2  -5  -7   14.78    0.70
  -2   5   7   15.28    0.71
   2   5  -7   14.48    0.72
   2   5  -7   15.12    0.71
  -1  -5   7    2.15    0.21
   1  -5  -7    2.26    0.19
   1  -5  -7    2.15    0.20
   1   5  -7    1.98    0.21
   1   5  -7    2.42    0.21
  -1   5   7    2.06    0.20
   0  -5   7    0.84    0.15
   0  -5  -7    0.83    0.16
   0   5   7    0.94    0.15
   0   5  -7    0.97    0.17
   0   5  -7    1.23    0.18
  -1  -5  -7    4.05    0.31
   1  -5   7    3.45    0.25
   1  -5   7    4.25    0.28
   1   5   7    3.73    0.25
   1   5   7    3.97    0.27
  -1   5  -7    3.82    0.30
   1   5   7    3.42    0.30
  -2  -5  -7   14.39    0.70
   2  -5   7   15.00    0.69
   2  -5   7   13.49    0.66
   2  -5   7   15.24    0.72
   2   5   7   14.65    0.67
   2   5   7   14.06    0.67
   2   5   7   14.36    0.70
  -2   5  -7   13.97    0.70
  -3  -5  -7    1.23    0.18
   3  -5   7    1.13    0.20
   3  -5   7    1.11    0.18
  -3   5  -7    1.24    0.20
   3   5   7    1.06    0.15
   3   5   7    0.79    0.16
   4  -5   7    7.50    0.45
  -4  -5  -7    7.04    0.41
   4  -5   7    7.43    0.42
   4   5   7    6.51    0.41
   4   5   7    6.49    0.39
  -4   5  -7    6.87    0.42
   5  -5   7    4.30    0.36
  -5  -5  -7    3.67    0.31
   5  -5   7    4.01    0.34
   5   5   7    3.35    0.29
  -5   5  -7    3.80    0.31
   5   5   7    3.61    0.30
  -6  -5  -7    1.73    0.20
   6  -5   7    1.85    0.25
   6  -5   7    1.76    0.22
   6   5   7    1.64    0.19
   6   5   7    1.40    0.18
  -6   5  -7    1.47    0.25
   7  -5   7    1.80    0.24
   7  -5   7    1.78    0.26
  -7  -5  -7    1.55    0.20
   7   5   7    1.34    0.19
   7   5   7    1.67    0.21
  -7   5  -7    1.52    0.25
   8  -5   7    2.40    0.26
   8  -5   7    1.98    0.25
  -8  -5  -7    1.60    0.21
  -8   5  -7    1.60    0.28
   8   5   7    1.65    0.21
   8   5   7    1.83    0.20
   9  -5   7    2.85    0.28
  -9  -5  -7    2.85    0.25
   9  -5   7    2.77    0.32
  -9   5  -7    2.65    0.33
   9   5   7    2.75    0.23
   9   5   7    2.92    0.28
  10  -5   7    2.03    0.30
 -10  -5  -7    2.32    0.24
  10  -5   7    3.03    0.29
 -10   5  -7    2.20    0.33
  10   5   7    2.31    0.21
  10   5   7    2.27    0.25
   8  -6  -7    4.49    0.36
  -8  -6   7    4.25    0.40
   8  -6  -7    3.74    0.34
  -8   6   7    3.48    0.35
   8   6  -7    4.17    0.35
   8   6  -7    3.91    0.36
   7  -6  -7    4.11    0.35
  -7  -6   7    3.46    0.37
   7  -6  -7    3.63    0.33
   7   6  -7    3.90    0.34
   7   6  -7    4.14    0.38
  -7   6   7    4.23    0.35
  -6  -6   7    0.01    0.29
   6  -6  -7    0.03    0.19
   6  -6  -7   -0.11    0.16
   6   6  -7    0.21    0.18
   6   6  -7   -0.01    0.17
  -6   6   7    0.15    0.22
   5  -6  -7    0.22    0.19
   5  -6  -7    0.31    0.17
  -5  -6   7    0.24    0.23
   5   6  -7    0.10    0.17
  -5   6   7   -0.02    0.19
   5   6  -7   -0.01    0.20
   4  -6  -7    2.46    0.24
  -4  -6   7    2.21    0.27
   4  -6  -7    1.90    0.21
  -4   6   7    2.14    0.24
   4   6  -7    2.26    0.24
   4   6  -7    2.25    0.23
  -3  -6   7    1.20    0.24
   3  -6  -7    1.05    0.19
   3  -6  -7    1.39    0.22
   3   6  -7    1.15    0.20
  -3   6   7    1.16    0.20
   3   6  -7    1.07    0.22
   2  -6  -7   -0.08    0.17
  -2  -6   7   -0.07    0.20
   2   6  -7   -0.03    0.16
   2   6  -7    0.14    0.18
  -2   6   7   -0.04    0.17
   1  -6  -7    0.55    0.18
  -1  -6   7    0.26    0.18
   1   6  -7    0.46    0.19
   1   6  -7    0.45    0.18
  -1   6   7    0.44    0.16
   0  -6  -7   -0.01    0.20
   0  -6   7    0.24    0.16
   0   6  -7    0.08    0.18
   1  -6   7    1.25    0.17
  -1  -6  -7    1.25    0.21
  -1   6  -7    1.84    0.25
  -2  -6  -7    9.52    0.54
  -2   6  -7    9.14    0.55
  -3  -6  -7    0.06    0.20
  -3   6  -7    0.21    0.22
   3   6   7    0.01    0.18
   3   6   7    0.19    0.15
   4  -6   7   11.78    0.63
  -4  -6  -7   10.22    0.54
   4   6   7   10.14    0.53
   4   6   7    9.11    0.54
  -4   6  -7    9.45    0.56
   5  -6   7    0.45    0.22
   5  -6   7    0.11    0.19
  -5  -6  -7    0.31    0.18
   5   6   7    0.22    0.18
   5   6   7    0.30    0.18
  -5   6  -7    0.31    0.23
  -6  -6  -7    0.69    0.21
   6  -6   7    0.57    0.25
   6  -6   7    0.60    0.22
   6   6   7    0.52    0.18
   6   6   7    0.57    0.18
  -6   6  -7    0.94    0.25
   7  -6   7    1.05    0.27
   7  -6   7    0.97    0.25
  -7  -6  -7    0.77    0.19
   7   6   7    0.63    0.19
   7   6   7    0.80    0.21
  -7   6  -7    0.71    0.26
  -8  -6  -7    6.09    0.43
   8  -6   7    6.13    0.45
   8  -6   7    6.97    0.50
  -8   6  -7    6.00    0.50
   8   6   7    5.59    0.44
   8   6   7    6.08    0.42
  -4  -7   7    2.59    0.31
   4  -7  -7    2.54    0.28
   4   7  -7    2.39    0.26
   4   7  -7    2.82    0.28
  -3  -7   7    3.30    0.32
   3  -7  -7    2.81    0.30
   3   7  -7    2.63    0.28
   3   7  -7    2.42    0.30
   2  -7  -7    2.65    0.29
  -2  -7   7    1.94    0.27
   2   7  -7    2.31    0.27
   1  -7  -7    1.54    0.24
  -1  -7   7    1.09    0.23
   1   7  -7    1.29    0.24
   0  -7   7    0.63    0.20
   0  -7  -7    0.31    0.24
   0   7  -7    0.78    0.23
  -1  -7  -7    0.91    0.25
  -1   7  -7    0.78    0.26
  -2  -7  -7    0.46    0.25
  -2   7  -7    0.28    0.23
  -3  -7  -7    2.11    0.27
  -3   7  -7    2.74    0.32
  -4  -7  -7    0.51    0.22
   4   7   7    0.31    0.20
  -4   7  -7    0.30    0.24
 -14   0   8   17.43    0.92
  14   0  -8   20.25    0.91
  13   0  -8    0.18    0.17
  13   0  -8    0.01    0.04
 -13   0   8    0.15    0.20
  12   0  -8   33.00    1.31
 -12   0   8   26.17    1.31
  12   0  -8   27.92    1.25
  11   0  -8    0.01    0.08
  11   0  -8   -0.22    0.17
 -11   0   8   -0.28    0.17
  10   0  -8    1.32    0.11
 -10   0   8    1.11    0.17
  10   0  -8    1.13    0.17
  -9   0   8    0.04    0.14
   9   0  -8   -0.03    0.09
   9   0  -8   -0.12    0.15
  -8   0   8   23.11    1.10
   8   0  -8   25.06    1.09
   8   0  -8   24.44    1.07
  -7   0   8   -0.08    0.13
   7   0  -8    0.08    0.11
   7   0  -8    0.04    0.08
   6   0  -8  139.07    5.76
   6   0  -8  138.56    5.73
   6   0  -8  127.62    5.71
  -6   0   8  125.36    5.71
   5   0  -8   -0.03    0.05
   5   0  -8   -0.13    0.09
  -5   0   8    0.04    0.11
   5   0  -8   -0.11    0.09
   4   0  -8    7.28    0.34
   4   0  -8    6.99    0.35
   4   0  -8    6.89    0.31
  -4   0   8    5.49    0.34
  -4   0   8    7.09    0.36
   3   0  -8   -0.09    0.08
   3   0  -8    0.08    0.08
  -3   0   8    0.07    0.10
   3   0  -8    0.02    0.05
  -3   0   8    0.00    0.09
  -2   0   8    1.24    0.12
   2   0  -8    1.00    0.10
  -2   0   8    1.24    0.13
   2   0  -8    1.05    0.11
   2   0  -8    1.18    0.11
  -1   0   8    0.09    0.10
   1   0  -8    0.10    0.09
   1   0  -8    0.06    0.06
  -1   0   8   -0.02    0.08
   1   0  -8   -0.03    0.06
   0   0  -8    0.95    0.09
   0   0  -8    1.04    0.11
   0   0   8    1.06    0.12
   0   0   8    0.91    0.11
   0   0  -8    1.04    0.10
  -1   0  -8    0.06    0.08
   1   0   8    0.04    0.08
   1   0   8    0.14    0.09
  -1   0  -8    0.10    0.09
  -1   0  -8   -0.08    0.05
  -2   0  -8  404.71   16.38
   2   0   8  379.27   16.48
  -2   0  -8  378.50   16.45
  -2   0  -8  360.96   16.43
   3   0   8    0.08    0.09
  -3   0  -8   -0.02    0.11
  -3   0  -8   -0.01    0.05
  -3   0  -8    0.08    0.07
   3   0   8    0.24    0.09
  -4   0  -8    0.06    0.08
  -4   0  -8    0.03    0.04
   4   0   8    0.11    0.09
  -4   0  -8    0.06    0.11
   4   0   8    0.04    0.10
   5   0   8   -0.07    0.11
   5   0   8   -0.04    0.09
  -5   0  -8    0.09    0.12
   6   0   8   79.81    3.44
   6   0   8   80.38    3.43
  -6   0  -8   78.32    3.45
   7   0   8    0.11    0.14
   7   0   8    0.06    0.09
  -7   0  -8    0.12    0.17
   8   0   8   18.33    0.84
   8   0   8   18.27    0.82
  -8   0  -8   17.60    0.87
  -9   0  -8    0.12    0.18
   9   0   8    0.01    0.10
   9   0   8    0.03    0.15
 -10   0  -8    4.56    0.38
  10   0   8    4.49    0.28
  10   0   8    4.67    0.33
  11   0   8   -0.03    0.11
  11   0   8    0.22    0.18
 -11   0  -8    0.28    0.24
 -12   0  -8   10.02    0.64
  12   0   8   10.67    0.60
  12   0   8   10.77    0.51
 -13   0  -8    0.11    0.28
  13   0   8    0.06    0.11
  13   0   8   -0.21    0.22
  14   0   8    2.43    0.29
  14   0   8    2.50    0.21
 -14   0  -8    2.07    0.35
  14  -1  -8    0.04    0.20
  14   1  -8   -0.04    0.19
 -14   1   8   -0.22    0.24
  13  -1  -8    1.28    0.12
  13  -1  -8    1.09    0.20
  13   1  -8    0.78    0.21
  13   1  -8    0.89    0.06
 -13   1   8    1.12    0.25
 -12  -1   8    5.12    0.38
  12  -1  -8    6.93    0.37
  12  -1  -8    6.56    0.30
  12   1  -8    5.61    0.29
  12   1  -8    6.06    0.42
 -12   1   8    6.05    0.45
  11  -1  -8    0.43    0.09
 -11  -1   8    0.33    0.17
  11  -1  -8    0.48    0.17
 -11   1   8    0.43    0.21
  11   1  -8    0.28    0.08
  11   1  -8    0.37    0.17
  10  -1  -8    0.27    0.10
 -10  -1   8    0.24    0.15
  10  -1  -8    0.30    0.15
 -10   1   8    0.03    0.18
  10   1  -8    0.05    0.18
  10   1  -8    0.15    0.09
   9  -1  -8    2.84    0.23
  -9  -1   8    2.71    0.26
   9  -1  -8    3.08    0.21
  -9   1   8    2.23    0.22
   9   1  -8    2.93    0.24
   9   1  -8    2.92    0.20
   8  -1  -8   24.22    1.02
   8  -1  -8   24.77    1.00
  -8  -1   8   20.28    1.01
  -8   1   8   21.46    1.03
   8   1  -8   21.75    0.99
   8   1  -8   22.13    0.99
   8   1  -8   22.98    1.03
   7  -1  -8   20.99    0.88
   7  -1  -8   19.54    0.87
  -7  -1   8   19.36    0.88
  -7   1   8   18.28    0.89
   7   1  -8   18.71    0.86
   7   1  -8   19.69    0.89
   7   1  -8   19.71    0.87
  -6  -1   8   16.76    0.81
   6  -1  -8   18.55    0.80
   6  -1  -8   18.05    0.80
   6   1  -8   17.74    0.82
   6   1  -8   16.10    0.79
  -6   1   8   17.51    0.83
   6   1  -8   19.91    0.80
  -5  -1   8   94.52    4.18
   5  -1  -8  101.14    4.21
   5  -1  -8  101.06    4.18
   5   1  -8   95.87    4.18
   5   1  -8   98.44    4.18
   5   1  -8   93.91    4.18
  -5   1   8   93.91    4.19
   4  -1  -8   91.41    3.90
   4  -1  -8   92.21    3.88
  -4  -1   8   89.25    3.88
   4   1  -8   91.57    3.89
   4   1  -8   86.25    3.87
  -4   1   8   90.82    3.89
   4   1  -8   88.73    3.88
   3  -1  -8    0.21    0.09
   3  -1  -8    0.11    0.04
   3  -1  -8    0.06    0.08
  -3  -1   8   -0.04    0.10
  -3  -1   8    0.14    0.09
  -3   1   8    0.16    0.11
   3   1  -8    0.13    0.07
   3   1  -8    0.10    0.10
  -3   1   8    0.16    0.09
   3   1  -8   -0.05    0.09
  -2  -1   8    2.30    0.18
   2  -1  -8    2.48    0.16
  -2  -1   8    2.29    0.18
   2  -1  -8    2.30    0.18
   2  -1  -8    2.25    0.13
   2   1  -8    2.23    0.20
   2   1  -8    2.14    0.17
   2   1  -8    2.23    0.15
  -2   1   8    1.99    0.18
  -2   1   8    2.72    0.18
  -1  -1   8   76.89    3.28
  -1  -1   8   71.32    3.29
   1  -1  -8   82.27    3.26
   1  -1  -8   77.50    3.28
   1  -1  -8   73.20    3.27
  -1   1   8   76.53    3.28
   1   1  -8   73.83    3.28
   1   1  -8   79.00    3.27
  -1   1   8   72.79    3.28
   1   1  -8   74.80    3.27
   0  -1   8    4.88    0.28
   0  -1   8    4.38    0.30
   0  -1  -8    4.64    0.25
   0  -1  -8    5.57    0.26
   0   1  -8    4.98    0.25
   0   1  -8    5.46    0.27
   0   1  -8    4.73    0.28
   0   1   8    5.00    0.27
  -1  -1  -8  123.90    5.15
  -1  -1  -8  111.04    5.15
  -1  -1  -8  122.17    5.18
   1  -1   8  120.73    5.16
   1  -1   8  124.66    5.22
   1   1   8  121.20    5.18
  -1   1  -8  118.73    5.16
  -1   1  -8  118.24    5.15
  -1   1  -8  116.96    5.16
   1   1   8  119.63    5.17
  -2  -1  -8    7.98    0.40
   2  -1   8    8.41    0.43
   2  -1   8    8.09    0.42
  -2  -1  -8    8.09    0.41
  -2  -1  -8    9.25    0.39
  -2   1  -8    8.96    0.42
   2   1   8    7.90    0.41
   2   1   8    8.35    0.41
  -2   1  -8    8.19    0.37
  -2   1  -8    8.51    0.41
   3  -1   8    8.65    0.45
  -3  -1  -8    9.65    0.41
  -3  -1  -8    9.53    0.45
  -3  -1  -8    8.15    0.43
   3  -1   8    9.89    0.46
  -3   1  -8    8.85    0.45
  -3   1  -8    8.71    0.40
   3   1   8    9.66    0.45
  -3   1  -8    9.49    0.44
   3   1   8    8.59    0.44
  -4  -1  -8   12.32    0.65
   4  -1   8   14.35    0.67
  -4  -1  -8   14.54    0.67
   4  -1   8   15.57    0.67
  -4  -1  -8   15.62    0.64
   4   1   8   14.11    0.66
   4   1   8   14.54    0.67
  -4   1  -8   14.12    0.68
   5  -1   8    4.45    0.27
  -5  -1  -8    3.84    0.27
  -5  -1  -8    4.14    0.20
   5  -1   8    4.26    0.26
   5   1   8    4.00    0.25
   5   1   8    3.74    0.25
  -6  -1  -8   14.21    0.62
  -6  -1  -8   13.42    0.68
   6  -1   8   14.80    0.65
   6  -1   8   14.89    0.67
   6   1   8   13.24    0.65
  -6   1  -8   12.86    0.68
   6   1   8   14.12    0.65
   7  -1   8    3.62    0.25
  -7  -1  -8    3.27    0.31
   7  -1   8    3.30    0.28
   7   1   8    2.83    0.23
  -7   1  -8    3.20    0.30
   7   1   8    3.08    0.25
  -8  -1  -8   38.13    1.79
   8  -1   8   41.84    1.78
   8  -1   8   41.79    1.76
  -8   1  -8   39.38    1.80
   8   1   8   39.23    1.76
   8   1   8   39.84    1.75
   9  -1   8   93.21    3.91
  -9  -1  -8   86.49    3.94
   9  -1   8   93.52    3.93
   9   1   8   87.09    3.90
   9   1   8   93.20    3.92
  -9   1  -8   89.42    3.95
 -10  -1  -8   11.12    0.64
  10  -1   8   12.31    0.64
  10  -1   8   12.34    0.58
 -10   1  -8   11.59    0.65
  10   1   8   12.37    0.61
  10   1   8   11.31    0.56
  11  -1   8    9.01    0.53
 -11  -1  -8    8.40    0.56
  11  -1   8    8.54    0.45
  11   1   8    8.92    0.49
  11   1   8    8.27    0.43
 -11   1  -8    8.19    0.57
 -12  -1  -8   23.48    1.15
  12  -1   8   23.96    1.07
  12  -1   8   25.40    1.14
  12   1   8   22.38    1.06
  12   1   8   24.90    1.11
 -12   1  -8   23.04    1.15
  13  -1   8   14.65    0.68
 -13  -1  -8   14.51    0.79
  13  -1   8   14.63    0.76
  13   1   8   15.36    0.74
  13   1   8   13.63    0.66
 -13   1  -8   13.76    0.82
  14  -1   8    0.91    0.26
  14  -1   8    0.85    0.14
 -14  -1  -8    0.76    0.33
  14   1   8    0.90    0.12
  14   1   8    0.94    0.23
 -14   1  -8    1.25    0.33
  14  -2  -8    0.71    0.20
  14  -2  -8    0.91    0.09
  14   2  -8    0.99    0.23
 -14   2   8    0.84    0.31
  13  -2  -8    0.99    0.18
  13  -2  -8    1.09    0.10
  13   2  -8    0.85    0.08
 -13   2   8    1.26    0.29
  13   2  -8    0.70    0.21
  12  -2  -8    4.50    0.30
  12  -2  -8    4.79    0.25
  12   2  -8    3.62    0.22
 -12   2   8    3.79    0.33
  12   2  -8    3.57    0.30
  11  -2  -8    9.47    0.44
  11  -2  -8    9.95    0.49
 -11   2   8    8.23    0.53
  11   2  -8    8.43    0.43
  11   2  -8    9.40    0.53
  10  -2  -8    0.26    0.15
  10  -2  -8    0.32    0.11
  10   2  -8    0.23    0.10
 -10   2   8    0.35    0.21
  10   2  -8    0.16    0.19
   9  -2  -8   18.67    0.82
   9  -2  -8   19.05    0.83
  -9   2   8   16.92    0.86
   9   2  -8   17.86    0.81
   9   2  -8   19.61    0.87
   9   2  -8   17.14    0.82
   8  -2  -8   24.28    1.05
  -8  -2   8   22.32    1.05
   8  -2  -8   24.19    1.06
   8   2  -8   22.36    1.05
   8   2  -8   23.91    1.05
  -8   2   8   22.11    1.08
   8   2  -8   26.44    1.08
   7  -2  -8    7.14    0.35
   7  -2  -8    6.96    0.37
  -7  -2   8    6.13    0.35
  -7   2   8    6.29    0.38
   7   2  -8    6.28    0.34
   7   2  -8    7.26    0.39
   7   2  -8    6.55    0.35
   6  -2  -8    0.80    0.11
  -6  -2   8    0.93    0.12
   6  -2  -8    1.41    0.14
   6   2  -8    0.73    0.11
   6   2  -8    0.86    0.14
  -6   2   8    1.02    0.17
   6   2  -8    0.72    0.11
  -5  -2   8   16.98    0.77
   5  -2  -8   17.62    0.78
   5  -2  -8   17.53    0.78
   5   2  -8   17.13    0.78
  -5   2   8   17.14    0.80
   5   2  -8   16.39    0.77
   5   2  -8   17.30    0.78
   4  -2  -8   16.36    0.76
  -4  -2   8   16.59    0.76
   4  -2  -8   16.95    0.76
   4   2  -8   17.31    0.77
   4   2  -8   18.00    0.77
   4   2  -8   16.25    0.76
  -4   2   8   17.04    0.78
  -3  -2   8    9.66    0.46
   3  -2  -8    9.98    0.47
   3  -2  -8    9.92    0.47
   3   2  -8    9.84    0.46
  -3   2   8    9.63    0.47
  -3   2   8    9.45    0.48
   3   2  -8    9.65    0.46
   3   2  -8   10.00    0.48
  -2  -2   8    1.52    0.14
   2  -2  -8    1.35    0.13
   2  -2  -8    1.89    0.11
   2  -2  -8    1.79    0.14
  -2  -2   8    1.74    0.16
  -2   2   8    2.53    0.20
  -2   2   8    1.81    0.15
   2   2  -8    1.81    0.15
   2   2  -8    1.74    0.13
   2   2  -8    1.61    0.14
   1  -2  -8   68.47    3.01
   1  -2  -8   68.75    3.01
  -1  -2   8   69.72    3.01
  -1  -2   8   68.52    3.03
   1  -2  -8   70.95    3.00
   1   2  -8   72.87    3.02
   1   2  -8   68.87    3.00
  -1   2   8   68.56    3.02
  -1   2   8   69.67    3.02
   1   2  -8   70.54    3.01
   0  -2  -8   64.26    2.79
   0  -2   8   63.39    2.80
   0  -2  -8   64.17    2.79
   0  -2   8   65.50    2.81
   0  -2  -8   64.62    2.80
   0   2   8   63.04    2.80
   0   2   8   65.69    2.80
   0   2  -8   63.54    2.80
   0   2  -8   68.53    2.81
   0   2  -8   63.66    2.78
   1  -2   8  119.43    5.04
  -1  -2  -8  113.94    5.01
   1  -2   8  116.37    5.03
  -1  -2  -8  115.67    5.06
  -1  -2  -8  117.22    5.05
   1  -2   8  113.21    5.28
  -1   2  -8  115.48    5.05
   1   2   8  114.44    5.06
   1   2   8  118.19    5.05
  -1   2  -8  122.20    5.03
   2  -2   8    1.40    0.15
   2  -2   8    1.41    0.11
   2  -2   8    1.36    0.16
  -2  -2  -8    1.40    0.13
  -2  -2  -8    1.28    0.13
  -2  -2  -8    1.46    0.11
  -2   2  -8    1.38    0.15
   2   2   8    1.24    0.13
  -2   2  -8    1.37    0.14
   2   2   8    1.43    0.14
  -3  -2  -8  139.58    5.92
   3  -2   8  138.39    5.92
   3  -2   8  132.02    5.93
   3  -2   8  136.66    5.92
  -3  -2  -8  141.24    5.95
  -3  -2  -8  134.85    5.94
   3   2   8  137.61    5.97
  -3   2  -8  134.81    5.93
  -3   2  -8  135.18    5.92
   3   2   8  145.32    5.96
  -4  -2  -8   27.95    1.20
   4  -2   8   27.95    1.22
   4  -2   8   25.34    1.23
   4   2   8   28.15    1.22
   4   2   8   28.00    1.22
   4   2   8   27.55    1.22
  -4   2  -8   26.90    1.23
  -5  -2  -8  110.51    4.71
   5  -2   8  101.80    4.74
   5  -2   8  114.89    4.74
   5   2   8  111.86    4.73
  -5   2  -8  109.09    4.75
   5   2   8  109.82    4.73
   5   2   8  109.51    4.73
   6  -2   8    6.40    0.38
  -6  -2  -8    6.68    0.32
   6  -2   8    7.19    0.38
  -6   2  -8    6.45    0.40
   6   2   8    6.85    0.38
   6   2   8    6.58    0.37
   6   2   8    6.54    0.36
   7  -2   8    6.62    0.39
   7  -2   8    7.36    0.42
  -7  -2  -8    6.62    0.33
   7   2   8    6.76    0.38
   7   2   8    6.37    0.35
  -7   2  -8    5.96    0.41
   7   2   8    6.65    0.36
   8  -2   8   17.96    0.81
  -8  -2  -8   16.10    0.83
   8  -2   8   18.62    0.82
   8   2   8   17.10    0.81
   8   2   8   17.05    0.79
  -8   2  -8   15.36    0.84
   8   2   8   17.71    0.79
   9  -2   8    4.98    0.34
  -9  -2  -8    4.58    0.42
   9  -2   8    4.95    0.40
   9   2   8    4.85    0.30
   9   2   8    4.90    0.32
   9   2   8    4.49    0.36
  -9   2  -8    4.57    0.43
  10  -2   8    0.10    0.20
  10  -2   8    0.03    0.15
 -10  -2  -8   -0.01    0.21
  10   2   8   -0.02    0.11
  10   2   8   -0.01    0.16
 -10   2  -8   -0.16    0.21
  11  -2   8   11.16    0.63
 -11  -2  -8   10.07    0.66
  11  -2   8   11.00    0.56
  11   2   8   10.44    0.53
  11   2   8   11.96    0.57
 -11   2  -8   10.35    0.63
  12  -2   8    4.67    0.45
  12  -2   8    4.32    0.33
 -12  -2  -8    4.77    0.40
 -12   2  -8    5.14    0.42
  12   2   8    4.74    0.37
  12   2   8    4.65    0.29
  13  -2   8    1.07    0.16
  13  -2   8    0.86    0.27
 -13  -2  -8    1.41    0.32
 -13   2  -8    0.95    0.32
  13   2   8    0.92    0.13
  13  -3  -8    0.01    0.11
  13  -3  -8   -0.10    0.18
 -13  -3   8    0.29    0.29
  13   3  -8    0.03    0.08
 -13   3   8    0.01    0.30
  12  -3  -8    0.09    0.12
 -12  -3   8   -0.05    0.28
  12  -3  -8    0.17    0.15
  12   3  -8    0.06    0.09
 -12   3   8    0.28    0.25
 -11  -3   8    0.72    0.29
  11  -3  -8    1.12    0.17
  11  -3  -8    1.01    0.14
  11   3  -8    0.86    0.12
  11   3  -8    0.77    0.16
 -11   3   8    0.98    0.28
 -10  -3   8   10.63    0.64
  10  -3  -8   10.31    0.51
  10  -3  -8   10.81    0.53
  10   3  -8    9.92    0.49
  10   3  -8   10.00    0.51
 -10   3   8   10.12    0.58
  -9  -3   8   14.97    0.80
   9  -3  -8   16.33    0.72
   9  -3  -8   15.76    0.70
  -9   3   8   14.24    0.75
   9   3  -8   14.26    0.69
   9   3  -8   14.83    0.71
  -8  -3   8   11.79    0.67
   8  -3  -8   12.94    0.61
   8  -3  -8   12.79    0.60
   8   3  -8   12.75    0.60
  -8   3   8   12.21    0.64
   8   3  -8   12.49    0.60
   7  -3  -8    1.99    0.18
  -7  -3   8    1.53    0.23
   7  -3  -8    2.06    0.16
   7   3  -8    1.88    0.16
   7   3  -8    1.90    0.17
  -7   3   8    1.75    0.22
  -6  -3   8    0.51    0.19
   6  -3  -8    1.05    0.16
   6  -3  -8    0.87    0.12
  -6   3   8    0.70    0.17
   6   3  -8    0.91    0.13
   6   3  -8    0.96    0.14
  -5  -3   8   13.63    0.73
   5  -3  -8   15.47    0.69
   5  -3  -8   14.76    0.69
  -5  -3   8   14.11    0.67
  -5   3   8   15.52    0.72
   5   3  -8   15.20    0.69
   5   3  -8   14.79    0.69
   4  -3  -8   47.63    1.98
   4  -3  -8   46.30    1.98
  -4  -3   8   39.50    1.99
  -4  -3   8   45.53    1.97
   4   3  -8   45.57    1.98
  -4   3   8   46.55    1.99
   4   3  -8   45.93    1.98
   3  -3  -8    1.72    0.15
  -3  -3   8    1.67    0.14
   3  -3  -8    1.22    0.13
  -3  -3   8    1.14    0.16
  -3   3   8    1.91    0.19
   3   3  -8    1.90    0.16
   3   3  -8    1.42    0.15
  -2  -3   8  126.00    5.76
   2  -3  -8  131.55    5.75
  -2  -3   8  136.91    5.79
   2  -3  -8  132.04    5.79
  -2   3   8  137.86    5.79
   2   3  -8  136.67    5.76
   2   3  -8  135.42    5.82
  -1  -3   8    4.92    0.28
  -1  -3   8    4.67    0.31
  -1  -3   8    4.50    0.27
  -1   3   8    4.46    0.30
   1   3  -8    4.95    0.29
  -1   3   8    4.25    0.23
   1   3  -8    4.61    0.27
   0  -3  -8    3.70    0.25
   0  -3   8    3.88    0.27
   0  -3   8    4.39    0.25
   0  -3   8    4.02    0.30
   0   3  -8    3.93    0.27
   0   3   8    3.93    0.22
   0   3   8    4.11    0.27
   0   3  -8    4.43    0.26
   1  -3   8    4.56    0.31
   1  -3   8    4.24    0.24
   1  -3   8    4.49    0.28
  -1  -3  -8    4.38    0.26
  -1  -3  -8    4.34    0.27
   1   3   8    4.62    0.28
   1   3   8    4.22    0.24
   1   3   8    4.13    0.27
  -1   3  -8    4.23    0.28
  -1   3  -8    4.74    0.29
   2  -3   8   26.41    1.15
   2  -3   8   25.79    1.17
  -2  -3  -8   26.06    1.14
   2  -3   8   24.71    1.12
  -2  -3  -8   25.10    1.13
  -2   3  -8   25.02    1.15
   2   3   8   26.55    1.15
   2   3   8   25.63    1.13
  -2   3  -8   26.28    1.15
   2   3   8   25.67    1.14
  -3  -3  -8    0.49    0.10
   3  -3   8    0.39    0.16
   3  -3   8    0.51    0.15
   3   3   8    0.64    0.13
  -3   3  -8    0.85    0.16
   3   3   8    0.74    0.13
   3   3   8    0.46    0.11
  -4  -3  -8   17.46    0.81
   4  -3   8   18.32    0.85
   4  -3   8   18.89    0.85
   4   3   8   18.22    0.83
  -4   3  -8   17.26    0.85
   4   3   8   17.96    0.82
   4   3   8   17.96    0.82
   5  -3   8    0.28    0.17
  -5  -3  -8    0.26    0.10
   5  -3   8    0.33    0.16
   5   3   8    0.47    0.13
   5   3   8    0.20    0.13
   5   3   8    0.43    0.12
  -5   3  -8    0.42    0.16
   6  -3   8   40.98    1.76
  -6  -3  -8   38.92    1.72
   6  -3   8   39.78    1.76
   6   3   8   40.03    1.74
   6   3   8   39.71    1.74
   6   3   8   40.99    1.74
  -6   3  -8   36.27    1.76
   7  -3   8   44.62    1.89
  -7  -3  -8   41.81    1.85
   7  -3   8   41.46    1.88
  -7   3  -8   39.88    1.90
   7   3   8   44.85    1.86
   7   3   8   43.34    1.87
   7   3   8   40.97    1.86
   8  -3   8    0.94    0.23
  -8  -3  -8    0.83    0.13
   8  -3   8    0.81    0.18
   8   3   8    0.99    0.19
   8   3   8    0.85    0.14
  -8   3  -8    0.80    0.22
   8   3   8    0.94    0.15
   9  -3   8   18.55    0.91
   9  -3   8   20.15    0.95
  -9   3  -8   17.64    0.94
   9   3   8   19.62    0.92
   9   3   8   19.87    0.88
   9   3   8   19.41    0.88
  10  -3   8    5.34    0.38
  10  -3   8    5.43    0.42
  10   3   8    5.91    0.34
  10   3   8    5.17    0.38
 -10   3  -8    4.73    0.45
  11  -3   8    3.65    0.34
  11  -3   8    4.16    0.36
  11   3   8    3.27    0.28
 -11   3  -8    4.03    0.39
  11   3   8    3.06    0.31
  12  -3   8   21.56    1.05
  12  -3   8   21.21    1.00
  12   3   8   22.44    1.05
 -12   3  -8   21.59    1.10
  12   3   8   20.66    0.97
 -13  -3  -8    1.60    0.36
  13  -3   8    1.84    0.21
  13  -3   8    1.98    0.29
 -13   3  -8    1.64    0.32
  13   3   8    1.73    0.16
  13   3   8    2.53    0.30
  12  -4  -8    4.07    0.34
  12  -4  -8    3.60    0.28
 -12  -4   8    3.59    0.37
 -12   4   8    3.74    0.39
  12   4  -8    3.69    0.33
  12   4  -8    3.37    0.25
  11  -4  -8   10.16    0.51
 -11  -4   8    9.25    0.63
  11  -4  -8   10.16    0.51
  11   4  -8   10.07    0.53
  11   4  -8    9.18    0.48
 -11   4   8    9.91    0.65
  10  -4  -8    0.29    0.14
  10  -4  -8    0.55    0.17
 -10  -4   8    0.42    0.31
  10   4  -8    0.24    0.13
 -10   4   8    0.61    0.24
  10   4  -8    0.48    0.17
   9  -4  -8   30.41    1.30
   9  -4  -8   29.81    1.29
  -9  -4   8   29.01    1.38
  -9   4   8   26.82    1.33
   9   4  -8   28.55    1.30
   9   4  -8   28.72    1.29
   8  -4  -8    6.65    0.39
  -8  -4   8    5.14    0.46
   8  -4  -8    5.88    0.36
   8   4  -8    6.21    0.37
   8   4  -8    5.97    0.36
  -8   4   8    5.64    0.45
  -7  -4   8    0.18    0.22
   7  -4  -8    0.39    0.15
   7  -4  -8    0.22    0.13
   7   4  -8    0.43    0.16
   7   4  -8    0.21    0.13
  -7   4   8    0.48    0.19
  -6  -4   8    0.53    0.23
   6  -4  -8    0.21    0.12
   6  -4  -8    0.35    0.14
   6   4  -8    0.39    0.14
   6   4  -8    0.33    0.15
  -6   4   8    0.40    0.17
   5  -4  -8    0.09    0.11
  -5  -4   8    0.14    0.17
   5  -4  -8   -0.07    0.14
   5   4  -8    0.16    0.14
   5   4  -8    0.01    0.14
  -5   4   8   -0.18    0.15
   4  -4  -8    2.13    0.18
   4  -4  -8    2.20    0.18
  -4  -4   8    1.77    0.23
   4   4  -8    2.46    0.22
   4   4  -8    2.48    0.20
  -4   4   8    2.17    0.22
   3  -4  -8   37.04    1.62
   3  -4  -8   37.67    1.62
  -3  -4   8   34.22    1.63
  -3   4   8   38.42    1.63
   3   4  -8   37.19    1.62
   3   4  -8   35.64    1.62
  -2  -4   8    3.66    0.26
   2  -4  -8    3.36    0.27
   2  -4  -8    3.71    0.26
  -2  -4   8    3.25    0.28
  -2   4   8    3.93    0.30
   2   4  -8    4.15    0.29
   2   4  -8    3.87    0.27
   1  -4  -8   44.86    1.93
   1  -4  -8   43.38    1.92
  -1  -4   8   43.48    1.93
  -1  -4   8   42.37    1.92
  -1   4   8   45.21    1.93
   1   4  -8   44.83    1.93
   1   4  -8   43.44    1.93
   0  -4  -8    0.43    0.12
   0  -4   8    0.18    0.13
   0  -4  -8    0.42    0.12
   0  -4   8    0.58    0.13
   0   4   8    0.52    0.14
   0   4  -8    0.62    0.16
   0   4   8    0.51    0.10
   0   4  -8    0.48    0.14
   0   4   8    0.51    0.14
  -1  -4  -8    4.71    0.29
   1  -4   8    4.75    0.35
   1  -4   8    4.52    0.31
   1  -4   8    4.38    0.27
   1   4   8    5.00    0.27
   1   4   8    4.92    0.30
  -1   4  -8    4.99    0.31
   1   4   8    5.09    0.32
  -1   4  -8    5.30    0.33
  -2  -4  -8   29.30    1.26
   2  -4   8   27.00    1.24
   2  -4   8   29.50    1.29
   2  -4   8   27.65    1.28
  -2   4  -8   27.84    1.27
   2   4   8   28.68    1.26
   2   4   8   28.63    1.27
   2   4   8   28.73    1.25
  -3  -4  -8    0.56    0.14
   3  -4   8    0.53    0.16
   3  -4   8    0.53    0.16
  -3   4  -8    0.50    0.16
   3   4   8    0.60    0.15
   3   4   8    0.63    0.13
   3   4   8    0.58    0.13
  -4  -4  -8    7.63    0.40
   4  -4   8    7.16    0.45
   4  -4   8    7.98    0.46
  -4   4  -8    6.89    0.43
   4   4   8    7.82    0.40
   4   4   8    7.98    0.42
   4   4   8    7.87    0.40
   5  -4   8   38.48    1.79
  -5  -4  -8   39.52    1.76
   5  -4   8   41.66    1.80
   5   4   8   40.05    1.77
   5   4   8   40.01    1.77
  -5   4  -8   39.13    1.80
   5   4   8   42.13    1.76
   6  -4   8   24.91    1.18
  -6  -4  -8   25.23    1.14
   6  -4   8   27.44    1.19
   6   4   8   25.98    1.16
   6   4   8   25.27    1.16
  -6   4  -8   23.80    1.18
   6   4   8   26.36    1.15
  -7  -4  -8    2.13    0.18
   7  -4   8    1.97    0.27
   7  -4   8    2.28    0.24
   7   4   8    2.32    0.21
   7   4   8    2.10    0.19
  -7   4  -8    2.27    0.26
  -8  -4  -8    4.34    0.30
   8  -4   8    4.32    0.35
   8  -4   8    4.32    0.38
   8   4   8    4.41    0.35
  -8   4  -8    4.07    0.39
   8   4   8    4.46    0.32
   9  -4   8    8.30    0.50
  -9  -4  -8    7.86    0.44
   9  -4   8    8.24    0.52
   9   4   8    7.88    0.45
   9   4   8    8.60    0.49
  -9   4  -8    8.05    0.53
  10  -4   8    3.46    0.36
  10  -4   8    3.72    0.30
 -10   4  -8    3.26    0.37
  10   4   8    3.77    0.30
  10   4   8    3.49    0.30
  11  -4   8   -0.23    0.27
  11  -4   8   -0.29    0.19
  11   4   8    0.05    0.15
 -11   4  -8   -0.26    0.29
  11   4   8    0.17    0.23
 -10  -5   8    3.34    0.37
  10  -5  -8    3.33    0.26
  10  -5  -8    2.73    0.23
  10   5  -8    2.76    0.22
  10   5  -8    2.76    0.25
 -10   5   8    2.62    0.34
   9  -5  -8    0.09    0.17
  -9  -5   8   -0.37    0.31
   9  -5  -8    0.14    0.15
   9   5  -8    0.38    0.20
  -9   5   8    0.21    0.26
   9   5  -8    0.18    0.15
   8  -5  -8    0.09    0.15
  -8  -5   8   -0.06    0.29
   8  -5  -8   -0.04    0.16
  -8   5   8    0.09    0.21
   8   5  -8    0.02    0.16
   8   5  -8   -0.30    0.15
   7  -5  -8    7.47    0.45
  -7  -5   8    6.82    0.53
   7  -5  -8    8.74    0.45
  -7   5   8    8.41    0.52
   7   5  -8    8.26    0.47
   7   5  -8    8.13    0.46
   6  -5  -8    6.01    0.37
  -6  -5   8    4.81    0.41
   6  -5  -8    6.08    0.39
   6   5  -8    5.91    0.38
  -6   5   8    5.81    0.42
   6   5  -8    6.24    0.40
   5  -5  -8   21.25    0.97
   5  -5  -8   20.84    0.96
  -5  -5   8   19.70    1.01
  -5   5   8   20.83    0.99
   5   5  -8   20.31    0.96
   5   5  -8   21.77    0.97
   4  -5  -8    4.53    0.32
  -4  -5   8    3.66    0.31
   4  -5  -8    4.78    0.34
   4   5  -8    4.83    0.33
   4   5  -8    4.45    0.35
  -4   5   8    4.35    0.33
  -3  -5   8   21.18    0.99
   3  -5  -8   21.05    0.97
   3  -5  -8   21.21    0.96
   3   5  -8   20.71    0.97
   3   5  -8   21.06    0.97
  -3   5   8   20.76    0.97
   2  -5  -8    2.72    0.27
  -2  -5   8    2.97    0.26
   2  -5  -8    3.16    0.27
   2   5  -8    3.25    0.25
   2   5  -8    3.17    0.26
  -2   5   8    3.31    0.30
   1  -5  -8   29.51    1.30
   1  -5  -8   28.18    1.29
  -1  -5   8   27.60    1.30
  -1   5   8   29.79    1.30
   1   5  -8   28.98    1.31
   1   5  -8   29.07    1.31
   0  -5   8    1.21    0.16
   0  -5  -8    0.99    0.17
   0   5   8    1.21    0.17
   0   5  -8    1.21    0.17
   0   5  -8    1.13    0.19
   1  -5   8    7.41    0.42
  -1  -5  -8    7.95    0.43
   1   5   8    7.91    0.46
   1   5   8    8.22    0.43
  -1   5  -8    8.71    0.48
   2  -5   8    4.39    0.33
  -2  -5  -8    4.49    0.33
   2   5   8    4.18    0.29
   2   5   8    4.61    0.29
   2   5   8    3.99    0.33
  -2   5  -8    4.34    0.36
  -3  -5  -8    1.61    0.19
   3  -5   8    1.69    0.24
   3  -5   8    1.40    0.21
   3   5   8    1.53    0.20
  -3   5  -8    1.39    0.20
   3   5   8    1.63    0.17
   4  -5   8   23.54    1.01
  -4  -5  -8   20.95    0.98
   4  -5   8   21.82    1.03
  -4   5  -8   20.24    1.00
   4   5   8   21.18    0.98
   4   5   8   20.98    0.99
  -5  -5  -8    8.15    0.45
   5  -5   8    8.84    0.50
   5  -5   8    8.14    0.52
   5   5   8    7.70    0.45
  -5   5  -8    7.92    0.51
   5   5   8    7.32    0.46
  -6  -5  -8    9.92    0.51
   6  -5   8    9.83    0.58
   6  -5   8    9.89    0.57
   6   5   8    9.24    0.53
  -6   5  -8    9.29    0.55
   6   5   8    9.92    0.52
  -7  -5  -8   11.40    0.59
   7  -5   8   11.76    0.65
   7  -5   8   12.72    0.66
   7   5   8   11.07    0.60
  -7   5  -8   10.84    0.66
   7   5   8   11.72    0.61
   8  -5   8    2.55    0.30
   8  -5   8    3.33    0.31
   8  -5   8    3.32    0.33
  -8  -5  -8    2.97    0.25
   8   5   8    3.49    0.28
   8   5   8    2.70    0.24
  -8   5  -8    2.90    0.31
   9  -5   8    5.68    0.50
  -9  -5  -8    5.97    0.40
   9  -5   8    6.03    0.46
  -9   5  -8    5.13    0.47
   9   5   8    5.62    0.43
   9   5   8    5.33    0.39
  10  -5   8    3.66    0.38
  10  -5   8    3.76    0.33
 -10   5  -8    3.88    0.40
  10   5   8    3.52    0.30
  10   5   8    3.63    0.27
   7  -6  -8    0.67    0.21
   7  -6  -8    0.55    0.18
  -7  -6   8    0.38    0.32
   7   6  -8    0.60    0.20
  -7   6   8    0.64    0.25
   7   6  -8    0.48    0.20
   6  -6  -8    3.92    0.30
   6  -6  -8    3.72    0.34
  -6  -6   8    3.37    0.36
  -6   6   8    3.95    0.34
   6   6  -8    4.30    0.37
   6   6  -8    4.20    0.35
  -5  -6   8    6.66    0.54
   5  -6  -8    6.69    0.42
   5  -6  -8    6.83    0.43
   5   6  -8    6.92    0.46
  -5   6   8    6.87    0.47
   5   6  -8    7.08    0.44
   4  -6  -8    7.48    0.45
  -4  -6   8    7.15    0.53
   4  -6  -8    8.02    0.48
   4   6  -8    7.43    0.46
   4   6  -8    7.45    0.48
  -4   6   8    7.47    0.47
  -3  -6   8    3.66    0.31
   3  -6  -8    3.95    0.33
   3  -6  -8    3.77    0.35
   3   6  -8    3.93    0.34
   3   6  -8    3.79    0.36
  -3   6   8    3.71    0.35
   2  -6  -8    0.40    0.21
  -2  -6   8    0.19    0.20
   2   6  -8    0.32    0.17
  -2   6   8    0.25    0.18
   2   6  -8    0.53    0.22
   1  -6  -8    3.58    0.29
  -1  -6   8    3.39    0.28
   1   6  -8    3.65    0.31
  -1   6   8    3.64    0.33
   0  -6   8   21.86    1.03
   0  -6  -8   23.60    1.04
   0   6  -8   21.95    1.05
  -1  -6  -8    3.51    0.29
  -1   6  -8    2.86    0.30
  -2  -6  -8   14.45    0.72
  -2   6  -8   13.81    0.74
  -3  -6  -8    1.80    0.24
  -3   6  -8    1.80    0.25
   3   6   8    1.90    0.23
  -4  -6  -8    3.49    0.28
  -4   6  -8    3.70    0.33
   4   6   8    3.22    0.27
   4   6   8    3.54    0.30
  -5  -6  -8    6.03    0.44
   5  -6   8    6.82    0.51
   5   6   8    7.03    0.41
  -5   6  -8    5.95    0.46
   5   6   8    6.48    0.42
   6  -6   8    4.48    0.40
   6  -6   8    4.01    0.35
  -6  -6  -8    4.00    0.32
  -6   6  -8    3.42    0.35
   6   6   8    3.81    0.34
   6   6   8    3.14    0.28
   7  -6   8    0.46    0.26
   7  -6   8    0.28    0.25
  -7  -6  -8    0.31    0.20
   7   6   8    0.35    0.20
  -7   6  -8    0.08    0.27
   7   6   8    0.13    0.18
  -2  -7   8    9.09    0.55
   2  -7  -8    9.17    0.57
   2   7  -8    8.87    0.58
  -1  -7   8    1.30    0.24
   1  -7  -8    1.27    0.26
   1   7  -8    1.29    0.27
   0  -7  -8    0.06    0.21
   0   7  -8   -0.07    0.23
  -1  -7  -8    7.03    0.51
  -1   7  -8    6.77    0.52
  -2  -7  -8    0.16    0.25
  -2   7  -8    0.56    0.24
 -14   0   9    0.12    0.23
  14   0  -9    0.09    0.19
  13   0  -9    5.97    0.30
  13   0  -9    7.00    0.44
 -13   0   9    6.51    0.45
 -12   0   9   -0.02    0.19
  12   0  -9    0.01    0.08
  12   0  -9   -0.01    0.17
  11   0  -9    4.71    0.27
  11   0  -9    5.45    0.38
 -11   0   9    4.36    0.37
  10   0  -9   -0.01    0.09
 -10   0   9   -0.01    0.18
  10   0  -9    0.08    0.16
   9   0  -9    2.66    0.21
  -9   0   9    2.01    0.22
   9   0  -9    2.78    0.22
   8   0  -9   -0.07    0.13
   8   0  -9    0.10    0.10
  -8   0   9    0.03    0.13
   7   0  -9    1.04    0.12
   7   0  -9    1.39    0.17
  -7   0   9    1.03    0.15
  -6   0   9    0.14    0.13
   6   0  -9   -0.01    0.12
   6   0  -9   -0.02    0.10
  -5   0   9    1.79    0.18
   5   0  -9    1.74    0.13
   5   0  -9    1.85    0.15
   5   0  -9    1.97    0.16
   4   0  -9   -0.04    0.10
   4   0  -9   -0.01    0.09
   4   0  -9    0.25    0.06
  -4   0   9    0.07    0.12
  -3   0   9    4.46    0.27
   3   0  -9    4.40    0.23
   3   0  -9    4.53    0.27
   3   0  -9    4.75    0.25
   2   0  -9   -0.05    0.09
   2   0  -9    0.03    0.09
   2   0  -9    0.00    0.07
  -2   0   9    0.22    0.11
  -2   0   9    0.37    0.11
   1   0  -9   71.54    3.11
   1   0  -9   71.46    3.12
   1   0  -9   74.83    3.11
  -1   0   9   69.08    3.13
  -1   0   9   73.64    3.12
   0   0  -9    0.00    0.07
   0   0  -9    0.07    0.08
   0   0   9    0.00    0.10
   0   0  -9    0.01    0.08
   0   0   9    0.10    0.10
   1   0   9    2.50    0.21
  -1   0  -9    2.70    0.16
  -1   0  -9    2.62    0.20
   2   0   9    0.37    0.11
  -2   0  -9    0.01    0.06
  -2   0  -9    0.02    0.08
   2   0   9   -0.02    0.10
  -2   0  -9    0.21    0.11
   3   0   9  107.06    4.55
  -3   0  -9  108.97    4.55
   3   0   9  108.25    4.55
  -3   0  -9  103.15    4.54
  -3   0  -9   99.73    4.55
   4   0   9   -0.03    0.12
   4   0   9    0.05    0.10
  -4   0  -9   -0.06    0.04
  -4   0  -9   -0.14    0.13
  -5   0  -9   14.80    0.72
   5   0   9   14.83    0.70
   5   0   9   15.03    0.69
   6   0   9    0.02    0.10
  -6   0  -9    0.02    0.15
   6   0   9    0.10    0.12
   7   0   9    4.50    0.31
   7   0   9    5.43    0.30
  -7   0  -9    5.46    0.38
   8   0   9   -0.03    0.11
  -8   0  -9    0.10    0.18
   8   0   9    0.22    0.15
  -9   0  -9    3.57    0.34
   9   0   9    3.58    0.26
   9   0   9    3.61    0.29
  10   0   9    0.02    0.12
 -10   0  -9   -0.15    0.20
  10   0   9    0.12    0.20
  11   0   9    2.98    0.27
  11   0   9    2.83    0.25
 -11   0  -9    2.56    0.29
  12   0   9    0.14    0.12
  12   0   9    0.22    0.22
 -12   0  -9    0.24    0.24
 -13   0  -9    0.77    0.27
  13   0   9    0.87    0.14
  13   0   9    0.64    0.22
  14  -1  -9    0.08    0.05
 -14   1   9   -0.23    0.22
  13  -1  -9    0.76    0.21
  13  -1  -9    0.87    0.10
 -13   1   9    0.58    0.25
  13   1  -9    0.61    0.22
  13   1  -9    0.74    0.08
  12  -1  -9    0.57    0.10
  12  -1  -9    0.71    0.17
  12   1  -9    0.53    0.09
 -12   1   9    0.41    0.21
  12   1  -9    0.55    0.22
  11  -1  -9    0.37    0.10
  11  -1  -9    0.46    0.16
 -11  -1   9    0.37    0.17
  11   1  -9    0.45    0.10
 -11   1   9    0.25    0.22
  11   1  -9    0.43    0.18
  10  -1  -9    1.13    0.19
  10  -1  -9    1.05    0.12
 -10  -1   9    0.83    0.17
  10   1  -9    0.77    0.18
  10   1  -9    0.74    0.11
 -10   1   9    1.00    0.21
   9  -1  -9    5.16    0.29
   9  -1  -9    5.48    0.31
  -9  -1   9    4.62    0.33
   9   1  -9    4.68    0.33
  -9   1   9    4.81    0.37
   9   1  -9    4.80    0.28
   8  -1  -9   13.31    0.61
   8  -1  -9   14.08    0.60
  -8  -1   9   11.73    0.61
   8   1  -9   12.92    0.62
   8   1  -9   12.80    0.59
  -8   1   9   11.45    0.63
  -7  -1   9   19.49    0.96
   7  -1  -9   22.61    0.96
   7  -1  -9   22.43    0.97
   7   1  -9   22.09    0.96
   7   1  -9   21.97    0.98
   7   1  -9   20.21    0.94
  -7   1   9   20.45    0.98
   6  -1  -9    7.05    0.36
  -6  -1   9    6.75    0.37
   6  -1  -9    7.53    0.36
   6   1  -9    6.46    0.34
   6   1  -9    6.56    0.37
  -6   1   9    6.66    0.38
   6   1  -9    7.12    0.36
   5  -1  -9    6.47    0.33
   5  -1  -9    6.31    0.34
  -5  -1   9    5.77    0.34
  -5   1   9    6.22    0.37
   5   1  -9    6.46    0.34
   5   1  -9    6.17    0.34
   5   1  -9    5.56    0.30
  -4  -1   9   29.84    1.32
   4  -1  -9   30.74    1.32
   4  -1  -9   29.81    1.31
   4   1  -9   29.45    1.30
  -4   1   9   29.59    1.33
   4   1  -9   29.70    1.32
   4   1  -9   29.88    1.32
   3  -1  -9   33.18    1.42
  -3  -1   9   32.91    1.45
   3  -1  -9   32.86    1.45
   3  -1  -9   33.91    1.45
   3   1  -9   32.50    1.46
   3   1  -9   32.18    1.45
   3   1  -9   32.93    1.44
  -3   1   9   33.67    1.46
   2  -1  -9    8.52    0.40
  -2  -1   9    7.36    0.42
  -2  -1   9    8.49    0.41
   2  -1  -9    8.53    0.37
   2  -1  -9    7.49    0.39
   2   1  -9    8.10    0.39
  -2   1   9    8.96    0.41
   2   1  -9    7.68    0.39
   2   1  -9    7.80    0.42
  -2   1   9    7.99    0.41
   1  -1  -9    3.18    0.21
  -1  -1   9    3.35    0.23
  -1  -1   9    2.69    0.22
   1  -1  -9    2.81    0.19
   1  -1  -9    3.23    0.18
  -1   1   9    3.00    0.22
   1   1  -9    3.06    0.20
   1   1  -9    3.05    0.20
  -1   1   9    3.05    0.21
   1   1  -9    2.71    0.23
   0  -1  -9    2.28    0.19
   0  -1  -9    2.41    0.16
   0  -1  -9    2.52    0.17
   0  -1   9    1.97    0.18
   0  -1   9    2.30    0.20
   0   1   9    2.49    0.21
   0   1  -9    2.53    0.16
   0   1  -9    2.53    0.19
   0   1   9    2.31    0.21
   0   1  -9    1.91    0.17
  -1  -1  -9    0.17    0.07
  -1  -1  -9   -0.08    0.09
  -1  -1  -9    0.13    0.09
   1  -1   9    0.04    0.13
   1  -1   9   -0.02    0.11
   1   1   9   -0.01    0.10
   1   1   9    0.01    0.10
  -1   1  -9   -0.01    0.11
  -1   1  -9    0.03    0.11
  -1   1  -9   -0.04    0.06
  -2  -1  -9    3.74    0.23
  -2  -1  -9    3.86    0.24
  -2  -1  -9    3.97    0.21
   2  -1   9    3.49    0.24
   2  -1   9    4.05    0.27
   2   1   9    3.67    0.25
  -2   1  -9    3.83    0.26
   2   1   9    3.64    0.24
  -2   1  -9    3.80    0.25
  -2   1  -9    3.71    0.19
   3  -1   9    5.46    0.32
  -3  -1  -9    5.23    0.31
  -3  -1  -9    4.82    0.29
   3  -1   9    5.60    0.32
  -3  -1  -9    5.58    0.27
   3   1   9    5.58    0.30
  -3   1  -9    5.25    0.25
   3   1   9    5.43    0.31
  -3   1  -9    5.68    0.32
  -3   1  -9    5.58    0.30
  -4  -1  -9    2.45    0.15
  -4  -1  -9    2.33    0.23
   4  -1   9    2.59    0.23
   4  -1   9    2.43    0.22
   4   1   9    2.37    0.23
   4   1   9    2.43    0.22
  -4   1  -9    2.16    0.20
  -5  -1  -9   11.42    0.48
   5  -1   9   10.90    0.53
   5  -1   9   11.56    0.53
  -5  -1  -9   10.26    0.54
  -5   1  -9    9.62    0.54
   5   1   9   11.25    0.53
   5   1   9   10.08    0.52
  -6  -1  -9    4.58    0.32
   6  -1   9    5.36    0.31
   6  -1   9    5.19    0.31
   6   1   9    4.85    0.32
  -6   1  -9    4.35    0.34
   6   1   9    5.07    0.30
   7  -1   9    9.97    0.51
   7  -1   9   10.02    0.49
  -7  -1  -9    9.19    0.53
   7   1   9    9.09    0.48
  -7   1  -9    8.92    0.55
   7   1   9    9.50    0.47
   8  -1   9    9.03    0.45
   8  -1   9    8.58    0.48
  -8  -1  -9    8.19    0.49
  -8   1  -9    8.30    0.51
   8   1   9    8.39    0.43
   8   1   9    8.55    0.46
   9  -1   9   36.17    1.52
   9  -1   9   35.13    1.49
  -9  -1  -9   32.99    1.54
   9   1   9   32.11    1.48
  -9   1  -9   32.72    1.53
   9   1   9   32.84    1.50
 -10  -1  -9    8.58    0.53
  10  -1   9    8.75    0.46
  10  -1   9    8.75    0.49
 -10   1  -9    8.47    0.53
  10   1   9    8.21    0.44
  10   1   9    8.93    0.49
  11  -1   9    8.13    0.51
  11  -1   9    7.42    0.42
 -11  -1  -9    7.03    0.50
  11   1   9    7.53    0.46
  11   1   9    7.05    0.40
 -11   1  -9    7.75    0.56
  12  -1   9    0.28    0.24
 -12  -1  -9    0.55    0.28
  12  -1   9    0.56    0.14
 -12   1  -9    0.07    0.29
  12   1   9    0.44    0.12
  12   1   9    0.78    0.19
  13  -1   9    1.18    0.16
  13  -1   9    1.02    0.24
 -13  -1  -9    1.04    0.28
 -13   1  -9    0.95    0.31
  13   1   9    0.90    0.24
  13   1   9    1.05    0.13
  13  -2  -9    0.12    0.09
  13  -2  -9    0.00    0.19
  13   2  -9    0.01    0.07
 -13   2   9    0.12    0.28
  13   2  -9    0.25    0.24
  12  -2  -9   -0.02    0.11
  12  -2  -9    0.20    0.18
  12   2  -9   -0.33    0.22
  12   2  -9    0.02    0.09
 -12   2   9   -0.22    0.22
  11  -2  -9    0.16    0.15
  11  -2  -9    0.13    0.11
 -11   2   9    0.21    0.24
  11   2  -9    0.22    0.21
  11   2  -9    0.09    0.10
  10  -2  -9    4.63    0.31
  10  -2  -9    4.48    0.28
  10   2  -9    4.33    0.27
  10   2  -9    4.30    0.35
 -10   2   9    4.25    0.37
   9  -2  -9    1.64    0.19
   9  -2  -9    1.33    0.15
   9   2  -9    1.48    0.14
  -9   2   9    1.59    0.23
   9   2  -9    1.77    0.21
   9   2  -9    1.53    0.15
   8  -2  -9    0.09    0.15
   8  -2  -9    0.15    0.11
  -8  -2   9    0.18    0.13
   8   2  -9    0.30    0.18
   8   2  -9    0.28    0.11
  -8   2   9    0.15    0.16
   8   2  -9    0.12    0.11
   7  -2  -9    2.71    0.22
  -7  -2   9    2.41    0.22
   7  -2  -9    2.66    0.20
   7   2  -9    2.36    0.21
   7   2  -9    2.86    0.23
  -7   2   9    2.33    0.22
   7   2  -9    2.31    0.19
   6  -2  -9    1.18    0.13
  -6  -2   9    1.55    0.15
   6  -2  -9    1.55    0.15
   6   2  -9    1.52    0.18
  -6   2   9    1.39    0.18
   6   2  -9    1.18    0.13
   6   2  -9    1.54    0.15
  -5  -2   9    2.86    0.23
   5  -2  -9    3.07    0.22
   5  -2  -9    2.99    0.24
   5   2  -9    2.90    0.25
   5   2  -9    2.71    0.20
  -5   2   9    3.19    0.28
   5   2  -9    2.94    0.24
  -4  -2   9    0.20    0.11
   4  -2  -9    0.07    0.10
   4  -2  -9    0.20    0.10
  -4   2   9    0.11    0.15
   4   2  -9    0.08    0.10
   4   2  -9    0.30    0.11
   4   2  -9    0.07    0.11
   3  -2  -9   10.32    0.48
  -3  -2   9   10.15    0.49
   3  -2  -9    9.88    0.49
   3   2  -9   10.59    0.50
   3   2  -9    9.97    0.48
  -3   2   9   10.09    0.50
   3   2  -9   10.27    0.49
   2  -2  -9   16.10    0.71
   2  -2  -9   15.40    0.70
  -2  -2   9   15.23    0.70
   2   2  -9   15.26    0.70
   2   2  -9   14.79    0.69
  -2   2   9   15.53    0.72
  -2   2   9   15.04    0.71
   2   2  -9   15.63    0.72
   1  -2  -9    0.71    0.11
  -1  -2   9    0.91    0.15
   1  -2  -9    0.67    0.12
   1  -2  -9    0.85    0.09
  -1  -2   9    0.69    0.12
  -1   2   9    0.65    0.13
  -1   2   9    0.85    0.13
   1   2  -9    0.98    0.14
   1   2  -9    0.76    0.12
   1   2  -9    0.68    0.09
   0  -2   9   13.09    0.62
   0  -2   9   13.02    0.64
   0  -2  -9   13.32    0.62
   0  -2  -9   12.39    0.60
   0  -2  -9   13.23    0.60
   0   2  -9   13.84    0.62
   0   2   9   13.10    0.63
   0   2  -9   14.15    0.63
   0   2  -9   13.01    0.59
   0   2   9   13.31    0.63
   1  -2   9   10.39    0.51
   1  -2   9   10.52    0.53
  -1  -2  -9   10.43    0.49
  -1  -2  -9   10.92    0.50
   1  -2   9   10.70    0.49
  -1   2  -9   10.59    0.52
  -1   2  -9   10.83    0.52
   1   2   9   10.71    0.51
   1   2   9   10.90    0.52
   2  -2   9   57.43    2.47
   2  -2   9   53.31    2.47
  -2  -2  -9   58.24    2.44
   2  -2   9   55.91    2.43
  -2  -2  -9   57.67    2.46
  -2  -2  -9   57.52    2.46
  -2   2  -9   56.55    2.46
   2   2   9   57.48    2.46
  -2   2  -9   55.60    2.46
   2   2   9   55.45    2.46
  -3  -2  -9    3.46    0.24
   3  -2   9    3.15    0.28
  -3  -2  -9    3.42    0.20
   3  -2   9    3.48    0.27
   3   2   9    4.01    0.25
  -3   2  -9    3.41    0.28
   3   2   9    3.47    0.24
  -3   2  -9    3.01    0.25
   4  -2   9   39.19    1.73
  -4  -2  -9   41.28    1.71
   4  -2   9   36.68    1.74
  -4  -2  -9   38.92    1.73
   4   2   9   40.61    1.73
   4   2   9   41.37    1.73
  -4   2  -9   37.37    1.74
  -5  -2  -9    5.75    0.36
   5  -2   9    5.94    0.35
   5  -2   9    5.90    0.37
  -5  -2  -9    6.16    0.30
  -5   2  -9    5.75    0.38
   5   2   9    6.32    0.35
   5   2   9    6.14    0.34
  -6  -2  -9    5.08    0.34
   6  -2   9    5.74    0.35
  -6  -2  -9    5.39    0.28
   6  -2   9    6.05    0.36
   6   2   9    5.40    0.33
   6   2   9    5.65    0.34
  -6   2  -9    4.58    0.37
   7  -2   9    2.08    0.22
  -7  -2  -9    1.95    0.21
   7  -2   9    2.50    0.21
   7   2   9    2.02    0.19
   7   2   9    2.18    0.18
  -7   2  -9    1.59    0.23
   8  -2   9   16.75    0.73
  -8  -2  -9   14.90    0.76
   8  -2   9   15.75    0.75
   8   2   9   14.70    0.71
  -8   2  -9   12.91    0.75
   8   2   9   14.85    0.71
  -9  -2  -9    0.61    0.23
   9  -2   9    0.58    0.19
   9  -2   9    0.86    0.17
   9   2   9    0.58    0.15
   9   2   9    0.70    0.14
  -9   2  -9    0.20    0.25
  10  -2   9    0.31    0.16
  10  -2   9    0.12    0.21
 -10  -2  -9    0.51    0.24
  10   2   9   -0.04    0.12
  10   2   9    0.13    0.17
 -10   2  -9    0.04    0.23
  11  -2   9    2.41    0.22
 -11  -2  -9    2.95    0.33
  11  -2   9    2.25    0.30
  11   2   9    2.66    0.25
 -11   2  -9    1.89    0.31
  11   2   9    2.20    0.19
 -12  -2  -9    1.83    0.32
  12  -2   9    1.73    0.20
  12  -2   9    1.18    0.28
 -12   2  -9    1.44    0.33
  12   2   9    1.88    0.23
  12   2   9    1.54    0.16
  13  -2   9    7.51    0.54
  13  -2   9    7.35    0.42
 -13  -2  -9    7.22    0.59
 -13   2  -9    6.53    0.59
  13   2   9    6.64    0.38
  12  -3  -9   -0.12    0.12
  12  -3  -9    0.14    0.18
 -12  -3   9    0.45    0.30
  12   3  -9    0.02    0.10
 -12   3   9   -0.23    0.29
 -11  -3   9    3.13    0.34
  11  -3  -9    2.94    0.26
  11  -3  -9    3.28    0.24
  11   3  -9    2.82    0.24
 -11   3   9    3.24    0.34
 -10  -3   9    2.36    0.34
  10  -3  -9    2.61    0.24
  10  -3  -9    2.49    0.19
  10   3  -9    2.09    0.18
 -10   3   9    2.49    0.30
  10   3  -9    2.34    0.20
   9  -3  -9    1.54    0.18
  -9  -3   9    1.31    0.30
   9  -3  -9    1.51    0.16
   9   3  -9    1.38    0.17
  -9   3   9    1.46    0.26
   9   3  -9    1.03    0.15
   8  -3  -9   11.97    0.59
  -8  -3   9   11.49    0.66
   8  -3  -9   12.52    0.58
   8   3  -9   11.99    0.58
  -8   3   9   12.09    0.65
   8   3  -9   11.90    0.58
   7  -3  -9   13.81    0.63
  -7  -3   9   11.65    0.67
   7  -3  -9   13.28    0.62
   7   3  -9   12.81    0.62
  -7   3   9   12.68    0.65
   7   3  -9   12.69    0.61
   6  -3  -9    0.44    0.13
  -6  -3   9    0.17    0.21
   6  -3  -9    0.53    0.15
   6   3  -9    0.58    0.13
  -6   3   9    0.35    0.17
   6   3  -9    0.46    0.13
   5  -3  -9   -0.07    0.12
  -5  -3   9    0.06    0.16
  -5  -3   9    0.03    0.11
   5  -3  -9    0.03    0.12
   5   3  -9    0.03    0.12
   5   3  -9    0.08    0.12
  -5   3   9    0.09    0.16
  -4  -3   9   16.26    0.85
   4  -3  -9   17.94    0.83
   4  -3  -9   18.24    0.83
  -4  -3   9   17.99    0.82
  -4   3   9   18.53    0.86
   4   3  -9   18.56    0.83
   4   3  -9   19.45    0.84
   3  -3  -9    2.44    0.21
  -3  -3   9    2.13    0.18
   3  -3  -9    2.35    0.20
  -3  -3   9    2.18    0.20
  -3   3   9    2.34    0.22
   3   3  -9    2.37    0.20
   3   3  -9    2.18    0.18
   2  -3  -9   13.36    0.63
   2  -3  -9   13.39    0.62
  -2  -3   9   12.98    0.63
  -2  -3   9   11.84    0.63
   2   3  -9   14.04    0.64
  -2   3   9   13.80    0.64
   2   3  -9   13.79    0.63
   1  -3  -9    7.27    0.37
  -1  -3   9    6.73    0.37
  -1  -3   9    6.28    0.36
   1  -3  -9    6.65    0.35
   1   3  -9    7.41    0.38
  -1   3   9    6.92    0.38
   1   3  -9    7.43    0.39
  -1   3   9    7.07    0.39
   0  -3   9   -0.01    0.15
   0  -3  -9    0.07    0.11
   0  -3  -9    0.01    0.09
   0  -3   9    0.07    0.11
   0  -3   9    0.02    0.10
   0  -3  -9    0.00    0.11
   0   3   9   -0.04    0.12
   0   3  -9    0.05    0.13
   0   3   9   -0.08    0.13
   0   3  -9   -0.13    0.13
  -1  -3  -9   13.84    0.63
   1  -3   9   13.70    0.65
  -1  -3  -9   14.31    0.65
   1  -3   9   12.69    0.62
   1  -3   9   13.93    0.68
  -1  -3  -9   13.51    0.63
   1   3   9   14.27    0.65
   1   3   9   13.62    0.65
  -1   3  -9   15.05    0.66
   1   3   9   13.27    0.63
  -1   3  -9   13.16    0.65
  -2  -3  -9    1.05    0.12
   2  -3   9    1.22    0.16
   2  -3   9    1.17    0.19
   2   3   9    1.32    0.16
  -2   3  -9    1.06    0.16
   2   3   9    1.01    0.15
   2   3   9    1.12    0.13
  -2   3  -9    0.89    0.16
   3  -3   9    1.38    0.20
   3  -3   9    1.55    0.17
  -3  -3  -9    1.27    0.13
   3   3   9    1.51    0.16
  -3   3  -9    1.44    0.19
   3   3   9    1.03    0.15
   3   3   9    1.30    0.15
   4  -3   9    2.69    0.24
   4  -3   9    2.95    0.25
  -4  -3  -9    2.42    0.20
   4   3   9    2.28    0.22
  -4   3  -9    2.68    0.24
   4   3   9    2.36    0.20
   4   3   9    2.58    0.23
  -5  -3  -9   16.81    0.78
   5  -3   9   18.82    0.84
   5  -3   9   16.42    0.83
  -5   3  -9   16.73    0.84
   5   3   9   17.53    0.81
   5   3   9   17.38    0.80
   5   3   9   17.44    0.81
   6  -3   9    1.61    0.22
   6  -3   9    1.77    0.21
  -6  -3  -9    1.82    0.15
   6   3   9    1.88    0.19
   6   3   9    1.78    0.18
  -6   3  -9    1.59    0.24
   6   3   9    1.63    0.18
  -7  -3  -9    5.60    0.30
   7  -3   9    5.42    0.38
   7  -3   9    4.69    0.39
   7   3   9    5.14    0.34
  -7   3  -9    4.96    0.42
   7   3   9    5.43    0.34
   7   3   9    5.41    0.34
   8  -3   9   16.17    0.82
   8  -3   9   18.32    0.83
  -8   3  -9   15.17    0.83
   8   3   9   16.93    0.79
   8   3   9   17.36    0.79
   8   3   9   16.90    0.82
   9  -3   9    0.63    0.19
   9  -3   9    0.88    0.23
   9   3   9    0.49    0.16
   9   3   9    0.37    0.15
   9   3   9    0.65    0.19
  -9   3  -9    0.24    0.23
  10  -3   9    8.52    0.56
  10  -3   9    9.01    0.50
 -10   3  -9    6.97    0.55
  10   3   9    8.32    0.46
  10   3   9    8.17    0.49
  11  -3   9   -0.19    0.25
  11  -3   9    0.24    0.19
 -11  -3  -9    0.09    0.25
 -11   3  -9   -0.07    0.31
  11   3   9    0.06    0.15
  11   3   9    0.38    0.21
  12  -3   9    0.15    0.25
  12  -3   9    0.43    0.19
 -12  -3  -9    0.88    0.32
 -12   3  -9    0.05    0.33
  12   3   9    0.54    0.15
  11  -4  -9    1.09    0.16
  11  -4  -9    1.03    0.20
 -11  -4   9    0.92    0.34
  11   4  -9    0.86    0.14
  11   4  -9    1.07    0.20
 -11   4   9    0.79    0.27
  10  -4  -9    0.14    0.18
 -10  -4   9   -0.05    0.30
  10  -4  -9    0.15    0.15
  10   4  -9   -0.04    0.13
  10   4  -9    0.21    0.17
 -10   4   9    0.13    0.27
   9  -4  -9    0.03    0.15
  -9  -4   9    0.12    0.30
   9  -4  -9    0.02    0.18
  -9   4   9    0.43    0.23
   9   4  -9    0.23    0.15
   9   4  -9    0.04    0.16
  -8  -4   9    2.51    0.32
   8  -4  -9    3.46    0.28
   8  -4  -9    3.01    0.28
  -8   4   9    3.38    0.32
   8   4  -9    3.58    0.30
   8   4  -9    2.91    0.28
   7  -4  -9    1.87    0.18
  -7  -4   9    2.13    0.29
   7  -4  -9    1.92    0.20
  -7   4   9    1.69    0.23
   7   4  -9    1.97    0.19
   7   4  -9    2.15    0.21
  -6  -4   9    0.60    0.24
   6  -4  -9    0.91    0.15
   6  -4  -9    0.58    0.15
   6   4  -9    0.79    0.16
   6   4  -9    0.70    0.17
  -6   4   9    0.71    0.22
   5  -4  -9    3.07    0.23
   5  -4  -9    2.75    0.26
  -5  -4   9    2.72    0.27
   5   4  -9    2.90    0.27
  -5   4   9    2.46    0.26
   5   4  -9    2.31    0.21
  -4  -4   9   10.31    0.58
   4  -4  -9   11.30    0.55
   4  -4  -9   11.17    0.55
   4   4  -9   11.12    0.56
   4   4  -9   11.07    0.56
  -4   4   9   11.19    0.59
  -3  -4   9    0.49    0.15
   3  -4  -9    0.47    0.13
   3  -4  -9    0.55    0.15
   3   4  -9    0.42    0.14
  -3   4   9    0.48    0.16
   3   4  -9    0.38    0.15
  -2  -4   9    3.68    0.30
   2  -4  -9    3.97    0.27
   2  -4  -9    4.01    0.27
  -2   4   9    3.67    0.29
   2   4  -9    4.08    0.31
   2   4  -9    4.03    0.30
   1  -4  -9   16.15    0.77
   1  -4  -9   16.72    0.77
  -1  -4   9   15.30    0.76
  -1  -4   9   16.01    0.77
  -1   4   9   17.59    0.78
   1   4  -9   16.74    0.77
   1   4  -9   17.12    0.78
   0  -4  -9    9.27    0.47
   0  -4  -9    9.20    0.47
   0  -4   9    8.89    0.46
   0  -4   9    9.16    0.48
   0   4   9    9.48    0.48
   0   4  -9    8.90    0.49
   0   4  -9    9.65    0.50
  -1  -4  -9    0.19    0.13
   1  -4   9    0.13    0.11
   1  -4   9   -0.06    0.14
  -1   4  -9    0.15    0.15
   1   4   9    0.03    0.14
  -1   4  -9    0.04    0.14
   1   4   9    0.00    0.11
   1   4   9   -0.16    0.15
   2  -4   9    6.90    0.44
  -2  -4  -9    6.81    0.37
   2  -4   9    6.25    0.40
   2   4   9    6.72    0.40
   2   4   9    6.66    0.36
  -2   4  -9    6.66    0.42
   2   4   9    6.67    0.38
   3  -4   9    8.24    0.49
   3  -4   9    7.57    0.46
  -3  -4  -9    8.14    0.42
   3   4   9    7.87    0.44
  -3   4  -9    7.05    0.47
   3   4   9    8.06    0.42
   3   4   9    8.35    0.43
  -4  -4  -9    5.56    0.34
   4  -4   9    5.98    0.40
   4  -4   9    6.39    0.43
  -4   4  -9    5.18    0.38
   4   4   9    6.02    0.36
   4   4   9    6.41    0.35
   4   4   9    5.82    0.37
   5  -4   9    0.18    0.18
  -5  -4  -9    0.09    0.13
   5  -4   9    0.07    0.18
   5   4   9    0.08    0.15
  -5   4  -9    0.07    0.21
   5   4   9   -0.09    0.15
   5   4   9    0.17    0.14
  -6  -4  -9    1.87    0.18
   6  -4   9    2.17    0.25
   6  -4   9    1.62    0.23
   6   4   9    1.89    0.19
   6   4   9    2.01    0.19
  -6   4  -9    1.76    0.24
   6   4   9    2.12    0.21
   7  -4   9   10.78    0.61
   7  -4   9   10.97    0.62
  -7  -4  -9   11.77    0.55
  -7   4  -9   10.35    0.64
   7   4   9   11.47    0.57
   7   4   9   11.33    0.59
  -8  -4  -9    0.56    0.16
   8  -4   9    0.26    0.21
   8  -4   9    0.27    0.22
   8   4   9    0.51    0.20
   8   4   9    0.63    0.16
  -8   4  -9    0.53    0.24
   9  -4   9    1.44    0.29
   9  -4   9    1.03    0.23
   9   4   9    1.39    0.23
   9   4   9    1.06    0.18
  -9   4  -9    0.91    0.27
  10  -4   9    0.32    0.21
  10  -4   9    0.20    0.29
  10   4   9    0.27    0.16
  10   4   9    0.46    0.22
 -10   4  -9   -0.09    0.29
  11  -4   9    4.06    0.33
  11  -4   9    4.69    0.40
 -11   4  -9    3.88    0.40
  11   4   9    5.31    0.41
  11   4   9    4.71    0.34
   9  -5  -9    1.85    0.21
  -9  -5   9    1.86    0.36
   9  -5  -9    1.88    0.23
   9   5  -9    1.72    0.23
  -9   5   9    1.69    0.28
   9   5  -9    1.79    0.20
  -8  -5   9   -0.06    0.29
   8  -5  -9    0.46    0.19
   8  -5  -9    0.20    0.16
   8   5  -9    0.23    0.20
  -8   5   9    0.24    0.25
   8   5  -9    0.18    0.17
   7  -5  -9    0.87    0.17
  -7  -5   9    0.53    0.28
   7  -5  -9    0.66    0.18
  -7   5   9    0.82    0.22
   7   5  -9    0.78    0.18
   7   5  -9    1.04    0.18
   6  -5  -9    1.15    0.19
  -6  -5   9    0.97    0.25
   6  -5  -9    0.99    0.17
  -6   5   9    0.96    0.21
   6   5  -9    1.08    0.21
   6   5  -9    1.27    0.19
  -5  -5   9    0.38    0.24
   5  -5  -9    0.16    0.15
   5  -5  -9    0.27    0.18
   5   5  -9    0.48    0.17
   5   5  -9    0.46    0.19
  -5   5   9    0.24    0.18
   4  -5  -9    1.66    0.18
   4  -5  -9    1.63    0.19
  -4  -5   9    1.67    0.26
   4   5  -9    1.84    0.20
  -4   5   9    1.83    0.24
   4   5  -9    1.62    0.21
   3  -5  -9    1.36    0.17
  -3  -5   9    2.03    0.23
   3  -5  -9    1.64    0.21
  -3   5   9    1.59    0.22
   3   5  -9    1.52    0.20
   3   5  -9    1.78    0.21
  -2  -5   9    2.44    0.23
   2  -5  -9    2.32    0.21
   2  -5  -9    2.25    0.21
   2   5  -9    2.16    0.23
   2   5  -9    2.63    0.25
  -2   5   9    2.56    0.24
  -1  -5   9    0.32    0.17
   1  -5  -9   -0.03    0.15
  -1   5   9   -0.04    0.16
   1   5  -9    0.03    0.17
   1   5  -9    0.20    0.18
   0  -5  -9   11.83    0.59
   0  -5   9   11.99    0.58
   0   5  -9   11.08    0.60
   0   5   9   12.42    0.60
  -1  -5  -9    1.85    0.21
  -1   5  -9    1.63    0.21
   1   5   9    1.78    0.19
   2  -5   9    8.04    0.45
  -2  -5  -9    7.55    0.42
   2   5   9    7.22    0.45
   2   5   9    7.41    0.42
  -2   5  -9    7.22    0.47
   3  -5   9    1.77    0.24
  -3  -5  -9    1.64    0.18
   3   5   9    1.81    0.19
  -3   5  -9    1.57    0.22
   3   5   9    1.57    0.18
   3   5   9    1.52    0.20
  -4  -5  -9    0.87    0.18
   4  -5   9    0.76    0.22
   4  -5   9    0.68    0.23
  -4   5  -9    1.03    0.23
   4   5   9    1.12    0.20
   4   5   9    0.96    0.17
   5  -5   9    0.83    0.23
   5  -5   9    1.03    0.23
  -5  -5  -9    0.97    0.16
  -5   5  -9    1.03    0.25
   5   5   9    1.07    0.18
   5   5   9    0.67    0.18
   6  -5   9   10.32    0.60
   6  -5   9   10.36    0.62
  -6  -5  -9    9.64    0.52
   6   5   9    9.61    0.54
   6   5   9   10.19    0.54
  -6   5  -9    9.21    0.57
  -7  -5  -9    1.30    0.20
   7  -5   9    1.48    0.29
   7  -5   9    1.48    0.26
  -7   5  -9    1.63    0.29
   7   5   9    1.79    0.22
   7   5   9    1.37    0.20
   8  -5   9    2.13    0.31
  -8  -5  -9    2.10    0.22
   8  -5   9    1.96    0.27
  -8   5  -9    1.93    0.33
   8   5   9    2.36    0.26
   8   5   9    2.19    0.23
   9  -5   9    0.80    0.26
   9  -5   9    1.08    0.29
  -9   5  -9    1.24    0.33
   9   5   9    1.22    0.20
   9   5   9    1.06    0.23
   6  -6  -9    3.17    0.26
   6  -6  -9    3.10    0.26
  -6  -6   9    2.43    0.36
   6   6  -9    3.32    0.28
  -6   6   9    3.29    0.31
   6   6  -9    3.04    0.28
  -5  -6   9    0.05    0.24
   5  -6  -9   -0.01    0.21
   5  -6  -9    0.16    0.17
   5   6  -9    0.35    0.22
  -5   6   9    0.33    0.24
   5   6  -9    0.13    0.18
  -4  -6   9    2.73    0.30
   4  -6  -9    2.88    0.25
   4  -6  -9    2.36    0.26
  -4   6   9    2.56    0.27
   4   6  -9    2.34    0.24
   4   6  -9    2.22    0.25
  -3  -6   9    3.52    0.32
   3  -6  -9    4.32    0.37
   3   6  -9    3.83    0.36
  -3   6   9    3.89    0.37
   3   6  -9    4.10    0.35
   2  -6  -9    0.92    0.22
  -2  -6   9    0.83    0.22
  -2   6   9    0.79    0.21
   2   6  -9    0.83    0.21
   2   6  -9    0.85    0.21
  -1  -6   9    0.60    0.19
   1  -6  -9    0.25    0.19
   1   6  -9    0.22    0.20
  -1   6   9    0.23    0.19
   0  -6  -9    1.43    0.23
   0   6  -9    1.59    0.26
  -1  -6  -9    2.13    0.25
  -1   6  -9    2.15    0.26
  -2  -6  -9    0.06    0.20
  -2   6  -9    0.14    0.23
  -3  -6  -9    0.32    0.18
  -3   6  -9    0.47    0.25
  -4  -6  -9    0.04    0.20
   4   6   9    0.02    0.20
  -4   6  -9    0.09    0.25
  -5  -6  -9    0.41    0.17
   5   6   9    0.31    0.19
   5   6   9    0.23    0.19
  -5   6  -9    0.15    0.23
  -6  -6  -9    4.48    0.38
   6  -6   9    5.63    0.46
   6  -6   9    5.58    0.52
   6   6   9    4.16    0.38
   6   6   9    5.19    0.38
  -6   6  -9    4.74    0.43
 -13   0  10    0.07    0.23
  13   0 -10    0.03    0.08
  13   0 -10    0.21    0.21
  12   0 -10    2.05    0.19
  12   0 -10    1.75    0.23
 -12   0  10    1.74    0.26
  11   0 -10   -0.05    0.18
  11   0 -10    0.01    0.11
 -11   0  10    0.06    0.20
  10   0 -10   15.79    0.70
 -10   0  10   11.78    0.69
  10   0 -10   14.24    0.64
   9   0 -10   -0.04    0.18
  -9   0  10    0.13    0.18
   9   0 -10    0.20    0.12
  -8   0  10   41.52    2.05
   8   0 -10   49.72    2.04
   8   0 -10   48.16    2.03
  -7   0  10    0.01    0.16
   7   0 -10   -0.02    0.13
   7   0 -10    0.05    0.11
   6   0 -10    4.22    0.27
   6   0 -10    4.27    0.28
  -6   0  10    3.61    0.30
  -5   0  10    0.01    0.14
   5   0 -10   -0.12    0.12
   5   0 -10    0.13    0.11
   4   0 -10   17.48    0.78
   4   0 -10   18.14    0.80
   4   0 -10   18.82    0.82
  -4   0  10   16.61    0.82
  -3   0  10    0.16    0.14
   3   0 -10    0.07    0.10
   3   0 -10    0.06    0.11
   3   0 -10   -0.05    0.07
  -2   0  10  114.32    5.26
   2   0 -10  121.12    5.24
   2   0 -10  127.94    5.27
   2   0 -10  122.43    5.24
  -2   0  10  122.84    5.25
  -1   0  10    0.08    0.11
   1   0 -10    0.05    0.10
  -1   0  10    0.03    0.11
   1   0 -10   -0.13    0.08
   1   0 -10   -0.13    0.08
   0   0  10    4.10    0.25
   0   0 -10    3.37    0.22
   0   0  10    3.62    0.27
   0   0 -10    3.89    0.23
   0   0 -10    3.63    0.25
  -1   0 -10   -0.01    0.07
  -1   0 -10    0.09    0.10
  -1   0 -10    0.40    0.11
   1   0  10   -0.01    0.12
   1   0  10   -0.04    0.11
   2   0  10    8.50    0.44
  -2   0 -10    9.04    0.41
   2   0  10    8.97    0.45
  -2   0 -10    8.85    0.44
  -2   0 -10    8.54    0.44
   3   0  10    0.07    0.11
  -3   0 -10   -0.01    0.06
  -3   0 -10   -0.16    0.11
  -3   0 -10   -0.12    0.09
   3   0  10    0.06    0.12
   4   0  10    5.50    0.32
  -4   0 -10    4.98    0.34
   4   0  10    5.72    0.34
   5   0  10   -0.14    0.15
  -5   0 -10   -0.07    0.16
   5   0  10    0.11    0.11
   6   0  10  170.86    7.72
   6   0  10  189.04    7.79
  -6   0 -10  178.82    7.74
  -7   0 -10    0.85    0.21
   7   0  10    0.14    0.16
   7   0  10    0.08    0.11
   8   0  10    4.69    0.31
   8   0  10    4.56    0.32
  -8   0 -10    4.80    0.41
  -9   0 -10   -0.04    0.23
   9   0  10    0.02    0.12
   9   0  10    0.05    0.16
  10   0  10   47.00    2.00
  10   0  10   44.51    1.97
 -10   0 -10   43.51    2.02
 -11   0 -10   -0.08    0.23
  11   0  10    0.14    0.19
  11   0  10    0.09    0.13
  12   0  10    9.04    0.53
  12   0  10    8.98    0.47
 -12   0 -10    8.78    0.62
  13   0  10    0.14    0.13
  13   0  10   -0.02    0.24
 -13   0 -10   -0.14    0.30
  13  -1 -10    0.08    0.10
  13  -1 -10   -0.07    0.18
  13   1 -10    0.14    0.08
 -13   1  10    0.26    0.26
  13   1 -10   -0.24    0.22
  12  -1 -10    0.91    0.21
  12  -1 -10    0.98    0.12
  12   1 -10    0.73    0.11
  12   1 -10    1.00    0.22
 -12   1  10    0.78    0.25
  11  -1 -10   10.38    0.54
 -11  -1  10    8.84    0.53
  11  -1 -10   10.44    0.48
 -11   1  10    9.03    0.56
  11   1 -10   10.88    0.55
  11   1 -10    9.87    0.48
  10  -1 -10    1.22    0.20
 -10  -1  10    1.09    0.19
  10  -1 -10    1.23    0.14
  10   1 -10    1.21    0.13
  10   1 -10    1.44    0.22
 -10   1  10    1.18    0.23
  -9  -1  10   14.54    0.78
   9  -1 -10   17.27    0.77
   9  -1 -10   18.17    0.76
   9   1 -10   17.60    0.80
  -9   1  10   15.31    0.80
   9   1 -10   16.20    0.76
   8  -1 -10   14.07    0.65
  -8  -1  10   12.23    0.67
   8  -1 -10   14.91    0.65
   8   1 -10   13.69    0.64
  -8   1  10   12.58    0.67
   8   1 -10   14.15    0.67
  -7  -1  10    1.77    0.20
   7  -1 -10    1.92    0.18
   7  -1 -10    2.18    0.17
   7   1 -10    2.18    0.18
   7   1 -10    2.11    0.21
  -7   1  10    1.61    0.22
   6  -1 -10    0.22    0.12
   6  -1 -10    0.31    0.12
  -6  -1  10    0.19    0.14
  -6   1  10    0.26    0.17
   6   1 -10    0.30    0.12
   6   1 -10    0.18    0.09
   6   1 -10    0.11    0.15
   5  -1 -10    0.01    0.11
   5  -1 -10    0.00    0.11
  -5  -1  10   -0.06    0.13
   5   1 -10   -0.03    0.12
   5   1 -10   -0.09    0.14
   5   1 -10    0.00    0.08
  -5   1  10    0.17    0.14
   4  -1 -10   16.02    0.70
   4  -1 -10   16.08    0.71
  -4  -1  10   15.23    0.72
   4   1 -10   15.14    0.72
   4   1 -10   14.76    0.69
   4   1 -10   14.87    0.71
  -3  -1  10   22.90    1.03
   3  -1 -10   23.16    1.01
   3  -1 -10   23.12    1.02
  -3   1  10   23.13    1.04
   3   1 -10   21.75    1.00
   3   1 -10   22.39    1.02
   3   1 -10   23.07    1.03
   2  -1 -10   59.79    2.53
   2  -1 -10   57.84    2.54
   2  -1 -10   60.42    2.55
  -2  -1  10   59.58    2.56
   2   1 -10   57.80    2.54
   2   1 -10   58.20    2.56
  -2   1  10   59.18    2.56
   2   1 -10   57.06    2.55
   1  -1 -10  107.55    4.42
   1  -1 -10  103.12    4.41
  -1  -1  10   95.85    4.44
  -1  -1  10  103.31    4.43
   1  -1 -10  105.81    4.43
  -1   1  10   99.29    4.43
   1   1 -10  103.59    4.42
   1   1 -10  103.56    4.41
   1   1 -10  100.54    4.43
   0  -1 -10   62.95    2.64
   0  -1  10   61.54    2.67
   0  -1  10   59.82    2.65
   0  -1 -10   61.17    2.64
   0  -1 -10   61.40    2.65
   0   1 -10   59.21    2.64
   0   1  10   61.01    2.66
   0   1 -10   61.29    2.66
   0   1  10   60.34    2.65
   0   1 -10   61.39    2.63
   1  -1  10    0.86    0.15
  -1  -1 -10    1.62    0.14
  -1  -1 -10    1.11    0.13
   1  -1  10    0.88    0.14
  -1  -1 -10    0.83    0.10
   1   1  10    1.03    0.14
  -1   1 -10    0.98    0.14
  -1   1 -10    0.74    0.13
  -1   1 -10    0.94    0.09
   1   1  10    1.10    0.15
   2  -1  10    6.63    0.37
  -2  -1 -10    6.03    0.34
   2  -1  10    6.89    0.38
  -2  -1 -10    6.49    0.31
  -2  -1 -10    6.15    0.35
  -2   1 -10    6.90    0.36
  -2   1 -10    6.33    0.30
   2   1  10    6.03    0.35
   2   1  10    6.45    0.36
  -2   1 -10    6.25    0.36
  -3  -1 -10   50.18    2.06
   3  -1  10   46.63    2.09
  -3  -1 -10   45.25    2.09
   3  -1  10   50.73    2.10
   3   1  10   48.35    2.09
   3   1  10   47.07    2.09
  -3   1 -10   45.99    2.09
  -4  -1 -10    4.35    0.22
   4  -1  10    4.33    0.30
  -4  -1 -10    3.93    0.29
   4  -1  10    4.65    0.30
   4   1  10    4.46    0.29
  -4   1 -10    3.89    0.29
   4   1  10    4.03    0.30
   5  -1  10   44.69    1.93
  -5  -1 -10   42.92    1.92
   5  -1  10   46.50    1.92
   5   1  10   44.82    1.92
   5   1  10   43.77    1.93
  -5   1 -10   39.67    1.94
   6  -1  10    0.25    0.14
  -6  -1 -10    0.20    0.17
   6  -1  10    0.29    0.14
   6   1  10    0.18    0.12
   6   1  10    0.19    0.14
  -6   1 -10    0.11    0.17
  -7  -1 -10    0.88    0.20
   7  -1  10    0.55    0.18
   7  -1  10    0.91    0.15
   7   1  10    0.92    0.14
  -7   1 -10    0.71    0.20
   7   1  10    0.61    0.15
   8  -1  10   10.81    0.57
   8  -1  10   11.34    0.54
  -8  -1 -10    9.90    0.58
   8   1  10   10.27    0.52
   8   1  10   10.33    0.54
  -8   1 -10    9.94    0.58
  -9  -1 -10    3.03    0.30
   9  -1  10    3.22    0.28
   9  -1  10    2.96    0.26
  -9   1 -10    2.99    0.32
   9   1  10    3.01    0.25
   9   1  10    2.75    0.27
  10  -1  10    8.66    0.52
  10  -1  10    8.33    0.45
 -10  -1 -10    7.86    0.54
  10   1  10    8.20    0.43
 -10   1 -10    8.16    0.54
  10   1  10    8.33    0.46
  11  -1  10    0.24    0.15
 -11  -1 -10    0.45    0.27
  11  -1  10    0.02    0.20
  11   1  10    0.23    0.14
  11   1  10    0.02    0.18
 -11   1 -10    0.07    0.28
  12  -1  10    9.88    0.60
  12  -1  10   10.04    0.51
 -12  -1 -10   10.72    0.65
  12   1  10   10.34    0.57
  12   1  10    9.13    0.49
 -12   1 -10    9.11    0.66
  13  -1  10    7.25    0.53
  13  -1  10    7.17    0.41
 -13  -1 -10    6.61    0.53
 -13   1 -10    6.99    0.55
  13   1  10    6.84    0.39
  13   1  10    7.47    0.50
  12  -2 -10    1.73    0.15
  12  -2 -10    1.83    0.21
  12   2 -10    1.44    0.14
  12   2 -10    1.24    0.24
 -12   2  10    1.18    0.27
  11  -2 -10   12.75    0.61
  11  -2 -10   13.03    0.58
  11   2 -10   12.81    0.67
  11   2 -10   10.77    0.56
 -11   2  10   10.77    0.68
  10  -2 -10    1.11    0.15
  10  -2 -10    0.91    0.19
 -10   2  10    1.07    0.26
  10   2 -10    0.57    0.21
  10   2 -10    0.81    0.13
   9  -2 -10    2.00    0.17
   9  -2 -10    2.20    0.20
   9   2 -10    1.81    0.16
  -9   2  10    1.38    0.23
   9   2 -10    2.00    0.24
   8  -2 -10    1.36    0.17
  -8  -2  10    1.19    0.17
   8  -2 -10    1.49    0.15
   8   2 -10    1.38    0.22
  -8   2  10    1.25    0.23
   8   2 -10    1.31    0.15
   7  -2 -10   32.93    1.40
  -7  -2  10   29.19    1.41
   7  -2 -10   32.92    1.41
  -7   2  10   32.73    1.44
   7   2 -10   31.44    1.40
   7   2 -10   33.78    1.43
   7   2 -10   29.16    1.39
   6  -2 -10    0.20    0.12
   6  -2 -10    0.20    0.14
  -6  -2  10    0.34    0.14
   6   2 -10    0.34    0.13
  -6   2  10    0.07    0.16
   6   2 -10    0.31    0.11
   6   2 -10    0.17    0.14
   5  -2 -10   32.57    1.42
   5  -2 -10   33.30    1.42
  -5  -2  10   31.03    1.42
  -5   2  10   31.90    1.44
   5   2 -10   32.90    1.43
   5   2 -10   30.93    1.41
   5   2 -10   32.49    1.43
   4  -2 -10   40.78    1.77
  -4  -2  10   38.91    1.77
   4  -2 -10   40.57    1.77
   4   2 -10   41.06    1.77
  -4   2  10   40.60    1.79
   4   2 -10   39.76    1.76
   4   2 -10   41.22    1.78
  -3  -2  10    0.31    0.12
   3  -2 -10    0.38    0.11
   3  -2 -10    0.19    0.12
  -3   2  10    0.37    0.15
   3   2 -10    0.35    0.12
   3   2 -10    0.32    0.11
   3   2 -10    0.38    0.14
   2  -2 -10    0.95    0.13
  -2  -2  10    0.98    0.14
   2  -2 -10    0.78    0.12
   2   2 -10    0.83    0.12
   2   2 -10    1.11    0.16
   2   2 -10    0.87    0.11
  -2   2  10    0.92    0.15
   1  -2 -10   49.39    2.13
   1  -2 -10   49.29    2.14
  -1  -2  10   48.43    2.14
  -1   2  10   48.26    2.14
   1   2 -10   48.08    2.12
   1   2 -10   51.50    2.15
   1   2 -10   49.12    2.14
  -1   2  10   48.01    2.15
   0  -2  10    0.56    0.13
   0  -2 -10    1.10    0.12
   0  -2  10    0.85    0.16
   0  -2 -10    1.00    0.11
   0  -2 -10    0.90    0.12
   0   2 -10    0.91    0.10
   0   2  10    0.83    0.14
   0   2  10    0.82    0.15
   0   2 -10    0.99    0.15
   0   2 -10    0.84    0.13
  -1  -2 -10   19.19    0.87
   1  -2  10   18.24    0.91
  -1  -2 -10   19.60    0.86
  -1  -2 -10   19.16    0.88
   1  -2  10   18.89    0.86
   1  -2  10   18.91    0.88
   1   2  10   20.52    0.88
  -1   2 -10   19.99    0.89
  -1   2 -10   19.74    0.89
   1   2  10   19.05    0.89
   2  -2  10    2.23    0.20
  -2  -2 -10    2.07    0.20
   2  -2  10    1.93    0.20
  -2  -2 -10    2.12    0.19
  -2  -2 -10    2.08    0.17
   2   2  10    1.90    0.18
   2   2  10    2.37    0.22
  -2   2 -10    2.40    0.20
  -2   2 -10    2.27    0.20
  -3  -2 -10    5.57    0.29
  -3  -2 -10    5.05    0.33
   3  -2  10    5.95    0.33
   3  -2  10    5.49    0.37
   3   2  10    5.73    0.34
   3   2  10    5.62    0.32
  -3   2 -10    5.67    0.36
   4  -2  10   60.76    2.56
  -4  -2 -10   58.74    2.52
  -4  -2 -10   56.47    2.55
   4  -2  10   59.70    2.55
   4   2  10   59.92    2.55
  -4   2 -10   55.26    2.55
   4   2  10   57.98    2.55
  -5  -2 -10   27.57    1.26
  -5  -2 -10   28.14    1.22
   5  -2  10   29.20    1.27
   5  -2  10   28.79    1.26
   5   2  10   28.13    1.25
   5   2  10   27.54    1.25
  -5   2 -10   25.73    1.27
   6  -2  10    0.30    0.18
   6  -2  10    0.51    0.16
  -6  -2 -10    0.42    0.17
  -6   2 -10    0.34    0.19
   6   2  10    0.31    0.14
   6   2  10    0.39    0.16
  -7  -2 -10   47.92    2.16
   7  -2  10   50.38    2.15
   7  -2  10   51.52    2.15
   7   2  10   49.98    2.15
  -7   2 -10   42.79    2.17
   7   2  10   49.71    2.14
   8  -2  10    2.38    0.24
   8  -2  10    1.99    0.21
  -8  -2 -10    1.89    0.25
   8   2  10    2.02    0.19
   8   2  10    1.90    0.20
  -8   2 -10    1.51    0.26
   9  -2  10   48.18    2.05
  -9  -2 -10   45.07    2.05
   9  -2  10   49.18    2.03
   9   2  10   45.85    2.02
  -9   2 -10   41.78    2.06
   9   2  10   45.75    2.02
 -10  -2 -10    2.39    0.28
  10  -2  10    2.76    0.30
  10  -2  10    2.55    0.23
  10   2  10    2.45    0.21
 -10   2 -10    2.27    0.31
  10   2  10    2.82    0.24
 -11  -2 -10    0.20    0.27
  11  -2  10    0.22    0.25
  11  -2  10    0.28    0.18
  11   2  10    0.01    0.13
 -11   2 -10    0.00    0.26
  11   2  10    0.20    0.20
  12  -2  10    8.47    0.48
 -12  -2 -10    8.43    0.57
  12  -2  10    8.92    0.54
 -12   2 -10    7.99    0.64
  12   2  10    9.27    0.51
  12   2  10    7.61    0.44
  12  -3 -10    7.15    0.41
 -12  -3  10    6.72    0.59
  12  -3 -10    7.11    0.38
  12   3 -10    6.38    0.36
 -12   3  10    5.78    0.51
  11  -3 -10    1.07    0.18
 -11  -3  10    1.28    0.32
  11  -3 -10    0.95    0.15
  11   3 -10    0.81    0.14
 -11   3  10    0.83    0.29
 -10  -3  10    0.30    0.30
  10  -3 -10    0.09    0.18
  10  -3 -10    0.11    0.14
  10   3 -10    0.15    0.13
 -10   3  10   -0.09    0.25
  -9  -3  10    0.25    0.29
   9  -3 -10    0.26    0.14
   9  -3 -10    0.08    0.18
   9   3 -10    0.41    0.14
  -9   3  10    0.33    0.24
   9   3 -10   -0.08    0.22
   9   3 -10    0.34    0.15
   8  -3 -10    0.48    0.14
  -8  -3  10    0.30    0.24
   8  -3 -10    0.60    0.18
   8   3 -10    0.48    0.14
  -8   3  10    1.34    0.24
   8   3 -10    0.63    0.19
   8   3 -10    0.56    0.15
  -7  -3  10    2.07    0.30
   7  -3 -10    2.95    0.26
   7  -3 -10    3.31    0.26
  -7   3  10    2.96    0.28
   7   3 -10    2.74    0.26
   7   3 -10    2.49    0.25
   7   3 -10    3.47    0.29
   6  -3 -10   15.72    0.72
   6  -3 -10   15.35    0.72
  -6  -3  10   13.59    0.77
   6   3 -10   15.49    0.72
   6   3 -10   15.85    0.74
   6   3 -10   15.07    0.71
  -6   3  10   14.76    0.74
  -5  -3  10    5.21    0.41
   5  -3 -10    5.85    0.35
   5  -3 -10    5.63    0.34
   5   3 -10    5.83    0.34
  -5   3  10    5.74    0.38
   5   3 -10    5.56    0.35
   4  -3 -10   24.26    1.08
  -4  -3  10   22.21    1.11
  -4  -3  10   23.31    1.08
   4  -3 -10   24.65    1.09
  -4   3  10   24.70    1.11
   4   3 -10   24.28    1.08
   4   3 -10   25.33    1.10
  -3  -3  10    4.41    0.33
   3  -3 -10    5.22    0.29
   3  -3 -10    5.06    0.31
  -3  -3  10    4.66    0.31
  -3   3  10    5.13    0.34
   3   3 -10    4.88    0.33
   3   3 -10    4.79    0.31
  -2  -3  10    4.01    0.29
   2  -3 -10    3.75    0.27
   2  -3 -10    4.42    0.27
  -2  -3  10    3.47    0.27
  -2   3  10    3.88    0.30
   2   3 -10    4.15    0.28
   2   3 -10    4.05    0.31
   1  -3 -10   14.66    0.69
  -1  -3  10   14.05    0.69
  -1  -3  10   13.56    0.67
   1  -3 -10   14.55    0.68
  -1   3  10   15.79    0.71
   1   3 -10   15.08    0.71
   1   3 -10   14.84    0.68
   0  -3  10   20.65    0.93
   0  -3 -10   20.38    0.92
   0  -3 -10   19.94    0.90
   0  -3  10   19.00    0.90
   0   3  10   20.04    0.93
   0   3 -10   19.84    0.92
   0   3 -10   21.32    0.94
   0   3  10   20.47    0.92
   1  -3  10    4.53    0.31
   1  -3  10    5.01    0.37
  -1  -3 -10    4.79    0.28
  -1  -3 -10    4.39    0.28
  -1  -3 -10    4.49    0.30
   1   3  10    4.50    0.30
  -1   3 -10    5.48    0.34
  -1   3 -10    4.57    0.31
   1   3  10    4.59    0.32
   2  -3  10  104.68    4.36
  -2  -3 -10  101.87    4.34
   2  -3  10  101.46    4.38
  -2  -3 -10   98.66    4.35
   2   3  10  100.43    4.36
  -2   3 -10   97.13    4.36
   2   3  10  100.52    4.35
   3  -3  10    1.27    0.21
  -3  -3 -10    1.13    0.15
   3  -3  10    1.46    0.19
  -3  -3 -10    1.19    0.13
  -3   3 -10    1.25    0.20
   3   3  10    1.00    0.15
   3   3  10    1.38    0.17
  -4  -3 -10    0.49    0.15
   4  -3  10    0.54    0.19
  -4  -3 -10    0.57    0.11
   4  -3  10    0.68    0.18
  -4   3 -10    0.36    0.17
   4   3  10    0.66    0.16
   4   3  10    0.44    0.16
   5  -3  10    1.93    0.24
   5  -3  10    2.56    0.23
  -5  -3 -10    2.33    0.19
  -5  -3 -10    1.89    0.21
   5   3  10    2.28    0.20
   5   3  10    2.38    0.20
  -5   3 -10    2.24    0.26
  -6  -3 -10   11.90    0.62
   6  -3  10   12.01    0.63
  -6  -3 -10   11.51    0.56
   6  -3  10   13.73    0.65
  -6   3 -10   10.54    0.65
   6   3  10   12.38    0.60
   6   3  10   11.80    0.59
   6   3  10   11.75    0.60
   7  -3  10    0.31    0.21
  -7  -3 -10    0.11    0.19
   7  -3  10    0.29    0.19
   7   3  10    0.08    0.14
   7   3  10    0.32    0.17
  -7   3 -10    0.27    0.23
   8  -3  10    2.27    0.25
   8  -3  10    2.91    0.29
  -8  -3 -10    2.29    0.28
   8   3  10    2.49    0.22
   8   3  10    2.56    0.22
  -8   3 -10    1.86    0.27
   9  -3  10    3.83    0.34
  -9  -3 -10    3.75    0.32
   9  -3  10    4.16    0.37
   9   3  10    3.81    0.31
   9   3  10    3.72    0.32
  -9   3 -10    2.90    0.36
  10  -3  10    9.27    0.52
 -10  -3 -10    8.78    0.58
  10  -3  10    8.82    0.55
  10   3  10    8.40    0.48
 -10   3 -10    7.41    0.61
  11  -3  10   11.33    0.69
 -11  -3 -10   11.56    0.70
  11  -3  10   12.84    0.63
  11   3  10   10.96    0.58
 -11   3 -10   10.33    0.73
 -10  -4  10    0.36    0.32
  10  -4 -10    0.16    0.16
  10  -4 -10    0.28    0.17
  10   4 -10    0.10    0.15
 -10   4  10    0.16    0.25
  10   4 -10    0.06    0.18
   9  -4 -10    1.44    0.19
   9  -4 -10    1.55    0.20
  -9  -4  10    1.25    0.29
   9   4 -10    1.43    0.18
   9   4 -10    1.50    0.20
  -9   4  10    1.54    0.29
  -8  -4  10    8.92    0.64
   8  -4 -10    9.88    0.51
   8  -4 -10    9.81    0.53
  -8   4  10    9.08    0.60
   8   4 -10    9.62    0.51
   8   4 -10    9.76    0.52
  -7  -4  10    9.32    0.61
   7  -4 -10   11.14    0.54
   7  -4 -10   11.04    0.55
   7   4 -10   10.75    0.55
   7   4 -10   11.10    0.56
  -7   4  10    9.68    0.59
  -6  -4  10    4.01    0.35
   6  -4 -10    4.17    0.31
   6  -4 -10    4.50    0.34
  -6   4  10    3.92    0.36
   6   4 -10    4.42    0.33
   6   4 -10    4.40    0.33
   5  -4 -10   32.81    1.46
  -5  -4  10   29.89    1.49
   5  -4 -10   33.44    1.46
   5   4 -10   34.09    1.47
   5   4 -10   33.94    1.47
  -5   4  10   32.07    1.48
   4  -4 -10    5.01    0.34
   4  -4 -10    5.13    0.32
  -4  -4  10    4.64    0.38
  -4   4  10    5.51    0.37
   4   4 -10    4.83    0.35
   4   4 -10    4.94    0.32
  -3  -4  10    3.12    0.25
   3  -4 -10    2.37    0.21
   3  -4 -10    3.13    0.23
  -3   4  10    3.72    0.33
   3   4 -10    2.70    0.23
   3   4 -10    2.95    0.28
   2  -4 -10    1.79    0.19
   2  -4 -10    1.85    0.18
  -2  -4  10    1.78    0.20
   2   4 -10    1.60    0.19
  -2   4  10    2.06    0.21
   2   4 -10    1.67    0.19
   1  -4 -10    3.02    0.27
   1  -4 -10    3.23    0.27
  -1  -4  10    3.05    0.23
  -1  -4  10    3.40    0.28
   1   4 -10    3.06    0.27
  -1   4  10    3.17    0.27
   1   4 -10    3.23    0.30
   0  -4  10    1.87    0.19
   0  -4  10    1.70    0.16
   0  -4 -10    1.52    0.18
   0   4  10    1.60    0.20
   0   4 -10    1.77    0.20
   0   4 -10    1.92    0.21
  -1  -4 -10   18.12    0.85
   1  -4  10   19.08    0.87
   1   4  10   18.99    0.87
   1   4  10   18.65    0.85
  -1   4 -10   17.49    0.86
  -2  -4 -10    6.85    0.37
   2  -4  10    6.93    0.42
   2   4  10    7.21    0.42
   2   4  10    7.13    0.41
  -2   4 -10    6.50    0.44
   3  -4  10   29.34    1.32
  -3  -4 -10   28.25    1.27
   3  -4  10   29.91    1.31
  -3   4 -10   25.63    1.29
   3   4  10   29.00    1.29
   3   4  10   28.89    1.28
   3   4  10   28.37    1.27
   4  -4  10    1.14    0.23
   4  -4  10    1.50    0.23
  -4  -4 -10    1.32    0.16
   4   4  10    1.38    0.18
  -4   4 -10    0.96    0.21
   4   4  10    1.28    0.18
   4   4  10    1.67    0.20
   5  -4  10    9.64    0.58
  -5  -4 -10    9.26    0.49
   5  -4  10   10.59    0.57
   5   4  10    9.85    0.51
  -5   4 -10    9.38    0.58
   5   4  10    9.94    0.52
   5   4  10   10.14    0.54
   6  -4  10   16.61    0.79
  -6  -4 -10   15.49    0.72
   6  -4  10   14.55    0.80
  -6   4 -10   14.53    0.80
   6   4  10   15.96    0.75
   6   4  10   15.24    0.76
   6   4  10   16.16    0.76
   7  -4  10    2.49    0.28
  -7  -4 -10    2.42    0.21
   7  -4  10    2.38    0.27
   7   4  10    2.21    0.23
  -7   4 -10    2.81    0.31
   7   4  10    2.37    0.24
   8  -4  10   12.11    0.64
   8  -4  10   10.49    0.64
  -8   4 -10    9.78    0.67
   8   4  10   10.93    0.58
   8   4  10   12.01    0.61
   9  -4  10   12.04    0.63
   9  -4  10   11.60    0.64
   9   4  10    9.98    0.57
  -9   4 -10    8.91    0.68
   9   4  10   11.64    0.62
  10  -4  10    4.83    0.45
  10  -4  10    5.14    0.45
 -10   4 -10    3.74    0.40
  10   4  10    4.60    0.37
  10   4  10    5.73    0.45
  -8  -5  10    1.43    0.34
   8  -5 -10    1.49    0.21
   8  -5 -10    1.37    0.19
   8   5 -10    1.42    0.23
   8   5 -10    1.45    0.21
  -8   5  10    1.37    0.26
  -7  -5  10    6.91    0.53
   7  -5 -10    7.41    0.44
   7  -5 -10    7.71    0.45
   7   5 -10    8.05    0.45
  -7   5  10    7.42    0.53
   7   5 -10    7.37    0.47
  -6  -5  10    8.81    0.63
   6  -5 -10   10.69    0.56
   6  -5 -10   10.40    0.54
   6   5 -10   10.47    0.57
  -6   5  10   10.09    0.61
   6   5 -10   10.50    0.56
   5  -5 -10    0.16    0.18
  -5  -5  10    0.41    0.24
   5  -5 -10    0.03    0.16
  -5   5  10    0.06    0.20
   5   5 -10    0.19    0.17
   5   5 -10    0.05    0.17
   4  -5 -10    0.72    0.17
   4  -5 -10    1.01    0.19
  -4  -5  10    0.79    0.24
   4   5 -10    0.63    0.19
  -4   5  10    0.89    0.23
   4   5 -10    0.66    0.20
  -3  -5  10   13.19    0.71
   3  -5 -10   13.78    0.68
   3  -5 -10   13.74    0.68
  -3   5  10   14.38    0.70
   3   5 -10   14.74    0.71
   3   5 -10   14.09    0.71
   2  -5 -10    9.50    0.51
  -2  -5  10    8.84    0.52
   2   5 -10    9.76    0.54
  -2   5  10    9.47    0.54
   2   5 -10    9.40    0.54
   1  -5 -10   15.83    0.76
  -1  -5  10   14.82    0.75
   1   5 -10   16.69    0.79
  -1   5  10   15.81    0.77
   1   5 -10   15.88    0.79
   0  -5 -10    5.14    0.34
   0   5  10    5.29    0.36
   0   5 -10    4.90    0.40
  -1  -5 -10   14.08    0.68
  -1   5 -10   13.43    0.72
   1   5  10   14.39    0.69
  -2  -5 -10    1.31    0.19
   2  -5  10    1.36    0.22
   2   5  10    1.05    0.18
  -2   5 -10    1.00    0.21
  -3  -5 -10   24.25    1.09
   3  -5  10   24.86    1.14
  -3   5 -10   22.28    1.11
   3   5  10   24.67    1.09
   3   5  10   23.90    1.11
   4  -5  10    0.07    0.22
  -4  -5 -10    0.40    0.17
   4   5  10    0.32    0.19
  -4   5 -10    0.37    0.23
  -5  -5 -10    7.94    0.44
   5  -5  10    7.72    0.55
   5  -5  10    7.39    0.51
  -5   5 -10    6.88    0.52
   5   5  10    7.51    0.47
   5   5  10    7.45    0.44
   6  -5  10    0.60    0.25
   6  -5  10    0.38    0.26
  -6  -5 -10    0.60    0.17
   6   5  10    0.83    0.20
   6   5  10    0.26    0.18
  -6   5 -10    0.41    0.24
  -7  -5 -10    1.05    0.19
   7  -5  10    0.55    0.27
   7  -5  10    0.92    0.26
  -7   5 -10    0.68    0.28
   7   5  10    0.90    0.20
   7   5  10    1.30    0.22
   8  -5  10    2.73    0.31
   8  -5  10    3.62    0.36
   8   5  10    3.72    0.30
   8   5  10    2.85    0.26
  -8   5 -10    2.56    0.33
  -5  -6  10    6.76    0.54
   5  -6 -10    7.34    0.44
   5  -6 -10    6.63    0.44
   5   6 -10    6.93    0.48
  -5   6  10    6.96    0.51
   5   6 -10    6.82    0.45
   4  -6 -10    8.74    0.53
  -4  -6  10    8.53    0.57
   4   6 -10    9.12    0.54
  -4   6  10    8.67    0.55
   4   6 -10    8.76    0.54
   3  -6 -10    0.38    0.22
  -3  -6  10    0.22    0.23
   3   6 -10    0.15    0.21
   3   6 -10    1.07    0.24
  -3   6  10    0.18    0.22
   2  -6 -10    3.96    0.35
  -2  -6  10    3.94    0.32
   2   6 -10    4.56    0.41
  -2   6  10    4.64    0.39
   1  -6 -10    2.17    0.23
  -1   6  10    1.94    0.24
   1   6 -10    1.61    0.27
   0  -6 -10    2.62    0.27
   0   6 -10    2.54    0.29
  -1  -6 -10    3.79    0.28
  -1   6 -10    3.29    0.31
  -2  -6 -10    0.53    0.21
  -2   6 -10    0.63    0.26
  -3  -6 -10    1.68    0.22
  -3   6 -10    1.18    0.25
  -4  -6 -10   15.83    0.76
  -4   6 -10   14.76    0.79
  -5  -6 -10    1.58    0.23
   5   6  10    1.16    0.22
  -5   6 -10    1.71    0.30
  12   0 -11    0.10    0.11
 -12   0  11   -0.10    0.22
  12   0 -11    0.17    0.22
 -11   0  11    6.64    0.49
  11   0 -11    8.90    0.50
  11   0 -11    7.88    0.41
 -10   0  11    0.02    0.20
  10   0 -11    0.06    0.12
  10   0 -11   -0.05    0.20
   9   0 -11    8.20    0.47
   9   0 -11    8.31    0.42
  -9   0  11    6.66    0.47
   8   0 -11    0.15    0.16
   8   0 -11   -0.02    0.12
  -8   0  11    0.10    0.16
   7   0 -11   22.12    0.97
   7   0 -11   21.77    0.96
  -7   0  11   19.43    0.98
   6   0 -11    0.06    0.12
  -6   0  11   -0.18    0.16
   6   0 -11    0.01    0.13
  -5   0  11    5.66    0.39
   5   0 -11    6.27    0.36
   5   0 -11    6.38    0.36
  -4   0  11    0.09    0.16
   4   0 -11    0.02    0.13
   4   0 -11    0.03    0.13
   3   0 -11   -0.02    0.11
   3   0 -11    0.04    0.12
   3   0 -11    0.02    0.08
  -3   0  11    0.11    0.14
  -2   0  11   -0.06    0.15
   2   0 -11    0.09    0.13
   2   0 -11    0.01    0.10
   2   0 -11   -0.05    0.09
   1   0 -11    0.06    0.11
  -1   0  11   -0.03    0.13
   1   0 -11   -0.04    0.09
   1   0 -11    0.01    0.09
   0   0 -11   -0.02    0.09
   0   0 -11   -0.10    0.10
   0   0  11    0.07    0.14
   0   0  11   -0.10    0.14
   0   0 -11   -0.03    0.12
   1   0  11    7.85    0.43
  -1   0 -11    8.44    0.38
   1   0  11    7.85    0.42
  -1   0 -11    8.06    0.41
  -1   0 -11    7.67    0.42
  -2   0 -11    0.01    0.07
  -2   0 -11    0.03    0.12
   2   0  11    0.12    0.14
   2   0  11   -0.12    0.12
  -2   0 -11    0.03    0.12
  -3   0 -11   23.40    1.11
   3   0  11   25.17    1.12
   3   0  11   25.45    1.11
  -4   0 -11   -0.27    0.15
   4   0  11    0.05    0.14
   4   0  11    0.01    0.12
   5   0  11   18.67    0.85
  -5   0 -11   18.55    0.88
   5   0  11   18.39    0.88
   6   0  11    0.08    0.17
   6   0  11    0.01    0.12
  -6   0 -11    0.13    0.17
  -7   0 -11   47.25    2.10
   7   0  11   47.08    2.09
   7   0  11   47.65    2.07
  -8   0 -11   -0.01    0.20
   8   0  11   -0.06    0.14
   8   0  11    0.03    0.16
  -9   0 -11    0.58    0.25
   9   0  11    0.85    0.21
   9   0  11    0.46    0.14
 -10   0 -11    0.13    0.23
  10   0  11   -0.08    0.21
  10   0  11    0.27    0.14
 -11   0 -11    7.12    0.53
  11   0  11    8.38    0.51
  11   0  11    7.84    0.44
  12   0  11    0.28    0.21
  12   0  11    0.06    0.14
 -12   0 -11    0.01    0.26
  12  -1 -11    0.03    0.20
  12  -1 -11   -0.01    0.11
  12   1 -11    0.22    0.23
 -12   1  11   -0.11    0.25
  12   1 -11    0.19    0.11
  11  -1 -11    0.15    0.17
  11  -1 -11    0.11    0.12
 -11  -1  11    0.11    0.20
  11   1 -11   -0.22    0.19
 -11   1  11    0.37    0.21
  11   1 -11    0.11    0.11
  10  -1 -11    0.07    0.12
  10  -1 -11    0.23    0.19
 -10  -1  11   -0.16    0.18
  10   1 -11    0.18    0.13
 -10   1  11    0.25    0.22
  10   1 -11   -0.18    0.18
  -9  -1  11    1.31    0.21
   9  -1 -11    1.68    0.17
   9  -1 -11    1.71    0.21
  -9   1  11    1.45    0.24
   9   1 -11    1.44    0.16
   9   1 -11    1.60    0.21
  -8  -1  11    0.87    0.19
   8  -1 -11    0.70    0.14
   8  -1 -11    0.78    0.15
   8   1 -11    0.57    0.20
  -8   1  11    0.29    0.18
   8   1 -11    0.66    0.14
  -7  -1  11    0.50    0.15
   7  -1 -11    0.67    0.16
   7  -1 -11    0.69    0.14
   7   1 -11    0.60    0.17
  -7   1  11    0.56    0.20
   7   1 -11    0.47    0.14
   6  -1 -11    0.09    0.13
   6  -1 -11    0.34    0.13
  -6  -1  11    0.05    0.14
  -6   1  11    0.10    0.18
   6   1 -11    0.08    0.14
   6   1 -11    0.52    0.14
  -5  -1  11    5.57    0.38
   5  -1 -11    7.16    0.37
   5  -1 -11    6.41    0.36
   5   1 -11    5.64    0.38
  -5   1  11    5.96    0.41
   5   1 -11    6.50    0.37
   4  -1 -11   17.71    0.80
   4  -1 -11   18.87    0.81
  -4  -1  11   16.64    0.81
   4   1 -11   17.90    0.81
  -4   1  11   16.39    0.81
   4   1 -11   17.09    0.80
   4   1 -11   17.07    0.78
   3  -1 -11   11.83    0.57
   3  -1 -11   12.54    0.58
  -3  -1  11   12.41    0.58
  -3   1  11   12.23    0.59
   3   1 -11   11.80    0.57
   3   1 -11   11.18    0.55
   3   1 -11   11.37    0.59
   2  -1 -11    2.67    0.23
  -2  -1  11    2.15    0.20
   2  -1 -11    2.24    0.18
  -2   1  11    2.37    0.20
   2   1 -11    2.12    0.17
   2   1 -11    1.98    0.20
   2   1 -11    2.20    0.18
   1  -1 -11   19.87    0.88
   1  -1 -11   20.54    0.89
   1  -1 -11   20.83    0.91
  -1  -1  11   19.41    0.91
  -1   1  11   19.26    0.91
   1   1 -11   19.36    0.90
   1   1 -11   20.64    0.93
   1   1 -11   19.64    0.89
   0  -1 -11   38.13    1.65
   0  -1  11   36.91    1.65
   0  -1  11   39.10    1.67
   0  -1 -11   38.00    1.63
   0  -1 -11   38.13    1.64
   0   1  11   35.86    1.65
   0   1 -11   36.81    1.64
   0   1  11   36.25    1.66
   0   1 -11   36.26    1.63
   0   1 -11   38.79    1.66
  -1  -1 -11   24.92    1.05
  -1  -1 -11   23.05    1.06
   1  -1  11   24.11    1.08
   1  -1  11   24.83    1.10
  -1  -1 -11   25.42    1.08
  -1   1 -11   23.84    1.08
   1   1  11   23.89    1.08
  -1   1 -11   22.88    1.04
   1   1  11   23.11    1.09
  -1   1 -11   22.62    1.07
   2  -1  11    3.89    0.30
  -2  -1 -11    3.90    0.22
  -2  -1 -11    3.37    0.26
   2  -1  11    3.64    0.27
   2   1  11    3.28    0.28
   2   1  11    3.60    0.29
  -2   1 -11    3.90    0.28
  -2   1 -11    3.71    0.27
  -3  -1 -11   -0.05    0.13
   3  -1  11    0.08    0.16
   3  -1  11    0.02    0.14
  -3  -1 -11   -0.04    0.08
   3   1  11    0.04    0.13
   3   1  11    0.17    0.14
  -3   1 -11    0.02    0.15
   4  -1  11    4.98    0.34
  -4  -1 -11    4.91    0.33
   4  -1  11    5.21    0.35
   4   1  11    5.06    0.32
   4   1  11    4.89    0.32
  -4   1 -11    4.56    0.36
  -5  -1 -11    0.47    0.17
   5  -1  11    0.53    0.15
   5  -1  11    0.45    0.15
   5   1  11    0.53    0.14
   5   1  11    0.53    0.16
  -5   1 -11    0.20    0.17
  -6  -1 -11    1.25    0.21
   6  -1  11    1.92    0.19
   6  -1  11    1.37    0.19
  -6   1 -11    1.08    0.23
   6   1  11    1.65    0.18
   6   1  11    1.81    0.20
  -7  -1 -11    1.61    0.23
   7  -1  11    1.83    0.19
   7  -1  11    1.82    0.20
   7   1  11    1.40    0.16
  -7   1 -11    1.53    0.26
   7   1  11    1.80    0.21
  -8  -1 -11    3.05    0.27
   8  -1  11    2.86    0.25
   8  -1  11    3.07    0.29
   8   1  11    3.06    0.27
  -8   1 -11    2.82    0.31
   8   1  11    2.82    0.25
   9  -1  11    1.42    0.24
   9  -1  11    1.53    0.19
  -9  -1 -11    1.40    0.26
  -9   1 -11    1.18    0.28
   9   1  11    1.28    0.16
   9   1  11    1.52    0.21
  10  -1  11    0.91    0.17
  10  -1  11    0.67    0.24
 -10  -1 -11    0.80    0.26
  10   1  11    0.77    0.21
 -10   1 -11    0.79    0.29
  10   1  11    0.77    0.15
  11  -1  11    6.75    0.46
  11  -1  11    7.37    0.43
 -11  -1 -11    7.04    0.50
  11   1  11    7.45    0.46
 -11   1 -11    7.24    0.57
  11   1  11    7.43    0.42
  12  -1  11    8.71    0.53
 -12  -1 -11    8.30    0.60
  12  -1  11    8.33    0.47
  12   1  11    8.38    0.53
  12   1  11    7.79    0.45
 -12   1 -11    8.25    0.62
  12  -2 -11    0.43    0.21
  12  -2 -11    0.23    0.13
  12   2 -11    0.30    0.12
  12   2 -11   -0.03    0.25
 -12   2  11    0.17    0.28
  11  -2 -11    0.95    0.15
  11  -2 -11    0.76    0.18
 -11   2  11    0.55    0.27
  11   2 -11    0.61    0.13
  11   2 -11    0.37    0.22
  10  -2 -11   14.21    0.67
  10  -2 -11   13.94    0.69
  10   2 -11   13.71    0.65
  10   2 -11   14.06    0.71
 -10   2  11   12.88    0.75
   9  -2 -11    0.19    0.18
   9  -2 -11    0.12    0.14
   9   2 -11    0.16    0.13
   9   2 -11    0.18    0.19
  -9   2  11    0.27    0.21
   8  -2 -11    0.40    0.15
   8  -2 -11    0.54    0.14
  -8  -2  11    0.40    0.17
   8   2 -11    0.38    0.21
  -8   2  11    0.22    0.22
   8   2 -11    0.45    0.14
  -7  -2  11    0.02    0.15
   7  -2 -11    0.17    0.16
   7  -2 -11    0.08    0.13
  -7   2  11    0.35    0.21
   7   2 -11   -0.16    0.18
   7   2 -11   -0.07    0.13
   6  -2 -11   12.95    0.60
  -6  -2  11   11.02    0.60
   6  -2 -11   12.66    0.60
   6   2 -11   12.08    0.58
   6   2 -11   12.38    0.62
   6   2 -11   12.70    0.61
  -6   2  11   11.98    0.63
   5  -2 -11    1.48    0.16
  -5  -2  11    1.48    0.18
   5  -2 -11    1.74    0.17
   5   2 -11    1.44    0.15
   5   2 -11    1.72    0.19
   5   2 -11    1.68    0.19
  -5   2  11    1.92    0.23
  -4  -2  11    0.41    0.14
   4  -2 -11    0.31    0.14
   4  -2 -11    0.22    0.12
   4   2 -11    0.15    0.15
   4   2 -11    0.18    0.13
   4   2 -11    0.27    0.11
  -4   2  11    0.50    0.17
   3  -2 -11    2.73    0.24
  -3  -2  11    2.59    0.25
   3  -2 -11    2.50    0.19
   3   2 -11    2.50    0.19
   3   2 -11    2.28    0.21
  -3   2  11    2.59    0.23
   3   2 -11    2.28    0.21
   2  -2 -11    0.01    0.12
  -2  -2  11    0.15    0.14
   2  -2 -11    0.13    0.11
   2   2 -11   -0.04    0.10
   2   2 -11   -0.14    0.14
   2   2 -11    0.08    0.11
  -2   2  11    0.40    0.17
   1  -2 -11    4.34    0.26
   1  -2 -11    4.16    0.28
  -1  -2  11    3.95    0.28
   1   2 -11    4.09    0.24
   1   2 -11    3.92    0.31
  -1   2  11    4.18    0.30
   1   2 -11    4.34    0.28
   0  -2 -11    2.41    0.19
   0  -2 -11    1.83    0.16
   0  -2  11    2.07    0.20
   0   2  11    2.33    0.20
   0   2 -11    2.07    0.20
   0   2 -11    2.03    0.16
   0   2 -11    2.05    0.19
   0   2  11    2.29    0.22
   1  -2  11    2.60    0.23
   1  -2  11    2.52    0.24
  -1  -2 -11    2.58    0.20
  -1  -2 -11    2.29    0.21
  -1  -2 -11    2.71    0.23
   1   2  11    2.65    0.25
  -1   2 -11    2.65    0.22
  -1   2 -11    3.00    0.23
   1   2  11    2.33    0.20
  -2  -2 -11   14.41    0.70
  -2  -2 -11   15.63    0.69
   2  -2  11   15.69    0.73
   2  -2  11   14.91    0.75
   2   2  11   15.09    0.72
  -2   2 -11   14.57    0.72
   2   2  11   15.94    0.73
   3  -2  11    2.57    0.23
  -3  -2 -11    2.05    0.18
  -3  -2 -11    2.34    0.18
   3  -2  11    2.35    0.22
   3   2  11    1.81    0.19
  -3   2 -11    2.02    0.22
   3   2  11    1.93    0.19
  -4  -2 -11    0.28    0.15
   4  -2  11    0.05    0.14
  -4  -2 -11    0.04    0.09
   4  -2  11    0.23    0.16
  -4   2 -11    0.18    0.18
   4   2  11    0.08    0.16
   4   2  11   -0.03    0.14
   5  -2  11    6.21    0.39
  -5  -2 -11    6.03    0.38
   5  -2  11    6.29    0.40
  -5   2 -11    5.36    0.39
   5   2  11    6.11    0.37
   5   2  11    6.06    0.38
   6  -2  11   40.01    1.67
  -6  -2 -11   37.13    1.67
   6  -2  11   37.65    1.66
   6   2  11   36.62    1.66
   6   2  11   37.47    1.66
  -6   2 -11   34.53    1.68
   7  -2  11    2.19    0.23
   7  -2  11    1.95    0.21
  -7  -2 -11    2.05    0.24
  -7   2 -11    1.65    0.28
   7   2  11    1.90    0.22
   7   2  11    2.33    0.21
  -8  -2 -11   10.23    0.58
   8  -2  11   10.88    0.55
   8  -2  11    9.90    0.55
   8   2  11    9.90    0.53
   8   2  11    9.59    0.54
  -8   2 -11    8.65    0.62
  -9  -2 -11    1.34    0.24
   9  -2  11    1.58    0.20
   9  -2  11    1.62    0.24
   9   2  11    1.51    0.18
  -9   2 -11    1.21    0.30
   9   2  11    1.64    0.21
  10  -2  11    5.24    0.44
  10  -2  11    5.18    0.38
 -10  -2 -11    5.06    0.47
  10   2  11    4.67    0.37
  10   2  11    4.71    0.34
 -10   2 -11    4.40    0.41
 -11  -2 -11    0.91    0.29
  11  -2  11    1.01    0.27
  11  -2  11    1.12    0.20
  11   2  11    1.04    0.22
  11   2  11    0.67    0.16
 -11   2 -11    0.78    0.31
  11  -3 -11    1.16    0.17
  11  -3 -11    1.18    0.19
 -11  -3  11    0.64    0.29
  11   3 -11    0.83    0.15
 -11   3  11    0.60    0.27
  10  -3 -11    0.12    0.19
  10  -3 -11    0.03    0.14
 -10  -3  11    0.36    0.31
  10   3 -11   -0.08    0.14
  10   3 -11    0.04    0.22
 -10   3  11    0.38    0.24
   9  -3 -11    0.17    0.15
  -9  -3  11    0.09    0.29
   9  -3 -11    0.19    0.19
   9   3 -11   -0.14    0.21
  -9   3  11    0.11    0.25
   9   3 -11    0.02    0.15
   8  -3 -11    0.36    0.15
  -8  -3  11   -0.06    0.24
   8  -3 -11    0.27    0.18
   8   3 -11    0.26    0.15
  -8   3  11    0.07    0.23
   8   3 -11    0.18    0.15
   8   3 -11    0.08    0.21
   7  -3 -11    4.85    0.31
   7  -3 -11    3.98    0.31
  -7  -3  11    3.21    0.33
   7   3 -11    4.55    0.37
   7   3 -11    4.43    0.32
   7   3 -11    4.51    0.32
  -7   3  11    4.09    0.37
   6  -3 -11    5.93    0.36
   6  -3 -11    6.11    0.36
  -6  -3  11    5.32    0.45
  -6   3  11    5.73    0.44
   6   3 -11    5.95    0.37
   6   3 -11    5.65    0.35
   6   3 -11    5.88    0.37
   5  -3 -11    0.15    0.16
   5  -3 -11    0.26    0.14
  -5  -3  11    0.03    0.21
   5   3 -11    0.00    0.14
   5   3 -11    0.05    0.15
  -5   3  11    0.32    0.21
   5   3 -11    0.06    0.14
  -4  -3  11    8.79    0.48
   4  -3 -11    9.47    0.48
  -4  -3  11    8.77    0.51
   4  -3 -11    9.20    0.48
   4   3 -11    9.24    0.47
  -4   3  11    9.58    0.54
   4   3 -11    9.52    0.50
  -3  -3  11   14.17    0.70
  -3  -3  11   13.56    0.71
   3  -3 -11   14.06    0.69
   3  -3 -11   15.29    0.70
   3   3 -11   14.98    0.70
  -3   3  11   15.38    0.72
   3   3 -11   15.61    0.73
   2  -3 -11    1.02    0.15
  -2  -3  11    1.36    0.17
   2  -3 -11    1.22    0.15
  -2  -3  11    1.17    0.17
   2   3 -11    1.21    0.19
   2   3 -11    1.11    0.15
  -2   3  11    1.36    0.21
   1  -3 -11    1.41    0.15
  -1  -3  11    1.44    0.18
   1  -3 -11    1.51    0.16
  -1  -3  11    1.35    0.16
  -1   3  11    1.72    0.21
   1   3 -11    1.72    0.19
   1   3 -11    1.56    0.17
   0  -3  11   18.10    0.87
   0  -3 -11   18.32    0.85
   0  -3 -11   18.53    0.86
   0   3 -11   18.10    0.87
   0   3 -11   19.31    0.89
   0   3  11   19.71    0.88
   1  -3  11    2.16    0.20
  -1  -3 -11    1.76    0.16
   1   3  11    1.94    0.21
  -1   3 -11    2.23    0.23
  -1   3 -11    1.62    0.19
   1   3  11    1.46    0.20
  -2  -3 -11    8.72    0.45
  -2  -3 -11    8.40    0.42
   2  -3  11    8.75    0.47
   2  -3  11    8.38    0.51
   2   3  11    9.07    0.47
   2   3  11    8.77    0.47
  -2   3 -11    7.74    0.46
  -3  -3 -11   10.32    0.48
  -3  -3 -11    9.85    0.50
   3  -3  11    8.99    0.55
   3  -3  11    9.88    0.51
   3   3  11   10.13    0.52
   3   3  11    9.94    0.52
  -3   3 -11    9.22    0.52
  -4  -3 -11    0.66    0.12
   4  -3  11    0.82    0.19
  -4  -3 -11    0.92    0.16
   4  -3  11    0.54    0.19
  -4   3 -11    0.88    0.21
   4   3  11    0.68    0.16
   4   3  11    1.23    0.18
  -5  -3 -11    8.27    0.43
   5  -3  11    8.97    0.49
   5  -3  11    8.98    0.53
  -5  -3 -11    8.39    0.48
  -5   3 -11    7.32    0.52
   5   3  11    9.56    0.48
   5   3  11    8.81    0.49
   6  -3  11   -0.08    0.19
   6  -3  11    0.06    0.19
  -6  -3 -11    0.00    0.18
   6   3  11    0.09    0.17
  -6   3 -11    0.24    0.23
   6   3  11    0.17    0.16
   7  -3  11    0.05    0.22
   7  -3  11    0.29    0.19
  -7  -3 -11    0.20    0.18
  -7   3 -11   -0.32    0.23
   7   3  11    0.18    0.18
   7   3  11   -0.03    0.16
   8  -3  11    0.87    0.21
   8  -3  11    0.81    0.25
  -8  -3 -11    0.70    0.23
   8   3  11    0.54    0.19
   8   3  11    0.45    0.17
  -8   3 -11    0.51    0.27
   9  -3  11   11.84    0.61
  -9  -3 -11    9.76    0.60
   9  -3  11   11.72    0.65
   9   3  11   10.89    0.58
  -9   3 -11    9.12    0.63
   9   3  11   11.14    0.58
 -10  -3 -11    3.72    0.35
  10  -3  11    3.79    0.30
  10  -3  11    3.78    0.34
  10   3  11    3.48    0.27
 -10   3 -11    3.11    0.38
  -9  -4  11    0.70    0.29
   9  -4 -11    0.56    0.18
   9  -4 -11    0.66    0.17
  -9   4  11    0.64    0.25
   9   4 -11    0.74    0.20
   9   4 -11    0.56    0.17
   8  -4 -11    0.29    0.17
   8  -4 -11   -0.15    0.15
  -8  -4  11    0.04    0.29
   8   4 -11   -0.13    0.17
  -8   4  11    0.35    0.25
   8   4 -11   -0.02    0.16
   7  -4 -11    2.89    0.23
  -7  -4  11    2.55    0.31
   7  -4 -11    2.95    0.24
   7   4 -11    3.11    0.25
  -7   4  11    3.03    0.29
   7   4 -11    2.69    0.24
  -6  -4  11   -0.12    0.24
   6  -4 -11   -0.17    0.15
   6  -4 -11    0.19    0.16
  -6   4  11   -0.11    0.24
   6   4 -11   -0.09    0.15
   6   4 -11    0.09    0.17
   5  -4 -11    0.12    0.15
  -5  -4  11    0.01    0.22
   5  -4 -11    0.11    0.17
   5   4 -11    0.09    0.16
  -5   4  11    0.51    0.23
   5   4 -11    0.17    0.17
  -4  -4  11    4.12    0.37
   4  -4 -11    4.12    0.33
   4  -4 -11    4.09    0.33
  -4   4  11    4.30    0.35
   4   4 -11    4.03    0.36
   4   4 -11    4.42    0.34
   3  -4 -11    3.46    0.29
   3  -4 -11    3.63    0.31
  -3  -4  11    3.05    0.26
   3   4 -11    3.59    0.31
   3   4 -11    3.63    0.28
  -3   4  11    3.54    0.33
   2  -4 -11    2.27    0.19
   2  -4 -11    2.21    0.21
  -2  -4  11    1.93    0.20
  -2   4  11    2.28    0.25
   2   4 -11    2.01    0.22
   2   4 -11    1.94    0.22
  -1  -4  11    1.86    0.20
  -1  -4  11    1.98    0.19
   1  -4 -11    1.93    0.19
   1   4 -11    2.12    0.23
  -1   4  11    1.72    0.21
   1   4 -11    1.82    0.22
   0  -4 -11    7.22    0.40
   0  -4  11    7.51    0.43
   0   4 -11    7.69    0.49
   0   4 -11    7.55    0.45
   0   4  11    7.79    0.45
   1  -4  11    1.51    0.20
  -1  -4 -11    1.33    0.17
  -1   4 -11    0.99    0.19
   1   4  11    1.53    0.21
  -2  -4 -11    0.02    0.14
   2  -4  11    0.11    0.18
  -2   4 -11   -0.17    0.17
   2   4  11    0.00    0.17
   2   4  11   -0.13    0.17
   3  -4  11    7.84    0.47
  -3  -4 -11    7.19    0.40
   3   4  11    7.51    0.46
   3   4  11    7.72    0.44
  -3   4 -11    7.14    0.48
   4  -4  11    9.15    0.58
   4  -4  11    9.84    0.55
  -4  -4 -11    9.19    0.51
  -4  -4 -11    8.80    0.47
  -4   4 -11    8.29    0.55
   4   4  11    9.68    0.49
   4   4  11    9.44    0.53
   4   4  11    9.26    0.50
   5  -4  11    0.74    0.24
  -5  -4 -11    0.61    0.14
   5  -4  11    0.59    0.23
  -5   4 -11    0.59    0.25
   5   4  11    0.69    0.18
   5   4  11    0.87    0.18
   5   4  11    0.67    0.18
   6  -4  11    4.54    0.42
   6  -4  11    3.75    0.34
   6   4  11    4.54    0.34
  -6   4 -11    3.39    0.33
   6   4  11    4.38    0.35
   6   4  11    4.07    0.36
   7  -4  11    3.26    0.31
  -7  -4 -11    2.65    0.29
   7  -4  11    3.10    0.33
   7   4  11    2.46    0.24
  -7   4 -11    2.42    0.30
   7   4  11    3.40    0.28
  -8  -4 -11    1.36    0.26
   8  -4  11    1.45    0.30
   8  -4  11    1.17    0.24
  -8   4 -11    0.69    0.27
   8   4  11    0.99    0.19
   8   4  11    1.75    0.24
   9  -4  11    2.66    0.34
  -9  -4 -11    1.79    0.30
   9  -4  11    1.96    0.27
  -9   4 -11    1.50    0.31
   9   4  11    2.08    0.23
   7  -5 -11    0.01    0.18
   7  -5 -11   -0.07    0.18
  -7  -5  11    0.02    0.29
  -7   5  11    0.14    0.26
   7   5 -11    0.09    0.21
   7   5 -11   -0.13    0.18
   6  -5 -11    3.76    0.33
  -6  -5  11    3.55    0.36
   6  -5 -11    4.11    0.36
   6   5 -11    4.04    0.33
  -6   5  11    3.96    0.35
   6   5 -11    4.22    0.38
  -5  -5  11    3.39    0.33
   5  -5 -11    3.34    0.28
   5  -5 -11    3.04    0.26
   5   5 -11    3.30    0.29
   5   5 -11    3.63    0.29
  -5   5  11    3.12    0.30
   4  -5 -11    1.14    0.18
  -4  -5  11    1.30    0.23
   4  -5 -11    1.16    0.21
   4   5 -11    1.27    0.23
  -4   5  11    1.48    0.26
   4   5 -11    1.15    0.22
  -3  -5  11   -0.14    0.20
   3  -5 -11    0.25    0.16
   3  -5 -11    0.05    0.16
  -3   5  11   -0.03    0.23
   3   5 -11    0.24    0.20
   3   5 -11   -0.14    0.19
  -2  -5  11    1.49    0.23
   2  -5 -11    1.68    0.22
  -2   5  11    1.74    0.25
   2   5 -11    1.83    0.25
   2   5 -11    1.67    0.24
   1  -5 -11    1.45    0.19
   1   5 -11    1.39    0.22
  -1   5  11    1.47    0.21
   0  -5 -11    0.46    0.16
   0   5 -11    0.46    0.20
   0   5  11    0.37    0.20
  -1  -5 -11    0.93    0.17
  -1   5 -11    0.83    0.21
   1   5  11    0.81    0.20
  -2  -5 -11    2.47    0.23
  -2   5 -11    2.74    0.27
   2   5  11    2.68    0.25
  -3  -5 -11    0.55    0.16
   3  -5  11    0.27    0.23
  -3   5 -11    0.28    0.21
   3   5  11    0.55    0.18
  -4  -5 -11    6.35    0.39
   4  -5  11    6.59    0.48
  -4   5 -11    6.25    0.47
   4   5  11    6.08    0.44
  -5  -5 -11    1.58    0.20
   5  -5  11    1.53    0.29
   5   5  11    1.72    0.24
  -5   5 -11    1.12    0.25
   6  -5  11    1.45    0.29
  -6  -5 -11    2.16    0.22
   6  -5  11    2.26    0.31
  -6   5 -11    1.67    0.31
   6   5  11    2.23    0.25
   6   5  11    1.90    0.24
   7  -5  11    0.69    0.27
   7  -5  11    0.58    0.29
   7   5  11    0.65    0.20
   7   5  11    0.94    0.22
  -7   5 -11    0.88    0.27
   3  -6 -11    0.64    0.20
   3   6 -11    0.32    0.21
   3   6 -11    0.15    0.23
  -3   6  11    0.42    0.23
   2  -6 -11    4.08    0.35
  -2   6  11    4.09    0.34
   2   6 -11    3.98    0.34
   1  -6 -11    0.43    0.20
  -1   6  11    0.75    0.23
   1   6 -11    0.26    0.22
   0  -6 -11    0.12    0.19
   0   6 -11    0.70    0.26
  -1  -6 -11    1.25    0.23
  -1   6 -11    0.92    0.27
  -2  -6 -11    1.56    0.23
  -2   6 -11    1.73    0.27
  -3   6 -11    1.03    0.25
  12   0 -12    6.03    0.45
 -12   0  12    4.22    0.38
  12   0 -12    5.70    0.32
  11   0 -12    0.07    0.13
 -11   0  12   -0.07    0.22
  11   0 -12   -0.14    0.22
  10   0 -12    0.63    0.20
  10   0 -12    0.43    0.14
 -10   0  12    0.06    0.22
   9   0 -12    0.06    0.18
  -9   0  12   -0.04    0.21
   9   0 -12    0.01    0.14
   8   0 -12    1.94    0.23
  -8   0  12    1.44    0.24
   8   0 -12    1.81    0.18
   7   0 -12    0.00    0.14
  -7   0  12   -0.03    0.17
   7   0 -12    0.10    0.18
   6   0 -12   23.33    1.03
  -6   0  12   20.42    1.05
   6   0 -12   23.57    1.03
   5   0 -12    0.16    0.13
   5   0 -12    0.13    0.15
  -5   0  12    0.00    0.16
   4   0 -12  106.49    4.44
   4   0 -12  105.74    4.43
  -4   0  12   95.51    4.44
  -3   0  12   -0.06    0.17
   3   0 -12    0.01    0.12
   3   0 -12    0.08    0.13
  -2   0  12    0.43    0.17
   2   0 -12    0.51    0.14
   2   0 -12    0.48    0.12
   2   0 -12    0.66    0.12
   1   0 -12    0.01    0.11
   1   0 -12    0.18    0.10
   1   0 -12    0.11    0.13
  -1   0  12    0.32    0.16
   0   0  12   17.57    0.84
   0   0 -12   18.64    0.83
   0   0 -12   17.89    0.80
   0   0 -12   17.30    0.81
  -1   0 -12    0.06    0.12
   1   0  12    0.11    0.14
  -1   0 -12    0.11    0.12
  -1   0 -12    0.03    0.09
   1   0  12    0.05    0.14
  -2   0 -12   82.88    3.69
   2   0  12   89.08    3.70
   2   0  12   83.89    3.70
   3   0  12   -0.13    0.15
   3   0  12    0.07    0.14
  -3   0 -12   -0.02    0.15
   4   0  12    4.17    0.29
  -4   0 -12    3.19    0.31
   4   0  12    3.61    0.33
   5   0  12   -0.07    0.14
   5   0  12   -0.04    0.16
  -5   0 -12   -0.19    0.18
  -6   0 -12   14.34    0.73
   6   0  12   13.89    0.70
   6   0  12   14.23    0.69
   7   0  12    0.06    0.15
   7   0  12    0.05    0.17
  -7   0 -12   -0.23    0.22
  -8   0 -12    7.84    0.52
   8   0  12    7.62    0.48
   8   0  12    7.66    0.44
  -9   0 -12    0.87    0.24
   9   0  12   -0.10    0.20
   9   0  12    0.02    0.14
 -10   0 -12   29.16    1.38
  10   0  12   30.71    1.36
  10   0  12   28.66    1.33
  11   0  12    0.20    0.21
 -11   0 -12    0.13    0.29
  11   0  12    0.04    0.15
  11  -1 -12    4.10    0.30
  11  -1 -12    4.26    0.32
 -11   1  12    2.99    0.32
  11   1 -12    4.06    0.29
  11   1 -12    4.55    0.35
 -10  -1  12    2.42    0.27
  10  -1 -12    2.69    0.25
  10  -1 -12    2.19    0.23
 -10   1  12    2.24    0.29
  10   1 -12    2.83    0.29
  10   1 -12    2.61    0.20
  -9  -1  12    0.59    0.21
   9  -1 -12    0.42    0.20
   9  -1 -12    0.70    0.15
   9   1 -12    0.64    0.15
   9   1 -12    0.71    0.20
  -9   1  12    0.49    0.23
   8  -1 -12    3.36    0.30
  -8  -1  12    2.76    0.27
   8  -1 -12    3.57    0.26
  -8   1  12    3.21    0.30
   8   1 -12    3.63    0.29
   8   1 -12    3.62    0.29
   7  -1 -12   16.01    0.74
  -7  -1  12   13.49    0.76
   7  -1 -12   16.90    0.75
   7   1 -12   16.56    0.77
   7   1 -12   16.76    0.75
  -7   1  12   13.86    0.76
   6  -1 -12    3.77    0.27
   6  -1 -12    4.02    0.30
  -6  -1  12    2.97    0.27
  -6   1  12    2.85    0.27
   6   1 -12    3.87    0.31
   6   1 -12    3.72    0.27
  -5  -1  12   12.81    0.70
   5  -1 -12   15.85    0.70
   5  -1 -12   14.34    0.67
   5   1 -12   14.95    0.70
   5   1 -12   15.25    0.70
  -5   1  12   12.97    0.72
   4  -1 -12   28.74    1.28
  -4  -1  12   27.05    1.30
   4  -1 -12   31.00    1.29
   4   1 -12   28.74    1.29
   4   1 -12   29.41    1.30
  -4   1  12   27.51    1.31
  -3  -1  12    0.30    0.17
   3  -1 -12    0.55    0.12
   3  -1 -12    0.53    0.14
   3   1 -12    0.35    0.16
  -3   1  12    0.33    0.18
   3   1 -12    0.32    0.11
   3   1 -12    0.43    0.13
   2  -1 -12    2.84    0.25
   2  -1 -12    2.64    0.22
  -2  -1  12    2.92    0.26
   2   1 -12    3.07    0.24
   2   1 -12    2.55    0.22
   2   1 -12    2.34    0.22
  -2   1  12    2.44    0.23
   1  -1 -12    5.56    0.30
  -1  -1  12    5.33    0.34
   1  -1 -12    5.80    0.33
  -1   1  12    5.25    0.34
   1   1 -12    5.60    0.36
   1   1 -12    5.26    0.29
   1   1 -12    4.86    0.31
   0  -1 -12    2.25    0.20
   0  -1  12    2.13    0.21
   0  -1 -12    2.31    0.19
   0  -1 -12    2.87    0.21
   0   1 -12    2.22    0.19
   0   1 -12    2.59    0.22
   0   1 -12    2.04    0.17
   0   1  12    2.06    0.20
   1  -1  12    7.97    0.45
  -1  -1 -12    7.92    0.42
  -1  -1 -12    6.90    0.39
  -1  -1 -12    8.07    0.38
   1  -1  12    7.52    0.42
  -1   1 -12    7.38    0.41
  -1   1 -12    7.50    0.43
   1   1  12    7.70    0.43
   1   1  12    7.22    0.42
  -2  -1 -12   35.39    1.48
  -2  -1 -12   31.11    1.50
   2  -1  12   35.30    1.52
   2  -1  12   36.20    1.52
   2   1  12   33.65    1.51
  -2   1 -12   31.32    1.50
   2   1  12   34.00    1.51
   3  -1  12   43.99    1.92
  -3  -1 -12   41.14    1.90
   3  -1  12   42.74    1.92
   3   1  12   42.81    1.91
   3   1  12   43.88    1.91
  -3   1 -12   45.16    1.91
  -4  -1 -12   37.65    1.68
   4  -1  12   37.57    1.69
   4  -1  12   40.91    1.69
  -4   1 -12   35.58    1.69
   4   1  12   37.80    1.68
   4   1  12   37.81    1.68
  -5  -1 -12    0.32    0.18
   5  -1  12    0.40    0.16
   5  -1  12    0.59    0.17
   5   1  12    0.62    0.20
  -5   1 -12    0.29    0.21
   5   1  12    0.53    0.16
   6  -1  12    9.32    0.52
  -6  -1 -12    9.83    0.54
   6  -1  12   10.47    0.53
  -6   1 -12    8.41    0.56
   6   1  12   10.05    0.52
   6   1  12   10.34    0.55
   7  -1  12   26.30    1.21
  -7  -1 -12   26.18    1.21
   7  -1  12   26.62    1.19
  -7   1 -12   25.36    1.22
   7   1  12   27.25    1.19
   7   1  12   26.10    1.21
   8  -1  12    0.09    0.15
  -8  -1 -12    0.25    0.22
   8  -1  12    0.12    0.18
   8   1  12    0.14    0.15
   8   1  12    0.24    0.20
  -8   1 -12    0.01    0.22
  -9  -1 -12   16.05    0.82
   9  -1  12   16.25    0.80
   9  -1  12   16.92    0.77
  -9   1 -12   14.64    0.81
   9   1  12   15.76    0.77
   9   1  12   15.71    0.76
 -10  -1 -12    1.14    0.27
  10  -1  12    1.00    0.25
  10  -1  12    1.11    0.18
  10   1  12    0.69    0.23
  10   1  12    0.58    0.16
 -10   1 -12    0.44    0.28
  11  -1  12    0.69    0.25
  11  -1  12    0.73    0.18
 -11  -1 -12    0.51    0.28
  11   1  12    1.05    0.24
 -11   1 -12    0.84    0.27
  11   1  12    0.93    0.18
  11  -2 -12    2.51    0.24
  11  -2 -12    2.65    0.20
 -11   2  12    2.10    0.30
  11   2 -12    2.22    0.19
  11   2 -12    2.39    0.28
  10  -2 -12    2.76    0.22
  10  -2 -12    2.82    0.24
  10   2 -12    2.83    0.28
  10   2 -12    3.00    0.27
 -10   2  12    2.08    0.29
   9  -2 -12    0.15    0.17
   9  -2 -12    0.34    0.16
   9   2 -12    0.25    0.22
   9   2 -12    0.30    0.15
  -9   2  12    0.16    0.26
   8  -2 -12    2.49    0.22
   8  -2 -12    3.00    0.22
   8   2 -12    2.25    0.21
  -8   2  12    1.93    0.27
   8   2 -12    2.49    0.27
   7  -2 -12    8.62    0.44
  -7  -2  12    7.77    0.47
   7  -2 -12    8.78    0.44
  -7   2  12    7.20    0.49
   7   2 -12    7.78    0.49
   7   2 -12    8.25    0.46
  -6  -2  12    3.62    0.31
   6  -2 -12    3.98    0.30
   6  -2 -12    3.68    0.28
   6   2 -12    3.31    0.30
   6   2 -12    3.80    0.32
  -6   2  12    4.04    0.38
  -5  -2  12    8.62    0.48
   5  -2 -12    8.81    0.46
   5  -2 -12    9.28    0.46
   5   2 -12    8.53    0.48
   5   2 -12    8.86    0.45
  -5   2  12    8.02    0.50
   5   2 -12    8.89    0.46
   4  -2 -12    1.04    0.16
   4  -2 -12    1.30    0.16
  -4  -2  12    1.09    0.18
  -4   2  12    0.97    0.22
   4   2 -12    0.99    0.14
   4   2 -12    1.01    0.18
   4   2 -12    0.87    0.16
   3  -2 -12   24.17    1.04
   3  -2 -12   22.79    1.03
  -3  -2  12   22.14    1.04
   3   2 -12   23.08    1.02
   3   2 -12   22.06    1.02
   3   2 -12   23.20    1.06
  -3   2  12   21.87    1.05
   2  -2 -12    3.35    0.26
   2  -2 -12    3.05    0.23
  -2  -2  12    3.20    0.29
  -2   2  12    3.38    0.30
   2   2 -12    2.76    0.24
   2   2 -12    3.06    0.25
   2   2 -12    3.21    0.24
   1  -2 -12   23.56    1.04
   1  -2 -12   23.44    1.03
  -1  -2  12   23.11    1.05
   1   2 -12   22.75    1.02
  -1   2  12   22.41    1.05
   1   2 -12   22.77    1.06
   1   2 -12   22.62    1.04
   0  -2  12   19.26    0.91
   0  -2 -12   20.91    0.89
   0  -2 -12   20.59    0.90
   0   2 -12   18.85    0.90
   0   2 -12   19.12    0.87
   0   2 -12   18.90    0.92
   0   2  12   19.88    0.92
   1  -2  12    0.73    0.19
  -1  -2 -12    0.49    0.11
   1   2  12    0.48    0.15
   1   2  12    0.56    0.16
  -1   2 -12    0.33    0.16
   2  -2  12    0.65    0.17
  -2  -2 -12    0.73    0.11
   2  -2  12    0.69    0.18
  -2  -2 -12    0.61    0.14
  -2   2 -12    0.77    0.18
   2   2  12    0.81    0.17
   2   2  12    0.81    0.17
   3  -2  12   14.74    0.73
   3  -2  12   15.72    0.74
  -3  -2 -12   14.67    0.71
  -3  -2 -12   14.66    0.67
   3   2  12   14.77    0.72
   3   2  12   15.48    0.73
  -3   2 -12   13.69    0.71
   4  -2  12   -0.02    0.16
   4  -2  12    0.17    0.16
  -4  -2 -12   -0.18    0.14
   4   2  12   -0.09    0.15
   4   2  12    0.01    0.16
  -4   2 -12    0.18    0.18
  -5  -2 -12    5.79    0.37
   5  -2  12    5.76    0.38
   5  -2  12    6.29    0.40
   5   2  12    6.00    0.39
   5   2  12    5.91    0.40
  -5   2 -12    4.67    0.42
   6  -2  12    0.90    0.19
  -6  -2 -12    0.40    0.19
   6  -2  12    0.52    0.18
   6   2  12    0.57    0.17
   6   2  12    0.38    0.19
  -6   2 -12    0.41    0.20
  -7  -2 -12    0.13    0.20
   7  -2  12    0.28    0.18
   7  -2  12    0.37    0.19
   7   2  12    0.40    0.17
  -7   2 -12    0.15    0.23
   7   2  12    0.13    0.20
   8  -2  12   15.64    0.77
  -8  -2 -12   15.15    0.78
   8  -2  12   16.79    0.76
  -8   2 -12   12.44    0.79
   8   2  12   15.56    0.76
   8   2  12   15.51    0.74
  -9  -2 -12   13.27    0.73
   9  -2  12   14.31    0.69
   9  -2  12   14.17    0.74
   9   2  12   14.04    0.68
  -9   2 -12   11.62    0.74
   9   2  12   13.78    0.70
 -10  -2 -12   -0.13    0.24
  10  -2  12   -0.06    0.21
  10  -2  12   -0.12    0.18
  10   2  12    0.18    0.21
 -10   2 -12    0.19    0.27
  10   2  12   -0.05    0.16
 -11  -2 -12    2.03    0.32
 -11   2 -12    1.43    0.34
 -10  -3  12    5.99    0.50
  10  -3 -12    7.88    0.43
  10  -3 -12    7.31    0.42
  10   3 -12    6.54    0.54
  10   3 -12    7.44    0.42
 -10   3  12    5.88    0.55
  -9  -3  12    0.60    0.31
   9  -3 -12    0.89    0.17
   9  -3 -12    0.89    0.21
   9   3 -12    0.92    0.17
   9   3 -12    0.53    0.26
  -9   3  12    0.80    0.25
   8  -3 -12   16.23    0.77
   8  -3 -12   16.65    0.77
   8   3 -12   16.46    0.81
   8   3 -12   15.95    0.77
  -8   3  12   14.59    0.81
   7  -3 -12    2.89    0.23
   7  -3 -12    2.80    0.23
  -7   3  12    2.61    0.30
   7   3 -12    2.25    0.22
   7   3 -12    2.37    0.25
   7   3 -12    2.57    0.22
  -6  -3  12    1.17    0.25
   6  -3 -12    1.40    0.18
   6  -3 -12    1.41    0.20
   6   3 -12    1.14    0.18
   6   3 -12    1.26    0.17
   6   3 -12    1.30    0.21
  -6   3  12    1.08    0.23
  -5  -3  12    0.40    0.21
   5  -3 -12    0.31    0.15
   5  -3 -12    0.34    0.15
   5   3 -12    0.41    0.17
  -5   3  12    0.80    0.21
   5   3 -12    0.35    0.16
   5   3 -12    0.30    0.18
  -4  -3  12    5.98    0.40
   4  -3 -12    6.71    0.39
  -4  -3  12    6.25    0.42
   4  -3 -12    7.08    0.38
   4   3 -12    6.57    0.38
   4   3 -12    6.99    0.43
  -4   3  12    6.65    0.47
   3  -3 -12    1.68    0.18
   3  -3 -12    1.54    0.18
  -3  -3  12    1.31    0.19
  -3  -3  12    1.42    0.20
   3   3 -12    1.67    0.21
  -3   3  12    1.46    0.24
   3   3 -12    1.49    0.18
   2  -3 -12   15.69    0.73
  -2  -3  12   15.72    0.75
   2  -3 -12   15.46    0.73
  -2  -3  12   14.01    0.73
   2   3 -12   15.72    0.73
   2   3 -12   16.10    0.77
  -2   3  12   16.03    0.78
   1  -3 -12    4.26    0.29
  -1  -3  12    3.96    0.32
   1  -3 -12    4.05    0.30
   1   3 -12    4.60    0.36
   1   3 -12    3.96    0.32
  -1   3  12    3.95    0.33
   0  -3  12   14.91    0.73
   0  -3 -12   14.92    0.70
   0   3  12   15.03    0.73
   0   3 -12   15.69    0.75
   0   3 -12   14.23    0.72
   1  -3  12   19.60    0.92
  -1  -3 -12   20.42    0.90
  -1   3 -12   19.37    0.93
   1   3  12   20.26    0.93
   2  -3  12    0.16    0.18
  -2  -3 -12    0.09    0.12
  -2   3 -12    0.95    0.20
   2   3  12    0.07    0.16
   2   3  12    0.29    0.17
  -3  -3 -12    7.79    0.40
   3  -3  12    8.35    0.45
   3  -3  12    7.37    0.50
   3   3  12    8.06    0.46
  -3   3 -12    7.55    0.46
   3   3  12    7.73    0.46
  -4  -3 -12   17.83    0.85
   4  -3  12   19.00    0.87
   4  -3  12   18.46    0.88
  -4  -3 -12   17.49    0.80
   4   3  12   17.60    0.84
  -4   3 -12   16.45    0.86
   4   3  12   18.10    0.86
  -5  -3 -12    0.14    0.17
   5  -3  12    0.46    0.22
   5  -3  12    0.35    0.21
   5   3  12    0.06    0.16
   5   3  12    0.25    0.16
  -5   3 -12    0.08    0.23
  -6  -3 -12   45.80    2.11
   6  -3  12   50.75    2.13
   6  -3  12   50.71    2.12
   6   3  12   50.08    2.11
   6   3  12   48.30    2.11
  -6   3 -12   40.41    2.12
   7  -3  12    0.12    0.20
  -7  -3 -12    0.01    0.20
   7  -3  12    0.26    0.22
   7   3  12   -0.02    0.17
   7   3  12   -0.04    0.19
  -7   3 -12   -0.22    0.24
  -8  -3 -12    0.19    0.22
   8  -3  12    0.30    0.21
   8  -3  12    0.24    0.22
   8   3  12    0.54    0.20
   8   3  12    0.41    0.19
  -8   3 -12   -0.41    0.23
   9  -3  12    0.26    0.21
  -9  -3 -12   -0.11    0.24
   9  -3  12   -0.08    0.26
   9   3  12   -0.05    0.20
  -9   3 -12   -0.41    0.28
   9   3  12   -0.01    0.18
  10  -3  12   13.43    0.67
 -10  -3 -12   11.52    0.67
  10   3  12   11.34    0.62
 -10   3 -12   11.14    0.74
   8  -4 -12    1.55    0.20
   8  -4 -12    1.50    0.21
  -8  -4  12    1.52    0.33
   8   4 -12    1.38    0.21
   8   4 -12    1.38    0.22
  -8   4  12    1.20    0.27
   7  -4 -12    1.87    0.21
  -7  -4  12    1.70    0.32
   7  -4 -12    2.30    0.23
   7   4 -12    1.38    0.22
  -7   4  12    1.68    0.29
   7   4 -12    1.93    0.22
   6  -4 -12    1.10    0.21
   6  -4 -12    1.00    0.17
  -6  -4  12    0.77    0.27
   6   4 -12    0.85    0.20
  -6   4  12    0.90    0.27
   6   4 -12    0.71    0.18
  -5  -4  12    2.19    0.28
   5  -4 -12    1.93    0.20
   5  -4 -12    2.31    0.22
   5   4 -12    2.41    0.23
   5   4 -12    2.20    0.24
  -5   4  12    2.29    0.27
   4  -4 -12   14.15    0.73
  -4  -4  12   13.96    0.75
   4  -4 -12   15.67    0.73
   4   4 -12   15.07    0.73
  -4   4  12   15.66    0.79
   4   4 -12   16.02    0.76
  -3  -4  12    7.22    0.47
   3  -4 -12    8.53    0.46
   3  -4 -12    8.55    0.46
  -3   4  12    7.95    0.52
   3   4 -12    8.32    0.48
   3   4 -12    8.61    0.50
   2  -4 -12    5.21    0.35
  -2  -4  12    4.65    0.35
   2  -4 -12    4.96    0.34
   2   4 -12    4.62    0.35
   2   4 -12    5.67    0.41
  -2   4  12    5.56    0.42
   1  -4 -12   30.56    1.42
  -1   4  12   32.82    1.46
   1   4 -12   34.17    1.47
   1   4 -12   30.82    1.44
   0  -4  12   13.01    0.63
   0  -4 -12   12.18    0.60
   0   4 -12   11.63    0.62
   0   4  12   12.52    0.65
  -1  -4 -12    0.52    0.15
   1  -4  12    0.66    0.19
  -1   4 -12    0.62    0.21
   1   4  12    0.29    0.17
  -2  -4 -12    9.23    0.46
   2  -4  12    9.33    0.51
   2   4  12    8.34    0.50
  -2   4 -12    8.11    0.52
  -3  -4 -12    1.58    0.18
   3  -4  12    1.54    0.23
   3   4  12    1.70    0.23
  -3   4 -12    1.55    0.26
   3   4  12    1.68    0.22
  -4  -4 -12    0.14    0.14
   4  -4  12    0.23    0.22
   4   4  12    0.15    0.19
   4   4  12    0.23    0.18
  -4   4 -12   -0.05    0.20
   5  -4  12    2.78    0.29
   5  -4  12    1.68    0.28
  -5   4 -12    1.71    0.26
   5   4  12    1.90    0.22
   5   4  12    2.10    0.24
   6  -4  12    0.55    0.25
   6  -4  12    0.09    0.24
  -6  -4 -12    0.09    0.20
  -6   4 -12    0.16    0.26
   6   4  12    0.00    0.19
   6   4  12    0.26    0.19
  -7  -4 -12   11.71    0.66
   7  -4  12   13.02    0.70
   7  -4  12   13.46    0.67
   7   4  12   12.25    0.64
  -7   4 -12    9.72    0.67
   8  -4  12    0.46    0.25
   8  -4  12    0.05    0.24
  -8  -4 -12    0.28    0.23
  -8   4 -12   -0.04    0.29
   8   4  12    0.04    0.18
   6  -5 -12    1.16    0.21
  -6  -5  12    1.07    0.28
   6  -5 -12    0.92    0.23
   6   5 -12    0.90    0.22
   6   5 -12    0.84    0.22
  -6   5  12    0.91    0.25
   5  -5 -12    0.74    0.19
  -5  -5  12    0.62    0.26
   5  -5 -12    0.64    0.20
   5   5 -12    0.96    0.22
  -5   5  12    0.69    0.27
   5   5 -12    0.66    0.22
  -4  -5  12    1.32    0.26
   4  -5 -12    1.35    0.20
   4  -5 -12    1.40    0.21
   4   5 -12    1.63    0.25
  -4   5  12    1.43    0.25
   4   5 -12    1.36    0.24
   3  -5 -12    3.06    0.28
  -3   5  12    2.97    0.31
   3   5 -12    3.45    0.30
   3   5 -12    3.61    0.31
   2  -5 -12    4.86    0.38
  -2   5  12    5.64    0.44
   2   5 -12    5.65    0.44
   2   5 -12    4.37    0.37
   1  -5 -12    0.27    0.19
   1   5 -12    0.05    0.22
  -1   5  12    0.38    0.23
   0  -5 -12    0.18    0.15
   0   5  12   -0.09    0.20
   0   5 -12    0.56    0.23
  -1  -5 -12    7.21    0.43
  -1   5 -12    6.82    0.48
   1   5  12    7.34    0.46
  -2  -5 -12   11.29    0.56
   2   5  12   11.20    0.59
  -2   5 -12    9.90    0.59
  -3  -5 -12    6.56    0.40
   3  -5  12    7.21    0.47
   3   5  12    5.89    0.43
  -3   5 -12    6.23    0.49
   4  -5  12    5.48    0.45
  -4  -5 -12    4.50    0.34
  -4   5 -12    4.26    0.37
   5  -5  12   10.34    0.61
  -5  -5 -12   10.08    0.53
   5   5  12    9.62    0.56
  -5   5 -12    8.73    0.58
  11   0 -13    1.50    0.24
 -11   0  13    0.96    0.26
  11   0 -13    1.18    0.17
  10   0 -13    0.06    0.23
  10   0 -13   -0.09    0.14
 -10   0  13    0.26    0.24
  -9   0  13   -0.10    0.22
   9   0 -13    0.01    0.15
   9   0 -13   -0.14    0.19
   8   0 -13   -0.09    0.20
  -8   0  13   -0.12    0.22
   8   0 -13    0.23    0.16
   7   0 -13   11.43    0.57
   7   0 -13   11.64    0.58
  -7   0  13    9.39    0.58
   6   0 -13   -0.01    0.17
  -6   0  13    0.05    0.18
   6   0 -13    0.02    0.15
   5   0 -13    4.73    0.34
  -5   0  13    3.85    0.38
   5   0 -13    4.89    0.33
   4   0 -13   -0.09    0.15
  -4   0  13    0.02    0.19
   4   0 -13    0.10    0.14
  -3   0  13   37.99    1.85
   3   0 -13   43.13    1.85
   3   0 -13   44.55    1.84
   2   0 -13    0.09    0.13
   2   0 -13   -0.01    0.13
  -2   0  13    0.02    0.16
   1   0 -13    5.57    0.34
   1   0 -13    4.97    0.31
  -1   0  13    4.92    0.35
   0   0 -13   -0.09    0.11
   0   0 -13    0.00    0.14
   0   0 -13    0.03    0.12
   0   0  13    0.21    0.16
  -1   0 -13    2.84    0.24
   1   0  13    3.16    0.29
  -2   0 -13    0.03    0.15
   2   0  13    0.13    0.16
   2   0  13    0.04    0.16
   3   0  13    0.33    0.16
   3   0  13   -0.22    0.16
  -3   0 -13   -0.10    0.16
   4   0  13    0.09    0.20
   4   0  13   -0.20    0.15
  -4   0 -13   -0.13    0.17
   5   0  13    6.13    0.43
  -5   0 -13    5.52    0.41
   5   0  13    6.15    0.39
   6   0  13    0.02    0.20
   6   0  13    0.04    0.16
  -6   0 -13   -0.04    0.20
  -7   0 -13    2.34    0.27
   7   0  13    2.61    0.28
   7   0  13    2.54    0.23
  -8   0 -13   -0.13    0.21
   8   0  13    0.07    0.16
   8   0  13    0.35    0.22
  -9   0 -13   20.36    1.03
   9   0  13   21.05    0.97
   9   0  13   20.72    0.98
  10   0  13    0.05    0.23
  10   0  13    0.07    0.17
 -10   0 -13    0.03    0.24
 -10  -1  13    1.24    0.24
  10  -1 -13    1.80    0.19
  10  -1 -13    1.64    0.23
  10   1 -13    1.31    0.18
  10   1 -13    1.63    0.28
 -10   1  13    1.75    0.29
  -9  -1  13    1.85    0.26
   9  -1 -13    2.19    0.20
   9  -1 -13    2.35    0.23
   9   1 -13    2.26    0.20
  -9   1  13    1.86    0.29
   9   1 -13    2.10    0.25
   8  -1 -13    0.01    0.17
  -8  -1  13    0.19    0.20
   8  -1 -13    0.08    0.16
   8   1 -13   -0.04    0.21
   8   1 -13    0.09    0.15
  -8   1  13   -0.09    0.21
  -7  -1  13   -0.03    0.19
   7  -1 -13    0.27    0.16
   7  -1 -13    0.19    0.16
   7   1 -13    0.39    0.17
  -7   1  13    0.24    0.20
   7   1 -13    0.28    0.20
   6  -1 -13    0.05    0.15
  -6  -1  13   -0.06    0.19
   6  -1 -13    0.22    0.16
   6   1 -13    0.33    0.16
   6   1 -13    0.02    0.16
  -6   1  13    0.18    0.22
   5  -1 -13    0.78    0.16
  -5  -1  13    0.93    0.19
   5  -1 -13    0.59    0.16
  -5   1  13    0.78    0.20
   5   1 -13    0.72    0.19
   5   1 -13    0.75    0.18
  -4  -1  13   -0.03    0.16
   4  -1 -13    0.11    0.15
   4  -1 -13    0.08    0.12
   4   1 -13   -0.14    0.15
  -4   1  13    0.10    0.18
   4   1 -13    0.65    0.17
   3  -1 -13    1.62    0.17
   3  -1 -13    1.51    0.17
  -3  -1  13    1.38    0.21
   3   1 -13    1.49    0.17
   3   1 -13    1.54    0.21
  -3   1  13    1.16    0.21
   2  -1 -13    0.66    0.15
   2  -1 -13    0.42    0.13
  -2  -1  13    0.41    0.19
   2   1 -13    0.55    0.17
   2   1 -13    0.46    0.13
   2   1 -13    0.35    0.12
  -2   1  13    0.64    0.18
   1  -1 -13    5.33    0.29
  -1  -1  13    4.40    0.34
   1  -1 -13    5.51    0.33
   1   1 -13    4.39    0.29
  -1   1  13    4.28    0.37
   1   1 -13    4.60    0.31
   1   1 -13    5.56    0.36
   0  -1 -13   14.59    0.65
   0  -1 -13   14.64    0.68
   0  -1  13   13.76    0.70
   0   1 -13   14.43    0.70
   0   1  13   13.46    0.69
   0   1 -13   13.16    0.67
  -1  -1 -13    1.36    0.16
  -1  -1 -13    1.32    0.13
   1  -1  13    1.40    0.19
  -1   1 -13    1.40    0.18
   1   1  13    1.05    0.19
  -2  -1 -13    0.52    0.15
   2  -1  13    0.87    0.19
   2  -1  13    0.39    0.20
   2   1  13    0.61    0.17
  -2   1 -13    0.68    0.16
   2   1  13    0.52    0.20
   3  -1  13   19.88    0.90
  -3  -1 -13   18.24    0.88
   3  -1  13   19.05    0.90
   3   1  13   18.60    0.89
   3   1  13   19.80    0.89
  -3   1 -13   17.95    0.89
  -4  -1 -13   18.34    0.90
   4  -1  13   20.09    0.91
   4  -1  13   19.10    0.91
   4   1  13   19.99    0.92
   4   1  13   20.16    0.91
  -4   1 -13   17.72    0.91
   5  -1  13   11.95    0.58
  -5  -1 -13   10.78    0.59
   5  -1  13   11.24    0.60
   5   1  13   11.14    0.59
   5   1  13   11.28    0.57
  -5   1 -13    9.68    0.60
   6  -1  13    0.37    0.17
   6  -1  13    0.10    0.18
  -6  -1 -13    0.04    0.20
   6   1  13    0.03    0.15
   6   1  13   -0.11    0.18
  -6   1 -13   -0.04    0.19
   7  -1  13    0.87    0.18
  -7  -1 -13    0.88    0.23
   7  -1  13    0.89    0.22
  -7   1 -13    0.25    0.24
   7   1  13    0.61    0.17
   7   1  13    1.02    0.22
  -8  -1 -13    4.10    0.34
   8  -1  13    4.66    0.35
   8  -1  13    4.01    0.40
   8   1  13    4.07    0.39
   8   1  13    4.31    0.34
  -8   1 -13    4.01    0.37
   9  -1  13    1.34    0.23
  -9  -1 -13    1.47    0.28
   9  -1  13    0.94    0.19
  -9   1 -13    0.63    0.29
   9   1  13    0.89    0.18
   9   1  13    0.83    0.21
  10  -1  13    0.10    0.22
  10  -1  13    0.03    0.17
 -10  -1 -13    0.04    0.23
  10   1  13   -0.07    0.22
 -10   1 -13   -0.21    0.25
  10   1  13   -0.08    0.17
  10  -2 -13    0.04    0.21
  10  -2 -13    0.14    0.16
  10   2 -13    0.07    0.15
  10   2 -13   -0.26    0.25
 -10   2  13   -0.38    0.27
   9  -2 -13    2.82    0.23
   9  -2 -13    2.51    0.24
  -9   2  13    1.92    0.29
   9   2 -13    2.71    0.22
   9   2 -13    2.43    0.27
   8  -2 -13    1.22    0.21
   8  -2 -13    1.37    0.19
  -8   2  13    1.17    0.27
   8   2 -13    1.42    0.25
   8   2 -13    1.28    0.19
   7  -2 -13   -0.06    0.18
   7  -2 -13    0.12    0.15
  -7  -2  13    0.02    0.18
  -7   2  13    0.38    0.22
   7   2 -13    0.03    0.16
   7   2 -13   -0.11    0.20
   6  -2 -13   14.88    0.72
  -6  -2  13   14.21    0.74
   6  -2 -13   16.22    0.73
   6   2 -13   15.01    0.73
   6   2 -13   15.26    0.74
  -6   2  13   14.54    0.79
   5  -2 -13    1.37    0.18
   5  -2 -13    1.19    0.18
  -5  -2  13    1.21    0.20
  -5   2  13    0.94    0.24
   5   2 -13    1.02    0.20
   5   2 -13    1.04    0.19
   4  -2 -13    3.79    0.29
  -4  -2  13    3.79    0.33
   4  -2 -13    3.91    0.30
   4   2 -13    3.53    0.28
   4   2 -13    4.07    0.35
  -4   2  13    3.53    0.34
   4   2 -13    3.56    0.30
   3  -2 -13   -0.06    0.12
  -3  -2  13    0.08    0.18
   3  -2 -13    0.25    0.14
  -3   2  13    0.29    0.19
   3   2 -13   -0.03    0.14
   3   2 -13   -0.08    0.18
   3   2 -13    0.16    0.13
   2  -2 -13   12.25    0.61
  -2  -2  13   12.10    0.63
   2  -2 -13   12.78    0.59
   2   2 -13   11.67    0.58
  -2   2  13   12.42    0.63
   2   2 -13   12.62    0.64
   2   2 -13   12.13    0.60
  -1  -2  13    1.31    0.20
   1  -2 -13    1.55    0.18
   1  -2 -13    1.66    0.16
   1   2 -13    1.63    0.14
   1   2 -13    1.71    0.22
   1   2 -13    1.14    0.18
  -1   2  13    1.08    0.20
   0  -2 -13    0.18    0.12
   0  -2  13    0.09    0.16
   0   2  13    0.16    0.17
   0   2 -13    0.04    0.16
   0   2 -13   -0.01    0.15
   1  -2  13    2.01    0.22
  -1  -2 -13    2.18    0.17
  -1   2 -13    1.71    0.21
   1   2  13    2.17    0.22
  -2  -2 -13    0.53    0.12
   2  -2  13    0.69    0.20
   2   2  13    0.52    0.19
  -2   2 -13    0.58    0.18
   2   2  13    0.53    0.19
   3  -2  13    2.02    0.24
   3  -2  13    2.71    0.25
  -3  -2 -13    1.98    0.21
   3   2  13    1.85    0.21
   3   2  13    1.96    0.22
  -3   2 -13    1.58    0.22
   4  -2  13    2.00    0.22
  -4  -2 -13    1.58    0.20
   4  -2  13    1.85    0.23
   4   2  13    2.70    0.24
   4   2  13    1.52    0.21
  -4   2 -13    1.22    0.21
   5  -2  13    0.27    0.18
  -5  -2 -13    0.38    0.18
   5  -2  13    0.58    0.20
   5   2  13    0.28    0.18
   5   2  13    0.55    0.18
  -5   2 -13    0.10    0.18
   6  -2  13    9.06    0.51
  -6  -2 -13    8.23    0.48
   6  -2  13    8.46    0.49
   6   2  13    8.44    0.51
  -6   2 -13    6.69    0.52
   6   2  13    8.07    0.49
  -7  -2 -13    3.45    0.32
   7  -2  13    3.85    0.32
   7  -2  13    3.91    0.36
  -7   2 -13    2.34    0.32
   7   2  13    3.57    0.31
   8  -2  13    2.01    0.26
  -8  -2 -13    1.82    0.26
   8  -2  13    2.15    0.23
   8   2  13    2.07    0.26
   8   2  13    1.98    0.22
  -8   2 -13    1.46    0.28
  -9  -2 -13    1.84    0.28
   9  -2  13    2.00    0.30
   9  -2  13    2.16    0.24
  -9   2 -13    1.90    0.33
   9   2  13    2.01    0.26
   9   2  13    1.71    0.22
  -9  -3  13    0.84    0.33
   9  -3 -13    0.98    0.20
   9  -3 -13    1.25    0.19
  -9   3  13    1.10    0.27
   9   3 -13    1.29    0.19
   9   3 -13    0.87    0.25
   8  -3 -13    0.06    0.17
   8  -3 -13    0.26    0.16
  -8  -3  13   -0.04    0.25
  -8   3  13   -0.09    0.23
   8   3 -13   -0.13    0.23
   8   3 -13    0.12    0.17
   7  -3 -13    1.82    0.21
   7  -3 -13    1.87    0.20
  -7   3  13    1.69    0.30
   7   3 -13    1.71    0.21
   7   3 -13    1.51    0.25
   6  -3 -13    0.19    0.16
  -6  -3  13    0.04    0.25
   6  -3 -13    0.17    0.16
   6   3 -13    0.15    0.19
  -6   3  13    0.27    0.25
   6   3 -13    0.24    0.18
   5  -3 -13    0.54    0.16
   5  -3 -13    0.42    0.16
  -5  -3  13    0.66    0.23
   5   3 -13    0.48    0.16
   5   3 -13    0.69    0.18
  -5   3  13    0.52    0.25
   5   3 -13    0.38    0.18
   4  -3 -13    0.55    0.15
  -4  -3  13    0.44    0.20
   4  -3 -13    0.75    0.17
  -4   3  13    0.54    0.22
   4   3 -13    0.81    0.20
   4   3 -13    0.58    0.16
   3  -3 -13    1.91    0.20
  -3  -3  13    2.12    0.23
  -3  -3  13    1.74    0.22
   3  -3 -13    2.42    0.21
  -3   3  13    2.15    0.26
   3   3 -13    2.01    0.24
   3   3 -13    1.97    0.21
  -2  -3  13    5.97    0.42
   2  -3 -13    6.17    0.37
   2  -3 -13    5.76    0.38
  -2   3  13    6.36    0.45
   2   3 -13    6.65    0.44
   2   3 -13    5.79    0.39
   1  -3 -13    0.48    0.14
  -1  -3  13    0.35    0.18
   1   3 -13    0.45    0.18
  -1   3  13    0.56    0.22
   1   3 -13    0.34    0.21
   0  -3 -13    3.38    0.27
   0  -3  13    3.53    0.28
   0   3  13    3.50    0.32
   0   3 -13    3.57    0.32
   1  -3  13    5.87    0.40
  -1  -3 -13    5.96    0.34
  -1   3 -13    5.38    0.40
   1   3  13    5.76    0.38
  -2  -3 -13    5.15    0.30
   2  -3  13    4.98    0.38
   2   3  13    4.76    0.38
  -2   3 -13    4.69    0.38
  -3  -3 -13    1.91    0.17
   3  -3  13    1.95    0.22
   3   3  13    2.29    0.24
   3   3  13    2.14    0.23
  -3   3 -13    1.77    0.23
   4  -3  13   12.55    0.64
   4  -3  13   12.56    0.67
  -4   3 -13   11.28    0.63
   4   3  13   11.46    0.63
   4   3  13   12.26    0.63
  -5  -3 -13    0.47    0.19
   5  -3  13    0.89    0.24
   5  -3  13    0.66    0.23
   5   3  13    0.63    0.19
   5   3  13    0.80    0.22
  -5   3 -13    0.65    0.22
  -6  -3 -13    1.18    0.21
   6  -3  13    0.97    0.23
   6  -3  13    1.14    0.24
  -6   3 -13    0.65    0.26
   6   3  13    1.03    0.22
   6   3  13    1.04    0.23
   7  -3  13    8.17    0.52
  -7  -3 -13    7.01    0.48
   7  -3  13    7.37    0.49
   7   3  13    7.81    0.49
  -7   3 -13    5.75    0.50
   7   3  13    7.85    0.47
   8  -3  13    0.65    0.23
  -8  -3 -13    0.65    0.24
   8  -3  13    0.58    0.24
   8   3  13    0.37    0.19
   8   3  13    0.32    0.22
  -8   3 -13   -0.05    0.25
   7  -4 -13    2.33    0.25
   7  -4 -13    2.25    0.23
  -7  -4  13    2.15    0.32
  -7   4  13    2.16    0.29
   7   4 -13    2.03    0.24
   7   4 -13    2.05    0.24
   6  -4 -13    0.47    0.17
   6  -4 -13    0.75    0.20
  -6  -4  13    0.00    0.26
   6   4 -13    0.42    0.20
   6   4 -13    0.52    0.20
  -6   4  13    0.37    0.24
   5  -4 -13    0.13    0.16
  -5  -4  13    0.33    0.24
   5  -4 -13    0.48    0.18
  -5   4  13    0.00    0.25
   5   4 -13    0.11    0.18
   5   4 -13    0.23    0.20
   4  -4 -13    0.35    0.18
   4  -4 -13   -0.07    0.16
  -4  -4  13   -0.03    0.20
  -4   4  13    0.39    0.22
   4   4 -13    0.19    0.19
   4   4 -13    0.03    0.20
   3  -4 -13    5.03    0.37
   3  -4 -13    5.23    0.36
   3   4 -13    5.08    0.42
  -3   4  13    4.94    0.45
   3   4 -13    4.81    0.38
   2  -4 -13    0.07    0.17
   2   4 -13   -0.23    0.19
   2   4 -13    0.08    0.20
  -2   4  13    0.19    0.20
   1  -4 -13    0.12    0.16
   1   4 -13    0.18    0.19
  -1   4  13    0.04    0.19
   0  -4  13    4.71    0.36
   0  -4 -13    4.90    0.32
   0   4 -13    3.88    0.38
   0   4  13    4.44    0.40
  -1  -4 -13    4.80    0.33
   1  -4  13    5.41    0.41
  -1   4 -13    5.33    0.41
   1   4  13    5.03    0.41
  -2  -4 -13    1.11    0.16
   2  -4  13    1.05    0.22
  -2   4 -13    0.99    0.21
   2   4  13    1.42    0.22
   3  -4  13    1.29    0.24
  -3  -4 -13    1.01    0.16
   3   4  13    1.36    0.23
  -3   4 -13    1.03    0.22
   4  -4  13    3.10    0.30
  -4   4 -13    2.16    0.29
   4   4  13    2.58    0.27
   4   4  13    2.82    0.27
   5  -4  13    2.64    0.31
   5   4  13    2.37    0.25
  -5   4 -13    1.65    0.27
   5   4  13    2.15    0.25
   6  -4  13    1.63    0.29
   6  -4  13    1.84    0.29
  -6   4 -13    1.57    0.31
   6   4  13    1.49    0.23
   6   4  13    1.75    0.25
  -7  -4 -13    0.64    0.25
   7  -4  13    1.35    0.27
   7   4  13    0.90    0.22
  -7   4 -13    0.60    0.26
   3  -5 -13    0.33    0.21
   3   5 -13    0.52    0.23
   3   5 -13    0.71    0.24
  -3   5  13    0.45    0.26
   2  -5 -13    1.41    0.22
  -2   5  13    1.42    0.24
   2   5 -13    1.49    0.23
   1  -5 -13    1.31    0.19
  -1   5  13    1.47    0.26
   1   5 -13    1.30    0.23
   0  -5 -13    2.44    0.24
   0   5 -13    2.15    0.27
   0   5  13    2.32    0.27
  -1  -5 -13    0.26    0.18
   1   5  13    0.34    0.19
  -1   5 -13    0.25    0.21
  -2  -5 -13    1.09    0.19
  -2   5 -13    0.75    0.23
   2   5  13    1.06    0.23
  -3  -5 -13    1.91    0.20
   3   5  13    1.59    0.25
  -3   5 -13    2.05    0.29
   9   0 -14   -0.05    0.20
  -9   0  14   -0.01    0.24
   9   0 -14    0.11    0.16
   8   0 -14    8.52    0.48
  -8   0  14    6.80    0.53
   8   0 -14    8.72    0.48
  -7   0  14    0.16    0.23
   7   0 -14    0.17    0.18
   7   0 -14   -0.14    0.19
  -6   0  14    8.15    0.53
   6   0 -14    9.63    0.52
   6   0 -14    9.77    0.52
   5   0 -14   -0.07    0.16
  -5   0  14   -0.09    0.19
   5   0 -14    0.25    0.16
   4   0 -14    3.93    0.32
   4   0 -14    3.07    0.24
  -4   0  14    2.84    0.29
   3   0 -14    0.28    0.16
  -3   0  14   -0.16    0.18
   3   0 -14    0.15    0.14
  -2   0  14    8.88    0.55
   2   0 -14   10.27    0.52
   2   0 -14    9.79    0.49
   1   0 -14    0.14    0.13
   1   0 -14    0.05    0.12
  -1   0  14    0.05    0.18
   0   0  14   47.01    2.08
   1   0  14    0.00    0.20
  -1   0 -14    0.06    0.14
   2   0  14    2.75    0.26
  -2   0 -14    2.92    0.23
   3   0  14    0.15    0.19
  -3   0 -14   -0.14    0.17
   3   0  14    0.10    0.16
   4   0  14   17.90    0.84
   4   0  14   17.59    0.81
  -4   0 -14   14.96    0.81
   5   0  14   -0.08    0.19
   5   0  14   -0.01    0.17
  -5   0 -14    0.07    0.18
   6   0  14   29.01    1.26
   6   0  14   26.79    1.26
  -6   0 -14   26.24    1.26
   7   0  14    0.28    0.23
   7   0  14   -0.01    0.18
  -7   0 -14   -0.05    0.23
  -8   0 -14    0.35    0.25
   8   0  14    0.84    0.19
   8   0  14    0.69    0.21
   9   0  14    0.41    0.24
  -9   0 -14   -0.07    0.26
   9   0  14   -0.19    0.17
   9  -1 -14    4.00    0.33
  -9  -1  14    2.96    0.30
   9  -1 -14    3.78    0.30
   9   1 -14    3.55    0.33
  -9   1  14    2.69    0.34
   9   1 -14    4.11    0.33
   8  -1 -14    0.29    0.18
   8  -1 -14    0.17    0.16
  -8  -1  14   -0.01    0.22
  -8   1  14    0.19    0.23
   8   1 -14   -0.22    0.22
   8   1 -14    0.23    0.17
   7  -1 -14   13.64    0.68
  -7  -1  14   12.13    0.71
   7  -1 -14   14.90    0.69
   7   1 -14   14.67    0.69
  -7   1  14   11.51    0.71
   7   1 -14   14.22    0.70
  -6  -1  14    4.63    0.41
   6  -1 -14    6.16    0.39
   6  -1 -14    5.46    0.37
   6   1 -14    6.41    0.41
  -6   1  14    4.12    0.38
   6   1 -14    5.17    0.36
   5  -1 -14    0.57    0.17
  -5  -1  14    0.35    0.19
   5  -1 -14    0.32    0.17
   5   1 -14    0.44    0.19
  -5   1  14    0.36    0.21
   5   1 -14    0.43    0.18
   4  -1 -14    1.63    0.19
  -4  -1  14    1.94    0.25
   4  -1 -14    2.00    0.20
   4   1 -14    1.78    0.20
  -4   1  14    1.85    0.26
   4   1 -14    1.72    0.22
  -3  -1  14    8.79    0.54
   3  -1 -14   10.14    0.51
   3  -1 -14    9.87    0.49
   3   1 -14    8.95    0.50
  -3   1  14    8.39    0.56
   3   1 -14   10.13    0.54
   2  -1 -14    2.01    0.18
  -2  -1  14    1.86    0.24
  -2   1  14    1.67    0.23
   2   1 -14    1.89    0.22
   2   1 -14    1.80    0.17
   1  -1 -14   18.20    0.80
  -1  -1  14   15.90    0.80
   1  -1 -14   17.21    0.77
   1   1 -14   17.25    0.82
  -1   1  14   15.34    0.80
   1   1 -14   16.05    0.78
   0  -1  14   17.28    0.85
   0  -1 -14   19.04    0.81
   0   1  14   17.12    0.85
   0   1 -14   17.67    0.84
   1  -1  14    0.24    0.18
  -1   1 -14    0.18    0.16
   1   1  14    0.44    0.21
   2  -1  14    1.88    0.23
   2   1  14    1.71    0.22
  -2   1 -14    1.82    0.21
   3  -1  14    2.52    0.25
  -3  -1 -14    2.14    0.23
   3   1  14    2.68    0.24
   3   1  14    2.15    0.24
  -3   1 -14    2.02    0.22
   4  -1  14    1.64    0.25
   4  -1  14    1.39    0.21
  -4  -1 -14    1.23    0.20
  -4   1 -14    1.17    0.20
   4   1  14    1.34    0.20
   4   1  14    1.33    0.22
   5  -1  14    0.37    0.18
  -5  -1 -14    0.45    0.20
   5  -1  14    0.56    0.23
   5   1  14    0.33    0.23
   5   1  14    0.39    0.18
  -5   1 -14   -0.08    0.21
   6  -1  14   14.83    0.73
  -6  -1 -14   14.37    0.74
   6  -1  14   14.39    0.73
   6   1  14   15.09    0.76
   6   1  14   14.64    0.72
  -6   1 -14   13.20    0.76
   7  -1  14   13.12    0.64
  -7  -1 -14   11.83    0.65
   7  -1  14   12.55    0.65
   7   1  14   12.80    0.64
  -7   1 -14   11.08    0.67
   7   1  14   12.05    0.67
   8  -1  14    4.41    0.37
   8  -1  14    4.04    0.37
  -8  -1 -14    4.27    0.38
  -8   1 -14    3.00    0.35
   8   1  14    4.04    0.34
   8   1  14    4.23    0.34
  -9  -1 -14    0.61    0.27
   9  -1  14    0.73    0.20
   9  -1  14    0.83    0.23
   9   1  14    0.69    0.25
  -9   1 -14    0.43    0.25
   9   1  14    0.77    0.19
   8  -2 -14    0.15    0.17
   8  -2 -14    0.20    0.20
   8   2 -14   -0.37    0.22
  -8   2  14    0.06    0.25
   8   2 -14    0.09    0.17
   7  -2 -14    6.10    0.41
   7  -2 -14    6.26    0.40
  -7   2  14    5.13    0.46
   7   2 -14    6.28    0.41
   7   2 -14    5.64    0.44
  -6  -2  14    0.98    0.21
   6  -2 -14    1.18    0.20
   6  -2 -14    1.39    0.19
   6   2 -14    1.30    0.21
  -6   2  14    0.85    0.25
   6   2 -14    0.77    0.20
   5  -2 -14    1.33    0.19
  -5  -2  14    1.29    0.22
   5  -2 -14    1.45    0.19
   5   2 -14    1.76    0.23
   5   2 -14    1.33    0.20
  -5   2  14    1.20    0.25
   4  -2 -14    3.60    0.31
   4  -2 -14    4.44    0.33
  -4  -2  14    3.75    0.36
  -4   2  14    3.56    0.31
   4   2 -14    3.68    0.31
   4   2 -14    4.14    0.39
   3  -2 -14    5.50    0.33
   3  -2 -14    5.10    0.36
  -3  -2  14    4.59    0.38
   3   2 -14    4.48    0.31
   3   2 -14    5.00    0.40
  -3   2  14    4.69    0.39
   3   2 -14    4.66    0.32
   2  -2 -14    8.70    0.46
  -2  -2  14    8.85    0.50
   2  -2 -14    9.09    0.45
  -2   2  14    8.12    0.50
   2   2 -14    8.47    0.51
   2   2 -14    7.76    0.45
   2   2 -14    7.63    0.43
   1  -2 -14   10.78    0.50
  -1  -2  14   10.03    0.56
   1   2 -14    9.71    0.57
  -1   2  14    9.36    0.55
   1   2 -14    9.55    0.52
   0  -2 -14   -0.11    0.13
   0  -2  14   -0.06    0.20
   0   2 -14   -0.06    0.16
   0   2  14   -0.10    0.19
  -1  -2 -14   20.45    0.91
   1  -2  14   20.71    0.97
   1   2  14   20.44    0.96
  -1   2 -14   18.60    0.94
   2  -2  14    0.16    0.19
  -2   2 -14    0.24    0.19
   2   2  14    0.61    0.22
   3  -2  14   24.44    1.10
  -3   2 -14   21.36    1.08
   3   2  14   23.71    1.09
   4  -2  14   13.62    0.69
   4  -2  14   14.31    0.71
  -4   2 -14   11.93    0.70
   4   2  14   13.79    0.69
   4   2  14   13.07    0.68
  -5  -2 -14    0.41    0.20
   5  -2  14    0.63    0.21
   5  -2  14    0.27    0.23
   5   2  14    0.38    0.19
   5   2  14    0.43    0.22
  -5   2 -14    0.23    0.23
   6  -2  14    2.03    0.27
  -6  -2 -14    2.18    0.25
   6  -2  14    2.63    0.26
  -6   2 -14    1.08    0.25
   6   2  14    2.16    0.27
   6   2  14    2.02    0.23
   7  -2  14   11.22    0.57
  -7  -2 -14    9.35    0.57
   7  -2  14   10.25    0.60
  -7   2 -14    7.82    0.60
   7   2  14    9.64    0.58
   7   2  14    9.79    0.55
   8  -2  14    0.68    0.23
  -8  -2 -14    0.20    0.24
   8  -2  14    0.65    0.19
   8   2  14    0.31    0.24
  -8   2 -14    0.03    0.27
   8   2  14    0.17    0.18
  -7  -3  14    2.35    0.35
   7  -3 -14    3.21    0.25
   7  -3 -14    2.99    0.26
  -7   3  14    2.78    0.34
   7   3 -14    3.04    0.26
   7   3 -14    2.98    0.27
   6  -3 -14    8.61    0.46
   6  -3 -14    8.44    0.47
  -6  -3  14    6.74    0.54
  -6   3  14    7.15    0.56
   6   3 -14    7.75    0.48
   6   3 -14    6.94    0.48
   5  -3 -14    1.41    0.19
   5  -3 -14    1.24    0.20
  -5  -3  14    1.09    0.24
   5   3 -14    1.01    0.22
  -5   3  14    1.01    0.25
   4  -3 -14   20.69    0.95
  -4  -3  14   18.46    0.97
   4  -3 -14   21.60    0.96
  -4   3  14   20.24    0.99
   4   3 -14   22.25    0.99
   4   3 -14   19.27    0.94
   3  -3 -14    1.57    0.19
  -3  -3  14    1.51    0.23
   3  -3 -14    1.47    0.19
  -3   3  14    2.31    0.29
   3   3 -14    1.19    0.20
   3   3 -14    1.69    0.25
   2  -3 -14    1.61    0.19
  -2  -3  14    1.63    0.23
   2   3 -14    1.51    0.24
   2   3 -14    1.37    0.21
  -2   3  14    1.20    0.24
  -1  -3  14    2.58    0.27
   1  -3 -14    2.62    0.21
   1   3 -14    2.37    0.24
  -1   3  14    2.99    0.30
   0  -3  14    5.48    0.41
   0  -3 -14    5.62    0.33
   0   3  14    5.20    0.43
   0   3 -14    5.43    0.39
  -1  -3 -14    0.16    0.13
   1  -3  14    0.45    0.21
  -1   3 -14   -0.03    0.20
   1   3  14    0.13    0.19
   2  -3  14    2.59    0.27
  -2  -3 -14    2.18    0.19
  -2   3 -14    2.20    0.26
   2   3  14    2.15    0.24
   3  -3  14   -0.14    0.21
  -3   3 -14    0.04    0.23
   3   3  14    0.18    0.19
   4  -3  14    3.43    0.30
   4   3  14    2.70    0.27
  -4   3 -14    2.97    0.31
   4   3  14    3.58    0.30
   5  -3  14    9.82    0.57
   5  -3  14    8.93    0.54
   5   3  14    8.07    0.53
   5   3  14    8.56    0.52
  -5   3 -14    7.12    0.51
   6  -3  14    0.07    0.21
   6  -3  14   -0.11    0.23
   6   3  14    0.10    0.18
  -6   3 -14   -0.18    0.25
   6   3  14    0.12    0.20
  -7  -3 -14    3.80    0.32
   7  -3  14    4.52    0.41
   7  -3  14    5.03    0.43
  -7   3 -14    2.79    0.34
   7   3  14    4.41    0.40
   7   3  14    4.44    0.41
   5  -4 -14    7.33    0.46
   5  -4 -14    7.10    0.45
  -5  -4  14    6.90    0.51
   5   4 -14    7.46    0.46
   5   4 -14    7.33    0.50
  -5   4  14    6.75    0.50
   4  -4 -14    0.60    0.20
   4  -4 -14    0.53    0.19
   4   4 -14    0.71    0.22
  -4   4  14    0.74    0.25
   4   4 -14    0.44    0.20
   3  -4 -14    1.08    0.18
   3   4 -14    0.92    0.24
  -3   4  14    0.95    0.27
   3   4 -14    1.01    0.22
   2  -4 -14    0.22    0.17
  -2   4  14    0.18    0.25
   2   4 -14    0.18    0.20
   1  -4 -14    7.52    0.43
  -1   4  14    7.10    0.48
   1   4 -14    7.12    0.47
   0  -4 -14    6.20    0.37
   0   4  14    5.69    0.42
   0   4 -14    5.17    0.42
   1  -4  14    8.98    0.50
  -1  -4 -14    7.88    0.44
  -1   4 -14    7.54    0.48
   1   4  14    7.47    0.52
   2  -4  14    5.27    0.40
  -2  -4 -14    4.21    0.31
   2   4  14    5.05    0.42
  -2   4 -14    4.15    0.41
   3  -4  14   18.01    0.84
   3   4  14   16.78    0.83
  -3   4 -14   14.50    0.84
   4  -4  14    4.51    0.42
   4   4  14    4.17    0.39
  -4   4 -14    3.53    0.36
   5   4  14    0.58    0.23
   5   4  14    0.70    0.22
  -5   4 -14    0.37    0.24
   8   0 -15   -0.06    0.23
   8   0 -15    0.05    0.18
  -8   0  15    0.26    0.25
  -7   0  15    0.59    0.26
   7   0 -15    1.18    0.21
   7   0 -15    0.63    0.20
   6   0 -15    0.28    0.18
   6   0 -15   -0.05    0.19
  -6   0  15    0.20    0.22
   5   0 -15    0.87    0.20
  -5   0  15    0.82    0.25
   5   0 -15    1.13    0.20
   4   0 -15    0.13    0.17
  -4   0  15    0.06    0.20
   4   0 -15    0.13    0.17
   3   0 -15   10.63    0.55
   3   0 -15    9.61    0.51
  -3   0  15    9.41    0.59
   2   0 -15    0.10    0.16
   2   0 -15    0.13    0.14
  -2   0  15    0.29    0.23
  -1   0  15    0.05    0.20
   0   0  15    0.30    0.23
   1   0  15   29.38    1.36
  -2   0 -15    0.07    0.16
   2   0  15    0.11    0.23
  -3   0 -15    1.28    0.20
   3   0  15    1.42    0.26
   4   0  15    0.30    0.22
  -4   0 -15   -0.23    0.19
   5   0  15    3.61    0.29
   5   0  15    3.17    0.30
  -5   0 -15    3.03    0.30
  -6   0 -15    0.04    0.23
   6   0  15   -0.04    0.24
   6   0  15    0.16    0.20
   7   0  15    0.00    0.19
   7   0  15    0.34    0.24
  -7   0 -15   -0.12    0.24
  -8   0 -15    0.05    0.26
   8   0  15    0.11    0.21
   8   0  15    0.12    0.19
   8  -1 -15    2.10    0.23
  -8  -1  15    1.82    0.28
   8  -1 -15    1.79    0.22
   8   1 -15    2.24    0.28
   8   1 -15    2.07    0.23
  -8   1  15    1.99    0.32
   7  -1 -15    0.44    0.17
   7  -1 -15    0.20    0.21
  -7  -1  15    0.39    0.23
   7   1 -15    0.50    0.19
   7   1 -15    0.29    0.22
  -7   1  15    0.13    0.26
   6  -1 -15    5.20    0.38
  -6  -1  15    4.71    0.44
   6  -1 -15    5.89    0.40
   6   1 -15    5.46    0.40
   6   1 -15    5.68    0.43
  -6   1  15    4.66    0.40
  -5  -1  15    3.23    0.30
   5  -1 -15    3.76    0.32
   5  -1 -15    4.62    0.35
   5   1 -15    3.80    0.28
   5   1 -15    3.54    0.29
  -5   1  15    2.95    0.32
   4  -1 -15    0.10    0.16
   4  -1 -15    0.26    0.18
  -4  -1  15   -0.12    0.22
   4   1 -15    0.12    0.17
  -4   1  15    0.19    0.25
   4   1 -15   -0.05    0.19
  -3  -1  15    0.09    0.19
   3  -1 -15    0.39    0.17
   3  -1 -15    0.12    0.15
   3   1 -15    0.29    0.19
  -3   1  15   -0.03    0.21
   3   1 -15    0.03    0.15
   2  -1 -15    1.30    0.20
   2  -1 -15    1.35    0.16
  -2  -1  15    0.94    0.22
   2   1 -15    1.04    0.21
  -2   1  15    1.13    0.23
   1  -1 -15    0.14    0.14
  -1  -1  15    0.36    0.20
  -1   1  15    0.48    0.21
   0  -1  15    0.28    0.22
   0   1 -15    0.05    0.17
   0   1  15    0.41    0.20
   1  -1  15    1.66    0.24
  -1   1 -15    1.39    0.20
   1   1  15    1.76    0.24
   2  -1  15    1.04    0.25
  -2   1 -15    0.87    0.20
   2   1  15    0.97    0.22
   3  -1  15    3.72    0.33
  -3   1 -15    3.19    0.28
   3   1  15    3.47    0.32
  -4  -1 -15    4.94    0.40
   4  -1  15    5.79    0.46
   4   1  15    5.25    0.40
  -4   1 -15    4.29    0.39
  -5  -1 -15    0.29    0.20
   5  -1  15    0.86    0.20
   5  -1  15    0.35    0.22
  -5   1 -15    0.15    0.23
   5   1  15    0.72    0.25
   5   1  15    0.50    0.19
   6  -1  15    2.23    0.27
   6  -1  15    2.98    0.27
  -6  -1 -15    2.57    0.28
   6   1  15    2.21    0.30
   6   1  15    2.57    0.24
  -6   1 -15    2.17    0.29
   7  -1  15   14.53    0.71
   7  -1  15   13.98    0.72
  -7  -1 -15   13.91    0.74
   7   1  15   13.80    0.72
  -7   1 -15   12.35    0.76
   7   1  15   14.14    0.70
   7  -2 -15    0.48    0.18
   7  -2 -15    0.27    0.20
   7   2 -15    0.17    0.19
   7   2 -15    0.13    0.21
  -7   2  15   -0.08    0.28
   6  -2 -15    0.07    0.19
   6  -2 -15    0.00    0.17
  -6  -2  15    0.20    0.22
   6   2 -15   -0.47    0.19
  -6   2  15    0.27    0.28
   6   2 -15    0.19    0.19
   5  -2 -15    1.76    0.22
  -5  -2  15    1.51    0.25
   5  -2 -15    2.03    0.21
   5   2 -15    1.74    0.24
  -5   2  15    1.60    0.27
   5   2 -15    1.50    0.22
   4  -2 -15    2.35    0.23
   4  -2 -15    1.99    0.21
  -4  -2  15    1.94    0.26
  -4   2  15    2.06    0.28
   4   2 -15    1.64    0.21
   4   2 -15    1.98    0.25
   3  -2 -15   -0.10    0.15
   3  -2 -15    0.04    0.17
  -3  -2  15   -0.03    0.21
   3   2 -15   -0.09    0.20
  -3   2  15    0.01    0.25
   2  -2 -15    8.32    0.43
  -2  -2  15    7.31    0.50
   2   2 -15    7.85    0.51
  -2   2  15    7.26    0.53
   1  -2 -15    0.86    0.15
  -1  -2  15    0.87    0.23
  -1   2  15    0.82    0.25
   1   2 -15    0.59    0.18
   0  -2  15    7.11    0.50
   0  -2 -15    7.52    0.40
   0   2  15    7.35    0.50
   0   2 -15    6.95    0.44
   1  -2  15    0.23    0.23
   1   2  15    0.06    0.23
  -1   2 -15    0.11    0.19
   2  -2  15    8.31    0.50
   2   2  15    8.13    0.49
  -2   2 -15    7.33    0.49
   3  -2  15    0.53    0.21
  -3   2 -15    0.42    0.19
   3   2  15    0.83    0.24
   4  -2  15    1.80    0.28
  -4   2 -15    1.46    0.26
   4   2  15    1.71    0.24
   5  -2  15    1.96    0.27
   5   2  15    1.58    0.24
  -5   2 -15    1.12    0.26
   5   2  15    1.70    0.23
  -6  -2 -15    0.84    0.24
   6  -2  15    1.19    0.22
   6  -2  15    1.23    0.24
   6   2  15    1.14    0.24
  -6   2 -15    0.33    0.23
   6   2  15    0.98    0.22
   7  -2  15    0.34    0.21
  -7  -2 -15    0.27    0.24
  -7   2 -15    0.27    0.26
   7   2  15    0.79    0.23
   7   2  15    0.35    0.19
   5  -3 -15    1.59    0.22
  -5  -3  15    1.37    0.26
   5  -3 -15    1.77    0.21
  -5   3  15    1.27    0.28
   5   3 -15    1.52    0.23
   4  -3 -15    0.07    0.16
   4  -3 -15    0.06    0.18
   4   3 -15   -0.04    0.21
  -4   3  15    0.24    0.24
  -3  -3  15    2.07    0.27
   3  -3 -15    1.45    0.21
   3  -3 -15    1.99    0.21
   3   3 -15    2.01    0.23
  -3   3  15    2.33    0.30
   3   3 -15    2.44    0.28
  -2  -3  15    0.37    0.21
   2  -3 -15   -0.03    0.15
  -2   3  15    0.01    0.22
   2   3 -15    0.24    0.18
  -1  -3  15    0.77    0.23
   1  -3 -15    0.70    0.17
  -1   3  15    0.72    0.26
   1   3 -15    0.86    0.21
   0  -3 -15    0.42    0.15
   0  -3  15    0.44    0.23
   0   3 -15    0.36    0.21
   0   3  15    0.57    0.22
   1  -3  15    0.67    0.23
   1   3  15    0.56    0.21
  -1   3 -15    0.66    0.19
   2  -3  15    3.41    0.31
   2   3  15    3.82    0.32
  -2   3 -15    3.14    0.30
   3  -3  15    1.96    0.27
  -3   3 -15    1.49    0.26
   3   3  15    1.57    0.25
   4  -3  15    0.04    0.21
  -4   3 -15   -0.05    0.24
   4   3  15    0.09    0.21
   5  -3  15    1.07    0.26
   5   3  15    1.13    0.25
  -5   3 -15    0.63    0.24
   1  -4 -15   -0.08    0.16
  -1   4  15   -0.03    0.22
   1   4 -15    0.22    0.22
   0  -4 -15    0.46    0.17
   0   4 -15    0.10    0.22
   0   4  15    0.52    0.25
  -1   4 -15    3.52    0.32
   6   0 -16    2.39    0.25
   6   0 -16    2.32    0.25
  -6   0  16    1.75    0.31
   5   0 -16   -0.02    0.18
  -5   0  16    0.07    0.23
   5   0 -16    0.23    0.20
  -4   0  16    7.97    0.56
   4   0 -16    9.68    0.52
   4   0 -16   10.67    0.56
   3   0 -16   -0.43    0.16
  -3   0  16   -0.05    0.25
   3   0 -16    0.11    0.17
  -2   0  16    2.17    0.27
  -1   0  16    0.35    0.22
   0   0  16    1.14    0.24
   1   0  16   -0.08    0.25
   2   0  16    0.04    0.22
   3   0  16    0.13    0.25
   4   0  16   20.31    0.97
  -4   0 -16   17.82    0.91
  -5   0 -16    0.18    0.23
   5   0  16   -0.12    0.26
   6   0  16    0.24    0.26
  -6   0 -16   -0.06    0.23
   6   0  16    0.21    0.20
   6  -1 -16    0.64    0.19
   6  -1 -16    0.94    0.21
  -6  -1  16    0.65    0.26
   6   1 -16    0.91    0.22
   6   1 -16    0.92    0.22
  -6   1  16    0.87    0.30
   5  -1 -16    6.19    0.41
  -5  -1  16    4.32    0.38
   5  -1 -16    6.30    0.39
   5   1 -16    6.26    0.46
  -5   1  16    4.79    0.40
   5   1 -16    5.66    0.39
   4  -1 -16    0.84    0.18
  -4  -1  16    1.09    0.26
   4  -1 -16    1.26    0.20
   4   1 -16    0.66    0.19
  -4   1  16    0.57    0.28
   4   1 -16    1.21    0.23
  -3  -1  16    8.29    0.54
   3  -1 -16    9.45    0.50
   3  -1 -16   10.13    0.53
   3   1 -16    9.90    0.57
  -3   1  16    7.92    0.55
   2  -1 -16    3.93    0.30
  -2  -1  16    5.06    0.43
  -2   1  16    3.82    0.36
  -1  -1  16    0.80    0.25
  -1   1  16    0.87    0.26
   0  -1  16    1.81    0.27
   0   1  16    1.56    0.25
   1  -1  16   12.13    0.70
   1   1  16   12.56    0.69
   2  -1  16    1.81    0.29
  -2   1 -16    1.37    0.23
   2   1  16    1.51    0.25
   3  -1  16   11.16    0.61
  -3   1 -16    9.49    0.57
   3   1  16   10.37    0.59
   4  -1  16    6.09    0.50
  -4   1 -16    4.63    0.42
   4   1  16    6.08    0.44
   5  -1  16   -0.10    0.23
   5   1  16    0.04    0.26
  -5   1 -16    0.05    0.22
   5  -2 -16    0.50    0.19
   5  -2 -16    0.18    0.18
  -5  -2  16    0.27    0.23
  -5   2  16    0.40    0.26
   5   2 -16    0.37    0.22
   5   2 -16    0.21    0.18
   4  -2 -16    0.08    0.17
   4  -2 -16    0.06    0.16
  -4  -2  16   -0.25    0.21
  -4   2  16    0.16    0.28
   4   2 -16    0.06    0.20
  -3  -2  16    9.69    0.60
   3  -2 -16   11.20    0.57
   3  -2 -16   10.38    0.53
   3   2 -16   10.37    0.62
  -3   2  16    9.51    0.61
   2  -2 -16    0.96    0.18
  -2  -2  16    1.21    0.25
  -2   2  16    1.01    0.28
   1  -2 -16    1.30    0.18
  -1  -2  16    1.28    0.24
  -1   2  16    1.50    0.28
   0  -2  16    0.22    0.25
   0   2  16    0.50    0.25
   0   2 -16   -0.03    0.18
   1  -2  16   -0.05    0.25
  -1   2 -16    0.03    0.20
   1   2  16   -0.03    0.23
   2  -2  16    3.37    0.34
  -2   2 -16    3.12    0.29
   2   2  16    3.39    0.30
   3  -2  16    4.41    0.41
   3   2  16    5.24    0.44
  -3   2 -16    3.77    0.34
   4  -2  16    0.49    0.24
  -4   2 -16    0.18    0.23
   4   2  16    0.08    0.25
   1  -3 -16    0.96    0.17
  -1  -3  16    1.38    0.25
   1   3 -16    1.03    0.22
  -1   3  16    1.10    0.25
   0  -3  16   17.60    0.84
   0   3 -16   15.43    0.82
   0   3  16   17.43    0.87
   1  -3  16    1.36    0.25
  -1   3 -16    1.03    0.24
   1   3  16    0.85    0.24
   3   0 -17    1.36    0.25
  -3   0  17    0.78    0.26
  -2   0  17    0.10    0.24
  -1   0  17    1.21    0.29
   0   0  17    0.00    0.27
   1   0  17    6.19    0.52
   2   0  17   -0.06    0.27
   3   0  17    2.25    0.30
  -2  -1  17    3.97    0.36
  -2   1  17    4.39    0.43
  -1  -1  17    2.93    0.34
  -1   1  17    2.94    0.33
   0  -1  17    0.03    0.24
   0   1  17    0.17    0.27
   1  -1  17    0.09    0.24
   1   1  17    0.14    0.23
   2  -1  17    1.72    0.29
   2   1  17    1.73    0.27
   0   0   0    0.00    0.00
;
_shelx_hkl_checksum              75737
_olex2_submission_special_instructions 'No special instructions were received'
loop_
_space_group_symop_operation_xyz
'x, y, z'
'-x+1/2, y+1/2, -z+1/2'
'-x, -y, -z'
'x-1/2, -y-1/2, z-1/2'
loop_
_atom_site_label
_atom_site_type_symbol
_atom_site_fract_x
_atom_site_fract_y
_atom_site_fract_z
_atom_site_U_iso_or_equiv
_atom_site_adp_type
_atom_site_occupancy
_atom_site_site_symmetry_order
_atom_site_calc_flag
Br1 Br 0.43280(2) 0.91948(5) 0.38233(2) 0.03980(10) Uani 1 1 d
Br2 Br 0.30402(2) 0.80656(5) 0.17232(2) 0.04046(10) Uani 1 1 d
Br3 Br 0.36680(2) 0.37883(5) 0.04403(2) 0.04206(10) Uani 1 1 d
Br4 Br 0.57488(3) 0.08571(5) 0.11192(2) 0.04525(10) Uani 1 1 d
O1 O 0.72379(18) 0.1117(4) 0.30763(19) 0.0589(7) Uani 1 1 d
O2 O 0.6158(2) 0.6540(4) 0.49734(18) 0.0563(6) Uani 1 1 d
O3 O 0.68715(16) 0.3728(4) 0.41776(15) 0.0431(5) Uani 1 1 d
C1 C 0.6707(2) 0.2632(5) 0.3287(2) 0.0367(6) Uani 1 1 d
C2 C 0.6168(2) 0.5435(5) 0.4262(2) 0.0375(6) Uani 1 1 d
C3 C 0.46859(19) 0.6789(4) 0.30497(19) 0.0271(5) Uani 1 1 d
C4 C 0.41556(18) 0.6299(4) 0.21601(18) 0.0266(5) Uani 1 1 d
C5 C 0.44437(19) 0.4502(4) 0.15907(18) 0.0271(5) Uani 1 1 d
C6 C 0.52985(19) 0.3205(4) 0.18814(19) 0.0277(5) Uani 1 1 d
C7 C 0.58145(19) 0.3701(4) 0.27689(19) 0.0278(5) Uani 1 1 d
C8 C 0.55024(19) 0.5437(4) 0.33444(18) 0.0276(5) Uani 1 1 d
loop_
_atom_site_aniso_label
_atom_site_aniso_U_11
_atom_site_aniso_U_22
_atom_site_aniso_U_33
_atom_site_aniso_U_23
_atom_site_aniso_U_13
_atom_site_aniso_U_12
Br1 0.04377(18) 0.03762(17) 0.03797(17) -0.01269(11) -0.00040(12) 0.00277(11)
Br2 0.03385(16) 0.04024(17) 0.04695(18) -0.00015(12) -0.01103(12) 0.00980(11)
Br3 0.03834(17) 0.05182(19) 0.03558(17) -0.01298(12) -0.01525(12) 0.00169(12)
Br4 0.04566(18) 0.04252(18) 0.04749(19) -0.01666(13) -0.00205(13) 0.01012(12)
O1 0.0473(14) 0.0641(16) 0.0651(16) 0.0009(12) -0.0075(12) 0.0249(12)
O2 0.0558(14) 0.0705(16) 0.0420(12) -0.0183(11) -0.0231(11) 0.0015(12)
O3 0.0327(10) 0.0586(13) 0.0377(11) 0.0032(9) -0.0134(8) 0.0053(9)
C1 0.0273(13) 0.0447(16) 0.0380(15) 0.0049(12) -0.0036(11) 0.0023(11)
C2 0.0299(13) 0.0501(17) 0.0323(14) 0.0013(12) -0.0073(11) -0.0033(12)
C3 0.0263(12) 0.0281(12) 0.0268(12) -0.0029(9) 0.0003(9) -0.0015(9)
C4 0.0214(11) 0.0291(12) 0.0292(12) 0.0014(10) -0.0028(9) -0.0016(9)
C5 0.0233(11) 0.0326(13) 0.0250(11) -0.0019(10) -0.0058(9) -0.0038(9)
C6 0.0263(12) 0.0282(12) 0.0284(12) -0.0031(9) 0.0001(9) -0.0015(9)
C7 0.0216(11) 0.0327(13) 0.0290(12) 0.0024(10) -0.0018(9) 0.0005(9)
C8 0.0250(11) 0.0336(13) 0.0240(12) -0.0019(10) -0.0036(9) -0.0045(9)
loop_
_atom_type_symbol
_atom_type_description
_atom_type_scat_dispersion_real
_atom_type_scat_dispersion_imag
_atom_type_scat_source
C C 0.0033 0.0016 'International Tables Vol C Tables 4.2.6.8 and 6.1.1.4'
O O 0.0106 0.0060 'International Tables Vol C Tables 4.2.6.8 and 6.1.1.4'
Br Br -0.2901 2.4595 'International Tables Vol C Tables 4.2.6.8 and 6.1.1.4'
loop_
_geom_angle_atom_site_label_1
_geom_angle_atom_site_label_2
_geom_angle_atom_site_label_3
_geom_angle
C1 O3 C2 110.6(2)
O1 C1 O3 120.7(3)
O1 C1 C7 132.3(3)
O3 C1 C7 107.0(2)
O2 C2 O3 121.5(3)
O2 C2 C8 131.6(3)
O3 C2 C8 107.0(2)
C4 C3 Br1 121.93(19)
C8 C3 Br1 120.44(19)
C8 C3 C4 117.6(2)
C3 C4 Br2 119.62(19)
C3 C4 C5 120.9(2)
C5 C4 Br2 119.52(17)
C4 C5 Br3 119.94(18)
C6 C5 Br3 119.45(19)
C6 C5 C4 120.6(2)
C5 C6 Br4 122.21(19)
C7 C6 Br4 119.87(19)
C7 C6 C5 117.9(2)
C6 C7 C1 131.0(3)
C8 C7 C1 107.9(2)
C8 C7 C6 121.1(2)
C3 C8 C2 130.7(2)
C7 C8 C2 107.4(2)
C7 C8 C3 121.8(2)
loop_
_geom_bond_atom_site_label_1
_geom_bond_atom_site_label_2
_geom_bond_distance
Br1 C3 1.871(3)
Br2 C4 1.873(2)
Br3 C5 1.871(2)
Br4 C6 1.867(3)
O1 C1 1.188(4)
O2 C2 1.173(4)
O3 C1 1.386(4)
O3 C2 1.386(4)
C1 C7 1.476(4)
C2 C8 1.482(3)
C3 C4 1.394(3)
C3 C8 1.383(4)
C4 C5 1.398(4)
C5 C6 1.398(3)
C6 C7 1.384(4)
C7 C8 1.382(4)
loop_
_geom_torsion_atom_site_label_1
_geom_torsion_atom_site_label_2
_geom_torsion_atom_site_label_3
_geom_torsion_atom_site_label_4
_geom_torsion
Br1 C3 C4 Br2 -0.7(3)
Br1 C3 C4 C5 179.46(19)
Br1 C3 C8 C2 4.6(4)
Br1 C3 C8 C7 -177.24(19)
Br2 C4 C5 Br3 -3.4(3)
Br2 C4 C5 C6 177.60(19)
Br3 C5 C6 Br4 3.6(3)
Br3 C5 C6 C7 -176.09(19)
Br4 C6 C7 C1 -1.6(4)
Br4 C6 C7 C8 179.59(19)
O1 C1 C7 C6 2.4(6)
O1 C1 C7 C8 -178.7(3)
O2 C2 C8 C3 1.7(6)
O2 C2 C8 C7 -176.6(3)
O3 C1 C7 C6 -176.7(3)
O3 C1 C7 C8 2.2(3)
O3 C2 C8 C3 -179.9(3)
O3 C2 C8 C7 1.8(3)
C1 O3 C2 O2 178.2(3)
C1 O3 C2 C8 -0.4(3)
C1 C7 C8 C2 -2.4(3)
C1 C7 C8 C3 179.1(2)
C2 O3 C1 O1 179.7(3)
C2 O3 C1 C7 -1.1(3)
C3 C4 C5 Br3 176.37(19)
C3 C4 C5 C6 -2.6(4)
C4 C3 C8 C2 -175.9(3)
C4 C3 C8 C7 2.2(4)
C4 C5 C6 Br4 -177.40(19)
C4 C5 C6 C7 2.9(4)
C5 C6 C7 C1 178.1(3)
C5 C6 C7 C8 -0.7(4)
C6 C7 C8 C2 176.6(2)
C6 C7 C8 C3 -1.9(4)
C8 C3 C4 Br2 179.83(18)
C8 C3 C4 C5 0.0(4)
