#------------------------------------------------------------------------------
#$Date: 2019-11-25 06:44:18 +0200 (Mon, 25 Nov 2019) $
#$Revision: 240270 $
#$URL: file:///home/coder/svn-repositories/cod/cif/4/12/95/4129573.cif $
#------------------------------------------------------------------------------
#
# This file is available in the Crystallography Open Database (COD),
# http://www.crystallography.net/
#
# All data on this site have been placed in the public domain by the
# contributors.
#
data_4129573
loop_
_publ_author_name
'Bucher, Cyril'
'Deans, Richard M.'
'Burns, Noah Z.'
_publ_section_title
;
 Highly Selective Synthesis of Halomon, Plocamenone, and Isoplocamenone.
;
_journal_issue                   40
_journal_name_full               'Journal of the American Chemical Society'
_journal_page_first              12784
_journal_page_last               12787
_journal_paper_doi               10.1021/jacs.5b08398
_journal_volume                  137
_journal_year                    2015
_chemical_absolute_configuration rmad
_chemical_formula_moiety         'C9 H16 Br2 Cl2 O2'
_chemical_formula_sum            'C9 H16 Br2 Cl2 O2'
_chemical_formula_weight         386.94
_space_group_crystal_system      monoclinic
_space_group_IT_number           4
_space_group_name_Hall           'P 2yb'
_space_group_name_H-M_alt        'P 1 21 1'
_atom_sites_solution_hydrogens   geom
_atom_sites_solution_primary     vecmap
_atom_sites_solution_secondary   dismap
_audit_creation_method           SHELXL-2014/7
_cell_angle_alpha                90
_cell_angle_beta                 106.601(3)
_cell_angle_gamma                90
_cell_formula_units_Z            2
_cell_length_a                   9.6424(10)
_cell_length_b                   7.2529(7)
_cell_length_c                   10.6701(10)
_cell_measurement_reflns_used    6057
_cell_measurement_temperature    120(2)
_cell_measurement_theta_max      28.25
_cell_measurement_theta_min      2.51
_cell_volume                     715.11(12)
_computing_cell_refinement       'Bruker SAINT v8.34A'
_computing_data_collection       'Bruker APEX-II v2014-5.0'
_computing_data_reduction        'Bruker SAINT v8.34A'
_computing_molecular_graphics    'Bruker XP'
_computing_publication_material  'CIFTAB (Sheldrick, 2008)'
_computing_structure_refinement  'SHELXL-2014/7 (Sheldrick, 2014)'
_computing_structure_solution    'SHELXT-2014/2 (Sheldrick, 2014)'
_diffrn_ambient_temperature      120(2)
_diffrn_detector_area_resol_mean 8.33
_diffrn_measured_fraction_theta_full 1.000
_diffrn_measured_fraction_theta_max 1.000
_diffrn_measurement_device_type  'Bruker Kappa X8-APEX-II'
_diffrn_measurement_method       'combination of \w and \f-scans '
_diffrn_radiation_monochromator  graphite
_diffrn_radiation_source         'fine-focus sealed tube'
_diffrn_radiation_type           MoK\a
_diffrn_radiation_wavelength     0.71073
_diffrn_reflns_av_R_equivalents  0.0278
_diffrn_reflns_av_unetI/netI     0.0409
_diffrn_reflns_Laue_measured_fraction_full 1.000
_diffrn_reflns_Laue_measured_fraction_max 1.000
_diffrn_reflns_limit_h_max       9
_diffrn_reflns_limit_h_min       -12
_diffrn_reflns_limit_k_max       9
_diffrn_reflns_limit_k_min       -9
_diffrn_reflns_limit_l_max       14
_diffrn_reflns_limit_l_min       -13
_diffrn_reflns_number            12787
_diffrn_reflns_point_group_measured_fraction_full 0.988
_diffrn_reflns_point_group_measured_fraction_max 0.977
_diffrn_reflns_theta_full        25.242
_diffrn_reflns_theta_max         28.500
_diffrn_reflns_theta_min         1.992
_exptl_absorpt_coefficient_mu    6.023
_exptl_absorpt_correction_T_max  0.8643
_exptl_absorpt_correction_T_min  0.4473
_exptl_absorpt_correction_type   numerical
_exptl_absorpt_process_details   'SADABS (Sheldrick, 2014)'
_exptl_crystal_colour            colorless
_exptl_crystal_density_diffrn    1.797
_exptl_crystal_description       rod
_exptl_crystal_F_000             380
_exptl_crystal_size_max          0.180
_exptl_crystal_size_mid          0.060
_exptl_crystal_size_min          0.050
_refine_diff_density_max         1.564
_refine_diff_density_min         -0.993
_refine_diff_density_rms         0.115
_refine_ls_abs_structure_details
;
 Flack x determined using 1368 quotients [(I+)-(I-)]/[(I+)+(I-)]
 (Parsons, Flack and Wagner, Acta Cryst. B69 (2013) 249-259).
;
_refine_ls_abs_structure_Flack   0.019(5)
_refine_ls_extinction_method     none
_refine_ls_goodness_of_fit_ref   1.080
_refine_ls_hydrogen_treatment    constr
_refine_ls_matrix_type           full
_refine_ls_number_parameters     139
_refine_ls_number_reflns         3545
_refine_ls_number_restraints     1
_refine_ls_restrained_S_all      1.080
_refine_ls_R_factor_all          0.0398
_refine_ls_R_factor_gt           0.0356
_refine_ls_shift/su_max          0.000
_refine_ls_shift/su_mean         0.000
_refine_ls_structure_factor_coef Fsqd
_refine_ls_weighting_details
'w=1/[\s^2^(Fo^2^)+(0.0610P)^2^] where P=(Fo^2^+2Fc^2^)/3'
_refine_ls_weighting_scheme      calc
_refine_ls_wR_factor_gt          0.0948
_refine_ls_wR_factor_ref         0.0968
_reflns_Friedel_coverage         0.815
_reflns_Friedel_fraction_full    0.974
_reflns_Friedel_fraction_max     0.950
_reflns_number_gt                3273
_reflns_number_total             3545
_reflns_threshold_expression     'I > 2\s(I)'
_cod_data_source_file            ja5b08398_si_003.cif
_cod_data_source_block           su1427
_cod_original_sg_symbol_H-M      'P 21'
_cod_database_code               4129573
_shelx_shelxl_version_number     2014/7
_shelx_space_group_comment
;
The symmetry employed for this shelxl refinement is uniquely defined
by the following loop, which should always be used as a source of
symmetry information in preference to the above space-group names.
They are only intended as comments.
;
_shelx_estimated_absorpt_t_min   0.410
_shelx_estimated_absorpt_t_max   0.753
_shelx_res_file
;

    su1427.res created by SHELXL-2014/7


TITL su1427 in P2(1)
CELL 0.71073   9.64240   7.25290  10.67010  90.0000 106.6008  90.0000
ZERR    2.00   0.00100   0.00070   0.00100   0.0000   0.0030   0.0000
LATT -1
SYMM -X, 0.5+Y, -Z
SFAC C H O CL BR
UNIT 18 32 4 4 4
TEMP -153.150
SIZE 0.18 0.06 0.05
REM Colorless rod

L.S. 10
BOND $H
FMAP 2
PLAN 20
CONF
ACTA

EQIV $1 x, y, z-1
HTAB O1 O2_$1
EQIV $2 -x+2, y+1/2, -z+1
HTAB O2 O1_$2

WGHT    0.061000
FVAR       0.21830
BR1   5    0.725023    0.161037    0.309126    11.00000    0.03496    0.02064 =
         0.03146    0.00107    0.01828   -0.00028
BR2   5    0.594826    0.333435    0.666638    11.00000    0.04674    0.04765 =
         0.02522   -0.00345    0.01135   -0.02694
CL1   4    0.739259    0.721221    0.138533    11.00000    0.04646    0.02015 =
         0.02068    0.00233    0.00491    0.00412
CL2   4    0.833609    0.838506    0.621880    11.00000    0.03801    0.02620 =
         0.02107    0.00221    0.00505   -0.00741
O1    3    0.888926    0.392734    0.067742    11.00000    0.03509    0.02447 =
         0.01808    0.00563    0.01381    0.00890
AFIX 147
H1O   2    0.906097    0.469920    0.015397    11.00000   -1.50000
AFIX   0
O2    3    0.909884    0.627279    0.881535    11.00000    0.03266    0.03077 =
         0.01041   -0.00097    0.00486   -0.00911
AFIX 147
H2O   2    0.966475    0.717893    0.897522    11.00000   -1.50000
AFIX   0
C1    1    0.739217    0.379359    0.047393    11.00000    0.03521    0.02972 =
         0.01447   -0.00569    0.00772   -0.00262
AFIX  23
H1A   2    0.712426    0.247723    0.048472    11.00000   -1.20000
H1B   2    0.688969    0.429413   -0.040128    11.00000   -1.20000
AFIX   0
C2    1    0.687648    0.482562    0.150029    11.00000    0.02695    0.02203 =
         0.01345    0.00066    0.00341    0.00106
C3    1    0.764646    0.424610    0.287540    11.00000    0.02203    0.01877 =
         0.01718    0.00111    0.00631   -0.00105
AFIX  13
H3    2    0.870958    0.438243    0.300121    11.00000   -1.20000
AFIX   0
C4    1    0.727644    0.528369    0.397811    11.00000    0.01994    0.02804 =
         0.01300   -0.00027    0.00256    0.00699
AFIX  23
H4A   2    0.727023    0.662441    0.380251    11.00000   -1.20000
H4B   2    0.629368    0.492717    0.400328    11.00000   -1.20000
AFIX   0
C5    1    0.834515    0.488447    0.529101    11.00000    0.01658    0.03104 =
         0.01550    0.00002    0.00652    0.00569
AFIX  23
H5A   2    0.932871    0.518367    0.523840    11.00000   -1.20000
H5B   2    0.832090    0.354612    0.546588    11.00000   -1.20000
AFIX   0
C6    1    0.808757    0.593306    0.645215    11.00000    0.01910    0.02355 =
         0.01578   -0.00040    0.00683   -0.00215
C7    1    0.923001    0.535018    0.769269    11.00000    0.02544    0.02133 =
         0.01591    0.00166    0.00367   -0.00091
AFIX  23
H7A   2    0.915080    0.400552    0.781620    11.00000   -1.20000
H7B   2    1.020100    0.559860    0.758948    11.00000   -1.20000
AFIX   0
C8    1    0.522988    0.474978    0.115715    11.00000    0.02379    0.04634 =
         0.02466   -0.00958   -0.00315    0.00579
AFIX 137
H8A   2    0.481238    0.506498    0.023270    11.00000   -1.50000
H8B   2    0.489240    0.563231    0.170111    11.00000   -1.50000
H8C   2    0.492673    0.350331    0.131713    11.00000   -1.50000
AFIX   0
C9    1    0.657644    0.585930    0.656514    11.00000    0.02867    0.03757 =
         0.01155   -0.00227    0.00701   -0.00165
AFIX  23
H9A   2    0.591232    0.647223    0.579661    11.00000   -1.20000
H9B   2    0.653235    0.653821    0.735777    11.00000   -1.20000

AFIX   0
HKLF 4

REM  su1427 in P2(1)
REM R1 =  0.0356 for    3273 Fo > 4sig(Fo)  and  0.0398 for all    3545 data
REM    139 parameters refined using      1 restraints

END

WGHT      0.0610      0.0000

REM Highest difference peak  1.564,  deepest hole -0.993,  1-sigma level  0.115
Q1    1   0.7864  0.7303  0.2461  11.00000  0.05    1.56
Q2    1   0.6760  0.2805  0.6805  11.00000  0.05    1.39
Q3    1   0.7423  0.9017  0.6232  11.00000  0.05    1.39
Q4    1   0.6544  0.1472  0.2027  11.00000  0.05    1.25
Q5    1   0.8150  0.1712  0.3276  11.00000  0.05    0.52
Q6    1   0.8595  0.2448  0.5750  11.00000  0.05    0.50
Q7    1   0.6551  0.0705  0.6757  11.00000  0.05    0.46
Q8    1   0.7566  0.4125  0.6318  11.00000  0.05    0.44
Q9    1   0.9010  0.7750  0.7765  11.00000  0.05    0.43
Q10   1   0.5158  0.7684  0.7281  11.00000  0.05    0.40
Q11   1   0.7839  0.4826  0.4523  11.00000  0.05    0.38
Q12   1   0.5838  0.4999  0.1220  11.00000  0.05    0.38
Q13   1   0.7965  0.4282  0.3094  11.00000  0.05    0.37
Q14   1   0.9036  0.7541  0.8803  11.00000  0.05    0.37
Q15   1   0.7896  0.9189  0.2519  11.00000  0.05    0.37
Q16   1   0.7892  0.5814  0.2517  11.00000  0.05    0.37
Q17   1   0.6992  0.4014 -0.0003  11.00000  0.05    0.36
Q18   1   0.8004  0.4159  0.0456  11.00000  0.05    0.36
Q19   1   0.8694  0.6191  0.8641  11.00000  0.05    0.35
Q20   1   0.7355  0.4649  0.2280  11.00000  0.05    0.34
;
_shelx_res_checksum              36119
_shelx_hkl_file
;
   0   1   0    0.06    0.11
   0   1   0    0.23    0.09
   0   1   0    0.09    0.07
   0   1   0    0.27    0.15
   0   1   0    0.03    0.12
   0  -1   0    0.09    0.07
   0  -1   0   -0.11    0.11
   0  -1   0    0.09    0.13
   0  -1   0    0.26    0.09
   0   2   0   60.09    3.18
   0   2   0   60.28    3.08
   0   2   0   60.37    3.16
   0   2   0   60.67    3.05
   0  -2   0   50.32    3.17
   0  -2   0   49.60    3.14
   0  -2   0   50.59    3.05
   0   3   0   -0.26    0.32
   0   3   0   -0.08    0.31
   0   3   0   -0.25    0.26
   0   3   0   -0.16    0.17
   0   3   0   -0.25    0.11
   0  -3   0   -0.19    0.12
   0  -3   0   -0.46    0.25
   0   4   0  115.69    6.46
   0   4   0  113.31    6.26
   0   4   0  112.53    6.42
   0  -4   0  116.49    6.43
   0   5   0    0.50    0.27
   0   5   0   -0.07    0.45
   0   5   0   -0.36    0.41
   0  -5   0   -0.15    0.39
   0   6   0  140.22    7.62
   0   6   0  144.90    7.92
   0   6   0  141.26    7.96
   0  -6   0  128.73    7.87
   0   7   0    0.56    0.71
   0   7   0   -0.07    0.70
   0   8   0    2.48    1.00
   0   8   0    4.02    1.15
   0   9   0    0.29    0.96
   0   9   0   -0.96    1.07
   1   9   0   39.93    3.31
   1   9   0   43.10    3.27
   1   8   0    3.63    1.14
   1   8   0    2.21    1.04
  -1  -7   0   72.55    4.23
   1   7   0   61.57    4.16
   1   7   0   64.58    4.21
  -1  -6   0   19.17    1.58
   1   6   0   17.14    1.26
   1   6   0   19.75    1.61
   1   6   0   16.84    1.61
  -1  -5   0   95.20    5.57
  -1  -5   0  100.05    5.56
   1   5   0   94.91    5.33
   1   5   0   95.25    5.53
   1   5   0   94.02    5.54
  -1  -4   0    7.82    0.81
  -1  -4   0    8.83    0.84
  -1  -4   0    7.74    0.50
   1   4   0    4.14    0.66
   1   4   0    5.72    0.58
   1   4   0    5.48    0.74
  -1  -3   0   93.31    5.21
  -1  -3   0   93.61    5.05
  -1  -3   0   97.45    5.24
   1   3   0   91.79    5.19
   1   3   0   91.35    5.11
   1   3   0   89.65    5.23
   1   3   0   91.74    5.21
  -1  -2   0   53.39    2.88
  -1  -2   0   50.58    2.85
  -1  -2   0   51.12    2.86
  -1  -2   0   49.87    2.74
   1   2   0   48.57    2.78
   1   2   0   46.37    2.81
   1   2   0   48.45    2.87
  -1  -1   0  231.46   12.63
  -1  -1   0  241.53   12.61
  -1  -1   0  226.13   12.62
  -1   0   0   42.54    2.30
  -1   0   0   41.22    2.29
  -1   0   0   40.80    2.29
  -1   0   0   41.71    2.38
   1   0   0   41.39    2.30
   1   0   0   41.27    2.30
   1   0   0   39.31    2.37
   1   0   0   40.08    2.29
  -1   1   0  319.87   17.13
  -1   1   0  309.70   17.09
  -1   1   0  321.73   17.09
  -1   2   0   49.66    2.72
  -1   2   0   49.17    2.84
  -1   2   0   48.19    2.78
  -1   2   0   49.25    2.79
   1  -2   0   52.00    2.72
   1  -2   0   48.54    2.78
  -1   3   0   91.01    5.30
  -1   3   0   94.49    5.24
  -1   3   0   94.90    5.12
   1  -3   0   96.29    5.24
  -1   4   0    5.32    0.64
  -1   4   0    4.84    0.43
  -1   4   0    5.77    0.75
   1  -4   0    7.33    0.69
  -1   5   0   99.42    5.42
  -1   5   0   95.49    5.49
  -1   5   0   92.88    5.15
   1  -5   0   88.65    5.35
  -1   6   0   17.87    1.65
  -1   6   0   17.93    1.52
   1  -6   0   19.04    1.48
  -1   7   0   60.39    4.08
  -1   7   0   65.13    3.99
  -1   8   0    4.55    1.08
  -1   8   0    3.59    1.09
  -1   9   0   41.16    3.07
  -1   9   0   40.22    3.30
   2   9   0    7.74    1.55
   2   9   0    4.67    1.34
   2   8   0    5.90    1.28
   2   8   0    8.94    1.45
  -2  -7   0   30.19    2.45
   2   7   0   35.34    2.55
   2   7   0   32.68    2.49
  -2  -6   0    9.92    1.27
  -2  -6   0   10.12    1.23
   2   6   0   13.62    1.41
   2   6   0   12.93    1.07
   2   6   0   14.29    1.38
  -2  -5   0  109.17    6.30
  -2  -5   0  111.74    6.00
  -2  -5   0  115.51    6.33
   2   5   0  106.12    6.25
   2   5   0  106.50    6.10
   2   5   0  106.96    6.30
  -2  -4   0  109.71    6.14
  -2  -4   0  104.66    6.11
  -2  -4   0  100.58    5.90
  -2  -4   0  111.30    6.17
   2   4   0  108.82    6.13
   2   4   0  109.33    5.98
   2   4   0  110.43    6.07
  -2  -3   0   63.57    3.69
  -2  -3   0   63.56    3.69
  -2  -3   0   65.10    3.54
  -2  -3   0   62.84    3.70
   2   3   0   65.17    3.68
   2   3   0   62.99    3.62
   2   3   0   61.82    3.58
   2   3   0   62.35    3.70
  -2  -2   0  177.21   10.25
  -2  -2   0  182.92   10.28
  -2  -2   0  182.09   10.25
   2   2   0  192.77   10.20
   2   2   0  194.97   10.19
   2   2   0  194.67   10.28
   2   2   0  185.36   10.25
  -2  -1   0  327.51   17.00
  -2  -1   0  320.62   17.13
  -2  -1   0  312.18   17.11
  -2  -1   0  324.14   17.08
   2   1   0  308.42   17.07
   2   1   0  310.46   17.06
   2   1   0  307.64   17.00
   2   1   0  313.15   17.13
  -2   0   0  620.60   32.48
  -2   0   0  612.78   32.37
  -2   0   0  583.89   32.52
  -2   0   0  622.03   32.50
  -2   0   0  568.05   32.49
   2   0   0  588.19   32.37
   2   0   0  588.92   32.49
   2   0   0  626.47   32.42
  -2   1   0  317.35   16.94
  -2   1   0  314.52   16.95
  -2   1   0  305.42   16.94
  -2   1   0  317.54   17.03
  -2   2   0  206.07   10.96
  -2   2   0  203.26   11.03
  -2   2   0  206.77   10.97
   2  -2   0  191.68   10.96
  -2   3   0   61.85    3.67
  -2   3   0   62.40    3.47
  -2   3   0   63.81    3.58
   2  -3   0   65.04    3.58
  -2   4   0  112.22    6.39
  -2   4   0  113.84    6.12
  -2   4   0  114.20    6.30
   2  -4   0  110.34    6.29
  -2   5   0  109.05    6.12
  -2   5   0  108.69    6.25
  -2   5   0  103.53    5.87
   2  -5   0  111.62    6.12
  -2   6   0   14.23    1.31
  -2   6   0   14.11    1.51
  -2   7   0   34.77    2.73
  -2   7   0   36.54    2.53
  -2   8   0    7.67    1.45
  -2   8   0    8.23    1.22
  -2   9   0    4.45    1.35
  -2   9   0    4.57    1.12
   3   9   0   30.15    2.79
   3   9   0   27.91    2.65
  -3  -8   0   10.90    1.56
   3   8   0   12.16    1.67
   3   8   0    9.76    1.47
  -3  -7   0   57.46    3.90
  -3  -7   0   60.87    3.93
   3   7   0   57.26    3.82
   3   7   0   61.29    3.94
   3   7   0   58.60    3.57
  -3  -6   0    5.54    1.00
  -3  -6   0    5.01    0.96
   3   6   0    4.19    0.93
   3   6   0    4.16    0.68
   3   6   0    3.74    0.83
  -3  -5   0   15.08    1.31
  -3  -5   0   15.25    1.36
  -3  -5   0   14.51    1.34
  -3  -5   0   15.09    0.98
   3   5   0    9.63    1.18
   3   5   0   11.04    1.08
   3   5   0   10.85    1.18
  -3  -4   0    8.35    0.98
  -3  -4   0    9.66    1.07
  -3  -4   0    9.14    0.98
  -3  -4   0    9.43    0.79
   3   4   0   12.51    0.97
   3   4   0   11.29    1.08
   3   4   0   11.08    0.91
  -3  -3   0  277.10   14.71
  -3  -3   0  278.29   14.69
  -3  -3   0  282.04   14.74
   3   3   0  258.09   14.59
   3   3   0  256.90   14.57
   3   3   0  257.16   14.67
  -3  -2   0  109.55    5.97
  -3  -2   0  113.52    6.03
  -3  -2   0  111.66    6.01
   3   2   0  103.34    6.01
   3   2   0  102.86    5.84
   3   2   0  102.98    5.96
   3   2   0  104.32    5.91
  -3  -1   0  147.19    8.29
  -3  -1   0  157.05    8.23
  -3  -1   0  153.74    8.33
   3   1   0  142.11    8.31
   3   1   0  147.01    8.20
   3   1   0  151.89    8.22
  -3   0   0    2.55    0.35
  -3   0   0    2.51    0.23
  -3   0   0    1.86    0.57
  -3   0   0    1.50    0.52
  -3   0   0    2.31    0.33
   3   0   0    2.54    0.34
   3   0   0    3.14    0.57
  -3   1   0  159.13    8.65
  -3   1   0  154.39    8.65
  -3   1   0  155.41    8.81
  -3   1   0  154.98    8.79
  -3   1   0  163.32    8.67
   3  -1   0  168.22    8.82
   3  -1   0  157.79    8.63
  -3   2   0  105.38    5.68
  -3   2   0  103.43    5.75
  -3   2   0  100.87    5.70
  -3   2   0  104.05    5.86
  -3   3   0  270.19   14.83
  -3   3   0  268.32   14.81
  -3   3   0  264.20   14.92
  -3   3   0  271.92   14.75
   3  -3   0  289.89   14.83
  -3   4   0   12.87    0.78
  -3   4   0   11.65    0.96
  -3   4   0   14.13    1.15
   3  -4   0   10.81    0.93
  -3   5   0   12.37    1.07
  -3   5   0   11.10    1.17
  -3   6   0    4.84    0.77
  -3   6   0    3.74    0.94
  -3   7   0   60.56    3.99
  -3   7   0   59.41    3.76
  -3   8   0   12.90    1.47
  -3   8   0    9.77    1.49
  -3   9   0   30.95    2.61
  -3   9   0   30.94    2.89
   4   9   0    3.82    1.44
  -4  -8   0   13.78    1.81
  -4  -8   0    8.65    1.56
   4   8   0   10.83    1.60
   4   8   0   11.54    1.50
  -4  -7   0    9.10    1.38
  -4  -7   0    7.65    1.30
   4   7   0    8.54    1.35
   4   7   0    6.97    1.14
  -4  -6   0    3.95    0.97
  -4  -6   0    5.22    1.05
  -4  -6   0    3.67    0.91
   4   6   0    6.23    0.86
   4   6   0    5.36    0.90
   4   6   0    6.17    1.09
  -4  -5   0    9.19    1.16
  -4  -5   0    9.55    1.15
  -4  -5   0   10.79    1.20
  -4  -5   0   10.28    0.87
   4   5   0    8.57    0.93
   4   5   0    6.87    0.91
   4   5   0    6.01    1.04
  -4  -4   0  151.50    9.27
  -4  -4   0  155.47    9.25
  -4  -4   0  152.93    9.24
   4   4   0  176.82    9.12
   4   4   0  177.14    9.15
   4   4   0  173.17    9.28
  -4  -3   0   47.73    2.82
  -4  -3   0   40.43    2.72
  -4  -3   0   47.60    2.85
   4   3   0   43.36    2.56
   4   3   0   44.50    2.75
   4   3   0   43.57    2.66
  -4  -2   0  159.05    9.06
  -4  -2   0  161.30    9.01
  -4  -2   0  156.27    9.09
   4   2   0  168.22    8.83
   4   2   0  166.41    9.01
   4   2   0  164.81    8.97
  -4  -1   0    2.07    0.58
  -4  -1   0    1.48    0.49
  -4  -1   0    2.27    0.43
   4   1   0    5.10    0.73
   4   1   0    4.67    0.50
  -4   0   0    8.39    0.50
  -4   0   0    7.86    0.98
  -4   0   0    7.56    0.65
  -4   0   0    7.90    1.02
   4   0   0    7.90    0.65
   4   0   0    7.47    0.91
  -4   1   0    5.56    0.76
  -4   1   0    5.34    0.51
  -4   1   0    5.57    0.48
  -4   1   0    5.09    0.75
  -4   1   0    6.13    0.55
   4  -1   0    3.20    0.66
  -4   2   0  172.45    9.67
  -4   2   0  173.75    9.50
  -4   2   0  175.43    9.45
  -4   2   0  170.66    9.46
  -4   3   0   46.33    2.68
  -4   3   0   46.46    2.90
  -4   3   0   44.14    2.61
  -4   3   0   45.83    2.76
  -4   4   0  179.06    9.78
  -4   4   0  180.59    9.90
  -4   4   0  179.69   10.04
  -4   5   0    6.71    0.81
  -4   5   0    7.30    1.03
  -4   6   0    6.80    0.88
  -4   6   0    5.44    1.06
  -4   7   0    9.36    1.14
  -4   7   0    7.22    1.25
  -4   8   0   11.13    1.40
  -4   8   0   13.08    1.78
  -4   9   0    6.34    1.57
  -4   9   0    6.22    1.20
  -5  -8   0   25.97    2.52
  -5  -8   0   28.81    2.53
   5   8   0   22.46    2.51
  -5  -7   0    9.97    1.44
  -5  -7   0   12.15    1.65
   5   7   0   10.86    1.59
  -5  -6   0    0.80    0.81
  -5  -6   0    0.25    0.70
  -5  -6   0   -0.08    0.70
   5   6   0    0.21    0.66
   5   6   0    0.34    0.77
  -5  -5   0   76.82    4.69
  -5  -5   0   80.19    4.72
  -5  -5   0   82.00    4.77
  -5  -5   0   78.59    4.45
   5   5   0   74.90    4.70
   5   5   0   73.53    4.52
   5   5   0   71.65    4.44
  -5  -4   0  101.10    6.03
  -5  -4   0  100.06    5.96
  -5  -4   0  100.12    5.99
   5   4   0  102.75    5.72
   5   4   0  106.49    5.86
   5   4   0  101.88    5.94
  -5  -3   0   32.64    2.07
  -5  -3   0   32.08    1.94
  -5  -3   0   31.90    2.04
   5   3   0   24.30    1.84
   5   3   0   24.92    1.65
   5   3   0   24.58    1.89
  -5  -2   0  168.45    9.26
  -5  -2   0  173.96    9.39
  -5  -2   0  167.36    9.41
   5   2   0  158.83    9.24
   5   2   0  165.05    9.22
  -5  -1   0   24.67    2.12
  -5  -1   0   29.59    1.89
  -5  -1   0   27.58    2.12
   5   1   0   35.57    1.92
  -5   0   0    9.29    0.57
  -5   0   0    8.82    1.13
  -5   0   0    8.79    0.77
  -5   0   0    9.37    1.14
   5   0   0    9.63    0.76
  -5   1   0   36.73    2.42
  -5   1   0   33.76    2.35
  -5   1   0   36.00    2.06
  -5   1   0   34.48    2.03
  -5   1   0   35.80    1.99
   5  -1   0   29.06    1.99
  -5   2   0  156.63    8.71
  -5   2   0  159.39    8.75
  -5   2   0  158.92    9.01
  -5   2   0  157.62    8.74
  -5   2   0  162.25    8.99
  -5   3   0   24.68    1.54
  -5   3   0   25.05    1.68
  -5   3   0   24.72    1.60
  -5   4   0  108.68    6.07
  -5   4   0  108.88    6.47
  -5   4   0  109.37    6.19
  -5   4   0  112.37    6.31
  -5   5   0   78.28    4.83
  -5   5   0   75.24    4.63
  -5   6   0    0.43    0.72
  -5   6   0   -0.01    0.52
  -5   7   0   11.89    1.29
  -5   7   0   10.26    1.52
  -5   8   0   27.63    2.19
  -5   8   0   25.12    2.50
  -6  -8   0    3.74    1.33
  -6  -8   0    3.48    1.29
   6   8   0    2.05    1.28
  -6  -7   0   -0.05    0.91
  -6  -7   0    1.53    1.04
   6   7   0    0.36    0.96
  -6  -6   0    8.65    1.35
  -6  -6   0    8.69    1.45
   6   6   0   12.65    1.58
  -6  -5   0   18.32    1.78
  -6  -5   0   18.18    1.77
  -6  -5   0   16.74    1.70
   6   5   0   18.21    1.81
  -6  -4   0   17.01    1.82
  -6  -4   0   19.32    1.72
  -6  -4   0   18.83    1.82
   6   4   0   26.94    1.89
   6   4   0   24.93    1.69
  -6  -3   0   72.96    4.44
  -6  -3   0   73.52    4.49
  -6  -3   0   73.42    4.36
   6   3   0   70.24    4.33
  -6  -2   0   33.55    2.36
  -6  -2   0   30.89    2.07
  -6  -2   0   34.74    2.32
   6   2   0   27.63    2.06
  -6  -1   0    9.97    0.91
  -6  -1   0    7.88    1.18
  -6  -1   0    8.80    1.20
   6   1   0   11.62    0.97
  -6   0   0  125.61    6.92
  -6   0   0  121.89    7.25
  -6   0   0  122.54    7.28
   6   0   0  125.07    6.89
  -6   1   0   12.41    0.91
  -6   1   0   11.56    0.82
  -6   1   0   13.08    1.44
  -6   1   0   15.16    1.57
   6  -1   0    9.99    0.86
  -6   2   0   28.16    2.16
  -6   2   0   27.52    1.74
  -6   2   0   28.95    1.77
  -6   2   0   26.97    2.07
  -6   3   0   67.93    4.19
  -6   3   0   67.45    3.92
  -6   3   0   67.11    4.22
  -6   3   0   64.70    3.81
  -6   4   0   24.97    2.11
  -6   4   0   26.47    1.74
  -6   4   0   25.76    1.86
  -6   5   0   15.39    1.31
  -6   5   0   16.26    1.54
  -6   5   0   14.29    1.69
  -6   6   0   15.66    1.44
  -6   6   0   15.72    1.66
  -6   7   0   -0.19    0.65
  -6   7   0   -0.18    0.78
  -6   8   0    1.20    1.06
  -7  -8   0   -0.71    1.08
  -7  -8   0   -0.20    1.15
   7   8   0   -0.34    1.31
  -7  -7   0    9.57    1.64
  -7  -7   0    8.25    1.51
   7   7   0    6.38    1.57
  -7  -6   0   44.79    3.40
  -7  -6   0   45.68    3.40
   7   6   0   50.73    3.52
  -7  -5   0   43.75    3.14
  -7  -5   0   43.63    3.21
  -7  -5   0   44.42    3.25
   7   5   0   45.44    3.20
  -7  -4   0   22.94    2.11
  -7  -4   0   24.11    2.11
  -7  -4   0   21.16    1.88
   7   4   0   23.92    1.99
  -7  -3   0   38.82    2.77
  -7  -3   0   37.54    2.57
  -7  -3   0   35.71    2.77
   7   3   0   39.07    2.60
  -7  -2   0   19.36    1.57
  -7  -2   0   16.82    1.82
  -7  -2   0   20.55    1.97
   7   2   0   23.86    1.64
  -7  -1   0   51.01    3.50
  -7  -1   0   47.44    3.54
  -7  -1   0   49.98    3.13
   7   1   0   55.80    3.15
  -7   0   0   79.58    4.48
  -7   0   0   71.20    4.83
  -7   0   0   81.15    4.88
  -7   1   0   53.76    3.23
  -7   1   0   54.19    3.78
  -7   1   0   57.85    3.77
  -7   1   0   56.04    3.13
  -7   2   0   22.67    2.08
  -7   2   0   24.09    1.59
  -7   2   0   27.34    2.18
  -7   2   0   24.01    1.59
  -7   3   0   39.74    2.93
  -7   3   0   40.62    2.45
  -7   3   0   42.90    2.56
  -7   3   0   37.57    2.93
  -7   4   0   26.54    1.86
  -7   4   0   25.55    2.20
  -7   4   0   23.48    2.18
  -7   4   0   23.85    1.65
  -7   5   0   47.52    3.47
  -7   5   0   47.69    3.15
  -7   5   0   46.89    2.92
  -7   6   0   51.72    3.44
  -7   6   0   49.41    3.44
  -7   7   0    8.21    1.41
  -7   8   0    0.28    1.01
  -8  -7   0    4.29    1.28
  -8  -7   0    7.48    1.56
   8   7   0    6.41    1.50
  -8  -6   0    1.44    1.02
  -8  -6   0    0.32    1.03
   8   6   0    1.57    1.21
  -8  -5   0   36.45    2.74
  -8  -5   0   35.18    2.87
   8   5   0   32.99    2.77
  -8  -4   0    6.03    1.25
  -8  -4   0    5.90    1.07
  -8  -4   0    4.63    1.19
   8   4   0    5.60    1.14
  -8  -3   0    6.79    1.28
  -8  -3   0    7.18    1.06
  -8  -3   0    5.43    1.13
  -8  -2   0    9.05    1.49
  -8  -2   0    9.89    1.47
  -8  -2   0   10.41    1.16
  -8  -1   0   45.02    2.80
  -8  -1   0   43.20    3.30
  -8  -1   0   41.43    3.18
  -8   0   0    6.05    1.14
  -8   0   0    5.33    0.76
  -8   0   0    4.54    1.09
  -8   1   0   34.75    2.85
  -8   1   0   36.53    2.28
  -8   1   0   36.53    2.78
  -8   2   0   13.07    1.73
  -8   2   0   12.04    1.66
  -8   2   0   11.83    1.01
  -8   3   0    5.34    1.20
  -8   3   0    6.81    1.31
  -8   3   0    7.08    0.74
  -8   4   0    4.28    1.18
  -8   4   0    6.66    0.73
  -8   4   0    7.21    1.35
  -8   4   0    5.81    0.90
  -8   5   0   34.55    2.85
  -8   5   0   31.52    2.40
  -8   6   0    0.66    1.09
  -8   6   0    0.65    0.80
  -8   7   0    6.98    1.36
  -9  -6   0   28.74    2.63
  -9  -6   0   25.83    2.70
  -9  -5   0   -0.29    1.07
  -9  -5   0    2.02    0.94
  -9  -4   0    3.48    1.22
  -9  -4   0    2.06    0.91
  -9  -3   0    9.79    1.60
  -9  -3   0    9.06    1.23
  -9  -2   0   11.53    1.71
  -9  -2   0   13.70    1.41
  -9  -2   0   14.90    1.87
  -9  -1   0   10.34    1.10
  -9  -1   0    5.71    1.30
  -9  -1   0    8.65    1.51
  -9   0   0   66.55    4.50
  -9   0   0   67.98    4.47
  -9   0   0   66.21    4.00
  -9   1   0    9.32    1.57
  -9   1   0   12.33    1.70
  -9   1   0    8.54    0.97
  -9   2   0   17.82    1.36
  -9   2   0   18.61    2.14
  -9   2   0   16.55    2.12
  -9   3   0    6.58    1.51
  -9   3   0    7.07    0.76
  -9   4   0    0.59    1.04
  -9   5   0    2.35    1.29
  -9   6   0   31.31    3.03
 -10  -5   0    1.28    1.36
 -10  -5   0    0.10    0.92
 -10  -4   0    2.79    1.05
 -10  -4   0    5.69    1.54
 -10  -3   0   27.13    2.75
 -10  -3   0   29.43    2.35
 -10  -2   0    0.85    0.77
 -10  -2   0    0.43    1.05
 -10  -1   0    5.10    0.93
 -10  -1   0    3.29    1.21
 -10   0   0    1.32    0.65
 -10   0   0    2.39    1.14
 -10   1   0    2.62    0.64
 -10   1   0    1.82    1.10
 -10   2   0    1.79    0.58
 -10   2   0    2.60    1.19
 -10   3   0   36.23    3.23
 -10   4   0    3.86    1.47
 -10   5   0    1.56    1.35
 -11  -4   0    3.79    1.19
 -11  -4   0    5.10    1.62
 -11  -3   0    0.50    1.25
 -11  -3   0    0.37    0.88
 -11  -2   0   20.61    1.96
 -11  -2   0   19.56    2.41
 -11  -1   0    4.80    1.41
 -11  -1   0    5.30    1.03
 -11   0   0    6.86    1.03
 -11   0   0    6.03    1.50
 -11   1   0    5.44    1.50
 -11   1   0    5.30    0.86
 -11   2   0   25.90    2.83
 -11   3   0    0.72    1.33
 -11   4   0    5.72    1.72
 -12  -2   0    4.09    1.07
 -12  -2   0    3.04    1.53
 -12  -1   0    1.31    0.84
 -12  -1   0    1.58    1.35
 -12   0   0    8.70    1.20
 -12   0   0    7.34    1.69
 -12   1   0   -0.15    1.21
 -12   2   0    5.69    1.61
 -12   3   1   10.24    2.08
 -12   2   1    4.68    1.46
 -12   1   1    1.31    1.25
 -12   0   1   11.35    1.30
 -12   0   1   13.46    1.97
 -12  -1   1   -0.51    1.13
 -12  -1   1    1.82    0.79
 -12  -2   1    4.57    1.45
 -12  -2   1    2.17    0.93
 -12  -3   1    4.67    1.16
 -12  -3   1    6.27    1.68
 -11   4   1    1.35    1.30
 -11   3   1    5.98    1.60
 -11   2   1    4.91    1.52
 -11   1   1   11.89    1.19
 -11   1   1   12.57    1.82
 -11   0   1    0.80    0.62
 -11   0   1    0.67    1.00
 -11  -1   1   10.11    1.67
 -11  -1   1   11.19    1.30
 -11  -2   1    4.64    1.39
 -11  -2   1    6.90    1.12
 -11  -3   1    4.41    1.33
 -11  -3   1    2.13    0.95
 -11  -4   1    1.89    1.03
 -11  -4   1    2.38    1.35
 -10   5   1    7.09    1.69
 -10   4   1   18.32    2.35
 -10   3   1   44.86    3.60
 -10   2   1    7.26    1.58
 -10   2   1   10.47    1.06
 -10   1   1    8.89    1.51
 -10   1   1    8.57    0.93
 -10   0   1    7.60    1.40
 -10   0   1    7.46    1.43
 -10   0   1    8.73    0.99
 -10  -1   1    8.08    1.07
 -10  -1   1    8.64    1.51
 -10  -1   1    8.44    1.68
 -10  -2   1    9.75    1.22
 -10  -2   1    9.22    1.57
 -10  -3   1   41.73    3.29
 -10  -3   1   39.70    2.89
 -10  -4   1   14.74    1.97
 -10  -4   1   12.45    1.60
 -10  -5   1    5.54    1.48
 -10  -5   1    5.74    1.22
 -10  -5   1    5.39    1.26
  -9   6   1    9.67    1.77
  -9   5   1    5.92    1.43
  -9   4   1    0.71    1.01
  -9   3   1   36.24    3.01
  -9   3   1   37.31    3.05
  -9   2   1   -0.09    0.33
  -9   2   1    1.51    1.01
  -9   2   1   -0.33    0.90
  -9   1   1   10.36    0.95
  -9   1   1   11.07    1.58
  -9   1   1    7.36    1.41
  -9   0   1    0.92    0.87
  -9   0   1    0.90    0.49
  -9   0   1   -0.20    0.80
  -9  -1   1   10.13    1.53
  -9  -1   1    8.66    1.46
  -9  -1   1   10.63    1.12
  -9  -2   1    0.78    0.61
  -9  -2   1    0.98    0.92
  -9  -2   1    1.14    0.92
  -9  -3   1   35.07    2.84
  -9  -3   1   34.94    2.55
  -9  -3   1   31.66    2.71
  -9  -4   1    0.60    0.76
  -9  -4   1   -0.13    0.90
  -9  -5   1    8.55    1.26
  -9  -5   1    7.41    1.48
  -9  -5   1    7.51    1.30
  -9  -6   1    5.98    1.42
  -9  -6   1    6.04    1.36
  -8   7   1    4.66    1.18
  -8   6   1    3.00    0.95
  -8   5   1    3.97    0.88
  -8   5   1    5.72    1.28
  -8   4   1   28.30    2.56
  -8   4   1   34.47    2.62
  -8   4   1   31.30    2.19
  -8   3   1    3.57    0.63
  -8   3   1    2.64    1.00
  -8   3   1    3.17    0.43
  -8   3   1    3.14    0.98
  -8   2   1  139.14    7.77
  -8   2   1  142.78    8.37
  -8   2   1  142.57    8.43
  -8   1   1   11.32    0.93
  -8   1   1   11.43    1.49
  -8   1   1    9.68    1.44
  -8   0   1    0.87    0.42
  -8   0   1   -0.07    0.70
  -8   0   1    1.81    0.82
  -8  -1   1   10.80    1.13
  -8  -1   1   13.56    1.57
  -8  -1   1   13.12    1.65
  -8  -2   1  154.08    8.62
  -8  -2   1  150.13    8.66
  -8  -2   1  138.73    8.32
  -8  -3   1    5.05    0.90
  -8  -3   1    4.62    1.07
  -8  -3   1    6.03    1.18
   8   4  -1   31.16    2.26
  -8  -4   1   24.59    2.36
  -8  -4   1   23.24    2.10
  -8  -4   1   27.24    2.32
   8   5  -1    2.94    1.10
  -8  -5   1    6.52    1.16
  -8  -5   1    5.11    1.23
  -8  -5   1    5.51    1.01
   8   6  -1    3.69    1.26
  -8  -6   1    4.05    1.13
  -8  -6   1    4.60    1.24
   8   7  -1    4.12    1.39
  -8  -7   1    1.59    1.10
  -8  -7   1    3.37    1.26
  -7   8   1    0.67    1.03
  -7   7   1   22.07    2.17
  -7   6   1   23.30    2.04
  -7   5   1   21.85    2.11
  -7   5   1   24.17    1.89
  -7   4   1   20.73    1.94
  -7   4   1   20.64    1.65
  -7   4   1   20.31    1.32
  -7   4   1   22.33    1.97
  -7   3   1   36.96    2.86
  -7   3   1   42.29    2.36
  -7   3   1   37.48    2.85
  -7   3   1   43.02    2.58
  -7   2   1   23.41    1.52
  -7   2   1   22.09    1.41
  -7   2   1   23.81    1.96
  -7   2   1   20.82    1.94
  -7   1   1   63.04    4.05
  -7   1   1   59.21    3.44
  -7   1   1   62.01    4.00
  -7   1   1   60.99    3.49
  -7   0   1    4.26    0.96
  -7   0   1    5.39    0.65
  -7   0   1    5.67    1.02
   7   1  -1   58.62    3.36
  -7  -1   1   54.03    3.70
  -7  -1   1   53.85    3.65
  -7  -1   1   57.11    3.37
   7   2  -1   21.79    1.54
  -7  -2   1   17.40    1.43
  -7  -2   1   18.48    1.73
  -7  -2   1   15.52    1.69
   7   3  -1   40.52    2.54
  -7  -3   1   34.36    2.64
  -7  -3   1   36.13    2.47
  -7  -3   1   34.16    2.58
   7   4  -1   20.73    1.95
  -7  -4   1   23.59    1.94
  -7  -4   1   27.05    2.07
  -7  -4   1   24.87    2.08
   7   5  -1   24.33    2.22
  -7  -5   1   25.56    2.15
  -7  -5   1   25.55    2.20
  -7  -5   1   26.17    1.97
  -7  -5   1   27.16    2.28
   7   6  -1   26.14    2.42
  -7  -6   1   26.63    2.37
  -7  -6   1   26.18    2.36
   7   7  -1   18.81    2.07
  -7  -7   1   14.64    1.93
  -7  -7   1   18.27    2.06
   7   8  -1    0.35    1.26
  -7  -8   1    0.80    1.12
  -7  -8   1    1.98    1.26
  -6   8   1   11.28    1.69
  -6   7   1   30.92    2.57
  -6   6   1   47.96    2.89
  -6   6   1   44.17    3.17
  -6   5   1    6.83    0.78
  -6   5   1    7.82    1.22
  -6   5   1    7.27    1.04
  -6   4   1   12.40    1.39
  -6   4   1   11.41    1.14
  -6   4   1   12.47    0.94
  -6   3   1   21.37    1.57
  -6   3   1   22.21    1.84
  -6   3   1   21.57    1.36
  -6   3   1   25.66    1.86
  -6   2   1   17.03    1.19
  -6   2   1   17.90    1.60
  -6   2   1   17.95    1.13
  -6   2   1   19.29    1.27
  -6   2   1   18.91    1.58
  -6   1   1   21.43    1.27
  -6   1   1   20.33    1.29
  -6   1   1   17.49    1.68
  -6   1   1   19.00    1.67
  -6   1   1   19.04    1.25
   6   0  -1   98.39    5.52
  -6   0   1   96.62    5.91
  -6   0   1   95.33    5.87
  -6   0   1  100.08    5.40
  -6   0   1  103.34    5.54
   6   1  -1   18.98    1.44
  -6  -1   1   22.81    1.82
  -6  -1   1   22.94    1.79
  -6  -1   1   24.07    1.52
   6   2  -1   20.50    1.65
  -6  -2   1   25.93    1.67
  -6  -2   1   23.57    1.84
  -6  -2   1   24.42    1.82
   6   3  -1   20.46    1.78
  -6  -3   1   25.47    1.81
  -6  -3   1   26.67    1.90
  -6  -3   1   25.79    1.92
   6   4  -1   12.33    1.29
  -6  -4   1    7.70    1.11
  -6  -4   1   10.48    1.27
  -6  -4   1   11.74    1.24
   6   5  -1    6.20    1.12
  -6  -5   1    7.71    0.94
  -6  -5   1    6.38    1.06
  -6  -5   1    7.62    1.14
  -6  -5   1    6.04    1.02
   6   6  -1   47.04    3.33
  -6  -6   1   44.60    3.25
  -6  -6   1   47.23    3.29
  -6  -6   1   47.77    3.32
   6   7  -1   28.60    2.52
  -6  -7   1   27.78    2.57
  -6  -7   1   30.36    2.56
   6   8  -1    9.65    1.75
  -6  -8   1   13.07    1.86
  -6  -8   1   12.20    1.73
  -5   8   1    6.42    1.37
  -5   8   1    4.97    0.97
  -5   7   1   25.47    2.22
  -5   7   1   23.73    1.86
  -5   6   1   10.75    1.38
  -5   6   1   11.78    1.12
  -5   5   1   92.21    5.16
  -5   5   1   89.60    5.39
  -5   4   1    7.74    1.13
  -5   4   1    8.24    0.95
  -5   4   1    8.14    0.75
  -5   4   1    8.35    0.74
  -5   3   1    3.70    0.72
  -5   3   1    3.69    0.42
  -5   3   1    2.99    0.34
  -5   3   1    2.83    0.55
  -5   2   1   34.40    2.07
  -5   2   1   33.75    2.25
  -5   2   1   33.86    1.94
  -5   2   1   33.48    1.92
  -5   2   1   31.87    2.28
   5  -1  -1  276.09   14.94
  -5   1   1  281.91   14.98
  -5   1   1  270.34   15.26
  -5   1   1  270.07   15.29
  -5   1   1  284.79   15.00
  -5   1   1  274.50   14.97
   5   0  -1  452.76   25.28
   5   0  -1  470.09   24.91
  -5   0   1  477.32   24.93
  -5   0   1  484.36   24.84
  -5   0   1  437.00   25.23
  -5   0   1  440.53   25.20
   5   1  -1  266.77   14.64
  -5  -1   1  268.79   14.87
  -5  -1   1  272.59   14.67
  -5  -1   1  267.02   14.83
   5   2  -1   32.17    1.76
   5   2  -1   32.49    1.96
  -5  -2   1   27.09    1.91
  -5  -2   1   27.83    2.00
  -5  -2   1   28.52    2.04
   5   3  -1    3.55    0.46
   5   3  -1    3.78    0.71
  -5  -3   1    3.37    0.60
  -5  -3   1    3.49    0.69
  -5  -3   1    3.99    0.75
   5   4  -1    7.98    0.82
   5   4  -1    6.66    0.94
  -5  -4   1    7.09    0.82
  -5  -4   1    5.84    0.89
  -5  -4   1    6.89    0.96
  -5  -4   1    6.03    0.92
   5   5  -1   87.82    5.09
   5   5  -1   87.61    5.30
  -5  -5   1   82.63    5.24
  -5  -5   1   93.66    5.31
  -5  -5   1   89.90    5.06
  -5  -5   1   85.30    5.30
   5   6  -1    9.87    1.39
   5   6  -1   11.73    1.23
  -5  -6   1    7.74    1.25
  -5  -6   1   10.31    1.35
  -5  -6   1   10.06    1.35
   5   7  -1   23.13    2.30
  -5  -7   1   24.25    2.27
  -5  -7   1   22.99    2.18
   5   8  -1    6.38    1.47
  -5  -8   1    2.94    1.20
  -5  -8   1    2.77    1.19
  -4   9   1    5.65    1.42
  -4   9   1    8.51    1.31
  -4   8   1    6.60    1.31
  -4   8   1    7.67    1.12
  -4   7   1   23.95    2.16
  -4   7   1   24.32    1.87
  -4   6   1   48.79    2.94
  -4   6   1   45.38    3.17
  -4   5   1   32.34    2.29
  -4   5   1   34.55    2.11
  -4   4   1   87.95    4.82
  -4   4   1   88.32    4.80
  -4   4   1   82.30    4.78
  -4   4   1   85.63    5.01
   4  -3  -1    6.01    0.58
  -4   3   1    8.02    0.57
  -4   3   1    8.32    0.81
  -4   3   1    9.12    0.64
  -4   3   1    9.52    1.01
  -4   2   1   16.00    0.96
  -4   2   1   15.46    1.24
  -4   2   1   15.08    0.93
  -4   2   1   15.62    1.10
  -4   1   1  106.48    5.74
  -4   1   1  106.19    5.95
  -4   1   1  102.27    5.68
  -4   1   1  100.76    5.91
  -4   1   1  105.43    5.70
   4   0  -1   88.39    5.11
   4   0  -1   90.68    4.89
  -4   0   1   90.73    4.90
  -4   0   1   82.35    5.17
  -4   0   1   92.79    4.90
  -4   0   1   84.96    5.15
  -4  -1   1   77.46    4.20
  -4  -1   1   72.48    4.31
  -4  -1   1   72.07    4.28
   4   2  -1   12.64    1.03
   4   2  -1   14.83    0.93
   4   2  -1   15.99    1.18
  -4  -2   1   13.96    1.15
  -4  -2   1   13.05    1.09
  -4  -2   1   12.97    1.05
   4   3  -1    8.51    0.70
   4   3  -1    7.22    0.82
  -4  -3   1    4.79    0.76
  -4  -3   1    7.08    0.83
  -4  -3   1    6.60    0.81
   4   4  -1   83.69    5.04
   4   4  -1   86.51    5.20
  -4  -4   1   92.77    5.19
  -4  -4   1   89.79    5.21
  -4  -4   1   90.48    5.04
  -4  -4   1   90.77    5.20
   4   5  -1   32.28    2.20
   4   5  -1   31.96    2.36
  -4  -5   1   33.49    2.36
  -4  -5   1   33.32    2.35
  -4  -5   1   33.89    2.09
  -4  -5   1   33.72    2.32
   4   6  -1   43.42    3.09
   4   6  -1   44.14    2.92
  -4  -6   1   46.53    3.05
  -4  -6   1   45.61    3.11
   4   7  -1   22.58    2.04
   4   7  -1   23.54    2.21
  -4  -7   1   25.06    2.21
  -4  -7   1   23.74    2.10
   4   8  -1    4.74    1.29
   4   8  -1    5.60    1.24
  -4  -8   1    8.60    1.44
  -4  -8   1    7.39    1.36
   4   9  -1    8.07    2.03
   4   9  -1    8.39    1.74
  -3   9   1   15.17    1.98
  -3   9   1   14.15    1.65
  -3   8   1    5.24    1.31
  -3   8   1    4.51    0.95
  -3   7   1    5.35    0.90
  -3   7   1    6.53    1.21
  -3   6   1   74.47    4.33
  -3   6   1   72.16    4.50
  -3   5   1   39.25    2.31
  -3   5   1   41.14    2.68
  -3   5   1   40.82    2.47
   3  -4  -1   21.72    1.42
  -3   4   1   23.15    1.38
  -3   4   1   23.44    1.45
  -3   4   1   22.19    1.60
  -3   4   1   21.71    1.40
  -3   3   1  308.26   17.03
  -3   3   1  309.12   17.03
  -3   3   1  324.77   17.20
  -3   3   1  318.66   17.05
   3  -2  -1   88.76    4.78
  -3   2   1   87.24    4.91
  -3   2   1   86.81    4.78
  -3   2   1   88.37    4.79
   3  -1  -1   74.81    3.84
  -3   1   1   68.27    3.85
  -3   1   1   70.48    3.87
  -3   1   1   69.81    4.05
   3   0  -1  994.35   52.71
   3   0  -1 1000.00   52.59
  -3   0   1  949.58   52.73
  -3   0   1  951.41   52.75
  -3   0   1  986.39   52.74
  -3   0   1  981.10   52.73
   3   1  -1   68.99    4.01
   3   1  -1   71.23    4.07
   3   1  -1   65.31    4.14
  -3  -1   1   77.52    4.16
  -3  -1   1   78.55    4.09
  -3  -1   1   76.78    4.14
   3   2  -1   89.16    4.79
   3   2  -1   88.83    4.88
   3   2  -1   84.57    4.91
  -3  -2   1   86.37    4.90
  -3  -2   1   83.94    4.87
  -3  -2   1   86.54    4.88
   3   3  -1  322.42   16.30
   3   3  -1  305.41   16.19
  -3  -3   1  282.69   16.26
  -3  -3   1  289.02   16.25
  -3  -3   1  294.17   16.17
  -3  -3   1  293.26   16.27
   3   4  -1   22.28    1.53
   3   4  -1   22.97    1.64
  -3  -4   1   22.02    1.58
  -3  -4   1   21.00    1.40
  -3  -4   1   22.15    1.61
  -3  -4   1   20.40    1.58
   3   5  -1   39.35    2.33
   3   5  -1   38.53    2.43
  -3  -5   1   32.61    2.37
  -3  -5   1   31.87    2.11
  -3  -5   1   33.35    2.36
   3   6  -1   75.89    4.42
   3   6  -1   75.74    4.52
  -3  -6   1   67.30    4.42
  -3  -6   1   70.83    4.48
   3   7  -1    6.40    1.21
   3   7  -1    6.53    1.16
  -3  -7   1    6.26    1.12
  -3  -7   1    8.17    1.25
   3   8  -1    3.23    1.08
   3   8  -1    3.32    1.19
  -3  -8   1    2.34    1.06
   3   9  -1   15.39    2.00
   3   9  -1   15.00    1.90
  -2   9   1   19.25    2.01
  -2   9   1   20.23    2.30
  -2   8   1   20.17    1.90
  -2   8   1   21.81    2.18
  -2   7   1   26.11    2.23
  -2   7   1   25.77    2.01
  -2   6   1   18.40    1.67
  -2   6   1   22.76    1.63
   2  -5  -1   41.83    2.27
  -2   5   1   33.28    2.07
  -2   5   1   33.79    2.26
   2  -4  -1   40.75    2.23
  -2   4   1   36.82    2.38
  -2   4   1   35.86    2.13
  -2   4   1   35.71    2.23
   2  -3  -1  219.88   11.66
  -2   3   1  209.92   11.66
  -2   3   1  215.86   11.79
  -2   3   1  217.39   11.67
  -2   3   1  210.30   11.64
  -2   2   1  317.34   17.76
  -2   2   1  332.72   17.66
  -2   2   1  336.78   17.69
  -2   2   1  322.29   17.66
  -2   1   1   16.80    1.10
   2   0  -1   74.83    4.08
  -2   0   1   66.35    4.08
  -2   0   1   71.39    4.12
  -2   0   1   75.94    3.98
  -2   0   1   74.57    3.98
   2   1  -1   16.43    1.20
   2   1  -1   17.46    1.14
   2   1  -1   18.12    1.18
  -2  -1   1   21.04    1.20
  -2  -1   1   21.16    1.20
  -2  -1   1   20.87    1.19
   2   2  -1  324.66   18.40
   2   2  -1  327.87   18.40
   2   2  -1  319.90   18.35
  -2  -2   1  354.69   18.41
  -2  -2   1  357.10   18.41
  -2  -2   1  344.15   18.39
  -2  -2   1  346.23   18.35
   2   3  -1  221.55   12.23
   2   3  -1  216.26   12.21
   2   3  -1  216.30   12.10
   2   3  -1  217.16   12.17
  -2  -3   1  221.89   12.10
  -2  -3   1  226.35   12.22
  -2  -3   1  222.67   12.19
  -2  -3   1  239.89   12.24
   2   4  -1   35.29    2.20
   2   4  -1   32.19    2.32
   2   4  -1   36.65    2.35
  -2  -4   1   40.14    2.20
  -2  -4   1   40.03    2.41
  -2  -4   1   40.64    2.40
   2   5  -1   32.51    2.48
   2   5  -1   34.49    2.49
  -2  -5   1   45.35    2.61
  -2  -5   1   41.31    2.54
  -2  -5   1   40.43    2.27
   2   6  -1   21.95    1.83
   2   6  -1   23.57    1.88
  -2  -6   1   22.22    1.84
   2   7  -1   24.47    2.13
   2   7  -1   24.48    2.10
  -2  -7   1   24.09    2.06
   2   8  -1   19.34    2.07
   2   8  -1   20.37    2.15
   2   9  -1   21.94    2.28
   2   9  -1   15.55    2.01
  -1   9   1    6.58    1.42
  -1   9   1    6.21    1.33
  -1   8   1   19.95    2.15
  -1   8   1   21.63    2.01
  -1   7   1    6.22    1.07
  -1   7   1    7.65    1.11
  -1   6   1    2.29    0.69
  -1   6   1    2.35    0.41
  -1   6   1    2.72    0.67
   1  -5  -1   11.02    1.12
  -1   5   1   14.98    1.19
  -1   5   1   15.08    0.97
  -1   5   1   14.93    1.29
   1  -4  -1  367.05   21.20
  -1   4   1  400.92   21.11
  -1   4   1  392.37   21.31
  -1   4   1  402.72   21.22
   1  -3  -1  515.40   28.86
  -1   3   1  539.13   28.73
  -1   3   1  540.35   28.94
  -1   3   1  528.63   28.86
  -1   3   1  549.13   28.81
   1  -2  -1  220.53   11.76
  -1   2   1  219.66   11.75
  -1   2   1  213.50   11.82
  -1   2   1  215.77   11.75
  -1   2   1  215.93   11.75
  -1   1   1   52.85    2.90
  -1   1   1   53.01    2.93
  -1   1   1   53.39    2.90
   1   0  -1   15.97    0.92
   1   0  -1   15.83    0.91
   1   0  -1   16.04    0.91
  -1   0   1   15.81    0.96
  -1   0   1   15.89    0.91
  -1   0   1   15.86    0.91
  -1   0   1   15.12    0.94
  -1   0   1   15.03    0.93
  -1   0   1   16.32    0.94
   1   1  -1   51.54    3.38
   1   1  -1   52.58    3.38
  -1  -1   1   64.59    3.38
  -1  -1   1   65.72    3.39
  -1  -1   1   67.22    3.41
  -1  -1   1   66.54    3.39
   1   2  -1  232.41   12.49
   1   2  -1  223.46   12.48
   1   2  -1  228.74   12.48
  -1  -2   1  231.38   12.48
  -1  -2   1  230.44   12.49
  -1  -2   1  230.84   12.43
   1   3  -1  533.98   27.59
   1   3  -1  531.06   27.74
   1   3  -1  533.66   27.72
   1   3  -1  519.76   27.72
  -1  -3   1  489.03   27.70
  -1  -3   1  492.99   27.60
  -1  -3   1  483.92   27.71
   1   4  -1  400.24   20.94
   1   4  -1  409.19   20.75
   1   4  -1  395.61   20.93
  -1  -4   1  365.76   20.91
  -1  -4   1  364.56   20.92
  -1  -4   1  368.89   20.75
   1   5  -1   13.68    0.88
   1   5  -1   12.73    1.13
   1   5  -1   13.70    1.21
  -1  -5   1   10.96    1.13
  -1  -5   1   10.00    0.83
   1   6  -1    3.01    0.83
   1   6  -1    2.26    0.75
  -1  -6   1    1.10    0.65
   1   7  -1    6.64    1.19
   1   7  -1    8.99    1.30
  -1  -7   1    8.80    1.17
   1   8  -1   20.11    2.00
   1   8  -1   16.23    1.87
   1   9  -1    5.16    1.42
   1   9  -1    5.07    1.33
   0   9   1   25.11    2.53
   0   9   1   25.84    2.40
   0   8   1    5.52    1.22
   0   8   1    6.91    1.22
   0   7   1   42.45    2.92
   0   7   1   43.83    3.05
   0  -6  -1   55.49    3.35
   0   6   1   53.97    3.10
   0   6   1   54.80    3.43
   0   6   1   49.49    3.32
   0   5   1   23.53    1.75
   0   5   1   24.30    1.50
   0   5   1   23.69    1.69
   0  -4  -1   73.46    4.05
   0  -4  -1   73.86    3.98
   0   4   1   65.89    3.96
   0   4   1   66.25    4.00
   0   4   1   65.16    3.85
   0  -3  -1  456.66   23.07
   0  -3  -1  470.48   23.04
   0   3   1  395.47   23.00
   0   3   1  419.03   23.07
   0   3   1  408.10   22.94
   0   3   1  401.85   23.04
   0  -2  -1    6.03    0.62
   0  -2  -1    6.69    0.59
   0   2   1    7.02    0.53
   0   2   1    7.14    0.59
   0   2   1    7.21    0.62
   0   2   1    6.95    0.64
   0  -1  -1  107.33    6.44
   0  -1  -1  105.08    6.48
   0  -1  -1  107.04    6.49
   0  -1  -1  105.25    6.49
   0   1   1  131.81    6.45
   0   1   1  126.90    6.50
   0   1   1  132.46    6.49
   0   1   1  126.61    6.49
   0   1   1  131.14    6.49
   0   0  -1   91.73    4.90
   0   0  -1   88.60    4.94
   0   0  -1   89.21    4.90
   0   0  -1   90.95    4.93
   0   0  -1   92.26    4.93
   0   0   1   86.14    4.90
   0   0   1   94.36    4.90
   0   0   1   88.55    4.91
   0   0   1   84.38    4.93
   0   0   1   93.30    4.93
   0   0   1   90.38    4.92
   0   1  -1  127.96    6.44
   0   1  -1  124.18    6.43
   0  -1   1  109.20    6.43
   0  -1   1  110.64    6.42
   0   2  -1    7.10    0.59
   0  -2   1    5.89    0.40
   0  -2   1    6.55    0.51
   0  -2   1    6.22    0.57
   0   3  -1  424.97   23.81
   0   3  -1  406.85   23.82
   0  -3   1  471.78   23.71
   0  -3   1  453.78   23.81
   0   4  -1   67.31    4.15
   0   4  -1   67.72    4.18
   0   4  -1   68.42    3.93
   0  -4   1   78.46    3.99
   0  -4   1   75.80    4.15
   0   5  -1   25.55    2.08
   0   5  -1   24.99    2.04
   0  -5   1   34.86    1.80
   0  -5   1   34.83    2.08
   0   6  -1   54.60    3.65
   0   6  -1   57.41    3.62
   0  -6   1   61.44    3.60
   0   7  -1   37.85    2.83
   0   7  -1   41.99    2.86
   0   8  -1    7.74    1.28
   0   8  -1    5.95    1.31
   0   9  -1   23.68    2.40
   0   9  -1   22.61    2.42
   1   9   1    4.81    1.31
   1   9   1    3.35    1.26
   1   8   1   30.90    2.50
   1   8   1   29.11    2.55
  -1  -7  -1   12.72    1.51
   1   7   1   10.67    1.34
   1   7   1   10.06    1.33
  -1  -6  -1    4.93    0.86
  -1  -6  -1    4.63    0.86
   1   6   1    6.67    0.97
   1   6   1    8.78    0.80
   1   6   1    8.41    1.02
  -1  -5  -1   23.46    1.80
  -1  -5  -1   24.06    1.85
   1   5   1   26.57    1.66
   1   5   1   27.60    1.85
   1   5   1   27.70    1.86
  -1  -4  -1  236.93   13.18
  -1  -4  -1  222.76   13.12
   1   4   1  245.88   13.14
   1   4   1  246.91   13.15
   1   4   1  243.47   13.03
  -1  -3  -1   40.35    2.15
  -1  -3  -1   40.05    2.16
  -1  -3  -1   42.75    2.21
   1   3   1   31.09    2.02
   1   3   1   29.49    2.08
   1   3   1   31.38    2.14
   1   3   1   30.33    2.08
  -1  -2  -1  219.80   12.26
  -1  -2  -1  217.47   12.27
  -1  -2  -1  216.27   12.24
   1   2   1  229.87   12.21
   1   2   1  227.04   12.25
   1   2   1  227.06   12.22
   1   2   1  236.81   12.29
  -1  -1  -1  234.79   12.00
  -1  -1  -1  225.56   11.98
  -1  -1  -1  225.10   11.97
   1   1   1  211.15   11.94
   1   1   1  214.29   11.97
   1   1   1  213.11   11.98
  -1   0  -1  169.03    9.50
  -1   0  -1  173.64    9.52
  -1   0  -1  176.10    9.42
  -1   0  -1  175.43    9.45
   1   0   1  176.07    9.44
   1   0   1  176.59    9.41
   1   0   1  173.01    9.43
   1   0   1  172.58    9.41
  -1   1  -1  214.83   12.31
  -1   1  -1  220.24   12.33
  -1   1  -1  218.27   12.24
  -1   1  -1  214.91   12.35
  -1   1  -1  232.38   12.36
   1  -1   1  240.27   12.34
   1  -1   1  239.45   12.25
   1  -1   1  238.62   12.32
  -1   2  -1  226.73   12.34
  -1   2  -1  235.56   12.32
   1  -2   1  221.95   12.31
   1  -2   1  221.21   12.27
  -1   3  -1   30.95    2.29
   1  -3   1   40.51    2.19
   1  -3   1   42.15    2.29
  -1   4  -1  256.43   13.21
  -1   4  -1  245.24   13.12
   1  -4   1  227.98   13.11
   1  -4   1  228.58   12.98
  -1   5  -1   28.72    1.97
  -1   5  -1   29.58    1.93
   1  -5   1   27.05    1.89
   1  -5   1   26.08    1.64
  -1   6  -1    9.71    1.15
  -1   6  -1   12.10    1.35
  -1   7  -1   11.12    1.31
  -1   7  -1   12.39    1.51
  -1   8  -1   28.39    2.59
  -1   8  -1   30.08    2.43
  -1   9  -1    3.30    1.29
  -1   9  -1    5.56    1.23
   2   9   1    3.30    1.22
   2   9   1    3.12    1.23
   2   8   1    3.52    1.09
   2   8   1    3.69    1.11
  -2  -7  -1   41.42    2.90
  -2  -7  -1   40.26    2.95
   2   7   1   40.93    2.59
   2   7   1   39.26    2.90
   2   7   1   41.11    2.89
  -2  -6  -1   10.53    1.22
  -2  -6  -1   12.65    1.33
   2   6   1    8.72    0.95
   2   6   1   10.15    1.18
   2   6   1   10.67    1.27
  -2  -5  -1  232.43   12.82
  -2  -5  -1  240.92   12.88
   2   5   1  226.36   12.66
   2   5   1  227.18   12.76
   2   5   1  229.01   12.82
  -2  -4  -1   34.65    2.35
  -2  -4  -1   34.51    2.30
  -2  -4  -1   35.93    2.32
   2   4   1   37.12    2.33
   2   4   1   35.71    2.24
   2   4   1   38.50    2.21
  -2  -3  -1   66.46    3.59
  -2  -3  -1   60.05    3.54
  -2  -3  -1   65.64    3.56
   2   3   1   56.72    3.52
   2   3   1   58.71    3.46
   2   3   1   55.59    3.43
  -2  -2  -1   26.62    1.95
  -2  -2  -1   25.68    1.92
  -2  -2  -1   27.06    1.97
   2   2   1   36.12    2.01
   2   2   1   36.10    1.98
   2   2   1   35.06    1.86
   2   2   1   35.79    1.90
  -2  -1  -1  363.57   20.88
  -2  -1  -1  355.89   20.82
   2   1   1  393.02   20.80
   2   1   1  405.30   20.83
   2   1   1  407.75   20.89
  -2   0  -1   25.27    1.76
  -2   0  -1   26.03    1.48
  -2   0  -1   24.30    1.73
  -2   0  -1   26.99    1.57
   2   0   1   24.59    1.74
   2   0   1   25.72    1.47
   2   0   1   25.76    1.55
   2   0   1   25.26    1.52
  -2   1  -1  424.76   21.34
  -2   1  -1  412.18   21.23
  -2   1  -1  406.79   21.28
   2  -1   1  363.76   21.17
   2  -1   1  375.13   21.25
   2  -1   1  379.55   21.25
   2  -1   1  391.38   21.33
  -2   2  -1   31.41    1.61
  -2   2  -1   33.76    1.78
  -2   2  -1   31.69    1.79
   2  -2   1   24.23    1.73
   2  -2   1   24.14    1.74
  -2   3  -1   59.38    3.61
  -2   3  -1   56.19    3.54
   2  -3   1   64.44    3.52
   2  -3   1   67.60    3.57
  -2   4  -1   37.52    2.28
  -2   4  -1   38.27    2.38
   2  -4   1   33.77    2.25
  -2   5  -1  244.30   13.29
  -2   5  -1  231.46   13.16
   2  -5   1  241.46   13.18
  -2   6  -1    8.35    1.02
  -2   6  -1    9.72    1.23
  -2   7  -1   38.67    2.79
  -2   7  -1   45.44    3.09
  -2   8  -1    5.04    1.27
  -2   8  -1    3.01    0.98
  -2   9  -1    3.33    1.38
  -2   9  -1    2.40    1.11
   3   9   1    5.38    1.40
   3   9   1    6.03    1.48
  -3  -8  -1   13.50    1.73
   3   8   1   11.03    1.62
   3   8   1   10.83    1.51
  -3  -7  -1    0.76    0.81
  -3  -7  -1    1.09    0.86
   3   7   1    0.49    0.80
   3   7   1    0.81    0.61
   3   7   1    0.61    0.81
  -3  -6  -1   44.15    3.13
  -3  -6  -1   44.09    3.18
   3   6   1   50.04    3.07
   3   6   1   50.54    3.21
   3   6   1   47.09    2.94
  -3  -5  -1   11.65    1.20
  -3  -5  -1   11.17    0.93
  -3  -5  -1   11.78    1.22
  -3  -5  -1   11.11    1.20
   3   5   1    7.93    1.10
   3   5   1    7.45    0.90
   3   5   1    7.90    0.96
  -3  -4  -1   33.42    2.40
  -3  -4  -1   32.06    2.36
  -3  -4  -1   33.14    2.42
   3   4   1   42.09    2.32
   3   4   1   40.92    2.44
   3   4   1   39.70    2.30
  -3  -3  -1   12.69    1.10
  -3  -3  -1   14.11    1.22
  -3  -3  -1   12.57    1.13
   3   3   1   15.00    1.10
   3   3   1   14.83    1.00
   3   3   1   14.99    1.19
  -3  -2  -1  131.52    6.97
  -3  -2  -1  129.85    6.95
  -3  -2  -1  129.02    6.90
   3   2   1  115.72    6.87
   3   2   1  118.22    6.83
   3   2   1  120.57    6.74
   3   2   1  121.44    6.96
  -3  -1  -1   19.80    1.23
  -3  -1  -1   20.70    1.39
  -3  -1  -1   20.01    1.41
   3   1   1   17.96    1.37
   3   1   1   17.65    1.21
   3   1   1   17.41    1.22
   3   1   1   16.99    1.06
  -3   0  -1  692.84   37.71
  -3   0  -1  722.24   37.43
  -3   0  -1  683.20   37.74
  -3   0  -1  704.41   37.54
   3   0   1  659.73   37.70
   3   0   1  702.56   37.52
   3   0   1  711.88   37.42
   3   0   1  687.69   37.50
  -3   1  -1   15.47    1.27
  -3   1  -1   15.75    1.03
  -3   1  -1   15.97    1.25
  -3   1  -1   15.58    1.12
   3  -1   1   18.57    1.30
   3  -1   1   16.67    1.03
   3  -1   1   17.78    1.10
  -3   2  -1  115.52    6.64
  -3   2  -1  117.45    6.66
  -3   2  -1  112.42    6.76
   3  -2   1  133.96    6.67
  -3   3  -1   15.37    1.07
  -3   3  -1   14.43    1.11
   3  -3   1   12.03    1.02
  -3   4  -1   43.73    2.51
  -3   4  -1   39.28    2.37
   3  -4   1   32.92    2.33
  -3   5  -1    9.25    0.95
  -3   5  -1    7.35    0.98
  -3   6  -1   50.24    3.21
  -3   6  -1   51.04    3.37
  -3   7  -1    0.43    0.80
  -3   7  -1    0.17    0.63
  -3   8  -1   12.42    1.72
  -3   8  -1   13.44    1.56
  -3   9  -1    4.46    1.20
  -3   9  -1    3.82    1.34
   4   9   1    5.10    1.51
  -4  -8  -1   25.33    2.43
  -4  -8  -1   22.49    2.36
   4   8   1   24.99    2.45
  -4  -7  -1   44.62    3.11
  -4  -7  -1   43.58    3.05
   4   7   1   41.01    2.89
   4   7   1   38.22    2.68
   4   7   1   36.91    3.02
  -4  -6  -1   51.08    3.43
  -4  -6  -1   47.89    3.36
  -4  -6  -1   47.98    3.42
   4   6   1   54.14    3.24
   4   6   1   50.56    3.43
   4   6   1   50.35    3.19
  -4  -5  -1   65.53    3.95
  -4  -5  -1   63.36    3.88
  -4  -5  -1   66.54    3.90
   4   5   1   56.30    3.79
   4   5   1   58.94    3.70
   4   5   1   59.52    3.66
  -4  -4  -1   25.24    1.88
  -4  -4  -1   24.23    1.75
  -4  -4  -1   25.49    1.81
   4   4   1   22.40    1.57
   4   4   1   23.63    1.80
   4   4   1   23.00    1.67
  -4  -3  -1   22.17    1.70
  -4  -3  -1   23.52    1.71
  -4  -3  -1   22.82    1.61
   4   3   1   22.42    1.54
   4   3   1   21.42    1.39
   4   3   1   21.42    1.62
  -4  -2  -1  136.85    7.67
  -4  -2  -1  135.82    7.70
  -4  -2  -1  134.16    7.59
   4   2   1  135.65    7.36
   4   2   1  133.93    7.53
   4   2   1  137.42    7.58
  -4  -1  -1   65.77    4.12
  -4  -1  -1   66.38    4.16
  -4  -1  -1   68.33    3.95
   4   1   1   70.11    3.92
   4   1   1   72.24    3.95
  -4   0  -1  286.48   16.25
  -4   0  -1  301.53   16.04
  -4   0  -1  279.51   16.27
  -4   0  -1  306.66   15.89
   4   0   1  296.53   16.02
   4   0   1  280.10   16.25
   4   0   1  305.52   15.88
   4   0   1  296.52   16.00
  -4   1  -1   73.24    4.09
  -4   1  -1   71.95    4.28
  -4   1  -1   72.39    4.32
  -4   1  -1   71.65    4.00
   4  -1   1   70.40    4.05
  -4   2  -1  140.31    7.95
  -4   2  -1  147.54    7.93
  -4   2  -1  144.04    8.10
  -4   2  -1  143.77    8.13
   4  -2   1  141.66    7.90
  -4   3  -1   21.92    1.50
  -4   3  -1   20.71    1.49
  -4   3  -1   21.13    1.64
   4  -3   1   21.17    1.44
  -4   4  -1   23.80    1.72
  -4   4  -1   23.34    1.37
  -4   4  -1   23.80    1.88
  -4   5  -1   60.19    3.85
  -4   5  -1   63.73    3.73
  -4   6  -1   55.12    3.40
  -4   6  -1   52.66    3.56
  -4   7  -1   43.48    2.91
  -4   7  -1   39.95    3.07
  -4   8  -1   26.35    2.63
  -4   8  -1   31.42    2.39
  -4   9  -1    6.72    1.29
  -4   9  -1    6.35    1.52
  -5  -8  -1   14.17    1.87
  -5  -8  -1   13.57    1.91
   5   8   1   18.17    2.08
  -5  -7  -1   21.67    2.14
  -5  -7  -1   16.58    1.87
   5   7   1   16.88    1.98
   5   7   1   14.86    1.59
  -5  -6  -1    2.21    0.94
  -5  -6  -1    2.02    1.00
  -5  -6  -1    3.38    0.95
   5   6   1    3.78    1.00
   5   6   1    3.79    0.87
  -5  -5  -1   18.54    1.67
  -5  -5  -1   18.49    1.65
  -5  -5  -1   17.60    1.65
   5   5   1   11.10    1.43
   5   5   1   16.23    1.46
  -5  -4  -1   35.90    2.64
  -5  -4  -1   38.05    2.73
  -5  -4  -1   38.01    2.76
   5   4   1   41.64    2.70
   5   4   1   40.55    2.54
   5   4   1   42.11    2.40
  -5  -3  -1    1.22    0.50
  -5  -3  -1    1.75    0.68
  -5  -3  -1    2.87    0.76
   5   3   1    3.19    0.65
   5   3   1    2.86    0.70
   5   3   1    2.93    0.38
  -5  -2  -1  135.51    7.99
  -5  -2  -1  134.43    7.85
  -5  -2  -1  134.71    8.02
   5   2   1  146.44    7.87
   5   2   1  147.82    7.82
  -5  -1  -1   12.35    1.13
  -5  -1  -1   12.61    1.33
  -5  -1  -1   13.91    1.46
   5   1   1   19.11    1.16
  -5   0  -1    2.14    0.72
  -5   0  -1    3.78    0.54
  -5   0  -1    3.03    0.81
  -5   0  -1    3.28    0.32
   5   0   1    3.05    0.50
   5   0   1    3.07    0.50
  -5   1  -1   20.31    1.65
  -5   1  -1   20.10    1.35
  -5   1  -1   20.34    1.21
  -5   1  -1   22.20    1.73
   5  -1   1   15.61    1.27
  -5   2  -1  144.46    8.21
  -5   2  -1  144.26    7.99
  -5   2  -1  148.40    7.96
  -5   2  -1  146.43    8.26
   5  -2   1  136.48    7.93
  -5   3  -1    2.44    0.53
  -5   3  -1    2.39    0.72
  -5   3  -1    3.19    0.55
  -5   4  -1   41.83    2.71
  -5   4  -1   40.22    2.93
  -5   4  -1   46.31    2.78
  -5   5  -1   13.78    1.47
  -5   5  -1   16.38    1.38
  -5   5  -1   15.27    1.62
  -5   6  -1    4.60    0.99
  -5   6  -1    2.85    1.05
  -5   7  -1   16.86    1.95
  -5   7  -1   18.48    1.73
  -5   8  -1   21.22    2.28
  -5   8  -1   19.19    1.95
  -6  -8  -1    0.27    1.08
  -6  -8  -1    1.13    1.11
   6   8   1   -0.47    1.26
  -6  -7  -1   29.14    2.56
  -6  -7  -1   29.25    2.65
   6   7   1   27.98    2.30
   6   7   1   28.25    2.69
  -6  -6  -1    3.54    1.09
  -6  -6  -1    2.39    0.95
   6   6   1    5.97    1.31
   6   6   1    6.34    1.10
  -6  -5  -1   10.69    1.48
  -6  -5  -1   12.06    1.41
  -6  -5  -1   12.15    1.51
   6   5   1   12.34    1.34
   6   5   1    9.89    1.38
  -6  -4  -1    2.13    0.69
  -6  -4  -1    3.26    0.95
  -6  -4  -1    2.08    0.86
   6   4   1    2.80    0.78
   6   4   1    2.50    0.79
  -6  -3  -1  128.44    7.46
  -6  -3  -1  123.75    7.29
  -6  -3  -1  123.48    7.48
   6   3   1  132.69    7.33
   6   3   1  128.76    7.24
  -6  -2  -1   21.60    2.02
  -6  -2  -1   21.22    1.97
  -6  -2  -1   24.89    1.76
   6   2   1   25.65    1.79
   6   2   1   26.91    1.78
  -6  -1  -1   85.83    5.21
  -6  -1  -1   83.63    4.90
   6   1   1   86.88    4.90
   6   1   1   83.05    4.88
  -6   0  -1  120.45    7.30
  -6   0  -1  124.93    7.28
  -6   0  -1  126.09    6.97
   6   0   1  124.14    6.95
  -6   1  -1   83.55    4.80
  -6   1  -1   84.29    4.93
  -6   1  -1   89.88    5.39
  -6   1  -1   86.66    5.32
   6  -1   1   90.13    4.92
  -6   2  -1   27.14    2.20
  -6   2  -1   27.65    1.81
  -6   2  -1   27.90    1.76
  -6   2  -1   27.60    2.12
  -6   3  -1  134.68    7.44
  -6   3  -1  132.21    7.72
  -6   3  -1  129.70    7.41
  -6   4  -1    2.12    0.64
  -6   4  -1    2.63    0.63
  -6   4  -1    2.15    0.79
  -6   5  -1   12.66    1.42
  -6   5  -1   13.32    1.62
  -6   5  -1   13.26    1.32
  -6   6  -1    5.27    0.92
  -6   6  -1    4.11    1.01
  -6   7  -1   27.83    2.19
  -6   7  -1   25.84    2.44
  -6   8  -1    0.84    1.06
  -6   8  -1    0.53    0.82
  -7  -7  -1   14.88    1.88
  -7  -7  -1   14.42    2.00
   7   7   1   14.76    2.01
  -7  -6  -1    6.40    1.30
  -7  -6  -1    5.00    1.26
   7   6   1    4.57    1.28
  -7  -5  -1    3.63    1.01
  -7  -5  -1    5.10    1.23
   7   5   1    4.01    1.10
   7   5   1    2.49    0.86
  -7  -4  -1   20.44    2.05
  -7  -4  -1   17.59    1.74
  -7  -4  -1   21.52    1.94
   7   4   1   17.96    1.72
   7   4   1   20.12    1.78
  -7  -3  -1   29.93    2.58
  -7  -3  -1   34.05    2.38
  -7  -3  -1   30.96    2.57
   7   3   1   35.34    2.38
   7   3   1   34.99    2.43
  -7  -2  -1   11.98    1.55
  -7  -2  -1   12.39    1.67
  -7  -2  -1   12.29    1.24
   7   2   1   13.50    1.34
   7   2   1   15.01    1.35
  -7  -1  -1   18.21    1.84
  -7  -1  -1   17.91    1.90
  -7  -1  -1   19.15    1.47
  -7   0  -1   36.07    2.70
  -7   0  -1   34.95    2.72
  -7   0  -1   37.45    2.36
  -7   1  -1   11.70    1.10
  -7   1  -1   14.37    1.66
  -7   1  -1   13.11    1.66
  -7   2  -1   16.43    1.82
  -7   2  -1   14.72    1.13
  -7   2  -1   15.64    1.79
  -7   2  -1   15.16    1.22
  -7   3  -1   34.69    2.77
  -7   3  -1   35.45    2.75
  -7   3  -1   37.53    2.33
  -7   3  -1   36.06    2.33
  -7   4  -1   20.34    2.11
  -7   4  -1   19.19    1.94
  -7   4  -1   18.95    1.49
  -7   4  -1   18.71    1.57
  -7   5  -1    3.69    1.12
  -7   5  -1    4.29    0.80
  -7   5  -1    5.98    0.98
  -7   6  -1    6.69    1.18
  -7   6  -1    6.78    1.02
  -7   7  -1   13.27    1.71
  -8  -7  -1    0.41    1.03
  -8  -7  -1    0.51    1.25
   8   7   1    0.80    1.31
  -8  -6  -1    1.82    1.04
  -8  -6  -1    2.06    1.21
   8   6   1    4.98    1.45
  -8  -5  -1   10.71    1.55
  -8  -5  -1   11.39    1.72
   8   5   1   10.22    1.52
  -8  -4  -1   25.12    2.45
  -8  -4  -1   25.81    2.19
   8   4   1   26.56    2.25
  -8  -3  -1   12.47    1.69
  -8  -3  -1   11.56    1.36
  -8  -3  -1    9.75    1.58
   8   3   1   12.28    1.65
  -8  -2  -1   54.98    4.01
  -8  -2  -1   55.15    3.91
  -8  -2  -1   57.90    3.59
  -8  -1  -1    4.58    1.21
  -8  -1  -1    4.11    1.12
  -8  -1  -1    5.66    0.86
  -8   0  -1    7.91    1.35
  -8   0  -1    9.44    1.38
  -8   0  -1    7.03    0.93
  -8   1  -1    6.93    0.86
  -8   1  -1    9.67    1.53
  -8   1  -1    6.88    1.34
  -8   2  -1   69.13    4.41
  -8   2  -1   63.12    3.79
  -8   2  -1   59.25    4.36
  -8   3  -1   13.78    1.20
  -8   3  -1   15.47    1.92
  -8   3  -1   11.39    1.64
  -8   4  -1   26.88    1.89
  -8   4  -1   27.71    2.52
  -8   5  -1   14.29    1.33
  -8   5  -1   13.97    1.50
  -8   5  -1   16.00    1.97
  -8   6  -1    4.00    1.41
  -8   6  -1    3.16    0.98
  -8   7  -1    0.42    0.90
  -8   7  -1    1.41    1.26
  -9  -6  -1   10.14    1.63
  -9  -6  -1   12.99    2.07
  -9  -5  -1   22.91    2.65
  -9  -5  -1   26.71    2.43
  -9  -4  -1    6.78    1.59
  -9  -4  -1   10.07    1.40
  -9  -3  -1    6.32    1.11
  -9  -3  -1    5.66    1.46
  -9  -2  -1    5.22    1.30
  -9  -2  -1    4.58    0.94
  -9  -1  -1    4.64    0.88
  -9  -1  -1    4.06    1.23
  -9  -1  -1    4.09    1.22
  -9   0  -1   77.43    4.60
  -9   0  -1   72.37    5.03
  -9   0  -1   79.45    5.04
  -9   1  -1    4.64    1.20
  -9   1  -1    4.45    1.29
  -9   1  -1    5.37    0.83
  -9   2  -1    5.36    0.79
  -9   2  -1    5.17    1.36
  -9   3  -1    4.32    1.31
  -9   3  -1    3.21    0.67
  -9   4  -1   10.48    1.85
  -9   4  -1   10.56    1.11
  -9   5  -1   23.31    2.71
  -9   6  -1   14.70    2.25
 -10  -5  -1    3.31    1.22
 -10  -5  -1    4.95    1.67
 -10  -4  -1    5.52    1.26
 -10  -4  -1    8.63    1.85
 -10  -3  -1   -1.38    1.08
 -10  -3  -1    0.33    0.85
 -10  -2  -1    9.39    1.74
 -10  -2  -1   11.10    1.39
 -10  -1  -1    2.78    0.83
 -10  -1  -1    1.97    1.18
 -10   0  -1    7.53    1.06
 -10   0  -1    8.37    1.52
 -10   1  -1    2.13    1.16
 -10   1  -1    3.86    0.79
 -10   2  -1   14.35    2.09
 -10   2  -1   10.83    1.19
 -10   3  -1    0.53    0.52
 -10   3  -1    0.20    1.24
 -10   4  -1    7.65    1.79
 -10   5  -1    2.15    1.35
 -11  -4  -1    2.32    1.52
 -11  -3  -1    1.74    1.40
 -11  -3  -1    3.57    1.12
 -11  -2  -1    2.06    1.35
 -11  -2  -1    1.50    0.95
 -11  -1  -1   16.41    2.26
 -11  -1  -1   16.94    1.76
 -11   0  -1    0.78    0.72
 -11   0  -1    0.05    1.06
 -11   1  -1   13.68    2.04
 -11   1  -1   13.07    1.38
 -11   2  -1    2.89    0.77
 -11   2  -1    5.86    1.63
 -11   3  -1    2.99    1.57
 -11   4  -1    2.13    1.56
 -12  -1  -1    0.94    0.91
 -12  -1  -1   -1.39    1.21
 -12   0  -1    1.44    1.27
 -12   0  -1    0.81    0.79
 -12   1  -1   -0.20    1.21
 -12   1  -1    1.59    0.77
 -12   3   2    5.52    1.62
 -12   2   2    2.38    1.27
 -12   1   2    1.80    1.26
 -12   0   2    4.29    0.82
 -12   0   2    3.84    1.36
 -12  -1   2    3.21    1.36
 -12  -1   2    0.92    0.73
 -12  -2   2    0.11    1.13
 -12  -2   2    2.06    0.87
 -12  -3   2    2.52    1.33
 -12  -3   2    3.56    1.05
 -11   5   2   13.29    2.20
 -11   4   2    2.94    1.40
 -11   3   2    1.21    1.23
 -11   2   2   13.34    1.97
 -11   1   2   22.89    2.35
 -11   0   2    0.78    0.57
 -11   0   2    0.60    0.95
 -11  -1   2   20.39    2.21
 -11  -1   2   19.60    1.70
 -11  -2   2   14.73    1.96
 -11  -2   2   13.52    1.50
 -11  -3   2   -0.35    0.99
 -11  -3   2    0.56    0.78
 -11  -4   2    1.70    0.96
 -11  -4   2    1.08    1.03
 -11  -4   2    4.50    1.39
 -11  -5   2    8.20    1.70
 -11  -5   2   10.17    1.54
 -10   6   2   13.42    2.08
 -10   5   2   12.41    2.00
 -10   4   2    4.96    1.40
 -10   3   2    1.91    1.07
 -10   2   2    0.73    1.03
 -10   2   2    0.72    1.04
 -10   1   2   31.05    2.05
 -10   1   2   32.98    2.72
 -10   1   2   33.57    2.78
 -10   0   2   12.12    1.64
 -10   0   2   13.04    1.73
 -10   0   2   12.14    1.16
 -10  -1   2   31.03    2.21
 -10  -1   2   30.93    2.61
 -10  -1   2   32.15    2.72
 -10  -2   2    2.67    1.04
 -10  -2   2    2.92    1.08
 -10  -2   2    2.21    0.76
 -10  -3   2    1.90    0.82
 -10  -3   2    1.65    1.04
 -10  -4   2    7.70    1.29
 -10  -4   2    7.05    1.25
 -10  -4   2    8.18    1.53
 -10  -5   2   11.59    1.65
 -10  -5   2   10.44    1.67
 -10  -5   2    9.27    1.43
 -10  -6   2   12.92    1.82
 -10  -6   2   10.44    1.73
  -9   6   2   25.18    2.69
  -9   6   2   25.52    2.23
  -9   5   2   23.10    2.32
  -9   5   2   21.11    2.59
  -9   4   2   22.56    2.25
  -9   3   2    5.46    1.22
  -9   3   2    6.55    1.31
  -9   2   2    7.91    1.35
  -9   2   2    6.50    1.32
  -9   2   2    6.37    0.62
  -9   1   2   17.01    1.93
  -9   1   2   15.95    1.91
  -9   1   2   17.52    1.24
  -9   0   2   28.74    1.85
  -9   0   2   27.48    2.30
  -9   0   2   24.14    2.26
  -9  -1   2   15.15    1.34
  -9  -1   2   15.69    1.76
  -9  -1   2   17.18    1.86
  -9  -2   2    6.26    1.16
  -9  -2   2    6.54    1.22
  -9  -2   2    5.74    0.91
  -9  -3   2    4.78    1.10
  -9  -3   2    4.60    0.90
  -9  -3   2    3.85    1.06
  -9  -4   2   21.72    2.22
  -9  -4   2   23.29    2.14
  -9  -4   2   20.77    1.94
  -9  -4   2   21.05    1.99
  -9  -5   2   26.54    2.17
  -9  -5   2   27.34    2.44
  -9  -5   2   21.26    2.23
  -9  -6   2   23.08    2.29
  -9  -6   2   21.14    2.30
  -8   7   2    5.39    1.20
  -8   6   2    4.47    1.04
  -8   5   2   22.72    2.22
  -8   5   2   23.17    1.90
  -8   4   2   19.03    1.59
  -8   4   2   19.29    2.05
  -8   4   2   19.25    1.94
  -8   3   2   18.39    1.44
  -8   3   2   19.07    1.87
  -8   3   2   18.37    1.86
  -8   2   2   49.96    3.41
  -8   2   2   46.88    2.93
  -8   2   2   50.33    2.78
  -8   2   2   49.31    3.46
  -8   1   2   42.69    3.15
  -8   1   2   42.35    3.10
  -8   1   2   42.67    2.51
  -8   0   2   13.08    1.05
  -8   0   2   13.93    1.54
  -8   0   2   11.66    1.50
  -8  -1   2   48.97    3.29
  -8  -1   2   49.88    3.34
  -8  -1   2   47.11    2.97
  -8  -2   2   57.18    3.76
  -8  -2   2   58.21    3.79
  -8  -2   2   57.16    3.53
  -8  -3   2   14.34    1.56
  -8  -3   2   13.24    1.54
  -8  -3   2   15.21    1.42
   8   4  -2   20.67    2.43
  -8  -4   2   15.99    1.68
  -8  -4   2   15.52    1.73
  -8  -4   2   16.69    1.74
  -8  -4   2   17.69    1.61
   8   5  -2   21.18    1.97
  -8  -5   2   15.96    1.82
  -8  -5   2   18.79    1.71
  -8  -5   2   16.84    1.87
  -8  -5   2   16.65    1.83
   8   6  -2    3.58    1.25
  -8  -6   2    4.46    1.16
  -8  -6   2    4.75    1.24
   8   7  -2    3.33    1.43
  -8  -7   2    4.42    1.37
  -8  -7   2    4.10    1.23
  -7   8   2    2.74    1.13
  -7   7   2    4.51    1.12
  -7   6   2   25.33    2.15
  -7   5   2    4.01    0.85
  -7   5   2    3.82    1.02
  -7   4   2   41.16    2.61
  -7   4   2   35.90    2.80
  -7   4   2   39.84    2.46
  -7   3   2   35.52    2.50
  -7   3   2   32.08    2.21
  -7   3   2   34.81    2.52
  -7   2   2   56.05    3.59
  -7   2   2   55.18    3.26
  -7   2   2   54.11    3.62
  -7   2   2   54.99    3.06
  -7   1   2   11.03    0.80
  -7   1   2   10.30    0.83
  -7   1   2   10.74    1.34
  -7   1   2   11.19    1.33
  -7   0   2   20.20    1.78
  -7   0   2   20.48    1.25
  -7   0   2   20.70    1.78
  -7   0   2   20.04    1.36
   7   1  -2    9.36    0.93
  -7  -1   2   10.18    1.19
  -7  -1   2    8.21    1.14
  -7  -1   2    8.39    0.89
   7   2  -2   53.26    3.41
  -7  -2   2   55.30    3.59
  -7  -2   2   58.87    3.43
  -7  -2   2   57.85    3.57
   7   3  -2   32.82    2.15
  -7  -3   2   27.24    2.15
  -7  -3   2   28.82    2.08
  -7  -3   2   28.51    2.18
   7   4  -2   41.84    2.97
  -7  -4   2   44.86    2.97
  -7  -4   2   43.25    3.05
  -7  -4   2   45.41    2.89
  -7  -4   2   45.55    3.01
   7   5  -2    3.34    1.03
  -7  -5   2    6.65    0.96
  -7  -5   2    8.26    1.22
  -7  -5   2    6.36    1.11
  -7  -5   2    5.23    1.01
   7   6  -2   26.67    2.59
  -7  -6   2   32.69    2.59
  -7  -6   2   33.56    2.62
   7   7  -2    3.30    1.25
  -7  -7   2    4.15    1.19
  -7  -7   2    3.59    1.21
   7   8  -2    3.25    1.51
  -7  -8   2    4.02    1.36
  -7  -8   2    4.09    1.25
  -6   8   2    2.78    1.13
  -6   7   2   11.33    1.50
  -6   6   2    3.91    1.07
  -6   6   2    4.21    1.01
  -6   5   2   33.69    2.60
  -6   5   2   34.62    2.10
  -6   5   2   36.25    2.49
  -6   4   2    6.91    0.76
  -6   4   2    7.73    1.13
  -6   4   2    6.58    0.90
  -6   3   2  334.51   18.96
  -6   3   2  352.19   18.80
  -6   2   2   18.74    1.31
  -6   2   2   19.10    1.09
  -6   2   2   18.70    1.53
  -6   2   2   18.37    1.58
   6  -1  -2   56.04    2.84
  -6   1   2   51.93    3.26
  -6   1   2   48.87    2.94
  -6   1   2   49.79    2.88
  -6   1   2   49.84    2.87
  -6   1   2   48.53    3.28
   6   0  -2    5.12    0.54
  -6   0   2    5.61    0.86
  -6   0   2    3.79    0.80
  -6   0   2    5.49    0.56
  -6   0   2    4.93    0.55
   6   1  -2   49.60    3.26
  -6  -1   2   59.58    3.32
  -6  -1   2   57.73    3.55
  -6  -1   2   60.42    3.51
   6   2  -2   17.71    1.42
   6   2  -2   17.99    1.22
  -6  -2   2   19.42    1.40
  -6  -2   2   19.28    1.50
  -6  -2   2   21.35    1.59
   6   3  -2  326.51   17.32
   6   3  -2  340.27   17.51
  -6  -3   2  314.57   17.51
  -6  -3   2  305.89   17.48
  -6  -3   2  304.03   17.52
   6   4  -2    8.42    1.11
   6   4  -2    7.45    0.80
  -6  -4   2    5.69    0.91
  -6  -4   2    6.22    0.86
  -6  -4   2    7.06    1.01
  -6  -4   2    5.47    0.93
   6   5  -2   32.61    2.28
  -6  -5   2   25.24    2.11
  -6  -5   2   26.86    2.11
  -6  -5   2   27.35    1.98
  -6  -5   2   26.37    2.10
   6   6  -2    5.19    1.23
  -6  -6   2    5.16    1.12
  -6  -6   2    5.56    1.08
  -6  -6   2    4.64    1.01
   6   7  -2   17.07    2.02
  -6  -7   2   14.74    1.79
  -6  -7   2   13.90    1.81
   6   8  -2    2.95    1.35
  -6  -8   2    3.16    1.21
  -6  -8   2    2.55    1.14
  -5   8   2   31.65    2.81
  -5   8   2   34.44    2.40
  -5   7   2    4.51    0.78
  -5   7   2    5.59    1.20
  -5   6   2   49.22    3.33
  -5   6   2   49.46    2.98
  -5   5   2    2.06    0.52
  -5   5   2    2.60    0.71
  -5   5   2    2.29    0.45
  -5   4   2   16.44    1.21
  -5   4   2   17.66    1.42
  -5   3   2   68.89    4.13
  -5   3   2   73.13    4.27
  -5   2   2  143.45    7.95
  -5   2   2  143.56    8.11
   5  -1  -2    6.07    0.74
  -5   1   2    4.70    0.40
  -5   1   2    4.69    0.75
  -5   1   2    4.21    0.70
  -5   1   2    4.87    0.40
   5   0  -2   43.75    2.49
   5   0  -2   45.36    2.74
  -5   0   2   43.76    2.81
  -5   0   2   41.20    2.76
  -5   0   2   42.83    2.49
  -5   0   2   44.66    2.51
   5   1  -2    4.59    0.57
   5   1  -2    4.65    0.79
  -5  -1   2    5.64    0.71
  -5  -1   2    6.30    0.63
  -5  -1   2    5.65    0.77
   5   2  -2  138.33    7.95
   5   2  -2  132.67    7.86
  -5  -2   2  152.69    7.99
  -5  -2   2  145.46    8.02
  -5  -2   2  147.28    8.00
   5   3  -2   71.17    4.45
   5   3  -2   66.05    4.31
  -5  -3   2   80.53    4.52
  -5  -3   2   79.65    4.44
  -5  -3   2   81.08    4.48
  -5  -3   2   81.70    4.50
   5   4  -2   14.98    1.64
  -5  -4   2   23.64    1.69
  -5  -4   2   23.24    1.70
  -5  -4   2   25.77    1.62
  -5  -4   2   22.68    1.72
   5   5  -2    2.55    0.67
   5   5  -2    3.13    0.88
  -5  -5   2    0.99    0.65
  -5  -5   2    1.73    0.55
  -5  -5   2    1.51    0.65
  -5  -5   2    1.89    0.68
   5   6  -2   45.84    3.26
   5   6  -2   48.07    3.14
  -5  -6   2   49.18    3.25
  -5  -6   2   48.07    3.30
   5   7  -2    4.65    1.07
   5   7  -2    4.67    1.20
  -5  -7   2    3.49    1.02
  -5  -7   2    3.06    1.04
   5   8  -2   29.41    2.77
  -5  -8   2   24.21    2.43
  -5  -8   2   29.50    2.63
  -4   9   2    5.30    1.41
  -4   9   2    5.79    1.13
  -4   8   2   13.08    1.35
  -4   8   2   10.60    1.57
  -4   7   2   11.99    1.23
  -4   7   2   11.29    1.49
  -4   6   2   29.72    1.95
  -4   6   2   28.86    2.26
  -4   5   2   31.96    1.95
  -4   5   2   31.13    1.96
  -4   5   2   31.53    2.25
  -4   4   2  147.31    8.23
  -4   4   2  144.91    8.22
  -4   4   2  154.60    8.31
  -4   4   2  157.01    8.50
  -4   3   2  167.28    9.20
  -4   3   2  165.88    8.97
  -4   3   2  162.49    8.96
  -4   3   2  167.09    9.09
  -4   2   2   79.70    4.60
  -4   1   2  203.20   11.38
  -4   1   2  207.81   11.14
  -4   1   2  212.74   11.15
  -4   1   2  201.45   11.36
   4   0  -2  114.29    6.26
   4   0  -2  111.41    6.09
  -4   0   2  113.10    6.10
  -4   0   2  110.56    6.32
  -4   0   2  110.84    6.09
  -4   0   2  107.76    6.30
   4   1  -2  199.06   11.08
   4   1  -2  208.28   11.10
   4   1  -2  201.29   11.22
  -4  -1   2  198.78   11.15
  -4  -1   2  206.74   11.18
  -4  -1   2  205.28   11.11
   4   2  -2   77.65    4.58
   4   2  -2   81.35    4.64
   4   2  -2   78.93    4.52
  -4  -2   2   82.55    4.61
  -4  -2   2   80.25    4.59
  -4  -2   2   80.45    4.59
  -4  -2   2   83.03    4.59
   4   3  -2  161.28    8.69
   4   3  -2  160.93    8.59
  -4  -3   2  151.20    8.65
  -4  -3   2  151.46    8.61
  -4  -3   2  153.66    8.67
  -4  -3   2  155.01    8.69
   4   4  -2  155.67    8.62
   4   4  -2  155.17    8.51
  -4  -4   2  152.19    8.60
  -4  -4   2  150.90    8.57
  -4  -4   2  152.79    8.62
  -4  -4   2  149.54    8.47
   4   5  -2   32.24    2.11
   4   5  -2   30.33    2.23
  -4  -5   2   30.81    2.15
  -4  -5   2   28.45    2.14
  -4  -5   2   29.63    2.15
  -4  -5   2   28.59    1.93
   4   6  -2   30.53    2.24
   4   6  -2   31.39    2.44
  -4  -6   2   29.96    2.36
  -4  -6   2   31.21    2.31
   4   7  -2   14.47    1.73
   4   7  -2   11.49    1.49
  -4  -7   2   16.63    1.74
  -4  -7   2   13.34    1.57
   4   8  -2    9.42    1.48
   4   8  -2   13.05    1.82
  -4  -8   2   10.51    1.63
   4   9  -2    1.74    1.21
   4   9  -2    4.11    1.45
  -3   9   2    0.01    0.85
  -3   9   2    0.73    1.14
  -3   8   2   24.31    2.37
  -3   8   2   23.55    2.00
  -3   7   2   18.82    1.90
  -3   7   2   20.49    1.67
  -3   6   2  143.16    7.83
  -3   6   2  134.46    8.02
  -3   5   2    2.46    0.44
  -3   5   2    3.42    0.75
  -3   5   2    3.17    0.43
  -3   5   2    3.51    0.55
   3  -4  -2   68.80    3.71
  -3   4   2   63.99    3.72
  -3   4   2   65.82    3.75
  -3   4   2   65.19    3.71
  -3   4   2   65.89    3.93
  -3   3   2    2.93    0.53
  -3   3   2    3.47    0.36
  -3   3   2    3.28    0.44
  -3   3   2    3.49    0.36
  -3   2   2   25.14    1.39
  -3   2   2   24.21    1.39
  -3   2   2   26.43    1.54
  -3   1   2   24.26    1.54
   3   0  -2  417.61   22.10
   3   0  -2  373.34   22.00
  -3   0   2  413.00   22.16
  -3   0   2  404.87   22.14
  -3   0   2  417.19   22.01
  -3   0   2  423.27   22.01
   3   1  -2   21.05    1.32
   3   1  -2   20.94    1.31
   3   1  -2   21.30    1.27
  -3  -1   2   20.88    1.28
  -3  -1   2   17.85    1.28
  -3  -1   2   19.90    1.29
  -3  -1   2   18.79    1.26
  -3  -2   2   11.57    0.90
  -3  -2   2   12.00    0.86
  -3  -2   2   10.34    0.86
  -3  -2   2   10.68    0.85
  -3  -3   2    8.40    0.85
  -3  -3   2    8.04    0.74
  -3  -3   2    8.35    0.85
  -3  -3   2    8.72    0.80
   3   4  -2   66.44    4.14
   3   4  -2   68.05    4.21
  -3  -4   2   73.99    4.25
  -3  -4   2   73.27    4.19
  -3  -4   2   72.12    4.08
  -3  -4   2   75.14    4.24
   3   5  -2    2.56    0.71
   3   5  -2    3.79    0.71
  -3  -5   2    4.61    0.75
  -3  -5   2    3.04    0.69
  -3  -5   2    3.92    0.57
   3   6  -2  137.78    8.12
   3   6  -2  141.68    8.21
  -3  -6   2  142.36    8.16
  -3  -6   2  146.80    8.23
   3   7  -2   18.42    1.85
   3   7  -2   20.47    2.00
  -3  -7   2   14.86    1.73
   3   8  -2   20.47    2.13
   3   8  -2   18.74    2.09
  -3  -8   2   20.60    2.07
   3   9  -2    0.18    1.16
   3   9  -2    0.32    1.14
  -2   9   2    1.91    1.22
  -2   9   2    0.96    0.90
  -2   8   2    3.37    0.95
  -2   8   2    3.21    1.09
  -2   7   2   25.31    2.32
  -2   7   2   33.05    2.20
  -2   6   2   15.22    1.57
  -2   6   2   16.74    1.20
  -2   6   2   18.56    1.42
   2  -5  -2   87.07    5.05
  -2   5   2   86.99    4.95
  -2   5   2   88.30    5.05
  -2   5   2   93.02    5.25
   2  -4  -2   17.15    1.35
  -2   4   2   22.06    1.36
  -2   4   2   21.66    1.55
  -2   4   2   22.68    1.23
  -2   4   2   21.88    1.39
   2  -3  -2   14.67    0.96
  -2   3   2   15.45    1.01
  -2   3   2   14.65    0.92
  -2   3   2   15.24    0.96
  -2   3   2   14.41    1.15
  -2   3   2   14.76    0.97
   2  -2  -2  101.61    5.73
  -2   2   2  107.11    5.74
  -2   2   2  105.43    5.77
  -2   2   2  104.50    5.74
  -2   2   2  108.76    5.81
   2  -1  -2  829.25   45.40
  -2   1   2  838.90   45.60
  -2   1   2  841.42   45.43
  -2   1   2  857.89   45.43
  -2   1   2  852.09   45.44
   2   0  -2  181.05    9.82
   2   0  -2  180.66    9.82
   2   0  -2  185.92    9.83
  -2   0   2  181.34    9.81
  -2   0   2  180.88    9.86
  -2   0   2  175.71    9.86
  -2   0   2  187.65    9.82
  -2   0   2  176.99    9.85
   2   1  -2  845.20   44.93
   2   1  -2  854.27   44.92
   2   1  -2  839.95   44.89
  -2  -1   2  800.78   44.92
  -2  -1   2  820.68   45.07
  -2  -1   2  823.28   44.92
  -2  -1   2  854.30   44.88
   2   2  -2  103.22    6.48
   2   2  -2  108.08    6.47
   2   2  -2  109.81    6.47
  -2  -2   2  121.50    6.47
  -2  -2   2  127.89    6.52
  -2  -2   2  127.08    6.48
  -2  -2   2  123.41    6.46
   2   3  -2   16.17    1.22
   2   3  -2   17.70    1.22
   2   3  -2   18.00    1.23
  -2  -3   2   15.84    1.20
  -2  -3   2   15.68    1.16
  -2  -3   2   16.45    1.12
   2   4  -2   21.85    1.37
   2   4  -2   20.88    1.38
  -2  -4   2   15.01    1.26
  -2  -4   2   13.85    1.30
  -2  -4   2   16.21    1.18
   2   5  -2   93.11    5.35
   2   5  -2   98.39    5.42
  -2  -5   2   87.10    5.31
  -2  -5   2   88.62    5.15
  -2  -5   2   92.34    5.38
   2   6  -2   17.97    1.74
   2   6  -2   15.76    1.62
  -2  -6   2   24.17    1.74
   2   7  -2   25.39    2.13
   2   7  -2   28.94    2.23
  -2  -7   2   20.79    1.99
   2   8  -2    2.94    1.11
   2   8  -2    3.45    1.14
   2   9  -2    2.03    1.23
   2   9  -2   -0.37    1.05
  -1   9   2    0.50    0.97
  -1   9   2    1.18    1.08
  -1   8   2   55.47    3.62
  -1   8   2   51.94    3.78
  -1   7   2   63.69    4.12
  -1   7   2   63.83    3.96
  -1   6   2   35.59    2.51
  -1   6   2   35.29    2.18
  -1   6   2   35.88    2.38
   1  -5  -2  114.83    6.26
  -1   5   2  105.84    6.13
  -1   5   2  109.93    6.26
  -1   5   2  111.82    6.38
   1  -4  -2   76.22    4.38
  -1   4   2   77.93    4.39
  -1   4   2   77.25    4.32
  -1   4   2   76.74    4.48
   1  -3  -2   29.83    1.65
  -1   3   2   26.20    1.49
  -1   3   2   25.64    1.72
  -1   3   2   27.49    1.65
  -1   3   2   26.07    1.63
  -1   3   2   25.74    1.73
   1  -2  -2  157.36    7.89
  -1   2   2  146.38    7.84
  -1   2   2  141.95    7.88
  -1   2   2  138.13    7.88
  -1   2   2  139.14    7.90
   1  -1  -2  263.87   15.37
  -1   1   2  285.34   15.38
  -1   1   2  292.91   15.38
  -1   1   2  284.64   15.41
  -1   1   2  296.04   15.38
   1   0  -2   44.83    2.78
   1   0  -2   48.63    2.74
  -1   0   2   48.81    2.73
  -1   0   2   50.66    2.73
  -1   0   2   50.25    2.74
   1   1  -2  286.64   15.14
   1   1  -2  293.20   15.14
   1   1  -2  283.85   15.07
  -1  -1   2  268.31   15.13
  -1  -1   2  263.05   15.12
   1   2  -2  145.85    8.61
   1   2  -2  149.83    8.59
  -1  -2   2  165.21    8.63
  -1  -2   2  167.70    8.60
   1   3  -2   25.54    1.71
   1   3  -2   26.76    1.74
   1   3  -2   26.44    1.75
  -1  -3   2   29.01    1.75
   1   4  -2   86.47    4.89
   1   4  -2   84.83    4.88
  -1  -4   2   84.04    4.73
  -1  -4   2   81.95    4.85
   1   5  -2  106.61    6.38
   1   5  -2  109.96    6.39
  -1  -5   2  115.69    6.18
  -1  -5   2  110.48    6.36
   1   6  -2   35.62    2.60
   1   6  -2   36.10    2.62
  -1  -6   2   41.26    2.61
   1   7  -2   62.80    4.05
   1   7  -2   62.89    4.09
  -1  -7   2   62.23    3.99
   1   8  -2   54.67    3.78
   1   8  -2   52.82    3.74
   1   9  -2   -1.22    1.03
   1   9  -2    0.62    1.15
   0   9   2    2.75    1.25
   0   9   2    1.77    1.11
   0   8   2   10.11    1.40
   0   8   2    9.02    1.41
   0   7   2    0.26    0.72
   0   7   2    1.01    0.70
   0  -6  -2   34.14    2.28
   0   6   2   32.12    2.35
   0   6   2   34.58    2.33
   0   6   2   31.12    2.05
   0  -5  -2   28.27    1.94
   0   5   2   28.37    1.83
   0   5   2   29.59    2.05
   0   5   2   30.29    1.98
   0  -4  -2   25.74    1.70
   0  -4  -2   24.27    1.65
   0   4   2   24.39    1.64
   0   4   2   25.42    1.71
   0   4   2   24.48    1.57
   0  -3  -2  141.18    8.68
   0  -3  -2  142.05    8.72
   0   3   2  165.57    8.70
   0   3   2  167.23    8.74
   0   3   2  169.38    8.75
   0   3   2  163.17    8.66
   0  -2  -2  114.57    6.16
   0  -2  -2  116.34    6.18
   0  -2  -2  116.08    6.15
   0   2   2  111.34    6.14
   0   2   2  107.48    6.06
   0   2   2  104.16    6.14
   0   2   2  111.39    6.17
   0  -1  -2  197.71   11.60
   0  -1  -2  208.69   11.61
   0  -1  -2  206.29   11.62
   0   1   2  220.24   11.60
   0   1   2  221.11   11.61
   0   1   2  222.70   11.62
   0   1   2  222.88   11.63
   0   0  -2  297.95   15.87
   0   0  -2  292.64   15.79
   0   0  -2  297.52   15.80
   0   0  -2  289.10   15.88
   0   0   2  292.09   15.82
   0   0   2  281.32   15.81
   0   0   2  299.00   15.81
   0   0   2  292.77   15.83
   0   0   2  286.85   15.85
   0   1  -2  219.95   11.61
   0   1  -2  226.51   11.62
   0  -1   2  210.63   11.53
   0  -1   2  204.73   11.60
   0  -1   2  206.01   11.61
   0   2  -2  106.73    6.24
   0   2  -2  106.90    6.24
   0  -2   2  121.83    6.25
   0  -2   2  114.92    6.21
   0   3  -2  163.44    8.55
   0   3  -2  167.92    8.58
   0  -3   2  150.42    8.46
   0  -3   2  145.71    8.53
   0  -3   2  146.40    8.35
   0   4  -2   23.41    1.63
   0   4  -2   22.17    1.63
   0  -4   2   25.32    1.50
   0  -4   2   21.99    1.61
   0   5  -2   28.31    2.03
   0   5  -2   29.35    2.08
   0  -5   2   29.08    2.02
   0  -5   2   30.13    1.81
   0   6  -2   32.16    2.27
   0   6  -2   29.17    2.30
   0  -6   2   32.54    2.24
   0   7  -2    0.37    0.82
   0   7  -2    0.59    0.72
   0   8  -2   10.00    1.56
   0   8  -2    9.77    1.45
   0   9  -2    1.35    1.04
   0   9  -2    1.91    1.26
   1   9   2   14.75    1.87
   1   9   2   14.35    1.88
   1   8   2   75.38    4.79
   1   8   2   73.00    4.73
   1   7   2   44.26    2.99
   1   7   2   41.97    3.00
   1   7   2   42.75    2.71
  -1  -6  -2    8.04    1.00
  -1  -6  -2    6.92    1.09
   1   6   2    9.04    1.09
   1   6   2    7.51    1.03
   1   6   2    8.88    0.86
  -1  -5  -2   23.13    1.76
  -1  -5  -2   21.61    1.69
   1   5   2   24.40    1.75
   1   5   2   23.77    1.59
   1   5   2   24.43    1.74
  -1  -4  -2   84.45    4.90
  -1  -4  -2   85.49    4.64
  -1  -4  -2   82.75    4.97
  -1  -4  -2   85.92    4.95
   1   4   2   86.33    4.90
   1   4   2   86.62    4.90
   1   4   2   84.64    4.81
  -1  -3  -2  212.33   11.59
  -1  -3  -2  214.86   11.57
  -1  -3  -2  206.95   11.53
   1   3   2  214.14   11.57
   1   3   2  209.61   11.51
   1   3   2  205.82   11.47
   1   3   2  207.67   11.53
  -1  -2  -2  459.87   24.30
  -1  -2  -2  477.31   24.34
  -1  -2  -2  452.95   24.31
   1   2   2  439.83   24.25
   1   2   2  432.55   24.30
   1   2   2  439.04   24.29
   1   2   2  441.15   24.20
  -1  -1  -2  213.49   11.52
  -1  -1  -2  209.75   11.51
  -1  -1  -2  219.03   11.53
   1   1   2  212.03   11.53
   1   1   2  203.28   11.47
   1   1   2  212.30   11.49
   1   1   2  210.31   11.52
  -1   0  -2  482.47   25.72
  -1   0  -2  478.86   25.72
  -1   0  -2  466.24   25.69
  -1   0  -2  472.60   25.73
   1   0   2  478.94   25.67
   1   0   2  484.39   25.70
   1   0   2  476.31   25.63
   1   0   2  463.01   25.74
  -1   1  -2  208.31   11.41
  -1   1  -2  199.38   11.38
  -1   1  -2  201.99   11.43
   1  -1   2  217.69   11.31
   1  -1   2  217.29   11.44
   1  -1   2  211.12   11.40
  -1   2  -2  462.15   25.21
  -1   2  -2  462.56   25.05
  -1   2  -2  446.26   25.20
   1  -2   2  479.06   25.22
   1  -2   2  464.18   25.18
   1  -2   2  480.62   25.04
  -1   3  -2  219.11   11.71
  -1   3  -2  202.02   11.66
   1  -3   2  218.97   11.69
   1  -3   2  211.13   11.61
  -1   4  -2   89.52    4.98
  -1   4  -2   88.48    5.01
   1  -4   2   85.92    4.84
   1  -4   2   81.60    4.94
  -1   5  -2   23.48    1.69
  -1   5  -2   25.15    1.77
   1  -5   2   23.05    1.50
   1  -5   2   20.67    1.65
  -1   6  -2    7.90    1.14
  -1   6  -2    9.29    1.07
   1  -6   2    6.74    0.98
  -1   7  -2   42.32    3.02
  -1   7  -2   45.90    3.18
  -1   8  -2   75.82    4.91
  -1   8  -2   77.55    5.01
  -1   9  -2   15.38    2.08
  -1   9  -2   14.69    1.89
   2   9   2    2.20    1.21
   2   9   2    1.62    1.18
   2   8   2   22.93    2.08
   2   8   2   15.11    1.89
  -2  -7  -2    1.06    0.84
  -2  -7  -2    0.93    0.74
   2   7   2    1.10    0.84
   2   7   2    0.82    0.81
   2   7   2    1.38    0.65
  -2  -6  -2    2.82    0.89
  -2  -6  -2    3.11    0.77
   2   6   2    2.82    0.76
   2   6   2    3.30    0.67
   2   6   2    3.22    0.83
  -2  -5  -2   14.41    1.35
  -2  -5  -2   16.33    1.45
  -2  -5  -2   15.24    1.30
   2   5   2   15.03    1.36
   2   5   2   13.02    1.19
   2   5   2   14.09    1.26
  -2  -4  -2  119.94    6.75
  -2  -4  -2  124.80    6.70
  -2  -4  -2  120.05    6.72
   2   4   2  112.33    6.67
   2   4   2  112.35    6.56
   2   4   2  116.28    6.61
  -2  -3  -2   46.65    3.03
  -2  -3  -2   48.17    3.06
  -2  -3  -2   48.43    3.01
   2   3   2   53.24    2.97
   2   3   2   54.40    3.05
   2   3   2   50.83    2.93
  -2  -2  -2  107.70    6.22
  -2  -2  -2  104.74    6.24
  -2  -2  -2  100.50    6.22
   2   2   2  117.60    6.23
   2   2   2  118.20    6.27
   2   2   2  118.06    6.18
  -2  -1  -2  111.24    6.61
  -2  -1  -2  116.15    6.64
  -2  -1  -2  119.38    6.60
   2   1   2  117.33    6.58
   2   1   2  124.12    6.55
   2   1   2  122.97    6.65
   2   1   2  119.72    6.54
  -2   0  -2    1.42    0.47
  -2   0  -2    1.55    0.39
  -2   0  -2    1.54    0.52
  -2   0  -2    2.22    0.36
   2   0   2    1.51    0.31
   2   0   2    2.22    0.37
   2   0   2    1.88    0.52
   2   0   2    1.31    0.34
  -2   1  -2  121.22    6.40
  -2   1  -2  118.08    6.51
  -2   1  -2  122.69    6.50
  -2   1  -2  115.28    6.48
   2  -1   2  114.80    6.46
   2  -1   2  111.25    6.33
   2  -1   2  115.01    6.51
   2  -1   2  111.97    6.43
  -2   2  -2  115.81    6.13
  -2   2  -2  117.18    6.17
  -2   2  -2  119.16    6.09
   2  -2   2  101.23    6.06
   2  -2   2   99.68    5.92
   2  -2   2  103.74    6.10
  -2   3  -2   52.86    2.97
  -2   3  -2   51.65    2.94
   2  -3   2   46.74    2.91
   2  -3   2   45.79    2.87
  -2   4  -2  119.44    6.86
  -2   4  -2  113.36    6.79
   2  -4   2  125.18    6.82
   2  -4   2  124.60    6.73
  -2   5  -2   14.70    1.34
  -2   5  -2   15.27    1.28
   2  -5   2   14.18    1.28
   2  -5   2   13.89    1.11
  -2   6  -2    2.49    0.77
  -2   6  -2    2.83    0.76
  -2   7  -2    1.70    0.79
  -2   7  -2    0.82    0.89
  -2   8  -2   19.55    2.08
  -2   8  -2   22.05    2.08
  -2   9  -2    2.61    1.21
  -2   9  -2    3.07    1.32
   3   9   2   29.26    2.64
   3   9   2   27.32    2.74
  -3  -8  -2    6.31    1.36
   3   8   2    5.04    1.26
   3   8   2    3.74    1.11
  -3  -7  -2   27.20    2.23
  -3  -7  -2   23.13    2.10
   3   7   2   25.00    2.19
   3   7   2   22.55    1.86
   3   7   2   23.40    2.06
  -3  -6  -2   21.24    1.89
  -3  -6  -2   26.00    2.03
  -3  -6  -2   23.03    2.01
   3   6   2   23.14    1.80
   3   6   2   21.65    1.91
   3   6   2   19.20    1.70
  -3  -5  -2   32.40    2.51
  -3  -5  -2   34.16    2.52
  -3  -5  -2   33.44    2.57
   3   5   2   39.93    2.43
   3   5   2   42.07    2.60
   3   5   2   40.80    2.43
  -3  -4  -2   39.31    2.65
  -3  -4  -2   39.09    2.62
  -3  -4  -2   41.36    2.60
   3   4   2   41.00    2.51
   3   4   2   40.62    2.62
   3   4   2   39.31    2.47
  -3  -3  -2  284.87   15.62
  -3  -3  -2  287.24   15.66
  -3  -3  -2  293.73   15.70
   3   3   2  284.62   15.46
   3   3   2  278.96   15.52
   3   3   2  278.01   15.60
  -3  -2  -2   45.66    3.02
  -3  -2  -2   45.61    3.04
  -3  -2  -2   47.08    2.98
   3   2   2   54.37    3.01
   3   2   2   57.50    2.96
  -3  -1  -2   74.77    4.32
  -3  -1  -2   74.84    4.29
  -3  -1  -2   78.85    4.21
   3   1   2   73.33    4.31
   3   1   2   68.16    4.15
   3   1   2   68.82    4.11
  -3   0  -2    5.12    0.55
  -3   0  -2    6.25    0.88
  -3   0  -2    5.61    0.76
  -3   0  -2    5.91    0.63
   3   0   2    5.86    0.57
   3   0   2    5.70    0.79
   3   0   2    5.68    0.61
  -3   1  -2   67.26    4.21
  -3   1  -2   71.70    4.27
  -3   1  -2   69.87    4.05
  -3   1  -2   73.06    4.17
   3  -1   2   73.41    4.14
   3  -1   2   74.94    4.03
   3  -1   2   73.29    4.13
   3  -1   2   75.59    4.30
  -3   2  -2   60.06    3.29
  -3   2  -2   60.46    3.36
  -3   2  -2   61.86    3.21
   3  -2   2   49.09    3.21
   3  -2   2   51.58    3.21
   3  -2   2   49.05    3.04
  -3   3  -2  290.73   16.20
  -3   3  -2  294.07   16.11
  -3   3  -2  294.96   16.10
   3  -3   2  296.10   16.10
   3  -3   2  295.29   16.07
  -3   4  -2   46.43    2.90
  -3   4  -2   46.37    2.87
   3  -4   2   46.43    2.87
  -3   5  -2   44.30    2.77
  -3   5  -2   40.71    2.79
  -3   6  -2   21.76    1.85
  -3   6  -2   21.55    1.79
  -3   7  -2   24.33    2.01
  -3   7  -2   20.86    2.13
  -3   8  -2    5.04    1.17
  -3   8  -2    7.07    1.47
  -3   9  -2   27.85    2.85
  -3   9  -2   31.51    2.64
  -4  -8  -2    2.45    1.16
  -4  -8  -2    0.45    1.02
   4   8   2    0.72    1.13
   4   8   2    1.05    0.86
  -4  -7  -2    0.68    0.96
  -4  -7  -2    1.59    0.96
   4   7   2    1.31    1.02
   4   7   2    1.81    0.81
   4   7   2    1.25    1.13
  -4  -6  -2   47.76    3.40
  -4  -6  -2   49.86    3.38
  -4  -6  -2   50.13    3.41
   4   6   2   50.37    3.40
   4   6   2   49.32    3.17
   4   6   2   49.42    3.15
  -4  -5  -2    6.75    1.08
  -4  -5  -2    6.48    1.02
  -4  -5  -2    5.20    1.00
   4   5   2   10.45    1.12
  -4  -4  -2   76.80    4.46
  -4  -4  -2   77.30    4.50
  -4  -4  -2   77.49    4.39
   4   4   2   66.76    4.14
   4   4   2   70.51    4.37
   4   4   2   69.59    4.26
  -4  -3  -2   15.60    1.36
  -4  -3  -2   15.95    1.36
  -4  -3  -2   16.83    1.29
   4   3   2   12.63    0.99
   4   3   2   13.75    1.20
   4   3   2   13.05    1.21
  -4  -2  -2   23.24    1.86
  -4  -2  -2   24.99    1.74
  -4  -2  -2   23.49    1.83
   4   2   2   25.71    1.48
   4   2   2   25.75    1.74
   4   2   2   26.94    1.69
  -4  -1  -2  122.13    6.77
  -4  -1  -2  122.18    6.97
  -4  -1  -2  122.91    6.93
   4   1   2  120.50    6.76
   4   1   2  114.80    6.70
  -4   0  -2  255.51   14.30
  -4   0  -2  248.04   14.25
  -4   0  -2  258.44   14.09
  -4   0  -2  261.77   13.95
   4   0   2  259.03   14.00
   4   0   2  258.44   14.06
  -4   1  -2  115.01    6.93
  -4   1  -2  116.90    6.78
  -4   1  -2  122.05    7.00
  -4   1  -2  118.69    6.66
   4  -1   2  127.86    6.76
   4  -1   2  124.43    6.67
  -4   2  -2   24.72    1.85
  -4   2  -2   27.68    1.78
  -4   2  -2   26.74    1.66
  -4   2  -2   24.86    1.88
   4  -2   2   24.37    1.69
  -4   3  -2   13.79    1.14
  -4   3  -2   12.54    1.29
  -4   3  -2   13.88    1.22
   4  -3   2   16.15    1.20
  -4   4  -2   69.72    4.31
  -4   4  -2   70.21    4.18
  -4   4  -2   69.30    4.17
  -4   5  -2   13.40    1.39
  -4   5  -2   13.21    1.52
  -4   6  -2   53.25    3.37
  -4   6  -2   50.43    3.43
  -4   7  -2    0.51    0.88
  -4   7  -2    2.12    0.86
  -4   8  -2    0.24    1.02
  -4   8  -2    1.77    0.97
  -5  -8  -2    2.74    1.29
  -5  -8  -2    2.38    1.16
   5   8   2    1.70    1.27
   5   8   2    0.21    0.93
  -5  -7  -2   19.33    2.03
  -5  -7  -2   17.63    2.06
   5   7   2   15.87    1.65
   5   7   2   16.40    1.94
  -5  -6  -2    9.47    1.46
  -5  -6  -2    9.03    1.39
   5   6   2    8.62    1.40
   5   6   2    9.76    1.24
  -5  -5  -2   53.85    3.46
  -5  -5  -2   49.09    3.50
  -5  -5  -2   49.21    3.48
   5   5   2   52.03    3.40
   5   5   2   53.81    3.30
  -5  -4  -2   39.41    2.91
  -5  -4  -2   39.19    2.83
  -5  -4  -2   40.22    2.96
   5   4   2   47.59    2.75
   5   4   2   45.36    2.89
  -5  -3  -2    8.21    1.15
  -5  -3  -2    5.49    0.98
  -5  -3  -2    6.63    0.92
   5   3   2    9.13    1.04
   5   3   2    8.19    0.68
   5   3   2    9.29    0.97
  -5  -2  -2   16.65    1.43
  -5  -2  -2   14.75    1.61
  -5  -2  -2   16.03    1.61
   5   2   2   21.22    1.50
   5   2   2   19.51    1.43
   5   2   2   19.84    1.09
  -5  -1  -2   73.31    4.57
  -5  -1  -2   72.75    4.29
  -5  -1  -2   70.81    4.48
   5   1   2   74.82    4.25
   5   1   2   74.74    4.29
  -5   0  -2   30.54    2.30
  -5   0  -2   32.08    2.34
  -5   0  -2   29.87    1.86
  -5   0  -2   33.40    2.07
   5   0   2   31.81    2.04
   5   0   2   31.88    1.99
  -5   1  -2   73.10    4.21
  -5   1  -2   68.36    4.48
  -5   1  -2   75.61    4.49
  -5   1  -2   70.22    4.05
   5  -1   2   72.76    4.10
   5  -1   2   72.90    4.17
  -5   2  -2   21.11    1.37
  -5   2  -2   20.87    1.73
  -5   2  -2   19.60    1.68
  -5   2  -2   21.03    1.49
   5  -2   2   16.70    1.39
  -5   3  -2   10.57    1.29
  -5   3  -2    9.38    0.92
  -5   3  -2   10.26    1.23
  -5   3  -2    9.23    1.02
  -5   4  -2   46.88    2.99
  -5   4  -2   48.32    3.22
  -5   4  -2   46.62    3.01
  -5   5  -2   54.43    3.62
  -5   5  -2   58.08    3.82
  -5   5  -2   58.63    3.63
  -5   6  -2   10.65    1.30
  -5   6  -2   10.30    1.34
  -5   7  -2   17.28    1.83
  -5   7  -2   20.53    2.04
  -5   8  -2    1.03    1.13
  -6  -8  -2    8.10    1.61
  -6  -8  -2    6.07    1.57
   6   8   2    6.90    1.33
   6   8   2    7.07    1.70
  -6  -7  -2    7.64    1.46
  -6  -7  -2    6.11    1.36
   6   7   2    5.50    1.40
   6   7   2    5.05    1.17
  -6  -6  -2   40.49    3.04
  -6  -6  -2   40.12    3.05
   6   6   2   38.03    2.77
   6   6   2   36.07    2.97
  -6  -5  -2   44.37    3.13
  -6  -5  -2   46.03    3.28
  -6  -5  -2   45.86    3.26
   6   5   2   42.84    3.06
   6   5   2   41.91    2.95
  -6  -4  -2   14.87    1.51
  -6  -4  -2   13.13    1.61
  -6  -4  -2   14.51    1.67
   6   4   2   13.88    1.41
   6   4   2   12.34    1.43
  -6  -3  -2   48.18    3.22
  -6  -3  -2   48.16    3.42
  -6  -3  -2   48.70    3.36
   6   3   2   53.39    3.20
   6   3   2   52.67    3.28
  -6  -2  -2   26.88    1.92
  -6  -2  -2   28.58    2.28
  -6  -2  -2   28.45    2.21
   6   2   2   24.77    1.92
   6   2   2   24.29    1.88
  -6  -1  -2   23.33    2.00
  -6  -1  -2   22.62    1.96
  -6  -1  -2   25.36    1.67
   6   1   2   20.33    1.62
   6   1   2   18.86    1.59
  -6   0  -2  107.94    6.02
  -6   0  -2  104.09    6.27
  -6   0  -2   98.86    6.28
   6   0   2  108.98    5.96
   6   0   2  103.50    5.99
  -6   1  -2   17.62    1.86
  -6   1  -2   20.48    1.33
  -6   1  -2   18.89    1.92
  -6   1  -2   20.14    1.51
   6  -1   2   24.01    1.53
  -6   2  -2   25.14    1.73
  -6   2  -2   23.86    2.04
  -6   2  -2   21.64    2.03
  -6   2  -2   23.35    1.57
  -6   3  -2   54.88    3.24
  -6   3  -2   50.47    3.53
  -6   3  -2   53.00    3.29
  -6   3  -2   53.02    3.59
  -6   4  -2   16.04    1.72
  -6   4  -2   12.72    1.26
  -6   4  -2   12.74    1.28
  -6   4  -2   10.06    1.43
  -6   5  -2   47.46    2.97
  -6   5  -2   41.32    3.19
  -6   5  -2   41.37    2.91
  -6   6  -2   40.46    2.93
  -6   6  -2   38.95    2.81
  -6   7  -2    6.38    1.27
  -6   7  -2    5.02    1.11
  -6   8  -2    7.68    1.37
  -6   8  -2    7.42    1.52
  -7  -7  -2   11.57    1.81
  -7  -7  -2   15.33    2.09
   7   7   2   19.84    2.26
   7   7   2   17.64    1.91
  -7  -6  -2    3.78    1.23
  -7  -6  -2    2.80    1.14
   7   6   2    5.23    1.19
   7   6   2    5.43    1.35
  -7  -5  -2    6.63    1.25
  -7  -5  -2    9.23    1.52
   7   5   2    6.92    1.34
   7   5   2    6.53    1.21
  -7  -4  -2    2.17    1.05
  -7  -4  -2    1.89    1.00
  -7  -4  -2    0.75    0.73
   7   4   2    4.16    0.94
   7   4   2    4.68    1.09
  -7  -3  -2   27.31    2.17
  -7  -3  -2   27.73    2.43
  -7  -3  -2   25.16    2.39
   7   3   2   30.20    2.21
   7   3   2   30.51    2.16
  -7  -2  -2   41.64    2.78
  -7  -2  -2   43.90    3.21
  -7  -2  -2   40.44    3.05
   7   2   2   42.46    2.80
   7   2   2   39.51    2.73
  -7  -1  -2   30.38    2.67
  -7  -1  -2   33.71    2.65
  -7  -1  -2   34.24    2.37
   7   1   2   36.18    2.34
   7   1   2   34.09    2.31
  -7   0  -2    4.91    1.10
  -7   0  -2    4.89    0.80
  -7   0  -2    5.60    1.11
  -7   1  -2   35.63    2.77
  -7   1  -2   34.46    2.78
  -7   1  -2   35.93    2.37
  -7   2  -2   40.67    3.02
  -7   2  -2   40.97    2.68
  -7   2  -2   42.73    3.15
  -7   3  -2   29.90    2.57
  -7   3  -2   33.46    2.21
  -7   3  -2   30.33    2.61
  -7   3  -2   31.77    2.13
  -7   4  -2    4.82    0.86
  -7   4  -2    5.04    1.12
  -7   4  -2    5.07    0.87
  -7   4  -2    5.59    1.22
  -7   5  -2    7.00    1.07
  -7   5  -2    9.44    1.55
  -7   5  -2    6.70    1.04
  -7   6  -2    7.88    1.16
  -7   6  -2    7.15    1.53
  -7   6  -2    6.79    1.23
  -7   7  -2   17.45    1.83
  -7   7  -2   19.81    2.09
  -8  -6  -2    7.70    1.67
  -8  -6  -2    5.26    1.38
   8   6   2    4.71    1.45
  -8  -5  -2    9.31    1.50
  -8  -5  -2   14.36    1.94
   8   5   2   13.81    1.67
   8   5   2   12.56    1.70
  -8  -4  -2   21.75    2.49
  -8  -4  -2   25.36    2.25
   8   4   2   26.19    2.29
   8   4   2   28.28    2.27
  -8  -3  -2    7.14    1.17
  -8  -3  -2    5.65    1.41
  -8  -3  -2    9.48    2.46
   8   3   2    8.78    1.44
   8   3   2    7.77    1.20
  -8  -2  -2   47.88    3.67
  -8  -2  -2   49.65    3.27
  -8  -2  -2   52.93    3.70
   8   2   2   47.10    3.19
  -8  -1  -2   14.83    1.90
  -8  -1  -2   14.75    1.77
  -8  -1  -2   17.86    1.52
  -8   0  -2    3.19    0.74
  -8   0  -2    2.69    0.93
  -8   0  -2    3.66    1.04
  -8   1  -2   13.54    1.29
  -8   1  -2   13.08    1.75
  -8   1  -2   12.13    1.72
  -8   2  -2   45.57    3.55
  -8   2  -2   50.67    3.74
  -8   2  -2   49.48    3.09
  -8   3  -2    8.88    1.08
  -8   3  -2    9.69    1.62
  -8   4  -2   28.33    2.63
  -8   4  -2   27.88    2.08
  -8   5  -2   13.42    2.00
  -8   5  -2   13.97    1.44
  -8   6  -2    5.68    1.55
  -8   6  -2    4.44    0.96
  -9  -6  -2    0.14    1.14
  -9  -6  -2   -0.36    1.33
  -9  -5  -2    7.80    1.44
  -9  -5  -2    7.73    1.81
  -9  -4  -2    3.34    1.44
  -9  -4  -2    3.04    1.08
  -9  -3  -2   13.37    1.60
  -9  -3  -2   13.59    2.00
  -9  -2  -2   21.12    1.89
  -9  -2  -2   20.10    2.38
  -9  -1  -2    6.93    1.10
  -9  -1  -2    6.58    1.37
  -9   0  -2    2.03    0.75
  -9   0  -2    1.99    1.09
  -9   1  -2    8.52    1.08
  -9   1  -2    8.19    1.52
  -9   2  -2   22.71    1.86
  -9   2  -2   27.81    2.81
  -9   3  -2   14.33    2.05
  -9   3  -2   14.65    1.42
  -9   4  -2    4.06    0.85
  -9   4  -2    5.83    1.51
  -9   5  -2    5.94    1.61
  -9   6  -2    1.53    1.38
 -10  -4  -2    4.14    1.65
 -10  -4  -2    6.69    1.36
 -10  -3  -2   10.75    1.54
 -10  -3  -2   10.48    1.92
 -10  -2  -2    5.70    1.55
 -10  -2  -2    6.35    1.19
 -10  -1  -2   16.85    1.72
 -10  -1  -2   14.65    2.00
 -10   0  -2   -0.59    0.94
 -10   0  -2   -0.19    0.67
 -10   1  -2   14.02    1.94
 -10   1  -2   13.19    1.45
 -10   2  -2    7.09    1.70
 -10   2  -2    6.45    0.99
 -10   3  -2   13.70    1.41
 -10   3  -2   13.33    2.15
 -10   4  -2    6.51    1.83
 -11  -3  -2    0.07    0.98
 -11  -3  -2   -0.75    1.27
 -11  -2  -2    8.10    1.71
 -11  -2  -2    5.69    1.23
 -11  -1  -2    8.91    1.77
 -11  -1  -2    6.73    1.25
 -11   0  -2    0.73    0.80
 -11   0  -2    1.10    1.28
 -11   1  -2    5.74    1.62
 -11   1  -2    7.13    1.11
 -11   2  -2   11.38    2.07
 -11   2  -2    9.85    1.26
 -11   3  -2    0.70    1.45
 -12   3   3   10.33    1.87
 -12   2   3    1.84    1.21
 -12   1   3    5.31    1.37
 -12   0   3    2.66    1.17
 -12  -1   3    1.68    0.74
 -12  -1   3    2.75    1.18
 -12  -2   3    2.98    1.23
 -12  -2   3    2.74    0.89
 -12  -3   3    8.97    1.56
 -12  -3   3    9.82    1.70
 -12  -3   3    9.95    1.41
 -11   5   3    5.72    1.61
 -11   4   3    6.95    1.62
 -11   3   3    5.13    1.49
 -11   2   3   33.69    3.02
 -11   1   3    2.58    1.11
 -11   0   3   -0.07    0.47
 -11   0   3   -1.03    0.79
 -11  -1   3    3.64    1.14
 -11  -1   3    2.43    0.73
 -11  -2   3   34.43    2.82
 -11  -2   3   33.71    2.52
 -11  -3   3    2.94    1.06
 -11  -3   3    1.91    1.09
 -11  -3   3    1.49    0.87
 -11  -4   3    7.96    1.49
 -11  -4   3    7.07    1.34
 -11  -4   3    6.92    1.32
 -11  -5   3    4.51    1.25
 -11  -5   3    4.78    1.23
 -11  -5   3    3.94    1.29
 -10   6   3    1.62    1.32
 -10   5   3    3.10    1.27
 -10   4   3    7.27    1.50
 -10   3   3   17.71    2.11
 -10   2   3    8.63    1.50
 -10   2   3    6.35    1.35
 -10   1   3   14.51    1.82
 -10   1   3   16.79    1.22
 -10   1   3   18.49    1.97
 -10   0   3    0.66    0.79
 -10   0   3    0.72    0.47
 -10   0   3    1.34    0.89
 -10  -1   3   18.54    1.94
 -10  -1   3   19.82    1.94
 -10  -1   3   19.15    1.57
 -10  -2   3    5.24    1.20
 -10  -2   3    6.48    1.21
 -10  -2   3    6.93    1.02
 -10  -3   3   17.09    1.72
 -10  -3   3   14.81    1.78
 -10  -3   3   16.93    1.86
 -10  -3   3   17.12    1.85
 -10  -4   3   11.46    1.56
 -10  -4   3   10.61    1.47
 -10  -4   3   10.26    1.43
 -10  -5   3    1.39    1.09
 -10  -5   3    2.31    1.01
 -10  -5   3    1.26    0.97
 -10  -6   3    1.59    1.13
 -10  -6   3    0.89    1.07
  -9   7   3    2.62    1.04
  -9   6   3   25.54    2.58
  -9   6   3   22.77    2.14
  -9   5   3   12.87    1.46
  -9   5   3   10.79    1.68
  -9   4   3   12.40    1.63
  -9   4   3   10.82    1.23
  -9   4   3   10.37    1.56
  -9   3   3   56.87    3.75
  -9   3   3   49.12    3.70
  -9   2   3   25.30    2.25
  -9   2   3   22.29    2.26
  -9   1   3   15.64    1.14
  -9   1   3   16.86    1.85
  -9   1   3   17.82    1.81
  -9   0   3   48.90    3.34
  -9   0   3   47.81    2.93
  -9   0   3   50.24    3.38
  -9  -1   3   15.02    1.64
  -9  -1   3   14.58    1.59
  -9  -1   3   12.96    1.22
  -9  -2   3   25.10    2.10
  -9  -2   3   23.64    1.98
  -9  -2   3   21.27    1.77
  -9  -3   3   50.45    3.45
  -9  -3   3   48.78    3.30
  -9  -3   3   49.13    3.40
  -9  -3   3   52.55    3.41
  -9  -4   3   13.79    1.52
  -9  -4   3   11.23    1.48
  -9  -4   3   11.79    1.49
  -9  -4   3   10.76    1.43
  -9  -5   3   10.07    1.39
  -9  -5   3   11.09    1.50
  -9  -5   3    8.35    1.39
  -9  -6   3   23.79    2.31
  -9  -6   3   23.60    2.35
  -8   7   3    6.95    1.34
  -8   6   3   28.06    2.30
  -8   5   3   23.01    2.36
  -8   5   3   26.31    2.05
  -8   4   3    1.79    0.82
  -8   4   3    2.06    0.68
  -8   4   3    1.31    0.83
  -8   4   3    1.97    0.61
  -8   3   3    0.87    0.72
  -8   3   3    1.90    0.79
  -8   3   3    1.25    0.55
  -8   2   3    1.36    0.73
  -8   2   3    0.58    0.68
  -8   2   3    0.09    0.41
  -8   1   3   38.78    2.23
  -8   1   3   37.82    2.82
  -8   1   3   37.59    2.30
  -8   1   3   37.29    2.78
  -8   0   3   21.10    1.43
  -8   0   3   20.25    1.78
  -8   0   3   20.53    1.82
  -8  -1   3   38.37    2.46
  -8  -1   3   39.67    2.70
  -8  -1   3   39.71    2.74
  -8  -2   3    1.88    0.61
  -8  -2   3    2.11    0.77
  -8  -2   3    2.11    0.77
  -8  -3   3    0.35    0.64
  -8  -3   3    0.62    0.65
  -8  -3   3    0.70    0.68
  -8  -3   3    0.80    0.60
  -8  -4   3    1.34    0.77
  -8  -4   3    2.06    0.78
  -8  -4   3    2.18    0.81
  -8  -4   3    0.81    0.77
   8   5  -3   22.79    2.38
  -8  -5   3   20.60    1.96
  -8  -5   3   22.11    1.93
  -8  -5   3   21.26    2.01
  -8  -5   3   23.26    2.09
   8   6  -3   25.69    2.49
  -8  -6   3   26.97    2.37
  -8  -6   3   24.99    2.37
   8   7  -3    3.49    1.43
  -8  -7   3    3.96    1.24
  -8  -7   3    6.89    1.38
  -7   8   3    0.34    0.97
  -7   7   3   12.42    1.67
  -7   6   3   41.16    2.97
  -7   5   3   26.49    2.24
  -7   5   3   24.42    2.05
  -7   4   3   33.81    2.39
  -7   4   3   36.73    2.27
  -7   4   3   32.71    2.55
  -7   3   3   12.44    1.14
  -7   3   3   12.30    1.38
  -7   3   3   11.77    1.34
  -7   2   3   19.18    1.69
  -7   2   3   21.34    1.47
  -7   2   3   21.04    1.74
  -7   1   3  183.42   10.03
  -7   1   3  184.21   10.53
  -7   1   3  186.04   10.48
  -7   0   3  117.72    6.93
  -7   0   3  121.47    6.62
  -7   0   3  117.69    6.89
  -7  -1   3  184.78   10.32
  -7  -1   3  185.29   10.36
  -7  -1   3  181.61   10.16
   7   2  -3   20.45    1.48
  -7  -2   3   18.07    1.53
  -7  -2   3   17.55    1.44
  -7  -2   3   18.33    1.57
  -7  -2   3   18.35    1.55
   7   3  -3   14.07    1.34
  -7  -3   3   13.52    1.32
  -7  -3   3   14.76    1.33
  -7  -3   3   12.95    1.35
  -7  -3   3   13.47    1.37
   7   4  -3   35.42    2.77
  -7  -4   3   41.92    2.71
  -7  -4   3   40.22    2.77
  -7  -4   3   41.09    2.78
  -7  -4   3   42.47    2.75
   7   5  -3   25.18    2.22
  -7  -5   3   25.04    2.15
  -7  -5   3   26.26    2.09
  -7  -5   3   26.69    2.13
  -7  -5   3   27.15    2.04
   7   6  -3   41.38    3.07
  -7  -6   3   40.96    3.04
  -7  -6   3   36.86    2.85
  -7  -6   3   38.10    2.88
   7   7  -3   14.70    1.92
  -7  -7   3    8.60    1.53
  -7  -7   3    8.75    1.49
   7   8  -3    1.15    1.31
  -7  -8   3    0.33    1.07
  -7  -8   3   -1.36    0.94
  -6   8   3   10.11    1.69
  -6   7   3    8.17    1.35
  -6   6   3   70.43    4.47
  -6   5   3   17.90    1.64
  -6   5   3   17.14    1.73
  -6   5   3   18.22    1.40
  -6   4   3   37.18    2.54
  -6   4   3   38.87    2.65
  -6   4   3   38.38    2.40
  -6   3   3   64.75    4.00
  -6   3   3   65.29    3.88
  -6   2   3    6.60    0.87
  -6   2   3    6.31    0.88
  -6   1   3   16.83    1.47
  -6   1   3   16.77    1.02
  -6   1   3   16.51    1.01
  -6   1   3   17.22    1.43
   6   0  -3   36.41    2.23
  -6   0   3   37.28    2.23
  -6   0   3   38.50    2.50
  -6   0   3   41.09    2.27
  -6   0   3   39.48    2.54
   6   1  -3   16.73    1.24
  -6  -1   3   18.09    1.26
  -6  -1   3   18.44    1.37
  -6  -1   3   18.21    1.42
   6   2  -3    6.77    0.70
   6   2  -3    6.47    0.75
  -6  -2   3    4.66    0.69
  -6  -2   3    5.20    0.73
  -6  -2   3    4.86    0.72
  -6  -2   3    5.76    0.78
   6   3  -3   66.89    3.99
   6   3  -3   66.95    4.09
  -6  -3   3   72.46    4.13
  -6  -3   3   67.76    4.08
  -6  -3   3   69.45    4.07
  -6  -3   3   66.68    4.09
   6   4  -3   37.50    2.30
   6   4  -3   36.92    2.47
  -6  -4   3   33.75    2.35
  -6  -4   3   34.18    2.43
  -6  -4   3   31.81    2.32
  -6  -4   3   33.92    2.36
   6   5  -3   19.09    1.83
   6   5  -3   19.17    1.58
  -6  -5   3   17.21    1.71
  -6  -5   3   18.84    1.64
  -6  -5   3   19.46    1.71
  -6  -5   3   18.15    1.55
   6   6  -3   72.12    4.82
  -6  -6   3   76.83    4.82
  -6  -6   3   77.14    4.73
   6   7  -3    9.50    1.64
  -6  -7   3    8.19    1.49
  -6  -7   3    9.97    1.42
   6   8  -3   11.57    1.88
  -6  -8   3   11.93    1.79
  -6  -8   3   11.22    1.65
  -5   8   3   10.40    1.67
  -5   7   3   22.14    1.64
  -5   7   3   20.23    2.06
  -5   6   3    3.08    0.94
  -5   6   3    2.85    0.55
  -5   5   3   54.39    3.52
  -5   5   3   53.61    3.25
  -5   5   3   53.93    3.27
  -5   5   3   56.33    3.14
  -5   4   3   39.25    2.57
  -5   4   3   39.46    2.20
  -5   4   3   38.27    2.41
  -5   3   3   19.92    1.41
  -5   3   3   21.74    1.61
  -5   3   3   21.04    1.52
  -5   2   3   51.46    3.15
  -5   1   3  226.37   12.03
  -5   1   3  223.80   12.32
  -5   1   3  218.55   12.02
  -5   1   3  222.35   12.30
   5   0  -3   15.54    1.06
   5   0  -3   18.34    1.28
  -5   0   3   17.78    1.08
  -5   0   3   16.49    1.34
  -5   0   3   16.55    1.09
  -5   0   3   17.28    1.32
   5   1  -3  229.41   12.86
   5   1  -3  229.00   13.01
  -5  -1   3  242.55   12.88
  -5  -1   3  230.65   12.96
  -5  -1   3  242.36   12.95
  -5  -1   3  239.62   12.92
   5   2  -3   50.40    3.05
   5   2  -3   51.89    3.07
   5   2  -3   50.37    3.12
  -5  -2   3   50.61    3.05
  -5  -2   3   52.41    3.08
  -5  -2   3   53.09    3.08
  -5  -2   3   50.32    3.09
   5   3  -3   21.02    1.44
   5   3  -3   21.75    1.54
  -5  -3   3   17.94    1.44
  -5  -3   3   20.23    1.46
  -5  -3   3   19.16    1.48
  -5  -3   3   18.74    1.49
   5   4  -3   39.28    2.24
   5   4  -3   37.18    2.35
  -5  -4   3   31.63    2.23
  -5  -4   3   32.40    2.21
  -5  -4   3   28.70    2.25
  -5  -4   3   30.18    2.16
   5   5  -3   56.51    3.58
   5   5  -3   54.45    3.41
  -5  -5   3   52.06    3.35
  -5  -5   3   56.66    3.46
  -5  -5   3   55.76    3.50
  -5  -5   3   53.87    3.55
   5   6  -3    2.22    0.98
   5   6  -3    2.96    0.86
  -5  -6   3    4.16    1.01
  -5  -6   3    3.44    0.87
   5   7  -3   20.09    2.06
   5   7  -3   18.29    1.86
  -5  -7   3   14.32    1.78
  -5  -7   3   14.13    1.71
   5   8  -3    9.09    1.68
   5   8  -3    7.76    1.47
  -5  -8   3    7.62    1.42
  -4   9   3    2.16    0.88
  -4   9   3    3.30    1.30
  -4   8   3   58.83    3.81
  -4   8   3   64.08    4.26
  -4   7   3    2.08    0.96
  -4   7   3    2.47    0.66
  -4   6   3   17.87    1.72
  -4   6   3   16.28    1.31
  -4   5   3    4.35    0.85
  -4   5   3    2.75    0.52
  -4   5   3    3.63    0.52
  -4   4   3  154.42    8.65
  -4   4   3  160.19    8.59
  -4   4   3  153.15    8.79
  -4   4   3  156.88    8.53
  -4   4   3  156.39    8.59
  -4   3   3   43.66    2.56
  -4   3   3   43.44    2.37
  -4   3   3   43.81    2.54
  -4   3   3   40.88    2.37
  -4   2   3  291.71   16.09
  -4   2   3  299.39   16.16
  -4   1   3   25.54    1.71
  -4   1   3   26.47    1.48
  -4   1   3   26.44    1.50
  -4   1   3   26.90    1.70
  -4   1   3   25.80    1.68
   4   0  -3   52.69    2.97
   4   0  -3   48.98    2.86
  -4   0   3   49.99    2.86
  -4   0   3   50.57    3.00
  -4   0   3   53.53    3.02
  -4   0   3   52.02    3.03
  -4   0   3   50.16    2.87
   4   1  -3   24.29    1.72
   4   1  -3   24.80    1.64
   4   1  -3   26.35    1.74
  -4  -1   3   26.84    1.66
  -4  -1   3   30.45    1.66
  -4  -1   3   25.59    1.72
  -4  -1   3   27.87    1.67
   4   2  -3  288.63   16.44
   4   2  -3  293.30   16.46
   4   2  -3  301.50   16.47
  -4  -2   3  318.36   16.49
  -4  -2   3  307.95   16.44
  -4  -2   3  302.80   16.48
  -4  -2   3  300.61   16.41
   4   3  -3   40.16    2.67
   4   3  -3   42.81    2.61
   4   3  -3   42.83    2.55
  -4  -3   3   40.33    2.49
  -4  -3   3   41.94    2.54
  -4  -3   3   42.17    2.61
  -4  -3   3   39.28    2.52
   4   4  -3  156.32    8.94
   4   4  -3  162.55    9.04
  -4  -4   3  161.50    8.95
  -4  -4   3  162.24    8.92
  -4  -4   3  159.11    8.97
  -4  -4   3  159.43    9.02
   4   5  -3    2.32    0.71
   4   5  -3    3.97    0.90
  -4  -5   3    1.59    0.53
  -4  -5   3    2.36    0.74
  -4  -5   3    1.14    0.59
   4   6  -3   15.46    1.59
   4   6  -3   12.52    1.58
  -4  -6   3   18.54    1.71
  -4  -6   3   20.00    1.60
   4   7  -3    2.80    1.10
   4   7  -3    2.83    1.02
  -4  -7   3    2.44    0.94
   4   8  -3   60.68    4.23
   4   8  -3   61.64    4.10
  -4  -8   3   56.02    4.06
   4   9  -3    2.22    1.29
   4   9  -3    2.19    1.41
  -3   9   3    5.11    1.43
  -3   9   3    7.03    1.21
  -3   8   3    1.26    1.00
  -3   8   3    0.83    0.74
  -3   7   3   11.07    1.50
  -3   7   3   11.95    1.26
  -3   6   3    2.01    0.80
  -3   6   3    1.84    0.48
  -3   6   3    1.25    0.52
  -3   5   3   61.63    3.58
  -3   5   3   62.12    3.83
  -3   5   3   61.99    3.60
   3  -4  -3    4.64    0.51
  -3   4   3    6.25    0.56
  -3   4   3    6.02    0.53
  -3   4   3    5.96    0.82
  -3   4   3    5.49    0.63
  -3   4   3    5.74    0.58
   3  -3  -3  235.90   13.24
  -3   3   3  241.49   13.26
  -3   3   3  252.57   13.38
  -3   3   3  247.99   13.31
  -3   3   3  247.01   13.27
   3  -2  -3   45.77    2.31
  -3   2   3   40.84    2.44
  -3   2   3   39.76    2.33
  -3   2   3   39.80    2.47
  -3   2   3   42.51    2.35
   3  -1  -3  140.28    8.72
  -3   1   3  169.99    8.73
  -3   1   3  167.20    8.82
  -3   1   3  166.29    8.84
  -3   1   3  161.82    8.75
   3   0  -3    3.82    0.40
   3   0  -3    3.28    0.39
  -3   0   3    3.80    0.50
  -3   0   3    3.98    0.40
  -3   0   3    3.47    0.39
  -3   0   3    3.89    0.46
  -3   0   3    4.30    0.49
   3   1  -3  151.12    7.63
   3   1  -3  152.32    7.74
   3   1  -3  153.41    7.65
  -3  -1   3  129.78    7.57
  -3  -1   3  132.19    7.58
  -3  -1   3  123.99    7.62
  -3  -1   3  130.80    7.67
   3   2  -3   41.80    2.62
   3   2  -3   41.80    2.57
   3   2  -3   42.29    2.63
  -3  -2   3   44.84    2.54
  -3  -2   3   45.99    2.64
  -3  -2   3   46.33    2.63
  -3  -2   3   45.77    2.57
   3   3  -3  247.26   13.17
   3   3  -3  242.25   13.12
   3   3  -3  244.67   13.11
  -3  -3   3  233.32   13.16
  -3  -3   3  237.96   13.08
  -3  -3   3  239.28   13.10
  -3  -3   3  229.76   13.09
   3   4  -3    6.53    0.90
   3   4  -3    6.04    0.83
  -3  -4   3    7.83    0.90
  -3  -4   3    6.62    0.74
  -3  -4   3    7.04    0.79
   3   5  -3   58.93    3.66
   3   5  -3   65.28    3.74
  -3  -5   3   57.89    3.68
  -3  -5   3   57.27    3.50
  -3  -5   3   57.79    3.61
   3   6  -3    1.04    0.71
   3   6  -3    1.21    0.85
  -3  -6   3    1.84    0.71
   3   7  -3   11.71    1.50
   3   7  -3   12.60    1.58
  -3  -7   3    8.84    1.37
   3   8  -3   -0.85    0.92
   3   8  -3    0.17    1.02
  -3  -8   3   -0.22    0.82
   3   9  -3    6.66    1.51
   3   9  -3    5.34    1.48
  -2   9   3    5.92    1.21
  -2   9   3    5.22    1.38
  -2   8   3   70.74    4.37
  -2   8   3   68.46    4.61
  -2   7   3   23.31    1.94
  -2   7   3   19.69    1.74
  -2   6   3   10.32    1.09
  -2   6   3   10.07    0.96
  -2   6   3   10.78    1.30
  -2   5   3   72.58    4.17
  -2   5   3   70.46    4.32
  -2   5   3   72.62    4.13
   2  -4  -3  119.81    5.99
  -2   4   3  104.08    6.00
  -2   4   3  102.51    6.14
  -2   4   3  105.98    5.86
  -2   4   3  103.71    5.97
   2  -3  -3  281.85   15.07
  -2   3   3  279.98   15.09
  -2   3   3  273.17   15.08
  -2   3   3  276.61   15.14
  -2   3   3  278.31   15.05
   2  -2  -3  126.44    6.25
  -2   2   3  110.45    6.25
  -2   2   3  112.92    6.33
  -2   2   3  111.16    6.25
  -2   2   3  109.08    6.27
   2  -1  -3  164.74    9.15
  -2   1   3  163.68    9.18
  -2   1   3  172.41    9.16
  -2   1   3  168.65    9.20
  -2   1   3  170.26    9.16
   2   0  -3   38.00    2.12
  -2   0   3   36.37    2.02
  -2   0   3   35.26    2.01
  -2   0   3   36.64    2.11
   2   1  -3  162.81    8.66
   2   1  -3  161.88    8.76
   2   1  -3  167.00    8.82
  -2  -1   3  152.08    8.76
  -2  -1   3  157.95    8.75
  -2  -1   3  158.25    8.65
  -2  -1   3  157.27    8.64
   2   2  -3  107.62    6.49
   2   2  -3  109.02    6.43
   2   2  -3  108.15    6.49
  -2  -2   3  125.34    6.42
  -2  -2   3  123.07    6.52
  -2  -2   3  126.74    6.51
   2   3  -3  274.24   14.77
   2   3  -3  260.62   14.76
   2   3  -3  262.37   14.71
  -2  -3   3  275.81   14.71
  -2  -3   3  270.52   14.77
  -2  -3   3  274.24   14.69
   2   4  -3  105.22    6.38
   2   4  -3  105.04    6.38
  -2  -4   3  117.49    6.41
  -2  -4   3  120.89    6.31
   2   5  -3   73.05    4.33
   2   5  -3   74.52    4.34
  -2  -5   3   67.92    4.29
  -2  -5   3   71.33    4.16
   2   6  -3   11.00    1.37
   2   6  -3   13.47    1.47
  -2  -6   3   12.88    1.40
   2   7  -3   23.01    2.06
   2   7  -3   20.27    2.03
  -2  -7   3   20.77    1.93
   2   8  -3   70.40    4.52
   2   8  -3   63.61    4.44
  -2  -8   3   65.59    4.50
   2   9  -3    4.24    1.39
   2   9  -3    3.55    1.30
  -1   9   3    0.16    1.13
  -1   9   3    0.80    0.95
  -1   8   3    1.86    0.89
  -1   8   3    3.18    1.11
  -1   7   3   13.19    1.40
  -1   7   3   13.89    1.59
  -1   6   3   10.15    0.98
  -1   6   3   11.14    1.12
  -1   6   3    9.70    1.24
   1  -5  -3  115.09    7.27
  -1   5   3  138.53    7.27
  -1   5   3  131.28    7.43
  -1   5   3  136.30    7.33
   1  -4  -3   34.60    1.96
  -1   4   3   28.82    2.05
  -1   4   3   28.69    1.90
  -1   4   3   30.43    1.95
   1  -3  -3   31.49    2.09
   1  -3  -3   31.08    2.14
  -1   3   3   36.69    2.17
  -1   3   3   37.42    2.00
  -1   3   3   36.47    2.11
  -1   3   3   37.92    2.15
   1  -2  -3   32.06    1.92
   1  -2  -3   32.36    1.90
  -1   2   3   30.87    1.93
  -1   2   3   33.26    1.87
  -1   2   3   31.43    1.90
  -1   2   3   32.08    1.92
   1  -1  -3  556.80   29.54
   1  -1  -3  547.16   29.48
  -1   1   3  548.34   29.54
  -1   1   3  540.16   29.52
  -1   1   3  552.73   29.48
  -1   1   3  537.50   29.54
   1   0  -3   37.15    2.40
   1   0  -3   38.35    2.34
  -1   0   3   39.96    2.32
  -1   0   3   42.37    2.29
  -1   0   3   39.30    2.31
   1   1  -3  543.29   29.06
   1   1  -3  539.92   29.08
  -1  -1   3  523.70   29.05
  -1  -1   3  540.59   29.06
  -1  -1   3  540.52   28.99
   1   2  -3   29.73    1.85
   1   2  -3   28.30    1.85
  -1  -2   3   28.98    1.82
  -1  -2   3   30.04    1.85
   1   3  -3   35.34    2.15
   1   3  -3   35.45    2.17
  -1  -3   3   31.61    2.08
   1   4  -3   27.49    2.08
   1   4  -3   27.12    2.07
  -1  -4   3   35.68    2.02
  -1  -4   3   36.24    2.15
   1   5  -3  134.51    7.25
   1   5  -3  135.26    7.25
  -1  -5   3  117.86    7.03
  -1  -5   3  117.98    7.19
   1   6  -3   11.02    1.31
   1   6  -3   11.41    1.35
  -1  -6   3   10.02    1.26
   1   7  -3   14.94    1.68
   1   7  -3   13.35    1.65
  -1  -7   3   20.48    1.78
   1   8  -3    2.49    1.13
   1   8  -3    3.13    1.07
   1   9  -3    1.47    1.16
   1   9  -3    0.61    1.20
   0   9   3    1.29    1.11
   0   9   3    2.37    1.08
   0   8   3   14.35    1.68
   0   8   3   16.73    1.89
   0   7   3   10.66    1.37
   0   7   3    9.74    1.25
   0   7   3    9.47    1.01
   0  -6  -3   97.43    5.76
   0   6   3   93.98    5.60
   0   6   3   96.70    5.69
   0   6   3   93.71    5.44
   0  -5  -3   14.73    1.38
   0  -5  -3   15.48    1.50
   0   5   3   21.24    1.50
   0   5   3   21.53    1.39
   0   5   3   20.50    1.54
   0  -4  -3  253.62   13.55
   0  -4  -3  248.75   13.58
   0   4   3  241.38   13.53
   0   4   3  242.81   13.58
   0   4   3  246.42   13.48
   0  -3  -3   49.09    3.15
   0  -3  -3   50.05    3.21
   0  -3  -3   51.74    3.19
   0   3   3   57.44    3.15
   0   3   3   57.28    3.02
   0   3   3   56.66    3.22
   0   3   3   56.35    3.17
   0  -2  -3   99.63    5.88
   0  -2  -3   96.88    5.86
   0  -2  -3   94.43    5.86
   0   2   3  111.38    5.82
   0   2   3  112.90    5.89
   0   2   3  113.99    5.89
   0   2   3  111.33    5.88
   0  -1  -3  118.55    6.19
   0  -1  -3  124.29    6.21
   0  -1  -3  123.91    6.28
   0   1   3  104.71    6.19
   0   1   3  107.67    6.22
   0   1   3  104.01    6.20
   0   1   3  106.58    6.24
   0   0  -3  556.46   30.50
   0   0  -3  547.67   30.63
   0   0  -3  566.80   30.62
   0   0  -3  570.32   30.51
   0   0   3  587.58   30.55
   0   0   3  582.84   30.53
   0   0   3  543.89   30.59
   0   0   3  571.22   30.57
   0   1  -3   99.53    5.75
   0   1  -3   92.23    5.81
   0  -1   3  110.80    5.74
   0  -1   3  110.04    5.83
   0  -1   3  111.01    5.86
   0   2  -3  115.82    5.93
   0  -2   3  103.24    5.75
   0  -2   3  102.34    5.91
   0  -2   3  101.20    5.88
   0   3  -3   54.47    3.10
   0   3  -3   55.31    3.13
   0  -3   3   48.52    3.03
   0  -3   3   51.34    2.86
   0  -3   3   50.02    3.10
   0   4  -3  235.51   13.81
   0   4  -3  245.71   13.82
   0  -4   3  259.54   13.52
   0  -4   3  260.62   13.73
   0  -4   3  250.99   13.82
   0   5  -3   19.13    1.52
   0   5  -3   19.85    1.49
   0  -5   3   14.78    1.24
   0  -5   3   15.36    1.40
   0   6  -3   91.57    5.69
   0   6  -3   92.39    5.65
   0  -6   3  102.29    5.69
   0   7  -3    9.95    1.34
   0   7  -3   10.44    1.35
   0   8  -3   17.25    1.99
   0   8  -3   18.84    2.02
   0   9  -3    1.46    1.29
   0   9  -3    1.78    1.18
   1   9   3    2.81    1.17
   1   9   3    3.15    1.26
   1   8   3    3.15    1.07
   1   8   3    2.73    1.07
   1   7   3   15.21    1.63
   1   7   3   17.87    1.41
   1   7   3   13.59    1.57
  -1  -6  -3   67.87    3.97
  -1  -6  -3   65.66    3.88
   1   6   3   58.76    3.89
   1   6   3   58.46    3.87
   1   6   3   59.92    3.68
   1   5   3   37.21    2.30
   1   5   3   34.89    2.41
   1   5   3   36.21    2.41
  -1  -4  -3   90.71    5.27
  -1  -4  -3   99.38    5.37
  -1  -4  -3   90.91    5.31
   1   4   3   90.63    5.20
   1   4   3   87.75    5.27
   1   4   3   91.35    5.27
  -1  -3  -3   59.63    3.52
  -1  -3  -3   57.86    3.54
  -1  -3  -3   57.74    3.52
   1   3   3   60.52    3.51
   1   3   3   63.86    3.47
  -1  -2  -3   39.80    2.26
  -1  -2  -3   39.99    2.25
  -1  -2  -3   41.72    2.28
   1   2   3   33.68    2.13
   1   2   3   34.34    2.22
   1   2   3   33.85    2.23
   1   2   3   35.40    2.19
  -1  -1  -3  147.69    8.31
  -1  -1  -3  153.04    8.34
  -1  -1  -3  155.38    8.37
   1   1   3  148.15    8.29
   1   1   3  153.51    8.35
   1   1   3  150.13    8.29
   1   1   3  151.23    8.33
  -1   0  -3  224.76   11.95
  -1   0  -3  219.10   11.92
  -1   0  -3  219.98   11.98
  -1   0  -3  219.03   11.96
   1   0   3  217.20   11.91
   1   0   3  213.91   11.94
   1   0   3  212.03   11.85
   1   0   3  219.77   11.97
  -1   1  -3  150.23    8.38
  -1   1  -3  146.99    8.29
  -1   1  -3  152.83    8.32
  -1   1  -3  152.21    8.30
   1  -1   3  146.73    8.31
   1  -1   3  154.01    8.21
   1  -1   3  147.89    8.35
   1  -1   3  155.07    8.32
  -1   2  -3   36.69    2.41
  -1   2  -3   38.66    2.43
  -1   2  -3   38.03    2.44
   1  -2   3   42.07    2.47
   1  -2   3   42.31    2.43
   1  -2   3   42.28    2.24
  -1   3  -3   61.45    3.63
  -1   3  -3   64.68    3.66
   1  -3   3   59.65    3.58
   1  -3   3   61.72    3.65
  -1   4  -3   91.33    5.25
  -1   4  -3   84.27    5.23
   1  -4   3   95.06    5.25
   1  -4   3   91.94    5.14
   1  -5   3   23.59    1.77
   1  -5   3   23.33    1.60
  -1   6  -3   58.16    3.95
  -1   6  -3   60.57    3.91
   1  -6   3   68.64    3.94
  -1   7  -3   15.94    1.71
  -1   7  -3   17.98    1.86
  -1   8  -3    3.09    1.07
  -1   8  -3    3.46    1.18
  -1   9  -3    2.61    1.28
  -1   9  -3    2.39    1.20
   2   9   3    0.87    1.11
   2   9   3    0.42    1.13
   2   8   3    9.91    1.48
   2   8   3   10.35    1.56
  -2  -7  -3   22.69    2.39
  -2  -7  -3   25.44    2.17
   2   7   3   25.74    2.22
   2   7   3   25.60    2.18
   2   7   3   28.44    2.00
  -2  -6  -3   39.24    2.73
  -2  -6  -3   37.54    2.63
   2   6   3   37.47    2.60
   2   6   3   36.82    2.43
   2   6   3   35.37    2.61
  -2  -5  -3   50.21    3.30
  -2  -5  -3   49.48    3.32
  -2  -5  -3   49.83    3.36
   2   5   3   54.22    3.26
   2   5   3   53.17    3.17
   2   5   3   54.97    3.34
  -2  -4  -3   46.96    2.69
  -2  -4  -3   48.06    2.69
  -2  -4  -3   48.63    2.74
   2   4   3   37.70    2.52
   2   4   3   35.44    2.59
   2   4   3   32.91    2.49
  -2  -3  -3    6.68    0.80
  -2  -3  -3    6.30    0.76
  -2  -3  -3    6.08    0.79
   2   3   3    5.09    0.73
   2   3   3    5.20    0.69
  -2  -2  -3   56.67    3.23
  -2  -2  -3   57.32    3.26
  -2  -2  -3   57.38    3.24
   2   2   3   53.16    3.23
   2   2   3   50.37    3.19
   2   2   3   51.57    3.11
   2   2   3   53.25    3.16
  -2  -1  -3  281.18   15.94
  -2  -1  -3  275.22   15.92
  -2  -1  -3  293.07   15.93
   2   1   3  297.79   15.97
   2   1   3  294.96   15.86
   2   1   3  305.25   15.92
   2   1   3  293.45   15.85
  -2   0  -3  131.35    7.44
  -2   0  -3  140.51    7.56
  -2   0  -3  137.89    7.50
  -2   0  -3  135.14    7.52
   2   0   3  134.10    7.47
   2   0   3  132.65    7.43
   2   0   3  131.83    7.55
   2   0   3  130.18    7.36
  -2   1  -3  295.76   16.05
  -2   1  -3  300.56   16.03
  -2   1  -3  299.54   16.06
  -2   1  -3  293.37   15.94
   2  -1   3  286.41   15.98
   2  -1   3  288.39   16.05
   2  -1   3  290.02   16.02
   2  -1   3  291.58   15.87
  -2   2  -3   54.49    3.45
  -2   2  -3   53.15    3.42
  -2   2  -3   54.82    3.38
   2  -2   3   61.18    3.21
   2  -2   3   62.24    3.46
   2  -2   3   60.94    3.41
  -2   3  -3    5.40    0.77
  -2   3  -3    4.78    0.72
  -2   3  -3    5.76    0.41
  -2   3  -3    5.98    0.75
   2  -3   3    5.92    0.69
   2  -3   3    6.48    0.39
   2  -3   3    6.37    0.76
  -2   4  -3   33.33    2.52
  -2   4  -3   34.21    2.54
   2  -4   3   44.82    2.60
   2  -4   3   48.08    2.53
  -2   5  -3   53.13    3.30
  -2   5  -3   55.15    3.38
   2  -5   3   52.49    3.29
   2  -5   3   49.66    3.14
  -2   6  -3   35.26    2.56
  -2   6  -3   38.21    2.69
  -2   7  -3   28.78    2.44
  -2   7  -3   28.96    2.37
  -2   8  -3   12.34    1.71
  -2   8  -3   15.00    1.75
  -2   9  -3   -0.65    0.97
  -2   9  -3    1.62    1.25
   3   9   3    5.92    1.54
  -3  -8  -3   27.87    2.57
   3   8   3   27.77    2.64
   3   8   3   29.77    2.49
   3   8   3   24.86    2.19
  -3  -7  -3   12.97    1.60
  -3  -7  -3   13.47    1.59
   3   7   3   10.34    1.33
   3   7   3   10.35    1.48
   3   7   3    8.28    1.18
  -3  -6  -3   18.75    1.75
  -3  -6  -3   20.74    1.86
  -3  -6  -3   20.74    1.88
   3   6   3   17.15    1.61
   3   6   3   15.79    1.73
   3   6   3   17.83    1.58
  -3  -5  -3   42.41    2.91
  -3  -5  -3   41.85    2.98
  -3  -5  -3   41.15    3.00
   3   5   3   46.64    2.83
   3   5   3   43.71    2.97
   3   5   3   47.89    2.82
  -3  -4  -3   15.39    1.42
  -3  -4  -3   16.50    1.45
  -3  -4  -3   15.02    1.49
   3   4   3   15.49    1.22
   3   4   3   15.87    1.32
   3   4   3   17.24    1.40
  -3  -3  -3  242.42   13.49
  -3  -3  -3  235.83   13.42
  -3  -3  -3  236.10   13.46
   3   3   3  246.84   13.42
   3   3   3  253.30   13.35
  -3  -2  -3   15.58    1.19
  -3  -2  -3   14.50    1.20
  -3  -2  -3   15.71    1.15
   3   2   3    9.93    1.09
   3   2   3    8.91    0.96
  -3  -1  -3   54.49    3.20
  -3  -1  -3   56.33    3.26
  -3  -1  -3   56.23    3.15
   3   1   3   49.82    3.03
   3   1   3   47.56    3.07
   3   1   3   48.17    3.05
  -3   0  -3   29.76    1.92
  -3   0  -3   27.67    2.02
  -3   0  -3   29.91    1.86
  -3   0  -3   29.02    2.06
   3   0   3   28.19    1.87
   3   0   3   30.45    2.06
   3   0   3   29.97    1.80
   3   0   3   29.02    1.90
  -3   1  -3   49.39    2.94
  -3   1  -3   47.16    3.15
  -3   1  -3   49.88    3.09
  -3   1  -3   48.91    3.13
   3  -1   3   51.83    3.05
   3  -1   3   51.98    2.89
   3  -1   3   54.32    3.06
  -3   2  -3    9.86    1.05
  -3   2  -3    9.01    0.97
  -3   2  -3    9.72    0.86
  -3   2  -3    8.36    0.94
  -3   3  -3  261.97   14.17
  -3   3  -3  264.20   14.06
  -3   3  -3  260.21   14.13
   3  -3   3  242.96   14.03
   3  -3   3  249.02   14.08
  -3   4  -3   18.08    1.44
  -3   4  -3   17.42    1.53
   3  -4   3   17.32    1.45
   3  -4   3   16.53    1.37
  -3   5  -3   49.53    3.22
  -3   5  -3   53.15    3.22
   3  -5   3   46.41    3.04
  -3   6  -3   16.64    1.64
  -3   6  -3   16.76    1.71
  -3   7  -3   11.39    1.47
  -3   7  -3   12.50    1.63
  -3   8  -3   24.63    2.56
  -3   8  -3   28.26    2.46
  -3   9  -3    9.88    1.65
  -3   9  -3   12.65    1.96
  -4  -8  -3   13.82    1.95
   4   8   3   11.76    1.79
   4   8   3   20.95    1.86
  -4  -7  -3    7.57    1.35
  -4  -7  -3    8.68    1.40
   4   7   3    9.51    1.48
   4   7   3    8.48    1.19
  -4  -6  -3    1.35    0.87
  -4  -6  -3    0.94    0.82
  -4  -6  -3    1.10    0.86
   4   6   3    1.42    0.93
   4   6   3    0.99    0.68
   4   6   3    1.37    0.76
  -4  -5  -3   16.49    1.61
  -4  -5  -3   15.75    1.60
  -4  -5  -3   14.99    1.64
   4   5   3   14.92    1.45
   4   5   3   14.84    1.31
   4   5   3   13.62    1.58
  -4  -4  -3   24.54    1.91
  -4  -4  -3   29.13    2.11
  -4  -4  -3   27.42    1.99
   4   4   3   24.33    1.71
   4   4   3   24.85    1.97
   4   4   3   23.85    1.85
  -4  -3  -3   69.02    4.18
  -4  -3  -3   68.60    4.20
  -4  -3  -3   69.23    4.11
   4   3   3   67.86    4.01
   4   3   3   67.47    3.85
   4   3   3   64.94    4.09
  -4  -2  -3   48.16    3.01
  -4  -2  -3   50.18    2.85
  -4  -2  -3   50.57    2.98
   4   2   3   39.22    2.74
   4   2   3   39.55    2.80
  -4  -1  -3  114.08    6.71
  -4  -1  -3  108.72    6.55
  -4  -1  -3  103.01    6.62
   4   1   3  123.79    6.48
   4   1   3  126.16    6.57
  -4   0  -3    0.72    0.44
  -4   0  -3    0.34    0.50
  -4   0  -3    1.28    0.63
  -4   0  -3    0.87    0.36
   4   0   3    0.31    0.37
   4   0   3    0.51    0.41
  -4   1  -3  128.31    7.10
  -4   1  -3  121.72    7.02
  -4   1  -3  127.27    6.75
  -4   1  -3  128.92    6.91
   4  -1   3  112.64    6.83
   4  -1   3  111.36    6.70
  -4   2  -3   39.88    2.69
  -4   2  -3   39.21    2.88
  -4   2  -3   40.94    2.82
  -4   2  -3   42.21    2.95
   4  -2   3   50.86    2.85
   4  -2   3   51.16    2.87
   4  -2   3   50.62    2.61
  -4   3  -3   65.36    4.19
  -4   3  -3   70.63    4.12
  -4   3  -3   71.55    4.31
  -4   3  -3   67.78    4.25
   4  -3   3   73.66    4.18
  -4   4  -3   23.09    1.81
  -4   4  -3   25.72    1.92
  -4   4  -3   24.74    1.96
  -4   5  -3   14.82    1.49
  -4   5  -3   14.87    1.63
  -4   5  -3   14.79    1.49
  -4   6  -3    1.25    0.81
  -4   6  -3    1.12    0.81
  -4   7  -3   10.18    1.53
  -4   7  -3   10.63    1.44
  -4   8  -3   15.58    1.99
  -4   8  -3   16.07    1.87
  -5  -8  -3   44.46    3.56
  -5  -8  -3   41.05    3.44
   5   8   3   40.80    3.04
   5   8   3   42.54    3.47
  -5  -7  -3    2.87    1.13
  -5  -7  -3    3.27    1.23
   5   7   3    3.46    1.05
   5   7   3    4.31    1.30
  -5  -6  -3    5.07    1.24
  -5  -6  -3    5.83    1.24
   5   6   3    4.73    1.19
   5   6   3    4.49    1.00
  -5  -5  -3    7.36    1.29
  -5  -5  -3    6.25    1.20
  -5  -5  -3    7.80    1.17
   5   5   3    6.63    1.22
   5   5   3    9.68    1.17
  -5  -4  -3   84.63    5.28
  -5  -4  -3   88.95    5.27
  -5  -4  -3   85.52    5.16
   5   4   3   83.05    4.99
   5   4   3   82.64    5.14
  -5  -3  -3   14.54    1.57
  -5  -3  -3   16.37    1.47
  -5  -3  -3   15.70    1.65
   5   3   3   17.16    1.42
   5   3   3   14.68    1.47
  -5  -2  -3  114.46    6.38
  -5  -2  -3  103.76    6.46
  -5  -2  -3  113.31    6.55
   5   2   3  110.12    6.34
   5   2   3  107.83    6.26
  -5  -1  -3   51.31    3.45
  -5  -1  -3   51.70    3.53
  -5  -1  -3   50.48    3.30
   5   1   3   57.60    3.34
   5   1   3   57.03    3.25
  -5   0  -3   65.08    3.77
  -5   0  -3   63.72    4.15
  -5   0  -3   68.88    3.97
  -5   0  -3   63.74    4.12
   5   0   3   65.16    3.83
   5   0   3   67.52    3.92
  -5   1  -3   60.19    3.40
  -5   1  -3   59.39    3.86
  -5   1  -3   61.95    3.81
  -5   1  -3   58.98    3.58
   5  -1   3   55.77    3.40
   5  -1   3   55.85    3.51
  -5   2  -3  110.50    6.75
  -5   2  -3  114.01    6.72
  -5   2  -3  112.44    6.40
  -5   2  -3  113.27    6.55
   5  -2   3  117.14    6.51
   5  -2   3  115.83    6.34
  -5   3  -3   15.49    1.57
  -5   3  -3   15.90    1.31
  -5   3  -3   16.31    1.56
  -5   3  -3   15.32    1.43
  -5   4  -3   89.31    5.17
  -5   4  -3   87.54    5.40
  -5   4  -3   86.91    5.35
  -5   4  -3   85.53    5.23
  -5   5  -3    8.01    1.17
  -5   5  -3    8.95    1.17
  -5   5  -3    8.01    1.32
  -5   6  -3    4.94    1.10
  -5   6  -3    4.11    1.02
  -5   7  -3    4.80    1.17
  -5   7  -3    3.62    1.13
  -5   8  -3   42.05    3.35
  -5   8  -3   39.30    3.09
  -6  -7  -3    1.73    1.17
  -6  -7  -3    1.33    1.18
   6   7   3    2.05    1.17
   6   7   3    3.45    1.14
  -6  -6  -3   10.35    1.56
  -6  -6  -3   11.22    1.66
   6   6   3    9.85    1.41
   6   6   3    9.38    1.57
  -6  -5  -3   19.06    2.18
  -6  -5  -3   22.40    2.13
   6   5   3   25.19    2.25
   6   5   3   24.21    2.00
  -6  -4  -3    3.99    1.12
  -6  -4  -3    3.90    0.96
  -6  -4  -3    2.88    1.07
   6   4   3    6.64    1.15
   6   4   3    5.65    1.00
  -6  -3  -3   23.09    1.93
  -6  -3  -3   23.24    2.10
  -6  -3  -3   23.13    2.14
   6   3   3   24.68    1.96
   6   3   3   22.00    1.82
  -6  -2  -3   29.46    2.33
  -6  -2  -3   29.93    2.54
  -6  -2  -3   29.36    2.57
   6   2   3   38.70    2.40
   6   2   3   39.37    2.34
  -6  -1  -3   54.57    3.76
  -6  -1  -3   52.88    3.48
  -6  -1  -3   55.38    3.73
   6   1   3   57.51    3.49
   6   1   3   58.78    3.44
  -6   0  -3   34.55    2.55
  -6   0  -3   35.49    2.65
  -6   0  -3   35.52    2.40
   6   0   3   35.45    2.37
   6   0   3   35.70    2.29
  -6   1  -3   56.71    3.28
  -6   1  -3   59.22    3.87
  -6   1  -3   58.03    3.51
  -6   1  -3   57.08    3.80
   6  -1   3   56.19    3.43
   6  -1   3   51.20    3.32
  -6   2  -3   39.72    2.63
  -6   2  -3   39.16    2.45
  -6   2  -3   39.90    2.86
  -6   2  -3   38.59    2.94
  -6   3  -3   24.77    2.23
  -6   3  -3   25.48    2.24
  -6   3  -3   27.69    1.90
  -6   3  -3   27.38    2.02
  -6   4  -3    5.92    0.95
  -6   4  -3    5.76    1.16
  -6   4  -3    5.34    1.14
  -6   4  -3    8.07    1.10
  -6   5  -3   24.21    2.05
  -6   5  -3   25.24    2.03
  -6   5  -3   25.64    2.22
  -6   6  -3    8.82    1.37
  -6   6  -3    9.81    1.34
  -6   7  -3    2.39    1.00
  -6   7  -3    4.69    1.22
  -7  -7  -3    5.63    1.49
  -7  -7  -3    5.83    1.66
   7   7   3    6.78    1.42
   7   7   3    7.72    1.62
  -7  -6  -3   25.62    2.50
  -7  -6  -3   29.04    2.65
   7   6   3   26.25    2.34
   7   6   3   21.42    2.43
  -7  -5  -3    5.22    1.41
  -7  -5  -3    8.50    1.39
   7   5   3    6.70    1.16
   7   5   3    9.86    1.54
  -7  -4  -3   25.37    2.35
  -7  -4  -3   25.25    2.22
   7   4   3   26.43    2.28
   7   4   3   25.07    2.13
  -7  -3  -3   17.41    1.98
  -7  -3  -3   14.06    1.60
  -7  -3  -3   11.49    1.69
   7   3   3   18.31    1.65
   7   3   3   17.08    1.72
  -7  -2  -3    4.88    1.25
  -7  -2  -3    5.17    1.10
  -7  -2  -3    5.24    0.92
   7   2   3    3.68    0.82
   7   2   3    4.44    0.94
  -7  -1  -3   63.64    4.25
  -7  -1  -3   59.79    3.88
  -7  -1  -3   63.29    4.17
   7   1   3   60.20    3.81
   7   1   3   65.05    3.89
  -7   0  -3   13.14    1.64
  -7   0  -3   14.19    1.69
  -7   0  -3   13.41    1.33
   7   0   3   14.02    1.32
  -7   1  -3   66.97    4.35
  -7   1  -3   61.98    4.32
  -7   1  -3   63.99    3.96
  -7   2  -3    5.20    1.13
  -7   2  -3    4.35    0.85
  -7   2  -3    5.44    1.25
  -7   3  -3   19.17    1.90
  -7   3  -3   16.26    1.98
  -7   3  -3   17.65    2.01
  -7   3  -3   16.44    1.54
  -7   4  -3   26.82    1.98
  -7   4  -3   24.70    2.38
  -7   4  -3   25.27    2.03
  -7   5  -3    9.71    1.28
  -7   5  -3    8.63    1.54
  -7   5  -3    9.34    1.29
  -7   6  -3   25.36    2.22
  -7   6  -3   26.85    2.63
  -7   6  -3   24.53    2.24
  -7   7  -3    7.68    1.48
  -7   7  -3    8.13    1.76
  -7   7  -3    8.14    1.35
  -8  -6  -3    3.12    1.24
  -8  -6  -3    2.72    1.45
   8   6   3    1.82    1.21
   8   6   3    1.02    1.28
  -8  -5  -3   12.98    2.02
  -8  -5  -3   12.43    1.82
   8   5   3   13.03    1.84
   8   5   3   14.15    1.74
  -8  -4  -3    2.34    1.23
  -8  -4  -3    2.03    0.97
   8   4   3    2.29    1.13
   8   4   3    1.73    1.02
  -8  -3  -3    2.05    0.94
  -8  -3  -3    2.22    1.23
   8   3   3    4.55    1.68
   8   3   3    3.35    1.04
  -8  -2  -3    1.61    1.13
  -8  -2  -3    2.49    0.87
   8   2   3    2.02    0.86
  -8  -1  -3   49.21    3.67
  -8  -1  -3   50.48    3.56
  -8  -1  -3   51.03    3.32
   8   1   3   47.14    3.23
  -8   0  -3    3.31    1.11
  -8   0  -3    3.58    0.82
  -8   0  -3    2.57    1.05
  -8   1  -3   43.39    3.46
  -8   1  -3   47.54    3.09
  -8   1  -3   45.69    3.46
  -8   2  -3    1.92    0.72
  -8   2  -3    2.11    1.18
  -8   3  -3    2.56    0.80
  -8   3  -3    2.02    1.18
  -8   4  -3    2.05    1.09
  -8   4  -3    1.65    0.78
  -8   5  -3   13.36    1.51
  -8   5  -3   14.25    2.06
  -8   6  -3    5.01    1.50
  -8   6  -3    2.73    0.93
  -9  -5  -3    4.43    1.62
  -9  -5  -3    4.10    1.27
   9   5   3    3.10    1.29
  -9  -4  -3    6.28    1.34
  -9  -4  -3    5.64    1.69
   9   4   3    5.04    1.32
  -9  -3  -3    2.49    1.35
  -9  -3  -3    1.86    0.95
   9   3   3    2.03    1.09
  -9  -2  -3    4.92    1.11
  -9  -2  -3    3.55    1.25
  -9  -1  -3    4.16    1.27
  -9  -1  -3    3.37    0.96
  -9   0  -3   12.01    1.38
  -9   0  -3   10.30    1.65
  -9   1  -3    1.57    1.09
  -9   1  -3    2.19    0.79
  -9   2  -3    5.75    1.04
  -9   2  -3    7.47    1.67
  -9   3  -3    2.49    0.80
  -9   3  -3    4.54    1.54
  -9   4  -3    4.16    1.56
  -9   4  -3    3.63    0.94
  -9   5  -3    4.14    1.58
  -9   5  -3    4.24    0.99
 -10  -4  -3    3.75    1.29
 -10  -4  -3    3.56    1.63
 -10  -3  -3   16.38    1.86
 -10  -3  -3   16.18    2.29
 -10  -2  -3    5.86    1.58
 -10  -2  -3    7.70    1.33
 -10  -1  -3    8.16    1.33
 -10  -1  -3    9.47    1.67
 -10   0  -3    4.30    1.03
 -10   0  -3    7.49    1.61
 -10   1  -3    8.17    1.22
 -10   1  -3    9.03    1.67
 -10   2  -3    9.74    1.88
 -10   2  -3    7.21    1.14
 -10   3  -3   22.06    2.74
 -10   3  -3   19.50    1.87
 -10   4  -3    3.76    0.94
 -10   4  -3    4.58    1.74
 -11  -2  -3    1.49    1.03
 -11  -2  -3    2.71    1.51
 -11  -1  -3    3.38    1.07
 -11  -1  -3    2.15    1.44
 -11   0  -3    0.41    0.84
 -11   0  -3   -0.22    1.18
 -11   1  -3    1.52    0.88
 -11   1  -3    3.62    1.44
 -11   2  -3    4.09    1.54
 -11   2  -3    1.24    0.86
 -12   3   4    1.07    1.18
 -12   2   4   12.60    1.81
 -12   1   4    1.11    1.00
 -12   0   4   22.42    2.25
 -12  -1   4   -0.60    0.83
 -12  -1   4    0.83    0.65
 -12  -1   4    0.31    0.93
 -12  -2   4    9.42    1.27
 -12  -2   4   12.39    1.75
 -12  -2   4    9.93    1.55
 -12  -3   4    1.99    1.07
 -12  -3   4    0.18    1.00
 -12  -3   4    0.02    0.78
 -11   5   4   16.50    2.29
 -11   4   4    2.97    1.24
 -11   3   4    5.82    1.39
 -11   2   4    4.85    1.30
 -11   1   4   11.06    1.55
 -11   1   4   12.02    1.62
 -11   0   4    0.28    0.47
 -11   0   4    0.15    0.85
 -11   0   4    0.79    0.85
 -11  -1   4   16.24    1.85
 -11  -1   4   16.57    1.84
 -11  -1   4   16.90    1.48
 -11  -1   4   15.10    1.82
 -11  -2   4    2.41    1.00
 -11  -2   4    2.38    0.81
 -11  -2   4    3.24    1.07
 -11  -3   4    4.87    1.12
 -11  -3   4    3.80    0.99
 -11  -3   4    4.21    1.14
 -11  -4   4    4.68    1.19
 -11  -4   4    3.71    1.17
 -11  -4   4    1.86    1.01
 -11  -5   4   13.09    1.83
 -11  -5   4   17.53    1.95
 -11  -5   4   15.12    1.90
 -10   6   4    8.67    1.62
 -10   5   4    7.74    1.53
 -10   4   4   13.62    1.84
 -10   3   4    5.98    1.30
 -10   3   4    5.70    1.27
 -10   2   4   15.75    1.88
 -10   2   4   17.32    1.98
 -10   1   4   28.29    2.32
 -10   1   4   26.31    2.27
 -10   0   4   19.34    1.92
 -10   0   4   19.62    1.46
 -10   0   4   20.04    1.90
 -10  -1   4   31.37    2.38
 -10  -1   4   26.81    2.33
 -10  -1   4   27.80    2.36
 -10  -1   4   28.81    2.03
 -10  -2   4   14.56    1.63
 -10  -2   4   14.40    1.66
 -10  -2   4   13.67    1.55
 -10  -2   4   13.43    1.40
 -10  -3   4    5.61    1.05
 -10  -3   4    6.97    1.19
 -10  -3   4    6.32    1.23
 -10  -3   4    6.77    1.19
 -10  -4   4   11.62    1.52
 -10  -4   4    9.79    1.47
 -10  -4   4   11.76    1.51
 -10  -5   4    7.88    1.38
 -10  -5   4    8.10    1.36
 -10  -5   4    9.59    1.46
 -10  -6   4    8.64    1.55
 -10  -6   4    9.74    1.60
  -9   6   4    0.02    0.78
  -9   6   4    0.68    1.02
  -9   5   4    7.35    1.17
  -9   5   4    6.95    1.39
  -9   4   4   12.52    1.32
  -9   4   4    9.42    1.47
  -9   4   4   10.91    1.20
  -9   4   4    9.28    1.45
  -9   3   4   72.15    4.73
  -9   3   4   71.97    4.37
  -9   3   4   73.82    4.70
  -9   2   4    2.08    0.86
  -9   2   4    2.83    0.94
  -9   1   4   18.36    1.22
  -9   1   4   18.64    1.78
  -9   1   4   20.43    1.85
  -9   0   4    1.24    0.44
  -9   0   4    2.25    0.74
  -9   0   4    1.59    0.72
  -9  -1   4   22.36    1.84
  -9  -1   4   19.56    1.84
  -9  -1   4   21.65    1.88
  -9  -1   4   21.43    1.60
  -9  -2   4    3.09    0.84
  -9  -2   4    2.74    0.80
  -9  -2   4    3.40    0.88
  -9  -2   4    2.54    0.70
  -9  -3   4   77.84    4.57
  -9  -3   4   71.15    4.49
  -9  -3   4   71.50    4.57
  -9  -3   4   72.25    4.59
  -9  -4   4    8.67    1.23
  -9  -4   4    8.21    1.21
  -9  -4   4    6.30    1.16
  -9  -4   4    7.60    1.19
  -9  -5   4    7.81    1.28
  -9  -5   4    8.95    1.42
  -9  -5   4    9.78    1.36
  -9  -6   4    1.88    1.08
  -9  -6   4    3.84    1.10
  -8   7   4    1.83    1.00
  -8   6   4    2.77    0.92
  -8   5   4   15.38    1.66
  -8   5   4   18.32    1.82
  -8   4   4   44.56    3.18
  -8   4   4   43.29    2.94
  -8   4   4   44.99    3.16
  -8   4   4   45.62    2.88
  -8   3   4    5.62    1.05
  -8   3   4    5.97    1.05
  -8   3   4    5.53    0.84
  -8   2   4  110.31    6.49
  -8   2   4  107.11    6.52
  -8   1   4   10.73    1.37
  -8   1   4   12.87    1.43
  -8   1   4   11.55    0.83
  -8   0   4    2.83    0.73
  -8   0   4    2.84    0.49
  -8   0   4    2.23    0.66
  -8  -1   4    7.00    0.99
  -8  -1   4    8.58    0.90
  -8  -1   4    8.07    1.06
  -8  -1   4    8.83    1.08
  -8  -2   4  108.66    6.11
  -8  -2   4  100.17    5.96
  -8  -2   4  101.71    5.99
  -8  -2   4  102.74    6.03
  -8  -3   4    6.43    0.97
  -8  -3   4    6.67    1.03
  -8  -3   4    6.82    0.99
  -8  -3   4    5.27    0.93
  -8  -4   4   35.82    2.66
  -8  -4   4   39.94    2.71
  -8  -4   4   36.34    2.70
  -8  -4   4   39.59    2.69
  -8  -5   4   16.45    1.61
  -8  -5   4   14.84    1.70
  -8  -5   4   15.89    1.66
  -8  -5   4   14.70    1.59
  -8  -6   4    2.89    1.04
  -8  -6   4    1.20    0.93
  -8  -7   4    2.31    1.07
  -8  -7   4    2.74    1.13
  -7   8   4   14.06    1.84
  -7   7   4   19.67    2.09
  -7   6   4    9.44    1.37
  -7   5   4   24.86    1.92
  -7   5   4   23.86    2.08
  -7   5   4   24.79    2.04
  -7   4   4   44.58    2.78
  -7   4   4   43.18    2.98
  -7   4   4   43.35    2.87
  -7   4   4   42.79    2.77
  -7   3   4    3.47    0.79
  -7   3   4    2.54    0.70
  -7   3   4    3.42    0.70
  -7   2   4   64.74    3.94
  -7   2   4   62.29    3.96
  -7   1   4   35.40    2.44
  -7   1   4   34.94    2.47
  -7   1   4   34.57    2.01
  -7   0   4    5.53    0.60
  -7   0   4    6.30    0.88
  -7   0   4    5.56    0.85
  -7   0   4    5.75    0.81
  -7  -1   4   35.03    2.29
  -7  -1   4   39.34    2.44
  -7  -1   4   35.25    2.45
  -7  -1   4   37.73    2.40
   7   2  -4   65.84    4.25
  -7  -2   4   73.99    4.37
  -7  -2   4   74.86    4.28
  -7  -2   4   72.72    4.29
  -7  -2   4   73.57    4.27
   7   3  -4    2.81    0.66
   7   3  -4    1.96    0.69
  -7  -3   4    2.94    0.66
  -7  -3   4    3.09    0.69
  -7  -3   4    2.60    0.70
  -7  -3   4    2.82    0.71
   7   4  -4   43.98    3.23
  -7  -4   4   49.36    3.17
  -7  -4   4   49.31    3.12
  -7  -4   4   49.12    3.13
  -7  -4   4   51.41    3.25
   7   5  -4   23.70    2.20
  -7  -5   4   26.72    2.01
  -7  -5   4   28.31    2.04
  -7  -5   4   24.81    2.15
  -7  -5   4   23.83    2.03
   7   6  -4   11.36    1.66
  -7  -6   4   12.17    1.52
  -7  -6   4   12.54    1.64
   7   7  -4   18.02    2.09
  -7  -7   4   14.28    1.87
  -7  -7   4   18.94    1.91
   7   8  -4   11.75    2.03
  -7  -8   4   14.76    1.83
  -7  -8   4   15.42    2.05
  -6   8   4    4.53    1.33
  -6   7   4   14.64    1.79
  -6   6   4   18.39    1.86
  -6   5   4   20.27    1.57
  -6   5   4   20.58    1.77
  -6   4   4   20.18    1.53
  -6   4   4   23.20    1.80
  -6   4   4   21.00    1.69
  -6   4   4   22.05    1.57
  -6   3   4   55.51    3.41
  -6   3   4   58.10    3.56
  -6   3   4   57.62    3.44
  -6   2   4   69.61    4.25
  -6   2   4   72.88    4.22
  -6   2   4   70.23    4.18
  -6   1   4   41.98    2.67
  -6   1   4   43.87    2.78
  -6   1   4   44.56    2.42
  -6   1   4   41.29    2.40
  -6   1   4   42.11    2.72
   6   0  -4  133.47    7.45
  -6   0   4  132.07    7.30
  -6   0   4  132.04    7.47
  -6   0   4  135.30    7.52
  -6   0   4  133.30    7.50
  -6   0   4  131.11    7.31
   6   1  -4   40.74    2.39
   6   1  -4   44.24    2.56
  -6  -1   4   36.44    2.51
  -6  -1   4   37.85    2.42
  -6  -1   4   38.81    2.40
  -6  -1   4   38.36    2.45
   6   2  -4   70.88    4.38
   6   2  -4   73.12    4.36
  -6  -2   4   78.35    4.35
  -6  -2   4   75.02    4.39
  -6  -2   4   77.55    4.37
  -6  -2   4   75.28    4.44
   6   3  -4   51.43    3.20
   6   3  -4   55.11    3.26
  -6  -3   4   53.36    3.24
  -6  -3   4   51.83    3.17
  -6  -3   4   49.70    3.22
  -6  -3   4   48.85    3.13
   6   4  -4   21.64    1.72
   6   4  -4   21.26    1.58
  -6  -4   4   17.45    1.52
  -6  -4   4   18.98    1.65
  -6  -4   4   18.80    1.55
  -6  -4   4   16.71    1.49
   6   5  -4   20.82    1.90
   6   5  -4   18.89    1.68
  -6  -5   4   18.96    1.64
  -6  -5   4   20.39    1.70
  -6  -5   4   20.13    1.66
  -6  -5   4   18.42    1.79
   6   6  -4   14.08    1.67
   6   6  -4   16.37    1.68
  -6  -6   4   14.25    1.69
  -6  -6   4   15.97    1.63
   6   7  -4   16.27    2.06
  -6  -7   4   17.74    1.77
  -6  -7   4   15.10    1.84
   6   8  -4    3.61    1.45
  -6  -8   4    4.04    1.30
  -5   8   4   15.49    2.01
  -5   7   4   24.12    2.27
  -5   7   4   27.98    1.86
  -5   6   4   27.73    2.28
  -5   6   4   26.35    1.74
  -5   5   4  117.43    6.93
  -5   5   4  117.66    6.74
  -5   5   4  120.32    6.54
  -5   4   4   35.49    2.33
  -5   4   4   37.62    2.27
  -5   4   4   35.47    2.05
  -5   4   4   38.40    2.50
  -5   3   4   39.50    2.45
  -5   3   4   38.44    2.41
  -5   3   4   40.11    2.56
  -5   2   4   21.21    1.50
  -5   2   4   22.07    1.55
  -5   1   4  155.21    8.33
  -5   1   4  149.70    8.56
  -5   1   4  156.37    8.55
  -5   1   4  156.53    8.35
  -5   1   4  148.59    8.53
   5   0  -4   71.48    4.01
   5   0  -4   68.04    3.93
  -5   0   4   70.05    3.94
  -5   0   4   71.49    3.93
  -5   0   4   66.88    4.09
  -5   0   4   71.74    4.05
  -5   0   4   71.04    4.03
   5   1  -4  150.88    8.00
   5   1  -4  146.20    7.92
  -5  -1   4  136.58    8.00
  -5  -1   4  147.34    7.92
  -5  -1   4  141.75    7.89
  -5  -1   4  135.75    7.91
   5   2  -4   21.38    1.50
   5   2  -4   20.39    1.42
   5   2  -4   20.73    1.44
  -5  -2   4   18.88    1.44
  -5  -2   4   17.30    1.30
  -5  -2   4   19.38    1.35
  -5  -2   4   18.77    1.41
   5   3  -4   36.85    2.41
   5   3  -4   35.52    2.37
  -5  -3   4   37.17    2.38
  -5  -3   4   36.45    2.30
  -5  -3   4   37.38    2.28
  -5  -3   4   36.42    2.37
   5   4  -4   39.16    2.74
   5   4  -4   37.06    2.64
  -5  -4   4   42.43    2.65
  -5  -4   4   44.67    2.77
  -5  -4   4   40.86    2.61
  -5  -4   4   42.80    2.60
   5   5  -4  121.82    7.27
   5   5  -4  126.91    7.19
  -5  -5   4  126.67    7.14
  -5  -5   4  126.38    7.12
  -5  -5   4  119.59    7.22
   5   6  -4   28.84    2.36
   5   6  -4   26.30    2.13
  -5  -6   4   25.30    2.17
  -5  -6   4   24.17    1.98
   5   7  -4   25.34    2.24
   5   7  -4   26.22    2.49
  -5  -7   4   26.45    2.36
   5   8  -4   14.50    1.95
   5   8  -4   13.18    1.79
  -5  -8   4   15.41    1.92
  -4   9   4    1.76    1.20
  -4   9   4    1.34    0.85
  -4   8   4    0.37    0.69
  -4   8   4    0.29    1.06
  -4   7   4   21.09    1.70
  -4   7   4   23.53    2.17
  -4   6   4   19.26    1.52
  -4   6   4   20.68    1.87
  -4   6   4   19.77    1.45
  -4   5   4   57.51    3.61
  -4   5   4   54.81    3.24
  -4   5   4   56.86    3.37
  -4   4   4   25.01    1.71
  -4   4   4   24.93    1.52
  -4   4   4   24.96    1.60
  -4   3   4   17.47    1.19
  -4   3   4   17.27    1.26
  -4   3   4   17.21    1.06
  -4   3   4   16.48    1.03
  -4   2   4   28.59    1.85
  -4   2   4   29.10    1.65
  -4   2   4   30.18    1.84
  -4   2   4   28.25    1.65
   4  -1  -4  247.39   12.90
  -4   1   4  236.42   12.89
  -4   1   4  234.06   12.97
  -4   1   4  233.51   13.01
  -4   1   4  240.61   12.87
  -4   1   4  233.37   12.96
   4   0  -4   43.62    2.50
   4   0  -4   43.07    2.48
  -4   0   4   43.74    2.51
  -4   0   4   44.12    2.51
  -4   0   4   43.80    2.62
  -4   0   4   41.46    2.51
  -4   0   4   42.74    2.49
   4   1  -4  246.10   13.53
   4   1  -4  232.51   13.62
   4   1  -4  234.24   13.51
  -4  -1   4  249.29   13.44
  -4  -1   4  262.78   13.54
  -4  -1   4  253.81   13.45
  -4  -1   4  256.02   13.60
   4   2  -4   29.38    1.87
   4   2  -4   31.10    1.99
   4   2  -4   30.17    1.94
  -4  -2   4   29.30    1.93
  -4  -2   4   29.83    1.81
  -4  -2   4   30.30    1.80
  -4  -2   4   28.89    1.91
   4   3  -4   15.96    1.27
   4   3  -4   15.61    1.29
   4   3  -4   15.76    1.19
  -4  -3   4   14.62    1.22
  -4  -3   4   16.11    1.15
  -4  -3   4   16.10    1.27
  -4  -3   4   14.34    1.11
   4   4  -4   26.40    1.77
   4   4  -4   25.52    1.68
  -4  -4   4   16.62    1.54
  -4  -4   4   19.20    1.52
  -4  -4   4   19.91    1.51
   4   5  -4   57.88    3.41
   4   5  -4   57.05    3.31
  -4  -5   4   46.04    3.14
  -4  -5   4   47.24    3.16
  -4  -5   4   48.92    3.30
   4   6  -4   19.22    1.82
   4   6  -4   18.68    1.68
  -4  -6   4   11.74    1.49
  -4  -6   4   13.65    1.81
   4   7  -4   21.92    2.09
   4   7  -4   21.06    2.19
  -4  -7   4   20.09    1.95
   4   8  -4    1.35    1.15
   4   8  -4    0.52    1.13
  -4  -8   4   -0.54    0.92
   4   9  -4    0.74    1.26
   4   9  -4    1.08    1.31
  -4  -9   4    2.71    1.28
  -3   9   4    4.94    1.41
  -3   9   4    6.40    1.17
  -3   8   4    6.42    1.06
  -3   8   4    7.03    1.41
  -3   7   4   10.48    1.45
  -3   7   4   13.24    1.28
  -3   6   4  106.05    5.89
  -3   6   4  101.32    6.17
  -3   6   4  102.03    5.89
  -3   5   4    8.86    0.85
  -3   5   4   10.44    0.97
  -3   5   4    7.62    1.09
  -3   4   4  159.99    8.89
  -3   4   4  161.16    8.76
  -3   4   4  158.73    8.78
  -3   3   4   67.21    3.88
  -3   3   4   66.87    3.79
  -3   3   4   65.77    3.74
  -3   3   4   67.64    3.76
   3  -2  -4   83.28    5.18
  -3   2   4   99.37    5.25
  -3   2   4   96.78    5.22
  -3   2   4   99.28    5.31
  -3   2   4   96.30    5.34
   3  -1  -4  131.37    7.20
  -3   1   4  137.11    7.16
  -3   1   4  127.37    7.16
  -3   1   4  129.53    7.19
  -3   1   4  127.74    7.24
   3   0  -4  315.45   16.69
  -3   0   4  303.84   16.68
  -3   0   4  306.26   16.74
  -3   0   4  303.98   16.58
  -3   0   4  307.46   16.58
   3   1  -4  123.87    6.93
   3   1  -4  123.75    7.03
   3   1  -4  124.17    7.15
  -3  -1   4  129.72    7.03
  -3  -1   4  131.36    6.90
  -3  -1   4  128.21    6.89
  -3  -1   4  126.26    7.07
   3   2  -4   91.38    5.15
   3   2  -4   91.61    5.01
   3   2  -4   97.15    5.13
  -3  -2   4   84.29    5.11
  -3  -2   4   88.20    4.98
  -3  -2   4   87.56    5.12
   3   3  -4   69.77    3.94
   3   3  -4   68.80    4.02
   3   3  -4   70.88    4.04
  -3  -3   4   66.92    3.98
  -3  -3   4   66.96    3.88
  -3  -3   4   65.69    4.00
   3   4  -4  158.42    9.25
   3   4  -4  154.25    9.20
  -3  -4   4  173.74    9.15
  -3  -4   4  166.45    9.26
  -3  -4   4  169.48    9.17
   3   5  -4    9.16    1.19
   3   5  -4    7.57    1.16
  -3  -5   4   12.11    1.08
  -3  -5   4   13.12    1.32
   3   6  -4  101.66    6.19
   3   6  -4  100.08    6.15
  -3  -6   4  106.38    6.18
  -3  -6   4  104.96    6.21
   3   7  -4   16.10    1.75
   3   7  -4   13.67    1.71
  -3  -7   4    9.00    1.46
   3   8  -4    6.58    1.40
   3   8  -4    6.26    1.39
  -3  -8   4    6.23    1.34
   3   9  -4    8.00    1.72
   3   9  -4    4.62    1.44
  -2   9   4   14.23    1.70
  -2   9   4   14.18    1.91
  -2   8   4    1.15    0.79
  -2   8   4   -0.02    0.86
  -2   7   4   12.99    1.63
  -2   7   4   14.90    1.44
  -2   6   4   11.68    1.09
  -2   6   4   10.54    1.11
  -2   6   4   10.45    1.33
  -2   5   4   75.61    4.60
  -2   5   4   79.63    4.45
  -2   5   4   74.59    4.42
   2  -4  -4   43.87    2.97
  -2   4   4   52.88    3.08
  -2   4   4   53.42    3.02
  -2   4   4   54.96    2.91
   2  -3  -4   90.00    5.09
  -2   3   4   89.48    5.10
  -2   3   4   92.44    5.16
  -2   3   4   92.45    5.07
  -2   3   4   92.07    5.18
   2  -2  -4  213.75   12.87
  -2   2   4  240.50   12.89
  -2   2   4  242.06   12.96
  -2   2   4  248.70   12.91
  -2   2   4  240.16   12.90
   2  -1  -4  214.06   11.01
  -2   1   4  193.67   10.99
  -2   1   4  202.75   10.88
  -2   1   4  194.85   11.00
  -2   1   4  198.87   11.00
   2   0  -4   69.59    3.79
   2   0  -4   61.57    3.85
  -2   0   4   65.92    3.74
  -2   0   4   66.74    3.78
  -2   0   4   65.43    3.75
   2   1  -4  191.45   10.85
   2   1  -4  190.46   10.93
   2   1  -4  194.06   10.68
   2   1  -4  194.88   10.69
  -2  -1   4  207.26   10.88
  -2  -1   4  209.82   10.87
   2   2  -4  229.13   12.13
   2   2  -4  232.41   12.29
   2   2  -4  235.39   12.27
  -2  -2   4  211.95   12.23
  -2  -2   4  206.79   12.24
   2   3  -4   85.12    5.02
   2   3  -4   87.03    4.93
   2   3  -4   87.46    5.04
  -2  -3   4   87.63    4.99
  -2  -3   4   89.63    5.05
   2   4  -4   47.80    2.92
   2   4  -4   53.46    2.99
  -2  -4   4   42.78    2.93
  -2  -4   4   43.13    2.84
   2   5  -4   72.42    4.08
   2   5  -4   75.00    4.09
  -2  -5   4   60.33    3.85
  -2  -5   4   55.78    3.98
   2   6  -4    8.69    1.28
   2   6  -4   10.82    1.36
  -2  -6   4   11.20    1.31
  -2  -6   4   12.87    1.28
   2   7  -4   12.71    1.61
   2   7  -4   13.01    1.60
  -2  -7   4   14.47    1.63
   2   8  -4    1.20    1.00
   2   8  -4    0.28    1.08
  -2  -8   4    0.55    0.95
   2   9  -4   13.41    1.94
   2   9  -4   14.87    2.03
  -1   9   4   10.92    1.71
  -1   9   4    8.74    1.46
  -1   8   4   39.28    3.08
  -1   8   4   40.14    2.86
  -1   7   4   12.77    1.27
  -1   7   4   13.06    1.64
  -1   7   4   14.45    1.45
  -1   6   4   10.06    1.02
  -1   6   4    8.84    1.06
  -1   6   4    8.99    1.22
   1  -5  -4    8.68    0.95
  -1   5   4    9.23    0.99
  -1   5   4   10.85    1.19
  -1   5   4    9.97    0.96
   1  -4  -4  212.71   10.90
   1  -4  -4  213.23   10.83
  -1   4   4  184.69   10.63
  -1   4   4  188.44   10.81
  -1   4   4  183.60   10.81
   1  -3  -4   26.76    1.86
   1  -3  -4   25.33    1.82
  -1   3   4   31.92    1.77
  -1   3   4   30.70    1.87
  -1   3   4   31.04    1.89
  -1   3   4   30.99    1.91
   1  -2  -4  118.81    7.15
   1  -2  -4  118.21    7.12
  -1   2   4  134.88    7.14
  -1   2   4  135.48    7.14
  -1   2   4  138.05    7.18
  -1   2   4  131.31    7.18
   1  -1  -4  299.33   16.20
   1  -1  -4  311.08   16.34
   1  -1  -4  307.14   16.21
  -1   1   4  305.30   16.31
  -1   1   4  290.07   16.32
  -1   1   4  294.68   16.30
  -1   1   4  291.60   16.20
   1   0  -4    1.86    0.45
   1   0  -4    2.25    0.58
   1   0  -4    2.62    0.26
   1   0  -4    2.52    0.27
  -1   0   4    2.87    0.29
  -1   0   4    2.64    0.47
  -1   0   4    2.33    0.47
  -1   0   4    2.56    0.27
  -1   0   4    2.50    0.41
   1   1  -4  305.68   16.28
   1   1  -4  294.39   16.48
   1   1  -4  295.99   16.44
  -1  -1   4  305.64   16.35
  -1  -1   4  305.68   16.43
  -1  -1   4  301.34   16.44
   1   2  -4  133.47    6.92
   1   2  -4  134.53    6.92
  -1  -2   4  116.98    6.87
  -1  -2   4  116.85    6.74
  -1  -2   4  114.26    6.87
   1   3  -4   28.24    1.78
   1   3  -4   28.77    1.78
  -1  -3   4   25.27    1.74
  -1  -3   4   22.73    1.73
  -1  -3   4   25.11    1.54
   1   4  -4  198.09   11.51
   1   4  -4  193.19   11.50
  -1  -4   4  220.62   11.54
  -1  -4   4  215.77   11.44
   1   5  -4   10.07    1.17
   1   5  -4    8.00    1.08
  -1  -5   4    7.59    1.05
  -1  -5   4    7.00    0.85
   1   6  -4   11.84    1.42
   1   6  -4   10.40    1.33
  -1  -6   4   10.00    1.07
  -1  -6   4    9.92    1.24
   1   7  -4   11.92    1.53
   1   7  -4   13.62    1.60
  -1  -7   4   12.14    1.54
   1   8  -4   38.07    3.18
   1   8  -4   41.90    3.22
   1   9  -4   10.22    1.71
   1   9  -4    6.13    1.61
   0   9   4   17.03    1.95
   0   9   4   15.12    2.00
   0   8   4   30.35    2.44
   0   8   4   28.42    2.62
   0   7   4   11.25    1.40
   0   7   4   11.04    1.45
   0   7   4   13.12    1.26
   0  -6  -4    8.60    1.17
   0   6   4    9.99    1.04
   0   6   4    8.67    1.22
   0   6   4    8.91    1.12
   0  -5  -4   42.43    2.88
   0  -5  -4   43.01    2.91
   0   5   4   48.65    2.96
   0   5   4   49.13    2.83
   0   5   4   44.34    2.88
   0  -4  -4   23.49    1.67
   0  -4  -4   23.01    1.73
   0   4   4   24.00    1.65
   0   4   4   23.94    1.43
   0   4   4   26.27    1.73
   0  -3  -4  298.14   15.45
   0  -3  -4  299.74   15.44
   0  -3  -4  294.18   15.42
   0   3   4  268.70   15.40
   0   3   4  268.90   15.38
   0   3   4  262.92   15.27
   0  -2  -4   61.70    3.17
   0  -2  -4   57.87    3.08
   0  -2  -4   60.68    3.11
   0   2   4   46.88    3.07
   0   2   4   47.90    3.10
   0   2   4   48.45    3.06
   0   2   4   48.88    3.04
   0  -1  -4   96.72    6.00
   0  -1  -4  101.11    6.12
   0  -1  -4   94.05    6.01
   0   1   4  120.43    6.09
   0   1   4  117.75    6.09
   0   1   4  119.98    6.16
   0   1   4  116.93    6.05
   0   0  -4  391.90   21.07
   0   0  -4  388.30   21.22
   0   0  -4  387.31   21.24
   0   0  -4  387.41   21.05
   0   0   4  398.67   21.16
   0   0   4  393.46   21.10
   0   0   4  387.57   21.09
   0   0   4  382.27   21.19
   0   1  -4  115.16    5.92
   0   1  -4  120.13    5.95
   0   1  -4  115.57    6.06
   0   1  -4  117.25    6.10
   0  -1   4   93.32    6.02
   0  -1   4   94.94    5.99
   0  -1   4   94.47    5.90
   0   2  -4   49.22    3.29
   0   2  -4   47.45    3.26
   0  -2   4   59.88    3.32
   0  -2   4   58.89    3.30
   0  -2   4   61.47    3.13
   0   3  -4  264.93   15.62
   0  -3   4  291.86   15.41
   0  -3   4  293.21   15.66
   0  -3   4  289.85   15.60
   0   4  -4   29.72    1.96
   0   4  -4   25.90    1.91
   0  -4   4   27.11    1.54
   0  -4   4   25.92    1.82
   0  -4   4   26.26    1.91
   0   5  -4   48.27    3.12
   0   5  -4   48.54    3.09
   0  -5   4   46.34    3.07
   0  -5   4   46.62    2.93
   0   6  -4    8.66    1.22
   0   6  -4    7.23    1.18
   0  -6   4    8.63    0.95
   0  -6   4   10.53    1.29
   0   7  -4   13.24    1.63
   0   7  -4   14.51    1.66
   0   8  -4   28.19    2.57
   0   8  -4   30.57    2.71
   0   9  -4   19.84    2.28
   0   9  -4   15.82    2.21
   1   9   4    0.55    1.09
   1   9   4    0.95    1.20
   1   8   4   24.62    2.31
   1   8   4   24.02    2.33
  -1  -7  -4    1.98    0.97
   1   7   4    1.75    0.92
   1   7   4    0.19    0.63
   1   7   4    1.06    0.80
  -1  -6  -4   19.47    1.84
  -1  -6  -4   21.28    1.82
   1   6   4   22.77    1.72
   1   6   4   23.19    1.85
   1   6   4   20.44    1.88
  -1  -5  -4   20.55    1.66
  -1  -5  -4   21.68    1.70
   1   5   4   18.92    1.60
   1   5   4   18.43    1.52
   1   5   4   18.54    1.60
  -1  -4  -4   76.13    4.56
  -1  -4  -4   72.22    4.54
  -1  -4  -4   76.16    4.58
   1   4   4   84.08    4.59
   1   4   4   78.46    4.50
  -1  -3  -4   55.31    3.46
  -1  -3  -4   58.10    3.50
  -1  -3  -4   57.97    3.50
   1   3   4   61.88    3.45
   1   3   4   60.11    3.50
   1   3   4   57.71    3.33
   1   2   4    9.96    0.83
   1   2   4   10.06    0.93
   1   2   4   10.56    0.92
   1   2   4    9.82    0.88
  -1  -1  -4   95.79    6.01
  -1  -1  -4   89.32    5.91
  -1  -1  -4   94.37    5.95
   1   1   4  119.38    6.05
   1   1   4  115.62    5.95
   1   1   4  113.25    5.97
   1   1   4  119.63    6.01
  -1   0  -4  107.52    6.01
  -1   0  -4  108.89    6.14
  -1   0  -4  106.04    6.10
  -1   0  -4  111.27    6.04
   1   0   4  102.33    6.08
   1   0   4  106.55    5.97
   1   0   4  109.61    6.07
   1   0   4  108.84    6.05
  -1   1  -4  120.91    6.08
  -1   1  -4  118.76    6.15
  -1   1  -4  116.59    6.03
  -1   1  -4  125.63    6.07
   1  -1   4   96.59    5.91
   1  -1   4   94.74    6.07
   1  -1   4   96.53    6.00
   1  -1   4   90.89    6.00
  -1   2  -4   11.57    1.07
  -1   2  -4   10.21    0.99
  -1   2  -4   10.81    0.93
  -1   3  -4   59.38    3.65
  -1   3  -4   64.79    3.66
   1  -3   4   60.34    3.65
   1  -3   4   58.83    3.34
   1  -3   4   60.87    3.60
  -1   4  -4   85.43    4.92
  -1   4  -4   87.68    4.93
   1  -4   4   78.64    4.88
   1  -4   4   80.88    4.80
  -1   5  -4   21.75    1.79
  -1   5  -4   19.93    1.70
   1  -5   4   21.80    1.58
   1  -5   4   20.46    1.72
  -1   6  -4   23.96    1.94
  -1   6  -4   26.53    1.99
   1  -6   4   22.34    1.91
   1  -6   4   19.87    1.64
  -1   7  -4    0.93    0.91
  -1   7  -4    0.15    0.82
  -1   8  -4   26.35    2.41
  -1   8  -4   24.91    2.41
  -1   9  -4    0.22    1.25
  -1   9  -4    2.05    1.15
   2   9   4    1.27    1.19
   2   9   4    1.56    1.25
  -2  -8  -4   15.37    1.93
   2   8   4   16.18    1.93
   2   8   4   16.41    1.72
   2   8   4   13.92    1.77
  -2  -7  -4   22.39    2.19
   2   7   4   24.53    2.08
   2   7   4   25.70    2.27
   2   7   4   23.18    1.90
  -2  -6  -4   11.42    1.40
  -2  -6  -4   10.33    1.35
   2   6   4   11.30    1.32
   2   6   4   11.72    1.42
   2   6   4   13.38    1.28
  -2  -5  -4  107.54    6.25
  -2  -5  -4  102.60    6.18
  -2  -5  -4  112.38    6.22
   2   5   4  104.57    6.10
   2   5   4  107.04    6.09
   2   5   4  100.21    6.15
  -2  -4  -4   44.48    2.91
  -2  -4  -4   45.41    2.88
  -2  -4  -4   49.06    2.92
   2   4   4   41.78    2.86
   2   4   4   42.53    2.79
  -2  -3  -4   11.98    1.14
  -2  -3  -4   13.84    1.19
  -2  -3  -4   12.88    1.19
   2   3   4   11.95    1.12
   2   3   4   11.18    1.14
  -2  -2  -4   67.83    4.04
  -2  -2  -4   66.67    4.06
  -2  -2  -4   70.62    4.09
   2   2   4   68.11    4.06
   2   2   4   70.94    3.97
   2   2   4   68.72    3.99
  -2  -1  -4  375.04   20.83
  -2  -1  -4  369.25   20.81
  -2  -1  -4  378.17   20.86
   2   1   4  386.58   20.88
   2   1   4  385.42   20.84
   2   1   4  392.35   20.75
   2   1   4  387.33   20.77
  -2   0  -4  198.43   11.09
  -2   0  -4  199.24   11.14
  -2   0  -4  200.68   11.10
  -2   0  -4  202.32   11.12
   2   0   4  202.43   11.16
   2   0   4  199.83   11.11
   2   0   4  201.62   10.98
   2   0   4  201.44   11.07
  -2   1  -4  393.89   20.79
  -2   1  -4  387.08   20.89
  -2   1  -4  401.59   20.90
  -2   1  -4  386.64   20.85
   2  -1   4  374.44   20.80
   2  -1   4  378.90   20.67
   2  -1   4  367.40   20.84
   2  -1   4  366.26   20.85
  -2   2  -4   69.72    4.10
  -2   2  -4   70.92    4.06
  -2   2  -4   73.65    4.19
  -2   2  -4   67.20    4.07
   2  -2   4   68.61    3.87
   2  -2   4   68.41    4.13
   2  -2   4   67.50    4.06
  -2   3  -4   13.10    1.15
  -2   3  -4   13.26    1.22
  -2   3  -4   12.06    1.14
   2  -3   4   12.10    0.80
   2  -3   4   12.90    1.18
   2  -3   4   13.77    1.14
  -2   4  -4   42.76    2.89
  -2   4  -4   42.39    2.87
  -2   4  -4   43.08    2.86
   2  -4   4   46.20    2.79
   2  -4   4   46.81    2.88
  -2   5  -4  108.92    6.49
  -2   5  -4  110.72    6.52
   2  -5   4  111.77    6.47
   2  -5   4  112.67    6.36
  -2   6  -4   10.66    1.35
  -2   6  -4    9.51    1.28
   2  -6   4   11.01    1.11
  -2   7  -4   26.64    2.29
  -2   7  -4   26.49    2.41
  -2   8  -4   13.82    1.88
  -2   8  -4   16.11    1.90
  -2   9  -4    2.79    1.39
  -2   9  -4    1.47    1.22
  -3  -8  -4    6.84    1.47
   3   8   4    6.46    1.48
   3   8   4    6.70    1.18
  -3  -7  -4    5.48    1.26
  -3  -7  -4    3.61    1.07
   3   7   4    5.96    1.06
   3   7   4    4.09    1.13
   3   7   4    4.28    1.01
  -3  -6  -4   37.79    2.82
  -3  -6  -4   37.43    2.70
  -3  -6  -4   36.42    2.73
   3   6   4   34.60    2.50
   3   6   4   34.48    2.49
   3   6   4   34.78    2.70
  -3  -5  -4   21.71    2.07
  -3  -5  -4   22.94    2.03
  -3  -5  -4   21.30    2.07
   3   5   4   30.39    1.96
   3   5   4   29.72    2.15
   3   5   4   30.53    2.00
  -3  -4  -4   16.99    1.58
  -3  -4  -4   18.10    1.71
  -3  -4  -4   14.16    1.60
   3   4   4   22.17    1.71
   3   4   4   23.03    1.61
   3   4   4   22.67    1.52
  -3  -3  -4   -0.32    0.50
  -3  -3  -4    0.85    0.58
  -3  -3  -4    0.63    0.49
   3   3   4    1.41    0.61
   3   3   4    0.86    0.55
  -3  -2  -4   30.43    2.04
  -3  -2  -4   31.46    2.08
  -3  -2  -4   30.67    2.06
   3   2   4   27.72    1.94
   3   2   4   26.72    2.01
  -3  -1  -4   81.42    4.56
  -3  -1  -4   78.80    4.55
  -3  -1  -4   79.76    4.60
   3   1   4   77.23    4.47
   3   1   4   73.03    4.40
   3   1   4   72.68    4.51
  -3   0  -4  104.43    5.90
  -3   0  -4  107.08    5.99
  -3   0  -4  103.18    5.99
  -3   0  -4  101.54    6.01
   3   0   4  103.89    5.95
   3   0   4  105.89    5.82
   3   0   4  100.09    5.90
  -3   1  -4   74.21    4.57
  -3   1  -4   74.85    4.43
  -3   1  -4   77.38    4.60
  -3   1  -4   78.71    4.66
   3  -1   4   77.20    4.54
   3  -1   4   75.95    4.50
   3  -1   4   81.48    4.36
  -3   2  -4   29.31    2.04
  -3   2  -4   26.33    1.91
  -3   2  -4   26.52    2.04
  -3   2  -4   26.29    2.04
   3  -2   4   33.49    2.04
   3  -2   4   30.49    1.76
   3  -2   4   33.89    2.09
  -3   3  -4    1.25    0.59
  -3   3  -4    1.23    0.57
  -3   3  -4    0.69    0.49
   3  -3   4   -0.05    0.50
   3  -3   4    0.66    0.23
   3  -3   4    0.88    0.51
  -3   4  -4   20.96    1.64
  -3   4  -4   23.08    1.73
  -3   4  -4   23.64    1.73
   3  -4   4   17.08    1.52
   3  -4   4   16.54    1.61
  -3   5  -4   32.88    2.28
  -3   5  -4   33.19    2.29
   3  -5   4   22.94    2.01
  -3   6  -4   32.91    2.71
  -3   6  -4   32.96    2.59
  -3   6  -4   34.65    2.68
   3  -6   4   39.44    2.46
  -3   7  -4    8.03    1.40
  -3   7  -4    7.36    1.32
  -3   8  -4    6.97    1.56
  -3   8  -4    9.69    1.53
  -4  -8  -4    2.57    1.26
   4   8   4    3.80    1.09
   4   8   4    2.50    1.31
  -4  -7  -4   15.96    2.00
  -4  -7  -4   19.50    2.21
   4   7   4   23.22    2.27
   4   7   4   24.24    2.04
  -4  -6  -4   38.82    2.93
  -4  -6  -4   38.94    2.90
   4   6   4   36.70    2.69
   4   6   4   35.77    2.80
  -4  -5  -4   18.11    1.76
  -4  -5  -4   16.18    1.76
  -4  -5  -4   17.98    1.78
   4   5   4   17.24    1.78
   4   5   4   17.39    1.64
   4   5   4   18.72    1.53
  -4  -4  -4  110.92    6.30
  -4  -4  -4  107.67    6.37
  -4  -4  -4  108.36    6.32
   4   4   4  100.66    6.09
   4   4   4  103.56    6.00
   4   4   4  105.52    6.25
  -4  -3  -4    1.01    0.68
  -4  -3  -4    0.28    0.55
  -4  -3  -4   -0.17    0.59
   4   3   4    0.21    0.54
   4   3   4    0.72    0.57
  -4  -2  -4   31.34    2.25
  -4  -2  -4   33.47    2.39
  -4  -2  -4   31.50    2.33
   4   2   4   35.29    2.34
   4   2   4   34.59    2.17
  -4  -1  -4   67.17    4.18
  -4  -1  -4   67.24    4.24
  -4  -1  -4   67.82    4.29
   4   1   4   70.49    4.16
   4   1   4   74.71    4.08
  -4   0  -4   67.39    4.07
  -4   0  -4   65.58    4.16
  -4   0  -4   68.38    4.14
  -4   0  -4   66.76    3.93
   4   0   4   65.41    3.88
   4   0   4   67.07    4.03
   4   0   4   69.33    4.02
  -4   1  -4   78.22    4.47
  -4   1  -4   79.76    4.60
  -4   1  -4   74.20    4.29
  -4   1  -4   80.19    4.65
   4  -1   4   72.51    4.41
   4  -1   4   68.06    4.21
   4  -1   4   69.79    4.40
  -4   2  -4   36.43    2.46
  -4   2  -4   38.44    2.31
  -4   2  -4   36.34    2.57
  -4   2  -4   37.05    2.52
   4  -2   4   36.17    2.41
   4  -2   4   33.31    2.12
   4  -2   4   33.67    2.39
  -4   3  -4    1.09    0.64
  -4   3  -4    0.34    0.46
  -4   3  -4    0.18    0.58
  -4   3  -4    0.68    0.56
   4  -3   4   -0.07    0.27
   4  -3   4   -0.28    0.51
   4  -3   4   -0.15    0.56
  -4   4  -4  111.45    6.50
  -4   4  -4  106.64    6.45
  -4   4  -4  106.13    6.34
   4  -4   4  112.62    6.36
  -4   5  -4   16.40    1.77
  -4   5  -4   15.64    1.64
  -4   5  -4   17.65    1.67
  -4   6  -4   36.90    2.72
  -4   6  -4   32.93    2.62
  -4   7  -4   23.48    2.34
  -4   7  -4   23.07    2.23
  -4   8  -4    3.76    1.37
  -5  -8  -4   11.61    1.86
   5   8   4   10.26    1.57
   5   8   4   11.99    1.87
  -5  -7  -4    4.63    1.28
  -5  -7  -4    4.03    1.31
   5   7   4    3.82    1.26
   5   7   4    3.69    1.07
  -5  -6  -4    5.94    1.29
  -5  -6  -4    8.19    1.41
   5   6   4    5.59    1.10
   5   6   4    6.55    1.36
  -5  -5  -4   13.74    1.74
  -5  -5  -4   13.81    1.67
  -5  -5  -4   14.25    1.79
   5   5   4   23.01    1.99
  -5  -4  -4   39.01    2.80
  -5  -4  -4   39.47    2.94
  -5  -4  -4   38.92    2.89
   5   4   4   38.70    2.77
   5   4   4   38.03    2.69
  -5  -3  -4    5.91    1.12
  -5  -3  -4    6.45    1.14
  -5  -3  -4    5.82    0.99
   5   3   4    7.34    1.06
   5   3   4    7.76    1.05
  -5  -2  -4   63.34    3.95
  -5  -2  -4   62.51    3.84
  -5  -2  -4   62.84    4.02
   5   2   4   61.41    3.74
   5   2   4   59.62    3.85
  -5  -1  -4   95.58    5.56
  -5  -1  -4   93.26    5.61
  -5  -1  -4   92.97    5.45
   5   1   4   88.75    5.39
   5   1   4   89.32    5.30
  -5   0  -4    3.78    0.83
  -5   0  -4    3.78    0.78
  -5   0  -4    3.81    0.59
  -5   0  -4    2.87    0.85
   5   0   4    3.03    0.61
   5   0   4    3.55    0.74
  -5   1  -4   88.42    5.28
  -5   1  -4   86.12    5.10
  -5   1  -4   86.94    5.43
  -5   1  -4   86.15    5.49
   5  -1   4   92.70    5.08
   5  -1   4   93.38    5.27
  -5   2  -4   61.06    4.11
  -5   2  -4   59.69    3.73
  -5   2  -4   62.65    4.07
  -5   2  -4   60.85    3.92
   5  -2   4   69.36    3.91
   5  -2   4   65.17    3.64
  -5   3  -4    8.86    1.26
  -5   3  -4    6.82    1.14
  -5   3  -4    8.34    1.13
  -5   3  -4    7.69    0.94
  -5   4  -4   38.84    3.03
  -5   4  -4   42.79    2.82
  -5   4  -4   44.13    3.05
  -5   4  -4   42.04    2.95
  -5   5  -4   22.21    2.01
  -5   5  -4   21.24    2.11
  -5   5  -4   22.30    1.91
  -5   6  -4    4.37    1.12
  -5   6  -4    6.15    1.20
  -5   7  -4    2.74    1.08
  -5   7  -4    2.74    1.19
  -5   8  -4   11.49    1.77
  -5   8  -4   14.20    1.95
  -6  -7  -4    6.62    1.49
  -6  -7  -4    5.47    1.49
   6   7   4    3.84    1.22
   6   7   4    5.95    1.50
  -6  -6  -4   14.29    1.82
  -6  -6  -4   12.17    1.81
   6   6   4   16.05    1.93
   6   6   4   14.16    1.63
  -6  -5  -4    7.07    1.26
  -6  -5  -4    4.51    1.29
   6   5   4    4.99    1.10
   6   5   4    5.10    1.20
  -6  -4  -4   17.47    1.77
  -6  -4  -4   14.53    1.81
  -6  -4  -4   17.87    1.92
   6   4   4   10.57    1.46
   6   4   4   13.03    1.61
  -6  -3  -4   48.03    3.13
  -6  -3  -4   46.39    3.26
  -6  -3  -4   45.25    3.23
   6   3   4   42.48    3.09
   6   3   4   41.63    2.92
  -6  -2  -4    0.94    0.82
  -6  -2  -4    2.11    0.88
  -6  -2  -4    2.03    0.74
   6   2   4    1.99    0.74
   6   2   4    1.75    0.80
  -6  -1  -4    5.73    1.08
  -6  -1  -4    3.42    0.98
  -6  -1  -4    4.46    0.85
   6   1   4    3.63    0.86
   6   1   4    3.19    0.77
  -6   0  -4   25.37    2.13
  -6   0  -4   26.93    2.23
  -6   0  -4   27.09    2.05
   6   0   4   26.26    1.90
   6   0   4   29.25    2.05
  -6   1  -4    3.31    0.81
  -6   1  -4    4.25    1.06
  -6   1  -4    4.45    1.06
  -6   1  -4    3.08    0.67
   6  -1   4    2.96    0.78
   6  -1   4    4.23    0.69
  -6   2  -4    2.51    0.59
  -6   2  -4    2.68    0.93
  -6   2  -4    1.58    0.70
  -6   2  -4    1.70    0.93
   6  -2   4    1.53    0.55
  -6   3  -4   41.04    2.94
  -6   3  -4   45.34    2.80
  -6   3  -4   43.64    3.12
  -6   3  -4   41.51    3.21
  -6   4  -4   15.04    1.78
  -6   4  -4    8.25    1.44
  -6   4  -4   13.20    1.51
  -6   4  -4   12.47    1.35
  -6   5  -4    6.66    1.14
  -6   5  -4    5.84    1.29
  -6   5  -4    7.45    1.22
  -6   6  -4   18.25    2.14
  -6   6  -4   16.42    1.83
  -6   6  -4   17.11    1.86
  -6   7  -4    4.85    1.24
  -6   7  -4    6.73    1.40
  -7  -6  -4    5.55    1.47
  -7  -6  -4    4.88    1.43
   7   6   4    4.32    1.50
   7   6   4    3.93    1.23
  -7  -5  -4   14.56    2.01
  -7  -5  -4   13.60    1.81
   7   5   4   13.91    1.82
   7   5   4   16.72    1.79
  -7  -4  -4    8.21    1.36
  -7  -4  -4    6.51    1.47
   7   4   4    9.50    1.46
   7   4   4    5.75    1.24
  -7  -3  -4   73.83    4.76
  -7  -3  -4   71.89    4.92
   7   3   4   73.75    4.76
   7   3   4   81.02    4.69
  -7  -2  -4    1.95    1.00
  -7  -2  -4    1.27    0.79
  -7  -2  -4    1.92    0.98
   7   2   4    0.17    0.75
   7   2   4    0.72    0.79
  -7  -1  -4   15.98    1.95
  -7  -1  -4   21.02    2.16
  -7  -1  -4   17.25    1.75
   7   1   4   24.22    1.77
   7   1   4   20.87    1.89
  -7   0  -4    5.20    1.16
  -7   0  -4    4.12    0.91
  -7   0  -4    2.97    0.97
   7   0   4    4.84    0.85
  -7   1  -4   20.53    1.79
  -7   1  -4   19.68    2.04
  -7   1  -4   19.88    2.03
   7  -1   4   17.20    1.53
  -7   2  -4    0.70    0.99
  -7   2  -4    0.61    0.70
  -7   2  -4    0.85    0.92
  -7   3  -4   79.41    4.78
  -7   3  -4   79.00    5.12
  -7   3  -4   69.35    5.72
  -7   4  -4    8.95    1.25
  -7   4  -4    6.46    1.43
  -7   5  -4   15.74    1.75
  -7   5  -4   20.29    2.34
  -7   5  -4   18.60    1.90
  -7   6  -4    4.51    1.18
  -7   6  -4    5.84    1.24
  -7   6  -4    4.66    1.40
  -8  -6  -4    2.74    1.57
  -8  -6  -4    2.89    1.39
   8   6   4    2.67    1.46
   8   6   4    2.33    1.31
  -8  -5  -4    4.25    1.27
  -8  -5  -4    3.98    1.48
   8   5   4    5.15    1.50
   8   5   4    3.52    1.25
  -8  -4  -4   18.66    2.26
  -8  -4  -4   14.04    1.76
   8   4   4   13.35    1.69
   8   4   4   12.93    1.83
  -8  -3  -4    2.88    1.22
  -8  -3  -4    3.78    1.12
   8   3   4    4.59    1.03
  -8  -2  -4   20.66    1.99
  -8  -2  -4   21.24    2.29
   8   2   4   20.17    1.93
  -8  -1  -4    0.73    0.98
  -8  -1  -4    1.84    0.83
   8   1   4    1.35    0.83
  -8   0  -4    0.31    0.89
  -8   0  -4   -0.17    0.71
   8   0   4    0.45    0.69
  -8   1  -4    1.31    1.00
  -8   1  -4    1.54    0.76
  -8   2  -4   18.38    1.83
  -8   2  -4   21.07    2.33
  -8   3  -4    3.18    1.31
  -8   3  -4    4.89    1.02
  -8   4  -4   17.68    2.25
  -8   4  -4   12.26    1.54
  -8   5  -4    4.85    1.09
  -8   5  -4    4.68    1.52
  -8   6  -4    3.79    1.10
  -8   6  -4    3.13    1.45
  -9  -5  -4    4.21    1.68
  -9  -5  -4    4.21    1.42
   9   5   4    9.23    1.64
  -9  -4  -4    5.23    1.51
  -9  -4  -4    4.81    1.28
   9   4   4    6.98    1.48
  -9  -3  -4    5.42    1.51
  -9  -3  -4    4.59    1.21
   9   3   4    6.46    1.32
  -9  -2  -4   13.95    2.02
  -9  -2  -4   13.69    1.71
   9   2   4   12.97    1.65
  -9  -1  -4    7.31    1.30
  -9  -1  -4    7.10    1.51
   9   1   4    7.64    1.26
  -9   0  -4   15.83    1.73
  -9   0  -4   19.14    2.16
  -9   1  -4    9.47    1.54
  -9   1  -4    6.43    1.19
  -9   2  -4   17.19    1.85
  -9   2  -4   21.66    2.49
  -9   3  -4    6.25    1.59
  -9   3  -4    5.11    1.08
  -9   4  -4    7.49    1.25
  -9   4  -4    9.86    1.94
  -9   5  -4    7.34    1.79
  -9   5  -4    8.66    1.35
 -10  -3  -4    1.79    1.16
 -10  -3  -4    0.50    1.25
 -10  -2  -4    0.71    1.00
 -10  -2  -4    0.58    1.24
 -10  -1  -4   -0.77    1.18
 -10  -1  -4   -0.11    0.87
 -10   0  -4    8.13    1.39
 -10   0  -4   11.37    1.91
 -10   1  -4    0.97    0.85
 -10   1  -4   -1.65    0.98
 -10   2  -4    0.29    0.81
 -10   2  -4   -0.14    1.14
 -10   3  -4    1.07    1.40
 -10   3  -4    0.89    0.89
 -12   3   5    7.24    1.29
 -12   2   5    7.20    1.35
 -12   1   5    5.02    1.23
 -12   0   5    1.36    0.99
 -12  -1   5    6.21    1.31
 -12  -1   5    4.88    0.84
 -12  -2   5    5.55    1.01
 -12  -2   5    5.59    1.34
 -12  -3   5    9.24    1.51
 -12  -3   5    6.62    1.22
 -11   5   5    6.04    1.49
 -11   4   5    9.86    1.39
 -11   4   5   10.64    1.67
 -11   3   5    0.16    0.76
 -11   3   5    0.35    0.92
 -11   2   5   36.34    2.76
 -11   2   5   32.97    2.80
 -11   1   5    6.84    1.25
 -11   1   5    7.23    1.24
 -11   0   5    4.33    1.06
 -11   0   5    5.47    1.12
 -11  -1   5    8.39    1.32
 -11  -1   5    8.34    1.42
 -11  -1   5    7.78    0.98
 -11  -2   5   30.97    2.31
 -11  -2   5   31.63    2.67
 -11  -3   5    0.53    0.90
 -11  -3   5   -0.54    0.73
 -11  -4   5    9.88    1.42
 -11  -4   5    8.59    1.54
 -11  -5   5    8.22    1.51
 -10   6   5    6.10    1.41
 -10   5   5   20.02    2.23
 -10   4   5    4.25    0.97
 -10   4   5    4.25    1.15
 -10   4   5    4.82    0.96
 -10   3   5    0.25    0.77
 -10   3   5   -0.11    0.81
 -10   3   5   -0.21    0.64
 -10   2   5    3.32    0.98
 -10   2   5    2.81    0.97
 -10   2   5    1.89    0.80
 -10   1   5   24.90    2.09
 -10   1   5   23.86    2.11
 -10   1   5   25.50    2.15
 -10   0   5   21.50    1.81
 -10   0   5   18.58    1.86
 -10   0   5   18.07    1.38
 -10   0   5   18.77    1.82
 -10  -1   5   24.24    1.80
 -10  -1   5   23.79    2.16
 -10  -1   5   24.87    2.05
 -10  -1   5   28.22    2.27
 -10  -2   5    3.18    0.98
 -10  -2   5    3.30    0.78
 -10  -2   5    1.56    0.77
 -10  -3   5   -0.02    0.69
 -10  -3   5    0.25    0.73
 -10  -3   5    0.62    0.85
 -10  -4   5    2.71    0.97
 -10  -4   5    3.00    1.06
 -10  -5   5   20.48    2.14
 -10  -5   5   22.79    2.28
 -10  -6   5    5.26    1.25
  -9   6   5   15.20    1.76
  -9   5   5    5.67    1.09
  -9   5   5    6.41    1.30
  -9   4   5   16.51    1.60
  -9   4   5   14.80    1.50
  -9   4   5   18.46    1.94
  -9   4   5   17.19    1.60
  -9   4   5   17.22    1.85
  -9   3   5    1.05    0.75
  -9   3   5    2.87    0.70
  -9   3   5    1.48    0.81
  -9   3   5    1.52    0.72
  -9   2   5   38.52    2.74
  -9   2   5   39.59    2.91
  -9   2   5   39.60    2.87
  -9   1   5    1.77    0.42
  -9   1   5    1.90    0.73
  -9   1   5    2.00    0.76
  -9   1   5    2.19    0.75
  -9   0   5   50.77    3.47
  -9   0   5   52.35    3.19
  -9   0   5   58.90    3.50
  -9   0   5   56.51    3.57
  -9  -1   5    1.69    0.56
  -9  -1   5    1.29    0.66
  -9  -1   5    1.38    0.65
  -9  -1   5    1.70    0.73
  -9  -2   5   40.12    2.92
  -9  -2   5   39.83    2.77
  -9  -2   5   41.66    2.74
  -9  -2   5   41.95    2.74
  -9  -3   5    4.53    0.89
  -9  -3   5    2.34    0.81
  -9  -3   5    2.33    0.84
  -9  -3   5    2.88    0.80
  -9  -4   5   13.31    1.47
  -9  -4   5   12.82    1.61
  -9  -4   5   14.32    1.59
  -9  -5   5    5.63    1.21
  -9  -5   5    7.34    1.27
  -9  -5   5    7.57    1.20
  -9  -6   5   14.78    1.86
  -8   7   5   18.63    2.07
  -8   6   5   15.26    1.82
  -8   5   5   57.44    3.78
  -8   5   5   57.51    3.90
  -8   4   5   17.81    1.77
  -8   4   5   19.60    1.61
  -8   4   5   18.45    1.67
  -8   4   5   18.46    1.81
  -8   4   5   20.74    1.66
  -8   3   5    5.05    0.88
  -8   3   5    5.75    0.90
  -8   3   5    4.92    0.95
  -8   3   5    5.41    0.98
  -8   2   5   43.57    2.96
  -8   2   5   44.44    3.03
  -8   2   5   42.75    2.88
  -8   1   5   34.42    2.31
  -8   1   5   30.09    1.86
  -8   1   5   32.61    2.27
  -8   1   5   29.68    2.27
  -8   0   5   24.72    1.83
  -8   0   5   24.59    1.62
  -8   0   5   23.75    1.84
  -8   0   5   25.98    1.91
  -8  -1   5   39.00    2.51
  -8  -1   5   39.65    2.60
  -8  -1   5   39.94    2.77
  -8  -1   5   42.95    2.66
  -8  -2   5   42.20    2.95
  -8  -2   5   46.33    2.81
  -8  -2   5   42.98    2.80
  -8  -2   5   43.39    2.81
  -8  -3   5    5.06    0.90
  -8  -3   5    5.20    0.89
  -8  -3   5    7.76    0.96
  -8  -3   5    6.31    1.05
  -8  -4   5   14.38    1.48
  -8  -4   5   18.49    1.69
  -8  -4   5   17.70    1.74
  -8  -4   5   17.82    1.54
  -8  -5   5   65.29    4.25
  -8  -5   5   64.15    4.26
  -8  -5   5   64.99    4.18
  -8  -5   5   66.09    4.10
  -8  -6   5    9.43    1.51
  -8  -6   5   11.14    1.44
  -8  -7   5   16.82    2.08
  -7   7   5    0.36    0.88
  -7   6   5    8.51    1.32
  -7   5   5   10.77    1.38
  -7   5   5   10.31    1.35
  -7   5   5   11.10    1.21
  -7   4   5   38.45    2.69
  -7   4   5   39.80    2.56
  -7   4   5   40.48    2.59
  -7   4   5   38.01    2.74
  -7   3   5   11.18    1.27
  -7   3   5   12.17    1.19
  -7   3   5   13.08    1.23
  -7   3   5   11.25    1.27
  -7   2   5  120.92    6.79
  -7   2   5  117.56    6.80
  -7   2   5  114.96    6.82
  -7   1   5   19.05    1.61
  -7   1   5   18.95    1.60
  -7   1   5   21.09    1.27
  -7   1   5   20.29    1.66
  -7   0   5   10.20    1.00
  -7   0   5    9.86    0.85
  -7   0   5    8.79    1.07
  -7   0   5   10.78    1.00
  -7  -1   5   26.39    1.73
  -7  -1   5   23.88    1.68
  -7  -1   5   25.46    1.74
  -7  -1   5   24.57    1.88
  -7  -2   5  107.89    6.30
  -7  -2   5  112.64    6.25
  -7  -2   5  111.24    6.43
  -7  -2   5  109.35    6.27
   7   3  -5   10.12    1.14
   7   3  -5   10.81    1.17
  -7  -3   5    9.22    1.01
  -7  -3   5    6.94    1.04
  -7  -3   5    8.40    0.97
  -7  -3   5    8.43    1.04
   7   4  -5   36.34    2.63
   7   4  -5   37.60    2.60
  -7  -4   5   35.72    2.48
  -7  -4   5   35.35    2.46
  -7  -4   5   38.23    2.61
  -7  -4   5   39.20    2.62
   7   5  -5    6.73    1.16
  -7  -5   5    5.43    1.00
  -7  -5   5    5.37    1.06
  -7  -5   5    5.74    0.95
  -7  -5   5    5.64    0.96
   7   6  -5    8.80    1.50
  -7  -6   5    6.29    1.10
  -7  -6   5    6.11    1.21
  -7  -6   5    7.07    1.12
   7   7  -5    0.44    1.17
  -7  -7   5   -0.20    0.87
  -7  -7   5   -0.71    0.81
  -6   8   5   -0.27    0.93
  -6   7   5   41.90    3.23
  -6   6   5    8.25    1.34
  -6   5   5   14.50    1.55
  -6   5   5   14.15    1.37
  -6   4   5   47.80    3.12
  -6   4   5   47.70    3.00
  -6   4   5   46.76    2.91
  -6   3   5  147.06    8.16
  -6   3   5  141.98    8.22
  -6   3   5  145.43    8.14
  -6   2   5   13.65    1.16
  -6   2   5   14.88    1.22
  -6   2   5   12.40    1.21
  -6   2   5   15.57    1.23
  -6   1   5   88.31    4.85
  -6   1   5   91.02    5.06
  -6   1   5   83.22    4.81
  -6   1   5   88.76    5.09
  -6   1   5   85.74    5.07
   6   0  -5   18.12    1.30
  -6   0   5   18.51    1.47
  -6   0   5   19.73    1.32
  -6   0   5   17.81    1.32
  -6   0   5   18.76    1.26
   6   1  -5   90.14    5.53
   6   1  -5   87.37    5.55
  -6  -1   5  104.00    5.54
  -6  -1   5  103.46    5.51
  -6  -1   5  103.30    5.57
  -6  -1   5  100.93    5.71
   6   2  -5   15.50    1.30
   6   2  -5   15.36    1.34
   6   2  -5   15.46    1.22
  -6  -2   5   14.89    1.23
  -6  -2   5   12.34    1.11
  -6  -2   5   15.12    1.32
  -6  -2   5   14.73    1.11
   6   3  -5  141.10    7.83
   6   3  -5  136.14    7.77
  -6  -3   5  135.61    7.63
  -6  -3   5  136.90    7.79
  -6  -3   5  138.07    7.77
  -6  -3   5  132.22    7.64
   6   4  -5   42.39    2.96
   6   4  -5   42.94    2.94
  -6  -4   5   45.37    2.82
  -6  -4   5   43.33    2.77
  -6  -4   5   47.83    2.99
  -6  -4   5   44.85    2.92
   6   5  -5   12.55    1.43
   6   5  -5   12.38    1.48
  -6  -5   5   15.32    1.60
  -6  -5   5   13.61    1.42
  -6  -5   5   12.32    1.27
   6   6  -5    6.61    1.31
   6   6  -5    6.13    1.18
  -6  -6   5    4.97    1.05
  -6  -6   5    7.34    1.07
  -6  -6   5    7.07    1.09
   6   7  -5   38.46    2.95
   6   7  -5   40.08    3.19
  -6  -7   5   36.17    3.03
   6   8  -5   -0.18    1.16
  -6  -8   5   -0.08    1.06
  -5   8   5    4.65    1.33
  -5   7   5    7.07    1.35
  -5   6   5    5.63    1.13
  -5   6   5    6.17    0.89
  -5   6   5    4.98    0.66
  -5   5   5   31.21    2.16
  -5   5   5   30.70    1.87
  -5   5   5   32.11    2.38
  -5   4   5   39.87    2.45
  -5   4   5   38.19    2.54
  -5   4   5   40.40    2.26
  -5   3   5   58.15    3.37
  -5   3   5   56.00    3.14
  -5   3   5   56.60    3.41
  -5   3   5   56.28    3.12
  -5   2   5  170.89    9.54
  -5   2   5  176.42    9.77
  -5   2   5  180.39    9.78
  -5   2   5  176.03    9.75
  -5   2   5  176.61    9.56
   5  -1  -5   39.48    2.48
  -5   1   5   44.24    2.46
  -5   1   5   44.24    2.67
  -5   1   5   43.09    2.60
  -5   1   5   43.43    2.58
  -5   1   5   42.79    2.50
   5   0  -5   90.25    5.08
  -5   0   5   90.90    5.07
  -5   0   5   90.36    5.23
  -5   0   5   89.49    5.06
  -5   0   5   92.63    5.10
   5   1  -5   40.13    2.35
   5   1  -5   38.66    2.39
  -5  -1   5   39.50    2.29
  -5  -1   5   37.69    2.49
  -5  -1   5   39.18    2.27
  -5  -1   5   39.49    2.40
   5   2  -5  162.43    8.82
   5   2  -5  164.00    8.64
   5   2  -5  164.58    8.69
  -5  -2   5  149.25    8.54
  -5  -2   5  150.68    8.68
  -5  -2   5  152.50    8.56
  -5  -2   5  146.62    8.72
   5   3  -5   56.30    3.68
   5   3  -5   55.67    3.56
   5   3  -5   56.50    3.64
  -5  -3   5   64.70    3.68
  -5  -3   5   63.70    3.68
  -5  -3   5   62.48    3.51
  -5  -3   5   60.89    3.49
   5   4  -5   37.37    2.76
   5   4  -5   38.91    2.76
  -5  -4   5   42.86    2.72
  -5  -4   5   42.37    2.78
  -5  -4   5   44.86    2.62
   5   5  -5   30.69    2.29
   5   5  -5   32.16    2.25
  -5  -5   5   27.06    1.98
  -5  -5   5   27.43    2.05
  -5  -5   5   24.92    2.10
   5   6  -5    5.54    1.11
   5   6  -5    3.36    1.06
  -5  -6   5    3.57    0.97
  -5  -6   5    3.88    0.88
   5   7  -5    5.22    1.24
   5   7  -5    4.71    1.31
  -5  -7   5    6.78    1.25
   5   8  -5    3.81    1.42
   5   8  -5    4.55    1.34
  -5  -8   5    3.55    1.25
  -4   8   5   15.56    2.06
  -4   8   5   18.68    1.68
  -4   7   5   45.24    3.33
  -4   7   5   43.48    2.82
  -4   6   5    4.15    1.02
  -4   6   5    5.14    0.86
  -4   6   5    5.40    0.72
  -4   5   5   17.39    1.66
  -4   5   5   16.88    1.22
  -4   5   5   17.49    1.43
  -4   4   5   90.39    4.95
  -4   4   5   86.35    5.14
  -4   4   5   88.74    5.02
  -4   3   5    8.05    0.75
  -4   3   5    7.23    0.61
  -4   3   5    6.61    0.79
  -4   3   5    6.89    0.64
   4  -2  -5  109.26    6.13
  -4   2   5  111.95    6.17
  -4   2   5  111.81    6.29
  -4   2   5  112.62    6.17
  -4   2   5  114.01    6.32
  -4   1   5   16.58    1.06
  -4   1   5   16.08    1.08
  -4   1   5   15.62    1.06
  -4   1   5   14.28    1.18
  -4   1   5   15.60    1.12
  -4   0   5   17.32    1.04
  -4   0   5   16.54    1.05
  -4   0   5   16.59    1.28
  -4   0   5   18.15    1.20
  -4  -1   5   29.10    1.95
  -4  -1   5   28.49    1.69
  -4  -1   5   31.16    1.89
  -4  -1   5   29.78    1.70
   4   2  -5  106.49    6.12
   4   2  -5  110.89    5.91
   4   2  -5  110.76    6.03
  -4  -2   5  104.82    6.02
  -4  -2   5  104.68    5.85
  -4  -2   5  102.29    5.84
  -4  -2   5  102.16    6.05
   4   3  -5    6.99    0.92
   4   3  -5    6.17    0.84
   4   3  -5    7.18    0.75
  -4  -3   5    9.91    0.99
  -4  -3   5    8.90    0.96
  -4  -3   5    7.01    0.69
   4   4  -5   84.25    5.09
   4   4  -5   86.14    5.11
  -4  -4   5   86.66    5.12
  -4  -4   5   86.05    5.05
  -4  -4   5   87.19    4.94
   4   5  -5   15.33    1.53
   4   5  -5   18.65    1.62
  -4  -5   5   15.06    1.44
  -4  -5   5   13.96    1.55
   4   6  -5    4.67    1.12
   4   6  -5    3.77    1.03
  -4  -6   5    5.69    0.91
  -4  -6   5    5.13    0.99
   4   7  -5   40.01    3.24
   4   7  -5   44.69    3.22
  -4  -7   5   46.95    3.31
   4   8  -5   14.48    1.91
   4   8  -5   17.32    2.05
  -4  -8   5   13.76    1.85
  -3   9   5    2.15    0.98
  -3   9   5    1.22    1.28
  -3   8   5   10.95    1.33
  -3   8   5   10.83    1.68
  -3   7   5   22.54    2.12
  -3   7   5   22.23    1.76
  -3   6   5   63.35    3.78
  -3   6   5   61.02    3.71
  -3   6   5   61.12    4.02
  -3   5   5   19.17    1.34
  -3   5   5   17.12    1.43
  -3   5   5   17.03    1.58
  -3   4   5   38.54    2.31
  -3   4   5   39.63    2.47
  -3   4   5   38.38    2.34
   3  -3  -5   53.04    2.92
  -3   3   5   51.43    2.94
  -3   3   5   50.01    2.95
  -3   3   5   50.82    2.97
  -3   3   5   49.15    2.97
  -3   3   5   48.57    3.06
   3  -2  -5  216.70   11.48
  -3   2   5  208.48   11.51
  -3   2   5  205.95   11.58
  -3   2   5  213.58   11.50
  -3   2   5  210.67   11.46
  -3   2   5  205.83   11.54
   3  -1  -5   95.68    5.55
  -3   1   5   97.22    5.56
  -3   1   5  100.97    5.56
  -3   1   5   97.31    5.53
  -3   1   5  100.39    5.38
   3   0  -5  364.63   20.02
  -3   0   5  376.36   20.05
  -3   0   5  367.67   20.00
  -3   0   5  363.81   20.00
   3   1  -5   95.16    5.70
   3   1  -5  101.51    5.37
   3   1  -5   99.81    5.57
  -3  -1   5   96.19    5.56
   3   2  -5  202.50   11.36
   3   2  -5  207.48   11.44
   3   2  -5  198.69   11.18
  -3  -2   5  210.79   11.37
  -3  -2   5  209.79   11.38
   3   3  -5   44.75    3.04
   3   3  -5   46.91    3.02
   3   3  -5   49.10    2.89
  -3  -3   5   51.41    3.03
  -3  -3   5   52.66    3.05
   3   4  -5   37.31    2.61
   3   4  -5   40.03    2.63
  -3  -4   5   40.56    2.63
  -3  -4   5   38.57    2.53
   3   5  -5   17.63    1.58
   3   5  -5   15.40    1.52
  -3  -5   5   19.70    1.54
  -3  -5   5   18.51    1.59
   3   6  -5   63.14    3.92
   3   6  -5   60.35    3.88
  -3  -6   5   56.88    3.68
  -3  -6   5   57.48    3.89
   3   7  -5   22.04    2.14
   3   7  -5   21.91    2.15
  -3  -7   5   16.60    1.94
   3   8  -5    8.32    1.54
   3   8  -5    9.62    1.62
  -3  -8   5    5.94    1.36
   3   9  -5    1.75    1.39
   3   9  -5    0.82    1.29
  -2   9   5    5.32    1.20
  -2   9   5    4.82    1.48
  -2   8   5   16.67    1.69
  -2   8   5   13.84    1.84
  -2   7   5   19.56    2.07
  -2   7   5   18.88    1.64
  -2   7   5   19.31    1.74
  -2   6   5   21.90    1.96
  -2   6   5   21.26    1.68
  -2   6   5   21.68    1.68
  -2   5   5   62.57    3.72
  -2   5   5   62.01    3.75
  -2   4   5   14.21    1.10
  -2   4   5   13.89    0.97
  -2   4   5   11.34    1.14
   2  -3  -5   10.19    0.92
  -2   3   5   13.79    0.94
  -2   3   5   12.53    0.98
  -2   3   5    9.51    0.90
  -2   3   5   12.79    1.05
   2  -2  -5   67.87    3.60
  -2   2   5   60.99    3.51
  -2   2   5   61.74    3.60
  -2   2   5   58.77    3.57
  -2   2   5   60.71    3.63
  -2   1   5   38.24    2.30
  -2   1   5   38.15    2.30
  -2   1   5   37.06    2.11
  -2   1   5   36.73    2.32
   2   0  -5   71.45    4.07
  -2   0   5   70.55    3.99
  -2   0   5   67.31    4.03
  -2   0   5   69.83    4.05
   2   1  -5   41.08    2.87
   2   1  -5   39.52    2.97
  -2  -1   5   55.85    2.94
  -2  -1   5   52.88    2.84
  -2  -1   5   51.64    2.90
   2   2  -5   61.11    3.55
   2   2  -5   58.08    3.76
   2   2  -5   58.51    3.73
  -2  -2   5   67.73    3.77
  -2  -2   5   68.63    3.78
  -2  -2   5   67.67    3.63
   2   3  -5   12.21    1.14
   2   3  -5   10.43    1.09
   2   3  -5   12.62    0.93
  -2  -3   5   10.86    1.10
  -2  -3   5    9.77    1.07
   2   4  -5   13.83    1.25
   2   4  -5   13.19    1.25
  -2  -4   5    8.90    1.04
  -2  -4   5    9.04    1.13
   2   5  -5   61.53    4.19
   2   5  -5   61.73    4.16
  -2  -5   5   74.03    4.10
  -2  -5   5   72.37    4.23
   2   6  -5   23.32    2.04
   2   6  -5   25.22    2.08
  -2  -6   5   20.70    1.87
  -2  -6   5   21.19    1.76
   2   7  -5   18.86    2.05
   2   7  -5   19.59    2.14
  -2  -7   5   22.73    2.04
   2   8  -5   15.81    1.99
   2   8  -5   15.43    1.96
  -2  -8   5   18.13    2.04
   2   9  -5    3.67    1.42
   2   9  -5    4.07    1.45
  -1   9   5   -0.54    1.16
  -1   9   5    1.02    0.99
  -1   8   5    1.12    1.10
  -1   8   5    0.38    0.87
  -1   7   5   50.34    3.43
  -1   7   5   45.08    3.19
  -1   7   5   47.80    3.07
  -1   6   5   12.25    1.46
  -1   6   5   13.09    1.31
  -1   6   5   10.06    1.17
  -1   5   5  147.85    8.26
  -1   5   5  145.95    8.28
   1  -4  -5   61.80    3.93
   1  -4  -5   60.88    3.97
  -1   4   5   69.51    3.97
  -1   4   5   74.44    4.01
  -1   4   5   69.42    3.79
   1  -3  -5   19.56    1.37
   1  -3  -5   19.58    1.40
  -1   3   5   20.45    1.33
  -1   3   5   19.88    1.46
  -1   3   5   20.85    1.45
  -1   3   5   18.67    1.38
   1  -2  -5   35.53    2.18
   1  -2  -5   33.92    2.08
  -1   2   5   34.97    2.07
  -1   2   5   34.63    2.18
  -1   2   5   34.18    2.13
   1  -1  -5  359.95   20.53
   1  -1  -5  377.50   20.35
   1  -1  -5  362.69   20.34
  -1   1   5  361.70   20.52
  -1   1   5  393.96   20.49
  -1   1   5  394.65   20.37
  -1   1   5  385.73   20.48
   1   0  -5    5.24    0.72
   1   0  -5    4.86    0.76
   1   0  -5    4.60    0.38
   1   0  -5    4.32    0.39
  -1   0   5    4.78    0.57
  -1   0   5    4.15    0.65
  -1   0   5    4.16    0.43
  -1   0   5    5.26    0.65
   1   1  -5  402.96   21.06
   1   1  -5  386.98   20.82
   1   1  -5  387.22   20.83
   1   1  -5  397.31   21.10
  -1  -1   5  372.18   21.00
  -1  -1   5  379.87   20.90
  -1  -1   5  372.94   21.02
   1   2  -5   35.85    2.35
   1   2  -5   37.38    2.37
  -1  -2   5   36.75    2.17
  -1  -2   5   37.09    2.32
  -1  -2   5   35.80    2.35
   1   3  -5   17.82    1.41
   1   3  -5   16.12    1.37
  -1  -3   5   17.11    1.39
  -1  -3   5   18.54    1.17
  -1  -3   5   18.57    1.44
   1   4  -5   69.84    3.95
   1   4  -5   68.46    3.94
  -1  -4   5   63.72    3.93
  -1  -4   5   60.73    3.60
  -1  -4   5   59.69    3.82
   1   5  -5  138.77    8.43
   1   5  -5  142.83    8.43
  -1  -5   5  151.90    8.46
  -1  -5   5  154.38    8.32
   1   6  -5    9.14    1.31
   1   6  -5   14.61    1.55
  -1  -6   5   12.42    1.46
  -1  -6   5    9.83    1.14
   1   7  -5   48.44    3.51
   1   7  -5   52.01    3.62
  -1  -7   5   49.12    3.48
   1   8  -5    0.27    1.04
   1   8  -5   -0.37    1.11
   1   9  -5    0.41    1.22
   1   9  -5    0.83    1.33
   0   9   5    3.03    1.30
   0   9   5    3.58    1.26
   0   8   5    6.31    1.31
   0   8   5    7.13    1.35
   0   7   5    6.17    1.14
   0   7   5    5.97    1.21
   0   7   5    5.90    1.00
   0  -6  -5   27.08    2.04
   0   6   5   20.53    1.95
   0   6   5   20.86    1.91
   0   6   5   24.78    1.81
   0  -5  -5    9.47    1.13
   0  -5  -5    9.58    1.17
   0   5   5   13.41    1.25
   0   5   5   13.19    1.22
   0  -4  -5   67.34    4.36
   0  -4  -5   68.85    4.36
   0   4   5   77.00    4.17
   0   4   5   79.25    4.37
   0   4   5   77.30    4.38
   0  -3  -5  100.91    5.59
   0  -3  -5  103.29    5.55
   0  -3  -5  101.59    5.57
   0   3   5   92.84    5.58
   0   3   5   97.01    5.56
   0   3   5   89.25    5.43
   0  -2  -5   65.98    3.75
   0  -2  -5   65.55    3.73
   0  -2  -5   67.00    3.85
   0   2   5   64.76    3.75
   0   2   5   64.12    3.74
   0   2   5   64.66    3.84
   0   2   5   62.62    3.78
   0  -1  -5   52.96    2.95
   0  -1  -5   55.52    2.97
   0  -1  -5   53.94    3.15
   0   1   5   48.66    3.02
   0   1   5   47.12    3.09
   0   1   5   50.44    2.97
   0   1   5   48.46    3.02
   0   0  -5  249.31   13.51
   0   0  -5  248.01   13.72
   0   0  -5  260.00   13.54
   0   0  -5  249.42   13.75
   0   0   5  247.37   13.64
   0   0   5  235.64   13.68
   0   0   5  247.30   13.57
   0   0   5  251.23   13.56
   0   1  -5   55.29    3.21
   0   1  -5   51.07    3.35
   0   1  -5   53.43    3.18
   0   1  -5   54.04    3.34
   0  -1   5   57.19    3.30
   0  -1   5   58.24    3.38
   0  -1   5   56.91    3.18
   0   2  -5   67.17    3.90
   0   2  -5   64.43    4.02
   0   2  -5   65.70    4.05
   0  -2   5   71.83    3.84
   0  -2   5   69.97    4.02
   0  -2   5   68.17    4.06
   0   3  -5   95.99    5.94
   0   3  -5   98.46    5.95
   0  -3   5  103.11    5.91
   0  -3   5  111.46    5.71
   0  -3   5  105.62    5.97
   0   4  -5   75.46    4.38
   0   4  -5   79.12    4.40
   0  -4   5   68.89    3.99
   0  -4   5   68.98    4.36
   0  -4   5   70.39    4.28
   0   5  -5   14.13    1.44
   0   5  -5   12.76    1.39
   0  -5   5   10.61    1.18
   0  -5   5   12.14    1.39
   0   6  -5   21.92    2.11
   0   6  -5   25.10    2.21
   0  -6   5   26.42    2.14
   0  -6   5   29.23    1.98
   0   7  -5    5.98    1.31
   0   7  -5    4.75    1.12
   0   8  -5    6.40    1.53
   0   8  -5    8.53    1.54
   0   9  -5    3.19    1.37
   0   9  -5    5.26    1.52
   1   8   5    5.31    1.29
   1   8   5    4.98    1.31
   1   8   5    6.60    1.35
  -1  -7  -5   33.14    2.65
   1   7   5   35.09    2.63
   1   7   5   30.47    2.58
   1   7   5   31.39    2.39
  -1  -6  -5   14.23    1.53
   1   6   5   12.52    1.45
   1   6   5   13.62    1.37
   1   6   5   13.17    1.51
  -1  -5  -5   15.88    1.52
  -1  -5  -5   14.07    1.51
   1   5   5   18.04    1.57
   1   5   5   17.42    1.54
   1   5   5   17.48    1.46
  -1  -4  -5  160.18    9.11
  -1  -4  -5  155.22    9.12
  -1  -4  -5  152.32    9.08
   1   4   5  164.14    9.11
   1   4   5  166.19    9.06
   1   4   5  170.10    8.90
  -1  -3  -5   62.32    3.44
  -1  -3  -5   65.05    3.43
  -1  -3  -5   61.79    3.46
   1   3   5   49.66    3.25
   1   3   5   50.02    3.36
   1   3   5   50.00    3.41
  -1  -2  -5  157.41    8.72
  -1  -2  -5  151.26    8.77
  -1  -2  -5  153.70    8.68
   1   2   5  156.37    8.69
   1   2   5  158.04    8.67
   1   2   5  159.07    8.72
   1   2   5  158.07    8.77
  -1  -1  -5   28.89    1.96
  -1  -1  -5   28.60    1.98
  -1  -1  -5   28.09    2.09
   1   1   5   34.74    2.05
   1   1   5   35.93    2.09
   1   1   5   33.38    2.10
   1   1   5   31.89    1.98
  -1   0  -5   73.28    4.33
  -1   0  -5   74.25    4.18
  -1   0  -5   69.49    4.14
  -1   0  -5   73.81    4.35
   1   0   5   71.88    4.23
   1   0   5   75.59    4.23
   1   0   5   72.64    4.15
   1   0   5   69.92    4.27
  -1   1  -5   37.51    2.24
  -1   1  -5   35.04    2.13
  -1   1  -5   36.82    2.27
  -1   1  -5   37.75    2.19
   1  -1   5   30.32    2.15
   1  -1   5   29.67    2.00
   1  -1   5   30.85    2.09
   1  -1   5   29.45    2.21
  -1   2  -5  169.80    9.09
  -1   2  -5  163.48    9.02
  -1   2  -5  163.28    9.16
  -1   2  -5  163.62    9.00
   1  -2   5  157.64    9.12
   1  -2   5  155.90    9.06
   1  -2   5  160.58    8.87
  -1   3  -5   50.66    3.77
   1  -3   5   66.52    3.54
   1  -3   5   66.22    3.90
   1  -3   5   70.20    3.85
  -1   4  -5  164.21    9.23
  -1   4  -5  167.49    9.27
   1  -4   5  162.77    9.17
   1  -4   5  157.61    9.24
  -1   5  -5   19.24    1.70
  -1   5  -5   17.98    1.66
   1  -5   5   15.90    1.59
   1  -5   5   15.78    1.45
  -1   6  -5    9.95    1.39
  -1   6  -5   13.42    1.57
   1  -6   5   11.82    1.44
   1  -6   5   13.63    1.34
  -1   7  -5   31.32    2.65
  -1   7  -5   28.60    2.59
  -1   8  -5    6.85    1.42
  -1   8  -5    8.34    1.60
  -2  -8  -5   15.47    1.97
   2   8   5   12.72    1.54
   2   8   5   14.96    1.77
   2   8   5   12.10    1.78
  -2  -7  -5    4.64    1.14
   2   7   5    2.80    1.03
   2   7   5    1.80    1.03
   2   7   5    2.52    0.89
  -2  -6  -5    0.41    0.79
  -2  -6  -5    1.45    0.88
   2   6   5    0.77    0.72
   2   6   5    0.62    0.85
   2   6   5    0.82    0.75
  -2  -5  -5    6.25    1.04
  -2  -5  -5    7.89    1.10
  -2  -5  -5    6.42    1.08
   2   5   5    7.48    1.14
   2   5   5    5.38    0.88
   2   5   5    6.80    1.01
  -2  -4  -5  136.18    7.75
  -2  -4  -5  136.30    7.74
  -2  -4  -5  135.00    7.72
   2   4   5  128.68    7.70
   2   4   5  137.29    7.66
  -2  -3  -5   31.02    2.15
  -2  -3  -5   28.54    2.08
  -2  -3  -5   31.64    2.15
   2   3   5   30.41    2.06
   2   3   5   29.87    2.15
   2   3   5   30.56    1.97
  -2  -2  -5  133.54    7.91
  -2  -2  -5  136.99    7.99
  -2  -2  -5  131.73    7.92
   2   2   5  149.67    7.88
   2   2   5  150.69    7.91
   2   2   5  142.03    7.98
  -2  -1  -5    9.84    0.97
  -2  -1  -5   10.70    1.12
  -2  -1  -5   11.21    1.05
   2   1   5   10.28    0.97
   2   1   5    9.81    0.98
   2   1   5   10.32    1.10
  -2   0  -5    4.88    0.78
  -2   0  -5    5.20    0.73
  -2   0  -5    5.72    0.86
  -2   0  -5    4.51    0.68
   2   0   5    5.98    0.86
   2   0   5    6.62    0.81
   2   0   5    5.56    0.65
   2   0   5    6.67    0.82
  -2   1  -5    8.80    0.98
  -2   1  -5   11.08    1.12
  -2   1  -5    9.41    1.02
  -2   1  -5    9.11    1.10
   2  -1   5   11.64    1.20
   2  -1   5    9.37    0.84
   2  -1   5    9.76    1.02
   2  -1   5   11.41    1.14
  -2   2  -5  147.60    8.20
  -2   2  -5  150.40    8.33
  -2   2  -5  148.13    8.20
  -2   2  -5  157.46    8.26
   2  -2   5  140.02    8.20
   2  -2   5  141.71    7.99
   2  -2   5  134.35    8.25
  -2   3  -5   28.45    2.27
  -2   3  -5   31.40    2.20
  -2   3  -5   28.86    2.18
   2  -3   5   34.03    1.89
   2  -3   5   34.85    2.23
   2  -3   5   34.42    2.31
  -2   4  -5  134.75    8.05
  -2   4  -5  140.40    8.01
  -2   4  -5  135.24    7.99
   2  -4   5  143.07    7.96
   2  -4   5  145.60    8.07
  -2   5  -5    6.57    1.12
  -2   5  -5    6.46    1.10
  -2   5  -5    5.72    1.03
   2  -5   5    6.71    1.06
   2  -5   5    7.20    0.97
  -2   6  -5   -0.09    0.77
  -2   6  -5    0.14    0.80
   2  -6   5    0.63    0.64
  -2   7  -5    3.10    1.17
  -2   7  -5    4.09    1.17
  -2   8  -5   14.02    2.01
  -2   8  -5   15.58    1.96
  -3  -8  -5    5.43    1.45
   3   8   5    4.53    1.12
   3   8   5    5.37    1.47
  -3  -7  -5   23.25    2.34
   3   7   5   22.97    2.28
   3   7   5   18.98    2.27
   3   7   5   26.90    2.10
  -3  -6  -5    0.52    0.87
  -3  -6  -5    0.75    0.85
   3   6   5    1.08    0.79
   3   6   5    2.04    0.96
   3   6   5    2.00    0.84
  -3  -5  -5   15.26    1.59
  -3  -5  -5   13.68    1.56
  -3  -5  -5   13.74    1.57
   3   5   5   13.61    1.53
   3   5   5   14.86    1.40
   3   5   5   13.58    1.39
  -3  -4  -5    2.23    0.76
  -3  -4  -5    2.00    0.78
  -3  -4  -5    2.54    0.79
   3   4   5    1.00    0.74
   3   4   5    0.81    0.68
  -3  -3  -5  139.10    7.71
  -3  -3  -5  139.05    7.74
  -3  -3  -5  131.38    7.68
   3   3   5  130.88    7.58
   3   3   5  128.39    7.66
  -3  -2  -5   11.40    1.20
  -3  -2  -5   12.43    1.28
  -3  -2  -5   12.12    1.19
   3   2   5    9.63    1.05
   3   2   5   11.86    1.11
   3   2   5   12.40    1.27
  -3  -1  -5   57.88    3.55
  -3  -1  -5   60.74    3.59
  -3  -1  -5   61.55    3.53
   3   1   5   51.96    3.42
   3   1   5   52.87    3.51
   3   1   5   57.24    3.41
  -3   0  -5   31.82    2.28
  -3   0  -5   33.82    2.20
  -3   0  -5   31.39    2.22
  -3   0  -5   32.16    2.20
   3   0   5   32.22    2.26
   3   0   5   31.78    2.19
   3   0   5   33.42    2.08
  -3   1  -5   55.74    3.51
  -3   1  -5   53.24    3.53
  -3   1  -5   52.46    3.49
  -3   1  -5   52.94    3.36
   3  -1   5   57.10    3.24
   3  -1   5   58.73    3.48
   3  -1   5   56.57    3.40
  -3   2  -5   10.41    1.24
  -3   2  -5   11.24    1.14
  -3   2  -5   10.40    1.25
  -3   2  -5   11.69    1.21
   3  -2   5   11.44    1.17
   3  -2   5   13.28    1.28
   3  -2   5   12.49    0.92
  -3   3  -5  130.62    7.60
  -3   3  -5  127.05    7.67
  -3   3  -5  130.54    7.64
  -3   3  -5  133.75    7.56
   3  -3   5  133.24    7.26
   3  -3   5  136.50    7.66
   3  -3   5  135.05    7.58
  -3   4  -5    0.50    0.65
  -3   4  -5    0.98    0.61
  -3   4  -5    0.50    0.67
   3  -4   5    1.89    0.68
   3  -4   5    1.39    0.75
  -3   5  -5   15.78    1.64
  -3   5  -5   13.89    1.61
  -3   5  -5   16.30    1.64
   3  -5   5   14.80    1.45
  -3   6  -5    2.12    0.92
  -3   6  -5    1.86    0.87
  -3   6  -5    1.75    0.94
   3  -6   5    1.20    0.73
  -3   7  -5   21.81    2.30
  -3   8  -5    7.17    1.62
  -4  -8  -5    1.17    1.21
   4   8   5    1.48    1.31
   4   8   5    3.47    1.15
  -4  -7  -5    5.81    1.43
  -4  -7  -5    4.41    1.29
   4   7   5    4.62    1.15
   4   7   5    3.25    1.24
  -4  -6  -5   26.79    2.51
  -4  -6  -5   27.90    2.54
   4   6   5   29.28    2.58
   4   6   5   31.39    2.37
  -4  -5  -5   29.87    2.37
  -4  -5  -5   28.00    2.41
  -4  -5  -5   28.25    2.36
   4   5   5   27.07    2.19
   4   5   5   29.01    2.44
  -4  -4  -5   20.51    1.90
  -4  -4  -5   18.89    1.80
  -4  -4  -5   18.58    1.81
   4   4   5   17.23    1.82
   4   4   5   20.03    1.63
  -4  -3  -5   48.98    3.39
  -4  -3  -5   51.95    3.42
  -4  -3  -5   49.99    3.43
   4   3   5   54.74    3.44
   4   3   5   53.80    3.29
  -4  -2  -5   20.41    1.71
  -4  -2  -5   19.18    1.73
  -4  -2  -5   16.65    1.75
   4   2   5   24.56    1.77
   4   2   5   21.47    1.63
  -4  -1  -5   44.08    3.01
  -4  -1  -5   43.58    2.98
  -4  -1  -5   42.18    2.98
   4   1   5   47.65    2.85
   4   1   5   47.89    2.93
   4   1   5   46.03    2.98
  -4   0  -5  116.99    6.75
  -4   0  -5  116.15    6.75
  -4   0  -5  112.76    6.75
  -4   0  -5  118.99    6.61
   4   0   5  113.81    6.53
   4   0   5  114.84    6.68
   4   0   5  116.68    6.71
  -4   1  -5   49.69    3.18
  -4   1  -5   50.45    3.16
  -4   1  -5   46.83    3.05
  -4   1  -5   48.23    2.92
   4  -1   5   44.58    3.00
   4  -1   5   43.33    3.01
   4  -1   5   42.62    2.75
  -4   2  -5   23.43    1.87
  -4   2  -5   25.49    1.70
  -4   2  -5   24.90    1.93
  -4   2  -5   23.50    1.94
   4  -2   5   20.42    1.47
   4  -2   5   19.47    1.75
   4  -2   5   18.87    1.74
  -4   3  -5   58.39    3.68
  -4   3  -5   60.45    3.68
  -4   3  -5   56.95    3.52
  -4   3  -5   56.96    3.69
   4  -3   5   53.31    3.60
   4  -3   5   51.60    3.56
  -4   4  -5   18.44    1.76
  -4   4  -5   18.66    1.61
  -4   4  -5   18.60    1.76
  -4   4  -5   17.95    1.78
   4  -4   5   18.50    1.69
  -4   5  -5   30.03    2.47
  -4   5  -5   28.64    2.31
  -4   5  -5   30.18    2.40
   4  -5   5   28.44    2.28
  -4   6  -5   32.07    2.57
  -4   6  -5   28.92    2.53
  -4   7  -5    2.13    1.14
  -4   7  -5    4.39    1.20
  -4   8  -5    3.72    1.34
  -4   8  -5    2.84    1.21
  -5  -7  -5   17.71    2.17
  -5  -7  -5   17.72    2.10
   5   7   5   15.29    2.06
   5   7   5   15.50    1.82
  -5  -6  -5    3.96    1.24
  -5  -6  -5    3.35    1.24
   5   6   5    1.84    1.24
   5   6   5    2.04    1.04
  -5  -5  -5   20.00    2.16
  -5  -5  -5   21.15    2.09
   5   5   5   18.19    1.89
   5   5   5   20.30    2.14
  -5  -4  -5   25.26    2.40
  -5  -4  -5   29.99    2.33
  -5  -4  -5   29.52    2.42
   5   4   5   27.92    2.24
   5   4   5   28.99    2.42
  -5  -3  -5    8.46    1.28
  -5  -3  -5    9.48    1.32
  -5  -3  -5    5.89    1.17
   5   3   5    8.29    1.17
   5   3   5    8.42    1.12
  -5  -2  -5    8.51    1.20
  -5  -2  -5   10.43    1.32
  -5  -2  -5    8.54    1.19
   5   2   5    9.37    1.28
   5   2   5    7.52    1.05
  -5  -1  -5   17.20    1.69
  -5  -1  -5   18.38    1.64
  -5  -1  -5   17.30    1.65
   5   1   5   15.03    1.59
   5   1   5   16.55    1.45
  -5   0  -5    1.27    0.68
  -5   0  -5    0.02    0.63
  -5   0  -5    0.74    0.66
   5   0   5    0.51    0.64
   5   0   5    0.77    0.53
  -5   1  -5   16.10    1.78
  -5   1  -5   16.61    1.61
  -5   1  -5   18.18    1.46
  -5   1  -5   16.88    1.73
   5  -1   5   17.92    1.60
   5  -1   5   18.50    1.39
  -5   2  -5    7.25    1.26
  -5   2  -5    7.27    1.25
  -5   2  -5    6.94    0.94
  -5   2  -5    7.79    1.16
   5  -2   5    9.78    1.20
   5  -2   5    8.96    0.85
   5  -2   5    8.56    1.09
  -5   3  -5    8.80    1.33
  -5   3  -5    8.08    1.04
  -5   3  -5   10.05    1.42
  -5   3  -5    9.57    1.30
  -5   4  -5   27.32    2.22
  -5   4  -5   25.10    2.24
  -5   4  -5   24.43    2.04
  -5   4  -5   28.64    2.31
  -5   5  -5   16.76    1.91
  -5   5  -5   19.49    2.00
  -5   5  -5   18.19    1.84
  -5   6  -5    3.69    1.13
  -5   6  -5    2.29    1.13
  -5   6  -5    1.89    0.98
  -5   7  -5   15.26    1.99
  -5   7  -5   18.94    2.13
  -6  -7  -5    8.85    1.77
  -6  -7  -5   10.81    1.89
   6   7   5   12.06    1.95
   6   7   5    9.69    1.59
  -6  -6  -5   14.88    1.92
  -6  -6  -5   14.87    1.97
   6   6   5   13.74    2.01
   6   6   5   15.58    1.80
  -6  -5  -5    7.75    1.54
  -6  -5  -5    9.09    1.56
   6   5   5    8.82    1.56
   6   5   5   11.94    1.53
  -6  -4  -5   11.10    1.59
  -6  -4  -5    7.96    1.30
   6   4   5    8.45    1.48
   6   4   5    9.63    1.35
  -6  -3  -5    4.33    1.17
  -6  -3  -5    4.98    1.18
  -6  -3  -5    5.06    1.12
   6   3   5    3.18    0.96
   6   3   5    3.45    0.95
  -6  -2  -5   30.26    2.39
  -6  -2  -5   23.82    2.37
  -6  -2  -5   28.79    2.25
   6   2   5   26.98    2.25
   6   2   5   26.77    2.10
  -6  -1  -5   59.16    4.03
  -6  -1  -5   55.13    3.86
  -6  -1  -5   60.91    3.99
   6   1   5   60.47    3.87
   6   1   5   63.31    3.73
  -6   0  -5  102.90    6.43
  -6   0  -5  106.72    6.40
  -6   0  -5  102.99    6.29
   6   0   5  109.11    6.12
   6   0   5  106.66    6.26
  -6   1  -5   60.38    3.90
  -6   1  -5   61.99    4.11
  -6   1  -5   63.73    4.09
   6  -1   5   58.46    3.90
   6  -1   5   59.21    3.64
  -6   2  -5   30.51    2.69
  -6   2  -5   31.78    2.62
  -6   2  -5   30.77    2.16
  -6   2  -5   30.17    2.40
   6  -2   5   30.38    2.04
  -6   3  -5    4.49    1.12
  -6   3  -5    3.57    0.97
  -6   3  -5    3.48    0.77
  -6   3  -5    2.58    1.05
  -6   4  -5    9.28    1.39
  -6   4  -5   11.68    1.63
  -6   4  -5   10.08    1.28
  -6   5  -5   10.50    1.58
  -6   5  -5    8.61    1.26
  -6   5  -5    8.59    1.41
  -6   6  -5   13.04    1.77
  -6   6  -5   15.43    1.80
  -6   6  -5   13.15    1.87
  -6   7  -5   11.74    1.78
  -6   7  -5   15.95    1.95
  -6   7  -5   12.64    2.04
  -7  -6  -5   12.62    2.03
  -7  -6  -5   13.75    2.03
   7   6   5   15.38    2.11
   7   6   5   14.35    1.87
  -7  -5  -5    0.28    1.14
  -7  -5  -5    0.15    1.03
   7   5   5    0.03    1.23
   7   5   5    0.67    1.06
  -7  -4  -5    7.92    1.43
  -7  -4  -5    5.72    1.46
   7   4   5    5.88    1.25
   7   4   5   10.17    1.59
  -7  -3  -5   -0.35    0.77
  -7  -3  -5    1.70    0.99
   7   3   5    2.57    0.95
   7   3   5    1.25    1.08
  -7  -2  -5    1.20    0.86
  -7  -2  -5    0.28    0.91
   7   2   5    3.22    0.92
   7   2   5    1.82    1.00
  -7  -1  -5    3.43    1.06
  -7  -1  -5    3.26    1.09
  -7  -1  -5    2.66    0.89
   7   1   5    1.31    0.90
   7   1   5    1.02    0.80
  -7   0  -5   13.97    1.79
  -7   0  -5   16.03    1.73
  -7   0  -5   17.41    1.94
   7   0   5   16.60    1.59
  -7   1  -5    1.06    0.80
  -7   1  -5    0.71    0.83
  -7   1  -5    2.65    1.05
   7  -1   5    3.68    0.77
  -7   2  -5    2.96    0.96
  -7   2  -5    2.35    1.05
  -7   3  -5    1.00    0.85
  -7   3  -5    1.15    1.07
  -7   4  -5    7.75    1.28
  -7   4  -5    9.00    1.64
  -7   5  -5    0.04    1.02
  -7   5  -5   -1.15    0.84
  -7   6  -5   14.68    1.83
  -7   6  -5   14.37    2.08
  -8  -5  -5   12.55    2.08
  -8  -5  -5    9.54    1.72
   8   5   5   11.29    1.97
   8   5   5    9.94    1.66
  -8  -4  -5   13.89    2.04
  -8  -4  -5   11.88    1.75
   8   4   5   12.73    1.68
   8   4   5   13.15    1.93
  -8  -3  -5    1.52    1.19
  -8  -3  -5    0.85    0.95
   8   3   5    2.20    1.07
  -8  -2  -5   17.22    1.94
  -8  -2  -5   17.24    2.08
   8   2   5   14.07    1.66
  -8  -1  -5   32.30    2.71
  -8  -1  -5   37.61    2.99
   8   1   5   36.84    2.65
  -8   0  -5    0.98    0.85
  -8   0  -5    0.17    0.92
   8   0   5    2.63    0.88
  -8   1  -5   38.74    3.10
  -8   1  -5   40.80    2.98
   8  -1   5   37.77    2.68
  -8   2  -5   18.48    1.90
  -8   2  -5   18.17    2.31
  -8   3  -5    0.94    1.15
  -8   3  -5    0.08    0.85
  -8   4  -5   13.03    2.03
  -8   4  -5   14.09    1.70
  -8   5  -5    8.01    1.40
  -8   5  -5   10.29    1.91
  -9  -4  -5    4.27    1.59
  -9  -4  -5    3.54    1.32
   9   4   5    6.01    1.43
  -9  -3  -5    4.02    1.43
  -9  -3  -5    4.77    1.29
   9   3   5    3.18    1.23
  -9  -2  -5    9.77    1.56
  -9  -2  -5    8.30    1.62
   9   2   5    7.10    1.35
  -9  -1  -5    2.32    1.22
  -9  -1  -5    2.03    1.08
   9   1   5    0.87    0.96
  -9   0  -5    1.26    0.97
  -9   0  -5    1.26    1.09
   9   0   5    0.81    0.93
  -9   1  -5    0.49    1.06
  -9   1  -5   -0.54    0.85
  -9   2  -5    7.38    1.65
  -9   2  -5    6.43    1.28
  -9   3  -5    4.73    1.21
  -9   3  -5    5.96    1.61
  -9   4  -5    3.41    1.09
  -9   4  -5    3.80    1.53
 -10  -2  -5    0.97    1.31
 -10  -2  -5    1.74    1.12
 -10  -1  -5    2.71    1.16
 -10  -1  -5    4.02    1.44
 -10   0  -5    1.46    1.28
 -10   0  -5    1.10    0.99
 -10   1  -5    4.79    1.52
 -10   1  -5    4.80    1.23
 -10   2  -5    1.34    0.95
 -10   2  -5    1.14    1.30
 -12   3   6    6.02    1.25
 -12   2   6    1.86    1.02
 -12   1   6    3.88    1.17
 -12   0   6    4.65    1.20
 -12  -1   6    2.65    1.12
 -12  -2   6    4.63    0.95
 -12  -2   6    3.95    1.24
 -12  -3   6    4.30    1.34
 -12  -3   6    4.15    1.02
 -11   4   6   15.52    1.77
 -11   3   6    6.46    1.27
 -11   3   6    9.10    1.31
 -11   2   6   24.45    2.24
 -11   1   6    4.59    1.13
 -11   0   6    0.73    0.93
 -11  -1   6    4.09    0.78
 -11  -1   6    4.75    1.19
 -11  -2   6   27.66    2.46
 -11  -2   6   26.72    2.09
 -11  -3   6    7.07    1.38
 -11  -3   6    6.46    1.12
 -11  -4   6   11.92    1.76
 -11  -4   6   12.07    1.59
 -10   5   6    0.34    0.89
 -10   4   6   16.05    1.65
 -10   4   6   14.11    1.57
 -10   3   6    7.79    1.22
 -10   3   6    7.44    1.19
 -10   2   6   28.84    2.35
 -10   1   6   12.05    1.49
 -10   0   6    4.82    1.09
 -10   0   6    4.73    0.68
 -10  -1   6   13.07    1.56
 -10  -1   6   14.11    1.28
 -10  -2   6   22.97    1.92
 -10  -2   6   26.88    2.26
 -10  -3   6    6.15    1.07
 -10  -3   6    8.67    1.41
 -10  -4   6   15.81    1.87
 -10  -4   6   18.42    1.88
 -10  -5   6    0.15    0.90
 -10  -5   6    0.13    0.86
  -9   6   6    6.62    1.30
  -9   5   6    1.65    0.80
  -9   5   6    2.37    0.96
  -9   4   6    2.77    0.77
  -9   4   6    3.20    0.87
  -9   4   6    3.37    0.85
  -9   4   6    4.02    1.00
  -9   3   6   41.35    2.79
  -9   3   6   39.67    2.87
  -9   3   6   38.51    2.74
  -9   2   6    4.28    0.92
  -9   2   6    5.13    1.02
  -9   1   6   35.62    2.51
  -9   1   6   36.60    2.64
  -9   0   6   15.26    1.57
  -9   0   6   12.40    1.10
  -9  -1   6   41.60    2.96
  -9  -1   6   41.54    2.66
  -9  -2   6    4.46    0.80
  -9  -2   6    3.83    0.99
  -9  -3   6   40.71    2.93
  -9  -3   6   39.83    2.77
  -9  -4   6    4.15    0.98
  -9  -4   6    1.87    0.91
  -9  -5   6    1.23    0.93
  -9  -5   6    1.56    0.91
  -9  -6   6    6.37    1.30
  -9  -6   6    6.79    1.44
  -8   7   6    5.17    1.31
  -8   6   6   18.50    2.00
  -8   5   6   13.48    1.44
  -8   5   6   13.49    1.65
  -8   5   6   12.78    1.58
  -8   4   6   11.15    1.24
  -8   4   6   10.84    1.36
  -8   4   6   11.28    1.37
  -8   4   6   12.04    1.30
  -8   4   6    9.47    1.32
  -8   3   6    2.70    0.76
  -8   3   6    2.51    0.80
  -8   3   6    2.96    0.78
  -8   3   6    1.64    0.65
  -8   2   6   87.59    5.27
  -8   2   6   85.46    5.21
  -8   2   6   88.03    5.23
  -8   1   6   38.98    2.71
  -8   1   6   43.00    2.73
  -8   1   6   41.33    2.42
  -8   1   6   40.36    2.79
  -8   0   6   36.85    2.39
  -8   0   6   36.46    2.27
  -8   0   6   35.93    2.56
  -8   0   6   36.05    2.35
  -8  -1   6   39.02    2.38
  -8  -1   6   35.44    2.38
  -8  -1   6   37.60    2.42
  -8  -1   6   36.50    2.59
  -8  -2   6   78.66    4.59
  -8  -2   6   76.51    4.77
  -8  -2   6   76.29    4.59
  -8  -3   6    2.54    0.81
  -8  -3   6    1.94    0.68
  -8  -4   6   11.24    1.36
  -8  -4   6    9.39    1.32
  -8  -5   6   11.85    1.56
  -8  -5   6   15.24    1.68
  -8  -6   6   14.74    1.76
  -8  -6   6   15.46    1.76
  -8  -7   6    2.64    1.20
  -7   7   6   26.93    2.57
  -7   6   6   16.54    1.82
  -7   6   6   14.92    1.75
  -7   5   6   34.57    2.52
  -7   5   6   30.33    2.35
  -7   5   6   33.44    2.56
  -7   4   6   24.99    2.00
  -7   4   6   24.49    1.83
  -7   4   6   25.81    1.96
  -7   3   6    2.28    0.65
  -7   3   6    3.32    0.71
  -7   3   6    2.58    0.72
  -7   3   6    3.31    0.74
  -7   2   6   12.07    1.27
  -7   2   6   12.14    1.18
  -7   2   6   11.77    1.22
  -7   2   6   11.14    1.19
  -7   1   6   57.91    3.59
  -7   1   6   59.64    3.68
  -7   1   6   58.76    3.39
  -7   1   6   59.65    3.59
  -7   0   6   40.18    2.40
  -7   0   6   38.89    2.62
  -7   0   6   37.42    2.37
  -7   0   6   38.63    2.41
  -7  -1   6   80.24    4.59
  -7  -1   6   78.31    4.84
  -7  -1   6   82.56    4.68
  -7  -1   6   80.36    4.57
  -7  -2   6   11.31    1.28
  -7  -2   6   10.12    0.93
  -7  -2   6    9.07    1.05
  -7  -2   6    8.76    0.93
   7   3  -6    1.58    0.76
  -7  -3   6    4.17    0.81
  -7  -3   6    4.19    0.65
  -7  -3   6    3.09    0.60
  -7  -3   6    4.21    0.89
   7   4  -6   24.62    2.14
   7   4  -6   26.69    2.55
  -7  -4   6   24.92    2.10
  -7  -4   6   26.51    1.85
  -7  -4   6   27.53    2.10
   7   5  -6   30.70    2.55
   7   5  -6   28.95    2.57
  -7  -5   6   36.15    2.56
  -7  -5   6   36.39    2.61
   7   6  -6   18.34    2.09
  -7  -6   6   16.61    1.90
  -7  -6   6   21.56    1.88
  -7  -7   6   33.16    2.90
  -6   8   6    4.90    1.46
  -6   7   6    4.63    1.27
  -6   6   6   61.36    4.20
  -6   6   6   61.50    4.14
  -6   5   6   22.96    1.84
  -6   5   6   22.33    2.02
  -6   4   6   30.66    2.20
  -6   4   6   28.93    2.00
  -6   4   6   28.79    2.13
  -6   3   6   17.77    1.52
  -6   3   6   20.24    1.55
  -6   3   6   19.71    1.50
  -6   2   6   84.94    4.92
  -6   2   6   88.94    5.01
  -6   2   6   84.35    4.97
  -6   2   6   85.30    4.74
  -6   2   6   82.61    4.93
  -6   1   6   23.18    1.68
  -6   1   6   26.93    1.69
  -6   1   6   24.24    1.57
  -6   1   6   22.20    1.75
  -6   0   6  108.28    6.02
  -6   0   6  111.22    6.00
  -6   0   6  105.90    6.23
  -6   0   6  106.03    6.07
   6   1  -6   22.90    1.95
  -6  -1   6   22.15    1.45
  -6  -1   6   23.83    1.63
  -6  -1   6   23.23    1.47
  -6  -1   6   24.27    1.78
   6   2  -6   87.90    4.94
   6   2  -6   83.47    4.78
  -6  -2   6   79.49    4.58
  -6  -2   6   80.98    4.87
  -6  -2   6   79.02    4.59
  -6  -2   6   79.72    4.78
   6   3  -6   20.10    1.68
   6   3  -6   20.00    1.53
  -6  -3   6   17.81    1.48
  -6  -3   6   15.89    1.20
  -6  -3   6   14.61    1.21
  -6  -3   6   13.78    1.47
   6   4  -6   25.30    1.91
   6   4  -6   26.13    1.97
  -6  -4   6   18.69    1.83
  -6  -4   6   21.58    1.86
  -6  -4   6   21.88    1.63
   6   5  -6   25.88    2.05
   6   5  -6   23.58    2.02
  -6  -5   6   20.88    1.92
  -6  -5   6   21.87    1.88
  -6  -5   6   19.18    1.67
   6   6  -6   59.26    3.98
   6   6  -6   58.95    4.01
  -6  -6   6   57.28    4.00
  -6  -6   6   59.58    3.84
   6   7  -6    3.36    1.20
   6   7  -6    2.54    1.17
  -6  -7   6    3.71    1.22
   6   8  -6    3.27    1.44
  -6  -8   6    1.48    1.19
  -5   8   6    0.18    1.11
  -5   7   6   16.98    2.04
  -5   6   6    4.27    0.87
  -5   6   6    2.01    0.89
  -5   6   6    3.57    0.57
  -5   5   6   53.08    3.44
  -5   5   6   55.76    3.17
  -5   4   6    0.78    0.43
  -5   4   6    1.17    0.33
  -5   4   6    0.81    0.58
  -5   3   6   50.10    3.08
  -5   3   6   49.34    3.00
  -5   3   6   48.37    2.80
  -5   2   6   16.22    1.33
  -5   2   6   15.59    1.28
  -5   2   6   15.71    1.13
  -5   2   6   15.83    1.18
  -5   1   6   81.85    4.79
  -5   1   6   88.15    4.76
  -5   1   6   86.55    4.77
  -5   1   6   85.46    4.90
  -5   1   6   83.09    4.91
  -5   1   6   80.37    4.90
   5   0  -6   91.04    5.23
  -5   0   6   91.61    5.06
  -5   0   6   90.97    5.34
  -5   0   6   93.36    5.23
  -5   0   6   92.98    5.07
   5   1  -6   81.93    5.03
   5   1  -6   81.78    4.87
  -5  -1   6   91.29    5.07
  -5  -1   6   92.11    4.84
  -5  -1   6   90.58    5.16
  -5  -1   6   90.90    4.85
   5   2  -6   15.06    1.48
   5   2  -6   15.66    1.12
   5   2  -6   14.67    1.26
  -5  -2   6   14.50    0.99
  -5  -2   6   14.79    1.24
  -5  -2   6   13.91    1.00
  -5  -2   6   15.95    1.36
   5   3  -6   46.35    3.42
   5   3  -6   51.12    3.37
  -5  -3   6   56.57    3.40
  -5  -3   6   58.80    3.41
  -5  -3   6   55.06    3.12
   5   4  -6   -0.07    0.68
   5   4  -6   -0.13    0.56
  -5  -4   6    0.96    0.63
  -5  -4   6    0.76    0.44
  -5  -4   6    0.43    0.61
   5   5  -6   53.67    3.83
   5   5  -6   54.62    3.86
  -5  -5   6   63.85    3.81
  -5  -5   6   66.19    3.95
   5   6  -6    3.61    1.08
   5   6  -6    3.69    1.11
  -5  -6   6    1.89    0.91
  -5  -6   6    2.13    0.81
   5   7  -6   14.99    1.87
   5   7  -6   14.02    1.86
  -5  -7   6   13.16    1.77
   5   8  -6    0.20    1.16
   5   8  -6    0.84    1.20
  -5  -8   6    0.51    1.08
  -4   8   6   18.81    1.71
  -4   8   6   16.62    2.09
  -4   7   6   11.01    1.17
  -4   7   6   10.81    1.67
  -4   6   6    2.53    0.78
  -4   6   6    3.13    1.00
  -4   6   6    2.96    0.63
  -4   5   6   34.86    2.18
  -4   5   6   34.76    2.40
  -4   4   6  149.15    8.20
  -4   4   6  148.64    8.35
  -4   4   6  144.80    8.14
  -4   3   6   36.04    2.33
  -4   3   6   34.60    2.12
  -4   3   6   34.64    2.22
   4  -2  -6  159.96    9.07
  -4   2   6  165.06    8.90
  -4   2   6  161.77    8.98
  -4   2   6  159.21    8.95
  -4   2   6  157.19    8.85
   4  -1  -6   56.97    3.70
  -4   1   6   65.54    3.73
  -4   1   6   65.68    3.78
  -4   1   6   64.82    3.57
  -4   1   6   65.32    3.56
  -4   1   6   63.24    3.77
   4   0  -6    0.15    0.37
  -4   0   6   -0.08    0.31
  -4   0   6    0.21    0.37
  -4   0   6   -0.08    0.39
   4   1  -6   62.14    3.65
   4   1  -6   63.12    3.47
  -4  -1   6   54.97    3.44
  -4  -1   6   51.99    3.46
   4   2  -6  155.47    8.47
   4   2  -6  153.74    8.81
   4   2  -6  151.73    8.68
  -4  -2   6  157.23    8.69
  -4  -2   6  155.28    8.72
   4   3  -6   32.07    2.22
   4   3  -6   32.18    2.31
   4   3  -6   33.62    2.02
  -4  -3   6   31.19    2.21
  -4  -3   6   31.28    2.20
   4   4  -6  152.57    8.15
   4   4  -6  144.78    8.13
  -4  -4   6  131.66    8.03
  -4  -4   6  136.17    8.09
   4   5  -6   34.32    2.59
   4   5  -6   33.48    2.60
  -4  -5   6   37.82    2.65
  -4  -5   6   36.49    2.50
   4   6  -6    2.85    0.98
   4   6  -6    2.73    1.02
  -4  -6   6    1.11    0.90
  -4  -6   6    1.38    0.75
   4   7  -6    9.07    1.67
   4   7  -6   12.60    1.75
  -4  -7   6   11.67    1.64
   4   8  -6   22.58    2.50
   4   8  -6   21.38    2.38
  -4  -8   6   20.75    2.38
  -3   8   6    1.23    0.78
  -3   8   6    0.42    1.08
  -3   7   6   17.01    1.53
  -3   7   6   15.43    1.83
  -3   7   6   16.19    1.58
  -3   6   6    0.59    0.85
  -3   6   6    0.53    0.68
  -3   6   6    0.24    0.53
  -3   5   6   14.86    1.28
  -3   5   6   16.66    1.44
  -3   4   6   40.93    2.68
  -3   4   6   41.67    2.56
  -3   4   6   42.52    2.54
  -3   3   6   93.51    5.22
  -3   3   6   90.81    5.32
  -3   3   6   91.66    5.19
  -3   3   6   91.60    5.22
   3  -2  -6   57.76    3.48
  -3   2   6   60.88    3.53
  -3   2   6   59.40    3.37
  -3   2   6   58.00    3.52
  -3   2   6   62.25    3.58
   3  -1  -6   16.33    1.34
  -3   1   6   17.75    1.32
  -3   1   6   17.68    1.29
  -3   1   6   17.31    1.32
  -3   1   6   17.43    1.02
   3   0  -6   21.54    1.54
  -3   0   6   23.33    1.56
  -3   0   6   21.13    1.49
  -3   0   6   19.35    1.52
   3   1  -6   18.05    1.46
  -3  -1   6   15.54    1.16
  -3  -1   6   13.50    1.18
  -3  -1   6   14.58    1.25
   3   2  -6   58.74    3.59
   3   2  -6   58.81    3.20
   3   2  -6   58.93    3.48
  -3  -2   6   54.62    3.33
  -3  -2   6   55.42    3.48
  -3  -2   6   55.44    3.45
   3   3  -6   97.09    5.94
   3   3  -6   95.36    5.90
   3   3  -6   97.68    5.69
  -3  -3   6  108.57    5.91
  -3  -3   6  111.62    5.96
   3   4  -6   41.86    2.85
   3   4  -6   41.88    2.83
  -3  -4   6   42.00    2.75
  -3  -4   6   41.63    2.82
   3   5  -6   15.81    1.76
   3   5  -6   15.44    1.67
  -3  -5   6   23.17    1.86
  -3  -5   6   24.22    1.71
   3   6  -6    0.60    0.88
   3   6  -6   -0.85    0.77
  -3  -6   6   -0.32    0.77
  -3  -6   6   -0.30    0.62
   3   7  -6   18.20    2.04
   3   7  -6   20.88    2.18
  -3  -7   6   16.54    2.00
   3   8  -6    0.61    1.20
   3   8  -6    1.15    1.21
  -3  -8   6    1.91    1.16
  -2   8   6    7.61    1.58
  -2   8   6    9.73    1.36
  -2   7   6   28.06    2.24
  -2   7   6   31.09    2.27
  -2   7   6   29.84    2.59
  -2   6   6    3.90    0.79
  -2   6   6    3.74    1.03
  -2   6   6    2.36    0.77
  -2   5   6    8.56    1.07
  -2   5   6    7.77    0.97
  -2   4   6   98.50    5.68
  -2   4   6  102.92    5.85
  -2   4   6  102.65    5.80
   2  -3  -6  109.13    6.14
  -2   3   6  107.22    6.19
  -2   3   6  109.09    6.11
  -2   3   6  107.33    6.09
  -2   3   6  109.15    6.15
   2  -2  -6  188.96    9.73
  -2   2   6  173.47    9.71
  -2   2   6  169.24    9.70
  -2   2   6  167.59    9.54
  -2   2   6  174.34    9.67
   2  -1  -6  176.81    9.52
  -2   1   6  168.64    9.44
  -2   1   6  161.66    9.46
  -2   1   6  175.36    9.25
  -2   1   6  167.38    9.45
   2   0  -6   55.96    3.39
  -2   0   6   57.22    3.30
  -2   0   6   53.63    3.34
  -2   0   6   55.96    3.38
   2   1  -6  164.78    9.61
   2   1  -6  160.97    9.49
  -2  -1   6  174.89    9.51
  -2  -1   6  172.87    9.39
  -2  -1   6  176.16    9.51
   2   2  -6  167.44    9.36
   2   2  -6  168.82    9.62
   2   2  -6  171.89    9.70
  -2  -2   6  172.98    9.62
  -2  -2   6  176.64    9.47
  -2  -2   6  173.29    9.62
   2   3  -6  104.02    5.99
   2   3  -6  106.83    6.23
   2   3  -6  105.84    6.25
  -2  -3   6  111.90    6.21
  -2  -3   6  108.64    6.00
  -2  -3   6  107.37    6.21
   2   4  -6   99.03    5.63
   2   4  -6   98.58    5.65
  -2  -4   6   93.45    5.32
  -2  -4   6   93.17    5.56
  -2  -4   6   90.32    5.60
   2   5  -6    9.83    1.22
   2   5  -6    6.81    1.07
  -2  -5   6    6.17    1.10
  -2  -5   6    8.13    1.05
   2   6  -6    4.31    1.09
   2   6  -6    2.18    1.03
  -2  -6   6    4.19    1.02
  -2  -6   6    5.02    0.93
   2   7  -6   31.28    2.62
   2   7  -6   29.63    2.63
  -2  -7   6   28.92    2.55
   2   8  -6    8.84    1.58
   2   8  -6   10.96    1.76
  -2  -8   6    9.66    1.66
  -1   8   6    2.50    1.02
  -1   8   6    3.24    1.27
  -1   7   6   45.77    3.39
  -1   7   6   47.14    3.21
  -1   7   6   47.88    3.15
  -1   6   6    0.35    0.68
  -1   6   6    0.26    0.70
  -1   6   6   -0.72    0.76
  -1   5   6   40.35    2.75
  -1   5   6   43.73    2.78
   1  -4  -6   70.31    4.17
   1  -4  -6   67.85    4.16
  -1   4   6   71.67    4.02
  -1   4   6   71.56    4.19
  -1   4   6   68.15    4.19
   1  -3  -6    3.66    0.63
   1  -3  -6    2.95    0.55
  -1   3   6    2.02    0.57
  -1   3   6    2.51    0.60
  -1   3   6    2.35    0.49
   1  -2  -6   95.42    5.70
   1  -2  -6   94.71    5.69
   1  -2  -6   96.72    5.86
  -1   2   6  108.09    5.72
  -1   2   6  103.55    5.80
  -1   2   6  110.14    5.91
  -1   2   6  108.28    5.85
   1  -1  -6   72.46    4.79
   1  -1  -6   75.43    4.56
   1  -1  -6   75.56    4.55
  -1   1   6   89.86    4.62
  -1   1   6   86.16    4.83
  -1   1   6   92.04    4.79
  -1   1   6   87.05    4.75
   1   0  -6    1.89    0.27
   1   0  -6    1.73    0.27
   1   0  -6    2.05    0.61
   1   0  -6    1.42    0.55
  -1   0   6    1.58    0.50
  -1   0   6    1.78    0.51
  -1   0   6    2.00    0.30
  -1   0   6    1.71    0.47
   1   1  -6   90.81    5.14
   1   1  -6   93.12    4.79
   1   1  -6   92.79    4.80
   1   1  -6   96.29    5.11
  -1  -1   6   75.69    4.99
  -1  -1   6   76.21    4.85
  -1  -1   6   75.83    4.96
   1   2  -6  102.27    5.68
   1   2  -6  101.34    5.66
   1   2  -6  106.00    5.41
  -1  -2   6   91.73    5.60
  -1  -2   6   86.50    5.56
  -1  -2   6   92.14    5.42
   1   3  -6    2.45    0.71
   1   3  -6    2.37    0.66
  -1  -3   6    2.94    0.68
  -1  -3   6    3.35    0.47
  -1  -3   6    4.14    0.78
   1   4  -6   66.47    4.16
   1   4  -6   70.67    4.21
  -1  -4   6   67.15    4.11
  -1  -4   6   67.71    4.19
  -1  -4   6   66.10    3.82
   1   5  -6   43.49    3.08
   1   5  -6   38.53    2.97
  -1  -5   6   48.90    2.93
  -1  -5   6   46.90    3.07
   1   6  -6    0.29    0.81
   1   6  -6    1.05    0.87
  -1  -6   6   -0.16    0.78
  -1  -6   6   -0.54    0.61
   1   7  -6   46.19    3.43
   1   7  -6   49.20    3.48
  -1  -7   6   43.70    3.35
   1   8  -6    2.85    1.34
   1   8  -6    3.40    1.28
   0   8   6    5.30    1.41
   0   8   6    6.85    1.32
   0   7   6   42.45    2.99
   0   7   6   37.25    3.02
   0   7   6   40.86    2.82
   0  -6  -6   35.38    2.49
   0   6   6   32.15    2.34
   0   6   6   29.10    2.37
   0   6   6   32.17    2.52
   0  -5  -6    9.14    1.13
   0   5   6    8.85    1.09
   0   5   6    8.48    1.14
   0  -4  -6   14.33    1.32
   0  -4  -6   14.15    1.28
   0   4   6   13.43    1.32
   0   4   6   13.65    1.32
   0   4   6   13.53    1.09
   0  -3  -6  100.90    5.54
   0  -3  -6   97.55    5.51
   0  -3  -6  100.82    5.62
   0   3   6   90.29    5.45
   0   3   6   92.45    5.54
   0   3   6   96.10    5.60
   0  -2  -6   55.37    3.10
   0  -2  -6   59.00    3.31
   0  -2  -6   55.39    3.12
   0   2   6   49.64    3.15
   0   2   6   48.42    3.09
   0   2   6   49.36    3.13
   0   2   6   49.62    3.23
   0   1   6   24.55    1.55
   0   1   6   21.97    1.59
   0   1   6   21.89    1.57
   0   1   6   21.09    1.69
   0   0  -6  189.39   10.31
   0   0  -6  178.66   10.53
   0   0  -6  191.23   10.58
   0   0  -6  188.62   10.29
   0   0   6  196.16   10.34
   0   0   6  187.43   10.38
   0   0   6  183.25   10.44
   0   0   6  189.71   10.53
   0   1  -6   19.87    1.81
   0   1  -6   21.31    1.61
   0   1  -6   21.78    1.63
   0  -1   6   30.74    1.93
   0  -1   6   30.41    1.82
   0  -1   6   29.06    1.66
   0   2  -6   49.40    3.24
   0   2  -6   48.35    3.27
   0   2  -6   49.92    3.05
   0   2  -6   49.49    3.03
   0  -2   6   57.65    3.30
   0  -2   6   53.84    3.21
   0  -2   6   53.43    3.01
   0   3  -6   85.97    5.10
   0   3  -6   87.60    5.26
   0  -3   6   92.84    5.31
   0  -3   6   91.69    4.98
   0  -3   6   87.47    5.22
   0   4  -6   13.69    1.41
   0   4  -6   14.70    1.42
   0  -4   6   14.85    1.47
   0  -4   6   15.49    1.39
   0   5  -6    8.60    1.24
   0   5  -6   10.06    1.33
   0  -5   6    9.63    1.32
   0  -5   6    9.92    1.16
   0   6  -6   30.59    2.57
   0   6  -6   31.70    2.59
   0  -6   6   34.31    2.58
   0  -6   6   34.79    2.41
   0   7  -6   40.46    3.20
   0   7  -6   40.45    3.15
   0   8  -6    5.28    1.45
   0   8  -6    5.35    1.44
   1   8   6    7.37    1.44
   1   8   6    8.02    1.55
   1   8   6    7.90    1.27
  -1  -7  -6   19.39    1.98
   1   7   6   14.34    1.61
   1   7   6   16.50    1.83
   1   7   6   14.59    1.78
  -1  -6  -6   34.20    2.70
   1   6   6   38.18    2.66
   1   6   6   38.25    2.76
   1   6   6   37.62    2.72
  -1  -5  -6   23.21    1.90
  -1  -5  -6   21.19    1.86
  -1  -5  -6   20.58    1.83
   1   5   6   20.13    1.76
   1   5   6   21.39    1.86
  -1  -4  -6   31.82    2.21
  -1  -4  -6   29.58    2.19
  -1  -4  -6   27.66    2.14
   1   4   6   29.51    1.93
   1   4   6   31.25    2.16
   1   4   6   30.26    2.21
  -1  -3  -6    1.83    0.56
  -1  -3  -6    1.92    0.59
  -1  -3  -6    1.98    0.65
   1   3   6    1.10    0.65
   1   3   6    1.45    0.48
   1   3   6    2.57    0.67
  -1  -2  -6   71.94    4.28
  -1  -2  -6   69.71    4.14
  -1  -2  -6   68.53    4.11
   1   2   6   70.88    4.13
   1   2   6   70.43    4.25
   1   2   6   70.24    4.14
  -1  -1  -6   29.11    1.89
  -1  -1  -6   28.49    1.62
   1   1   6   22.25    1.78
   1   1   6   21.12    1.66
   1   1   6   20.49    1.65
   1   1   6   19.22    1.58
  -1   0  -6  454.02   24.72
  -1   0  -6  440.88   24.68
  -1   0  -6  451.88   24.49
  -1   0  -6  453.18   24.52
   1   0   6  467.79   24.56
   1   0   6  453.18   24.51
   1   0   6  443.24   24.66
   1   0   6  444.98   24.60
  -1   1  -6   19.43    1.79
  -1   1  -6   21.88    1.71
  -1   1  -6   19.42    1.82
  -1   1  -6   23.30    1.70
   1  -1   6   26.33    1.85
   1  -1   6   28.55    1.66
   1  -1   6   28.45    1.72
   1  -1   6   27.64    1.83
  -1   2  -6   73.14    4.52
  -1   2  -6   73.63    4.33
  -1   2  -6   75.76    4.31
  -1   2  -6   75.37    4.43
   1  -2   6   70.47    4.47
   1  -2   6   72.89    4.41
   1  -2   6   73.65    4.19
  -1   3  -6    1.66    0.55
  -1   3  -6    2.07    0.63
  -1   3  -6    0.66    0.61
   1  -3   6    2.14    0.39
   1  -3   6    2.73    0.66
   1  -3   6    2.89    0.76
  -1   4  -6   28.11    2.06
  -1   4  -6   28.95    2.21
   1  -4   6   28.32    2.12
   1  -4   6   30.90    2.25
  -1   5  -6   22.45    1.95
  -1   5  -6   22.30    2.00
  -1   5  -6   19.98    1.82
   1  -5   6   21.41    1.93
   1  -5   6   22.58    1.83
  -1   6  -6   38.89    2.91
  -1   6  -6   40.48    2.85
   1  -6   6   37.54    2.65
   1  -6   6   34.52    2.80
  -1   7  -6   18.83    2.06
  -1   7  -6   16.62    2.02
  -1   8  -6    7.59    1.61
  -1   8  -6    8.20    1.60
  -2  -8  -6    0.09    1.11
   2   8   6    1.41    0.96
   2   8   6    0.60    1.08
   2   8   6    2.02    1.19
  -2  -7  -6   41.65    2.96
   2   7   6   30.57    2.93
   2   7   6   36.30    2.89
   2   7   6   36.54    2.75
  -2  -6  -6    0.32    0.85
   2   6   6    1.51    0.93
   2   6   6    0.33    0.81
   2   6   6    0.98    0.80
  -2  -5  -6   41.55    3.08
  -2  -5  -6   42.33    3.04
  -2  -5  -6   47.55    3.14
   2   5   6   45.87    3.02
   2   5   6   45.53    3.13
  -2  -4  -6    1.33    0.70
  -2  -4  -6    1.82    0.75
  -2  -4  -6    0.99    0.69
   2   4   6    2.17    0.77
   2   4   6    1.57    0.76
  -2  -3  -6    4.37    0.87
  -2  -3  -6    6.07    0.92
  -2  -3  -6    5.34    0.84
   2   3   6    4.26    0.87
   2   3   6    3.95    0.80
   2   3   6    3.95    0.69
  -2  -2  -6   10.94    1.14
  -2  -2  -6   11.53    1.35
  -2  -2  -6   11.22    1.18
   2   2   6   12.89    1.17
   2   2   6   12.35    1.26
   2   2   6   15.08    1.24
  -2  -1  -6   35.64    2.52
  -2  -1  -6   35.13    2.33
  -2  -1  -6   37.17    2.39
   2   1   6   37.38    2.35
   2   1   6   35.52    2.38
   2   1   6   35.99    2.50
  -2   0  -6    6.92    1.00
  -2   0  -6   10.30    1.20
  -2   0  -6    9.28    0.98
  -2   0  -6    8.08    0.96
   2   0   6   10.87    0.95
   2   0   6    8.39    1.10
   2   0   6    8.84    1.01
  -2   1  -6   38.93    2.58
  -2   1  -6   39.19    2.57
  -2   1  -6   41.75    2.71
  -2   1  -6   41.80    2.55
   2  -1   6   35.22    2.52
   2  -1   6   35.45    2.34
   2  -1   6   37.99    2.62
  -2   2  -6   16.91    1.37
  -2   2  -6   15.34    1.31
  -2   2  -6   15.30    1.29
  -2   2  -6   13.12    1.35
   2  -2   6   11.52    1.02
   2  -2   6   12.50    1.30
   2  -2   6   11.97    1.42
  -2   3  -6    4.73    0.86
  -2   3  -6    5.28    0.84
  -2   3  -6    5.29    1.01
  -2   3  -6    4.74    0.86
   2  -3   6    4.37    0.81
   2  -3   6    5.38    0.56
   2  -3   6    6.72    1.04
  -2   4  -6    1.07    0.77
  -2   4  -6    1.06    0.61
  -2   4  -6    1.39    0.73
   2  -4   6    1.31    0.68
   2  -4   6    1.37    0.72
  -2   5  -6   44.52    3.18
  -2   5  -6   48.67    3.17
  -2   5  -6   46.27    3.08
   2  -5   6   43.46    3.00
   2  -5   6   41.36    3.13
  -2   6  -6    0.41    0.84
  -2   6  -6    0.48    0.77
   2  -6   6    0.28    0.70
  -2   7  -6   34.94    3.00
  -2   7  -6   38.42    3.11
  -2   8  -6    1.65    1.27
  -2   8  -6    2.38    1.30
  -3  -8  -6    0.43    1.15
   3   8   6    2.23    1.16
   3   8   6    2.36    1.27
  -3  -7  -6   14.73    1.95
   3   7   6   17.09    1.75
   3   7   6   16.76    2.00
  -3  -6  -6    8.91    1.45
  -3  -6  -6   10.16    1.49
   3   6   6    8.32    1.41
   3   6   6    6.58    1.15
   3   6   6    9.21    1.29
  -3  -5  -6   27.20    2.22
  -3  -5  -6   23.38    2.13
  -3  -5  -6   25.51    2.13
   3   5   6   21.19    2.14
   3   5   6   24.50    2.07
   3   5   6   23.57    1.95
  -3  -4  -6   33.20    2.45
  -3  -4  -6   33.37    2.41
  -3  -4  -6   29.32    2.39
   3   4   6   31.59    2.45
   3   4   6   30.54    2.31
  -3  -3  -6   64.33    4.08
  -3  -3  -6   67.13    4.07
  -3  -3  -6   65.87    4.10
   3   3   6   64.40    3.89
   3   3   6   61.98    3.93
   3   3   6   62.82    4.11
  -3  -2  -6   63.47    4.09
  -3  -2  -6   63.41    3.95
  -3  -2  -6   59.37    3.94
   3   2   6   66.42    3.94
   3   2   6   67.03    4.06
   3   2   6   67.74    3.94
  -3  -1  -6   75.96    4.61
  -3  -1  -6   76.12    4.47
  -3  -1  -6   79.81    4.53
   3   1   6   73.17    4.39
   3   1   6   70.59    4.53
   3   1   6   70.56    4.44
  -3   0  -6  157.18    8.68
  -3   0  -6  153.21    8.69
  -3   0  -6  148.91    8.76
  -3   0  -6  151.78    8.65
   3   0   6  152.83    8.67
   3   0   6  149.59    8.72
   3   0   6  155.14    8.54
  -3   1  -6   70.09    4.50
  -3   1  -6   73.48    4.49
  -3   1  -6   67.76    4.41
  -3   1  -6   72.35    4.55
   3  -1   6   73.79    4.50
   3  -1   6   78.38    4.48
   3  -1   6   77.95    4.27
  -3   2  -6   68.42    4.07
  -3   2  -6   64.91    4.17
  -3   2  -6   65.62    4.20
  -3   2  -6   67.63    4.13
   3  -2   6   66.74    3.82
   3  -2   6   64.45    4.14
   3  -2   6   66.19    4.11
  -3   3  -6   60.89    4.02
  -3   3  -6   61.15    3.96
  -3   3  -6   63.92    3.95
  -3   3  -6   62.50    4.10
   3  -3   6   67.85    4.09
   3  -3   6   65.88    4.01
  -3   4  -6   34.01    2.44
  -3   4  -6   34.42    2.40
  -3   4  -6   32.11    2.53
  -3   4  -6   30.31    2.41
   3  -4   6   28.22    2.33
   3  -4   6   33.14    2.50
  -3   5  -6   25.64    2.26
  -3   5  -6   25.56    2.15
  -3   5  -6   24.83    2.16
   3  -5   6   25.53    2.13
  -3   6  -6    7.75    1.33
  -3   6  -6    6.15    1.27
   3  -6   6    8.76    1.23
  -3   7  -6   15.24    1.95
  -3   7  -6   18.49    2.08
  -3   8  -6    0.37    1.18
  -3   8  -6    1.44    1.17
  -4  -7  -6   21.89    2.52
   4   7   6   28.51    2.46
   4   7   6   27.94    2.73
  -4  -6  -6    3.60    1.26
  -4  -6  -6    2.85    1.16
   4   6   6    3.58    1.12
   4   6   6    1.82    1.14
  -4  -5  -6    1.24    0.98
  -4  -5  -6    0.95    0.92
   4   5   6    1.61    1.04
   4   5   6    0.76    0.82
  -4  -4  -6   10.90    1.44
  -4  -4  -6   12.52    1.52
  -4  -4  -6    9.85    1.40
   4   4   6    8.03    1.19
   4   4   6    6.53    1.21
  -4  -3  -6   46.70    3.02
  -4  -3  -6   46.49    3.07
  -4  -3  -6   44.99    3.05
   4   3   6   34.97    2.82
   4   3   6   41.83    3.04
  -4  -2  -6    1.09    0.71
  -4  -2  -6    1.43    0.81
  -4  -2  -6    1.70    0.72
   4   2   6    2.75    0.78
   4   2   6    2.36    0.80
  -4  -1  -6   16.28    1.46
  -4  -1  -6   15.56    1.53
  -4  -1  -6   16.14    1.57
   4   1   6   11.18    1.32
   4   1   6   12.49    1.41
   4   1   6   11.45    1.22
  -4   0  -6    0.45    0.61
  -4   0  -6    0.08    0.59
  -4   0  -6   -0.50    0.61
  -4   0  -6    0.08    0.50
   4   0   6    0.30    0.52
   4   0   6    0.12    0.66
   4   0   6   -0.60    0.56
  -4   1  -6   11.85    1.42
  -4   1  -6   13.65    1.50
  -4   1  -6   12.04    1.29
  -4   1  -6   11.52    1.43
   4  -1   6   13.57    1.14
   4  -1   6   12.50    1.41
   4  -1   6   14.61    1.44
  -4   2  -6    3.09    0.72
  -4   2  -6    3.15    0.92
  -4   2  -6    3.45    0.92
  -4   2  -6    2.23    0.83
   4  -2   6    0.44    0.67
   4  -2   6    2.60    0.81
   4  -2   6    1.01    0.49
  -4   3  -6   38.82    2.89
  -4   3  -6   37.54    2.70
  -4   3  -6   36.85    2.87
  -4   3  -6   34.69    2.80
   4  -3   6   48.70    2.90
   4  -3   6   44.43    2.90
  -4   4  -6    8.15    1.20
  -4   4  -6    7.50    1.26
  -4   4  -6    7.42    1.25
  -4   4  -6    6.54    1.18
   4  -4   6   11.16    1.35
  -4   5  -6    0.65    0.87
  -4   5  -6    1.42    0.83
  -4   5  -6    0.73    0.82
  -4   5  -6    1.36    0.90
   4  -5   6    0.41    0.85
  -4   6  -6    2.69    1.03
  -4   6  -6    2.22    1.11
   4  -6   6    3.89    1.06
  -4   7  -6   26.94    2.59
  -4   7  -6   27.78    2.63
  -5  -7  -6    0.45    1.18
  -5  -7  -6    0.92    1.28
   5   7   6    0.84    1.10
   5   7   6    0.22    1.31
  -5  -6  -6    1.36    1.07
  -5  -6  -6    0.56    1.09
   5   6   6    1.54    1.26
   5   6   6    0.34    1.09
  -5  -5  -6    4.19    1.19
  -5  -5  -6    4.17    1.26
   5   5   6    6.77    1.29
   5   5   6    7.25    1.52
  -5  -4  -6   86.13    5.77
  -5  -4  -6   88.21    6.02
  -5  -4  -6   96.19    5.84
   5   4   6   97.29    5.62
   5   4   6   96.21    5.83
  -5  -3  -6    7.82    1.29
  -5  -3  -6    7.96    1.31
  -5  -3  -6    7.97    1.24
   5   3   6    6.87    1.11
   5   3   6    6.97    1.28
  -5  -2  -6   75.11    4.94
  -5  -2  -6   77.11    4.96
  -5  -2  -6   80.34    4.95
   5   2   6   81.97    4.98
   5   2   6   80.02    4.76
  -5  -1  -6    2.49    0.87
  -5  -1  -6    3.12    0.90
  -5  -1  -6    2.99    0.85
   5   1   6    3.27    0.92
   5   1   6    3.34    0.73
  -5   0  -6    0.54    0.77
  -5   0  -6    0.92    0.72
  -5   0  -6    0.69    0.70
   5   0   6    0.72    0.60
   5   0   6    0.77    0.76
  -5   1  -6    3.73    0.80
  -5   1  -6    3.76    0.97
  -5   1  -6    4.36    1.00
  -5   1  -6    3.80    0.95
   5  -1   6    2.63    0.68
   5  -1   6    3.31    0.94
   5  -1   6    3.97    0.99
  -5   2  -6   80.09    5.08
  -5   2  -6   86.74    5.26
  -5   2  -6   84.09    5.26
  -5   2  -6   82.52    4.91
   5  -2   6   78.23    4.70
   5  -2   6   79.28    5.05
   5  -2   6   82.49    5.05
  -5   3  -6    9.09    1.36
  -5   3  -6    8.48    1.39
  -5   3  -6    7.57    1.32
  -5   3  -6    8.07    1.13
   5  -3   6    7.29    1.23
  -5   4  -6   98.98    6.08
  -5   4  -6  101.35    6.08
  -5   4  -6   93.11    6.09
  -5   4  -6  102.47    5.90
   5  -4   6   92.14    5.93
  -5   5  -6    5.32    1.22
  -5   5  -6    5.74    1.27
  -5   5  -6    5.51    1.14
  -5   6  -6    1.28    1.00
  -5   6  -6    0.63    0.93
  -5   6  -6    0.87    1.04
  -5   7  -6    0.54    1.07
  -5   7  -6    0.93    1.12
  -5   7  -6    1.30    1.10
  -6  -6  -6    0.86    1.28
  -6  -6  -6    1.74    1.25
   6   6   6    2.99    1.39
   6   6   6    0.91    1.13
  -6  -5  -6   20.60    2.19
  -6  -5  -6   17.51    2.04
   6   5   6   16.38    2.11
   6   5   6   10.45    1.64
  -6  -4  -6   11.91    1.71
  -6  -4  -6   11.12    1.68
   6   4   6   11.82    1.70
   6   4   6    9.28    1.41
  -6  -3  -6   24.24    2.21
  -6  -3  -6   22.93    2.24
   6   3   6   18.23    2.11
   6   3   6   21.54    2.02
  -6  -2  -6   28.63    2.39
  -6  -2  -6   30.13    2.33
  -6  -2  -6   29.49    2.49
   6   2   6   25.88    2.40
   6   2   6   22.97    2.15
  -6  -1  -6    8.70    1.40
  -6  -1  -6   11.53    1.55
  -6  -1  -6    7.93    1.32
   6   1   6   10.11    1.27
   6   1   6    9.90    1.41
  -6   0  -6    2.28    0.98
  -6   0  -6    2.56    0.94
  -6   0  -6    3.22    1.01
   6   0   6    2.54    0.77
   6   0   6    2.21    0.92
  -6   1  -6    8.98    1.38
  -6   1  -6    9.05    1.35
  -6   1  -6   10.09    1.45
   6  -1   6    9.66    1.12
  -6   2  -6   22.81    2.30
  -6   2  -6   25.89    2.26
  -6   2  -6   25.88    2.38
  -6   3  -6   17.97    1.76
  -6   3  -6   17.61    1.91
  -6   3  -6   14.80    1.89
  -6   4  -6   13.14    1.69
  -6   4  -6   12.10    1.72
  -6   4  -6   10.75    1.39
  -6   5  -6   13.48    1.81
  -6   5  -6   16.49    1.79
  -6   5  -6   14.54    1.96
  -6   6  -6    2.48    1.08
  -6   6  -6    1.99    1.22
  -6   6  -6    2.77    1.20
  -7  -5  -6    7.18    1.58
  -7  -5  -6    5.87    1.47
   7   5   6    3.73    1.55
   7   5   6    3.10    1.14
  -7  -4  -6   10.76    1.74
  -7  -4  -6    9.49    1.73
   7   4   6   12.36    1.67
   7   4   6   14.46    1.91
  -7  -3  -6   11.37    1.68
  -7  -3  -6   11.82    1.75
   7   3   6   12.61    1.63
   7   3   6   12.57    1.72
  -7  -2  -6    7.93    1.39
  -7  -2  -6    6.99    1.28
   7   2   6    7.52    1.37
   7   2   6    6.40    1.17
  -7  -1  -6   10.69    1.57
  -7  -1  -6   10.72    1.55
   7   1   6    7.59    1.21
  -7   0  -6    9.52    1.43
  -7   0  -6   11.06    1.54
   7   0   6    7.20    1.14
  -7   1  -6    6.23    1.35
  -7   1  -6    7.66    1.33
   7  -1   6    9.06    1.12
  -7   2  -6    7.52    1.50
  -7   2  -6    8.25    1.38
  -7   3  -6   13.79    1.98
  -7   3  -6   13.88    1.73
  -7   4  -6   15.72    1.83
  -7   4  -6   12.78    1.89
  -7   5  -6    7.55    1.46
  -7   5  -6    4.83    1.54
  -8  -4  -6   11.66    1.80
  -8  -4  -6   15.54    2.16
   8   4   6   11.70    2.90
   8   4   6    7.06    1.55
  -8  -3  -6    7.96    1.60
  -8  -3  -6    8.06    1.58
   8   3   6    8.36    1.47
  -8  -2  -6    1.63    1.07
  -8  -2  -6    2.06    1.19
   8   2   6    2.30    1.06
  -8  -1  -6   11.24    1.77
  -8  -1  -6    9.98    1.58
   8   1   6   11.34    1.48
  -8   0  -6    4.70    1.25
  -8   0  -6    5.90    1.38
   8   0   6    5.28    1.09
  -8   1  -6   11.37    1.71
  -8   1  -6   13.58    1.73
   8  -1   6   11.71    1.88
  -8   2  -6    1.92    1.18
  -8   2  -6    2.65    1.11
  -8   3  -6    6.28    1.59
  -8   3  -6    8.87    1.51
  -8   4  -6    9.04    1.87
  -8   4  -6    6.57    1.38
  -9  -3  -6   -0.95    1.03
  -9  -3  -6    0.05    1.27
   9   3   6   -0.50    1.14
  -9  -2  -6    6.11    1.45
  -9  -2  -6    4.29    1.42
   9   2   6    7.79    1.42
  -9  -1  -6    2.48    1.25
  -9  -1  -6    4.15    1.21
   9   1   6    1.37    1.03
  -9   0  -6    9.43    1.53
  -9   0  -6    5.78    1.50
   9   0   6    8.26    1.37
  -9   1  -6    0.82    1.10
  -9   1  -6    0.85    1.09
  -9   2  -6    7.09    1.59
  -9   2  -6    6.63    1.39
  -9   3  -6    0.61    1.03
  -9   3  -6    2.00    1.39
 -12   2   7    1.46    0.97
 -12   1   7    5.12    1.28
 -12   0   7   22.81    2.38
 -12  -1   7    6.04    1.32
 -12  -2   7    2.98    0.85
 -12  -2   7    2.44    1.10
 -11   4   7    0.80    0.81
 -11   4   7   -0.14    0.83
 -11   3   7    6.68    1.21
 -11   3   7    4.72    1.13
 -11   2   7    8.21    1.34
 -11   1   7   13.46    1.67
 -11   0   7    7.08    1.37
 -11  -1   7   14.22    1.40
 -11  -1   7   17.39    1.93
 -11  -2   7    7.96    1.17
 -11  -2   7    9.91    1.56
 -11  -3   7    5.09    1.07
 -11  -3   7    7.17    1.39
 -11  -4   7    1.08    1.07
 -11  -4   7    1.53    0.94
 -10   5   7   18.54    1.91
 -10   4   7   19.46    1.82
 -10   4   7   20.38    1.97
 -10   4   7   19.06    1.89
 -10   3   7    3.77    0.97
 -10   3   7    5.77    1.15
 -10   2   7    8.59    1.28
 -10   1   7   17.32    1.85
 -10   0   7    8.04    0.89
 -10   0   7    8.88    1.35
 -10  -1   7   22.27    2.08
 -10  -1   7   19.34    1.60
 -10  -2   7    6.38    1.20
 -10  -2   7    6.20    1.00
 -10  -3   7    7.64    1.37
 -10  -3   7    4.77    1.04
 -10  -4   7   22.07    2.24
 -10  -4   7   22.07    2.07
 -10  -5   7   15.56    1.95
 -10  -5   7   19.12    2.12
  -9   6   7    7.12    1.43
  -9   5   7   19.22    1.80
  -9   5   7   14.46    1.78
  -9   4   7   16.68    1.67
  -9   4   7   15.09    1.55
  -9   4   7   14.98    1.63
  -9   3   7   49.79    3.38
  -9   3   7   51.13    3.37
  -9   2   7    8.04    1.18
  -9   2   7   10.68    1.32
  -9   1   7   33.36    2.53
  -9   0   7   10.28    1.00
  -9   0   7    9.23    1.29
  -9  -1   7   27.65    2.40
  -9  -1   7   33.51    2.17
  -9  -2   7    7.03    1.24
  -9  -2   7    8.25    1.09
  -9  -3   7   43.41    3.17
  -9  -3   7   43.76    3.03
  -9  -4   7   16.79    1.83
  -9  -4   7   15.08    1.73
  -9  -5   7   11.29    1.56
  -9  -5   7    7.86    1.40
  -9  -6   7    3.45    1.20
  -9  -6   7    3.16    1.20
  -8   6   7    4.73    1.21
  -8   5   7   24.98    2.08
  -8   5   7   23.44    2.20
  -8   4   7   16.61    1.60
  -8   4   7   14.43    1.44
  -8   3   7   14.59    1.41
  -8   3   7   12.67    1.42
  -8   2   7   13.80    1.43
  -8   2   7   14.66    1.46
  -8   1   7   12.19    1.01
  -8   1   7   11.37    1.33
  -8   0   7    2.76    0.56
  -8   0   7    2.55    0.78
  -8  -1   7    8.47    0.98
  -8  -1   7    8.84    1.21
  -8  -2   7   12.95    1.30
  -8  -2   7   11.64    1.40
   8   3  -7   13.75    1.63
  -8  -3   7   18.84    1.68
  -8  -3   7   18.30    1.75
  -8  -4   7   15.63    1.75
  -8  -4   7   18.47    1.85
  -8  -5   7   25.55    2.31
  -8  -5   7   26.08    2.40
  -8  -6   7    5.01    1.26
  -8  -6   7    4.51    1.14
  -7   7   7    2.05    1.13
  -7   6   7    0.27    0.93
  -7   5   7    1.89    0.82
  -7   4   7   59.98    3.67
  -7   4   7   58.42    3.79
  -7   3   7   11.54    1.23
  -7   3   7    9.14    1.18
  -7   2   7  137.54    7.58
  -7   2   7  132.57    7.55
  -7   2   7  125.94    7.24
  -7   1   7   55.58    3.22
  -7   1   7   52.75    3.45
  -7   1   7   54.36    3.39
  -7   0   7    1.78    0.51
  -7   0   7    1.13    0.62
  -7  -1   7   53.16    3.37
  -7  -1   7   50.25    3.17
  -7  -2   7  136.03    7.78
  -7  -2   7  136.58    7.90
   7   3  -7    9.66    1.40
  -7  -3   7   12.90    1.39
  -7  -3   7   13.10    1.42
   7   4  -7   58.26    3.75
  -7  -4   7   52.37    3.59
  -7  -4   7   52.51    3.60
   7   5  -7    1.73    1.02
  -7  -5   7    0.76    0.85
  -7  -5   7    2.63    0.97
  -7  -6   7    1.64    0.95
  -7  -6   7    0.17    0.93
   7   7  -7    1.74    1.46
  -7  -7   7    1.15    1.12
  -6   7   7   23.56    2.44
  -6   6   7   18.84    1.82
  -6   6   7   20.79    2.18
  -6   5   7    7.36    1.08
  -6   4   7   11.06    1.24
  -6   4   7   11.36    1.14
  -6   4   7   11.17    1.30
  -6   3   7   55.69    3.15
  -6   3   7   56.82    3.41
  -6   3   7   53.28    3.48
  -6   3   7   55.85    3.45
  -6   2   7   13.15    1.09
  -6   2   7   12.84    1.23
  -6   2   7   12.03    1.05
  -6   2   7   12.54    1.10
  -6   2   7   13.90    1.23
  -6   1   7   13.45    1.27
  -6   1   7   11.72    1.16
  -6   1   7   13.25    1.10
  -6   1   7   12.59    1.07
  -6   0   7   15.45    1.41
  -6   0   7   15.72    1.24
  -6  -1   7    8.63    0.95
  -6  -1   7    8.29    1.08
   6   2  -7   13.26    1.40
  -6  -2   7    8.64    1.15
  -6  -2   7   10.11    1.11
   6   3  -7   54.42    3.30
   6   3  -7   52.47    3.44
  -6  -3   7   50.42    3.26
  -6  -3   7   45.13    3.27
   6   4  -7   12.94    1.53
   6   4  -7   10.91    1.36
  -6  -4   7   10.59    1.34
  -6  -4   7   10.77    1.33
   6   5  -7    3.71    1.08
   6   5  -7    8.06    1.34
  -6  -5   7    7.67    1.20
  -6  -5   7    7.12    1.13
   6   6  -7   19.55    2.02
   6   6  -7   17.62    2.01
  -6  -6   7   16.80    1.78
  -6  -6   7   15.59    1.86
   6   7  -7   24.75    2.38
   6   7  -7   21.89    2.37
  -6  -7   7   14.30    2.09
  -5   8   7    3.22    1.37
  -5   7   7   27.54    2.65
  -5   6   7   28.05    1.89
  -5   6   7   27.07    2.23
  -5   6   7   29.64    2.55
  -5   5   7   29.71    2.10
  -5   5   7   25.39    1.73
  -5   4   7   19.58    1.30
  -5   4   7   17.92    1.44
  -5   4   7   17.96    1.62
  -5   3   7   26.36    1.91
  -5   3   7   25.11    1.64
  -5   3   7   25.34    1.82
  -5   2   7   61.60    3.74
  -5   2   7   63.48    3.84
  -5   2   7   64.90    3.86
  -5   2   7   64.00    3.66
  -5   1   7  119.23    6.99
  -5   1   7  123.91    7.03
  -5   1   7  126.89    6.77
  -5   1   7  120.91    6.94
  -5   0   7  104.98    6.03
  -5   0   7  104.26    6.10
  -5   0   7  106.68    6.02
   5   1  -7  119.43    6.83
  -5  -1   7  118.28    6.82
  -5  -1   7  122.52    6.93
   5   2  -7   64.23    4.26
   5   2  -7   66.80    4.11
  -5  -2   7   74.04    4.15
  -5  -2   7   67.67    4.16
   5   3  -7   24.49    1.91
   5   3  -7   24.91    2.08
  -5  -3   7   24.86    1.91
  -5  -3   7   23.77    1.91
   5   4  -7   19.12    1.79
   5   4  -7   18.69    1.73
  -5  -4   7   18.04    1.65
  -5  -4   7   15.74    1.65
   5   5  -7   25.99    2.24
   5   5  -7   26.48    2.23
  -5  -5   7   25.97    2.18
  -5  -5   7   23.52    2.07
   5   6  -7   28.59    2.53
   5   6  -7   27.42    2.47
  -5  -6   7   29.24    2.53
  -5  -6   7   31.47    2.39
   5   7  -7   32.90    2.76
   5   7  -7   30.49    2.76
  -5  -7   7   22.90    2.56
   5   8  -7    3.88    1.42
   5   8  -7    2.68    1.44
  -5  -8   7    3.88    1.40
  -4   8   7    2.25    0.82
  -4   8   7    1.46    1.30
  -4   7   7   38.25    2.68
  -4   7   7   43.88    3.30
  -4   6   7    2.97    1.13
  -4   6   7    4.38    0.74
  -4   6   7    4.80    0.97
  -4   5   7   62.09    3.67
  -4   5   7   61.87    3.90
  -4   4   7    2.21    0.72
  -4   4   7    2.64    0.54
  -4   4   7    2.47    0.54
  -4   3   7    1.81    0.49
  -4   3   7    1.15    0.60
  -4   3   7    1.16    0.50
  -4   2   7   12.27    0.86
  -4   2   7   12.44    1.22
  -4   2   7   11.46    1.12
  -4   2   7   12.12    1.14
   4  -1  -7  149.83    8.25
  -4   1   7  148.82    8.22
  -4   1   7  142.40    8.22
  -4   1   7  143.98    8.25
   4   0  -7   10.80    1.10
  -4   0   7   11.26    1.13
  -4   0   7   12.69    1.17
  -4   0   7   11.59    1.10
   4   1  -7  142.41    8.37
   4   1  -7  144.86    8.22
  -4  -1   7  145.26    8.20
  -4  -1   7  151.37    8.27
  -4  -1   7  143.81    8.15
   4   2  -7   10.84    1.15
   4   2  -7   10.82    1.31
  -4  -2   7   11.47    1.16
  -4  -2   7   11.05    1.03
  -4  -2   7   11.82    1.20
   4   3  -7    0.81    0.72
   4   3  -7    2.01    0.70
  -4  -3   7    1.35    0.63
  -4  -3   7    1.84    0.67
   4   4  -7    2.44    0.84
   4   4  -7    2.63    0.82
  -4  -4   7    1.79    0.73
  -4  -4   7    1.47    0.73
   4   5  -7   60.66    4.05
   4   5  -7   64.92    4.10
  -4  -5   7   60.50    3.91
  -4  -5   7   60.30    4.03
   4   6  -7    4.01    1.17
   4   6  -7    4.20    1.18
  -4  -6   7    6.56    1.10
  -4  -6   7    5.86    1.25
   4   7  -7   36.61    3.09
   4   7  -7   39.09    3.11
  -4  -7   7   36.60    3.04
   4   8  -7    3.13    1.40
   4   8  -7    3.75    1.41
  -4  -8   7    4.03    1.41
  -3   8   7   -0.03    1.17
  -3   8   7    0.20    0.79
  -3   7   7    9.48    1.24
  -3   7   7    6.00    1.05
  -3   7   7    7.07    1.42
  -3   6   7   69.75    4.24
  -3   6   7   65.13    4.09
  -3   5   7   13.75    1.46
  -3   5   7   15.37    1.34
  -3   4   7   49.24    3.28
  -3   4   7   54.29    3.14
  -3   4   7   51.30    3.18
  -3   3   7   16.21    1.32
  -3   3   7   16.00    1.43
  -3   3   7   16.09    1.34
  -3   3   7   16.49    1.19
   3  -2  -7   33.83    2.61
  -3   2   7   43.22    2.44
  -3   2   7   46.72    2.73
  -3   2   7   44.81    2.68
  -3   2   7   43.04    2.73
   3  -1  -7    5.41    0.84
  -3   1   7    6.58    0.82
  -3   1   7    8.93    0.95
   3   0  -7  213.89   11.86
  -3   0   7  210.69   11.82
  -3   0   7  215.61   11.85
  -3   0   7  211.74   11.77
   3   1  -7    9.99    1.13
  -3  -1   7    5.64    0.83
  -3  -1   7    5.07    0.70
  -3  -1   7    5.72    0.82
   3   2  -7   44.80    2.74
   3   2  -7   44.98    2.36
   3   2  -7   46.29    2.34
   3   2  -7   45.02    2.89
  -3  -2   7   35.60    2.66
  -3  -2   7   33.13    2.61
  -3  -2   7   35.04    2.51
   3   3  -7   15.16    1.49
   3   3  -7   14.98    1.39
  -3  -3   7   12.26    1.09
  -3  -3   7   12.03    1.30
  -3  -3   7   11.69    1.30
   3   4  -7   49.39    3.30
   3   4  -7   46.11    3.31
  -3  -4   7   50.33    2.99
  -3  -4   7   53.12    3.30
  -3  -4   7   49.36    3.29
   3   5  -7   12.83    1.50
   3   5  -7   12.42    1.57
  -3  -5   7   14.52    1.62
  -3  -5   7   14.54    1.52
   3   6  -7   67.39    4.40
   3   6  -7   65.26    4.40
  -3  -6   7   64.89    4.18
  -3  -6   7   65.74    4.38
   3   7  -7   10.76    1.72
   3   7  -7    8.77    1.63
  -3  -7   7   12.20    1.75
   3   8  -7    1.42    1.29
   3   8  -7    2.80    1.35
  -3  -8   7    0.16    1.06
  -2   8   7    4.46    1.40
  -2   8   7    4.87    1.14
  -2   7   7   10.42    1.64
  -2   7   7   10.26    1.36
  -2   7   7    9.93    1.29
  -2   6   7   19.46    1.79
  -2   6   7   20.71    1.77
  -2   5   7   20.93    1.68
  -2   5   7   18.70    1.72
  -2   4   7   10.47    1.01
  -2   4   7   11.66    1.19
  -2   4   7   10.98    1.19
   2  -3  -7  123.12    6.92
  -2   3   7  124.96    6.95
  -2   3   7  116.61    6.93
  -2   3   7  120.31    6.86
   2  -2  -7   63.01    3.73
  -2   2   7   58.43    3.44
  -2   2   7   59.39    3.65
  -2   2   7   61.11    3.63
  -2   2   7   60.45    3.69
   2  -1  -7   58.92    3.71
  -2   1   7   59.71    3.69
  -2   1   7   61.07    3.63
  -2   1   7   59.94    3.64
  -2   1   7   61.54    3.39
   2   0  -7  251.29   14.25
  -2   0   7  253.33   14.24
  -2   0   7  264.39   14.22
  -2   0   7  259.81   14.14
   2   1  -7   62.74    3.81
   2   1  -7   65.02    3.92
  -2  -1   7   61.20    3.63
  -2  -1   7   58.64    3.72
  -2  -1   7   60.57    3.77
   2   2  -7   63.17    3.59
   2   2  -7   60.66    3.56
   2   2  -7   62.53    3.57
   2   2  -7   60.42    3.98
   2   2  -7   63.86    3.94
  -2  -2   7   69.19    3.94
  -2  -2   7   65.75    3.93
  -2  -2   7   67.22    3.75
   2   3  -7  114.01    6.99
   2   3  -7  114.06    7.03
  -2  -3   7  126.37    6.76
  -2  -3   7  123.90    6.98
  -2  -3   7  123.78    7.02
   2   4  -7   10.86    1.35
   2   4  -7   11.00    1.37
  -2  -4   7   12.17    1.32
  -2  -4   7    9.89    1.24
  -2  -4   7   11.21    0.95
   2   5  -7   18.55    1.86
   2   5  -7   20.15    1.90
  -2  -5   7   18.76    1.68
  -2  -5   7   17.81    1.82
   2   6  -7   22.56    2.13
   2   6  -7   21.42    2.06
  -2  -6   7   16.12    1.73
  -2  -6   7   17.27    1.93
   2   7  -7    8.33    1.59
   2   7  -7    7.90    1.50
  -2  -7   7   11.09    1.61
   2   8  -7    3.15    1.44
   2   8  -7    5.37    1.53
  -2  -8   7    4.94    1.35
  -1   8   7   11.92    1.60
  -1   8   7   10.26    1.77
  -1   7   7    8.56    1.52
  -1   7   7   10.75    1.38
  -1   7   7    8.77    1.35
  -1   6   7   10.28    1.32
  -1   6   7    9.15    1.25
   1  -5  -7   25.27    1.82
  -1   5   7   20.07    1.84
  -1   5   7   19.74    1.79
   1  -4  -7   75.20    3.99
  -1   4   7   63.43    4.04
  -1   4   7   62.45    4.05
  -1   4   7   62.38    3.85
   1  -3  -7   13.94    1.13
   1  -3  -7   12.86    1.27
  -1   3   7   11.68    1.12
  -1   3   7   13.79    1.31
  -1   3   7   13.34    1.30
   1  -2  -7   40.89    2.52
   1  -2  -7   41.99    2.51
   1  -2  -7   38.15    2.75
  -1   2   7   43.06    2.80
  -1   2   7   42.59    2.68
  -1   2   7   46.21    2.73
  -1   2   7   42.08    2.53
   1  -1  -7    6.24    0.94
   1  -1  -7    7.04    0.65
   1  -1  -7    6.04    0.62
  -1   1   7   11.52    1.13
  -1   1   7   11.89    0.99
   1   0  -7   20.40    1.24
   1   0  -7   19.03    1.24
   1   0  -7   21.94    1.67
  -1   0   7   21.00    1.27
  -1   0   7   19.71    1.59
  -1   0   7   19.85    1.45
  -1   0   7   20.46    1.58
   1   1  -7   11.77    1.28
   1   1  -7   13.95    0.86
   1   1  -7   12.83    0.87
   1   1  -7   13.49    1.37
  -1  -1   7    9.24    1.00
  -1  -1   7    7.95    1.09
   1   2  -7   42.16    2.45
   1   2  -7   42.03    2.47
   1   2  -7   44.55    2.82
   1   2  -7   41.63    2.82
  -1  -2   7   38.48    2.69
  -1  -2   7   40.26    2.73
  -1  -2   7   38.88    2.50
   1   3  -7   11.96    1.34
   1   3  -7   12.40    1.01
  -1  -3   7   11.83    0.98
  -1  -3   7   10.51    1.25
  -1  -3   7   11.03    1.23
   1   4  -7   60.59    4.25
   1   4  -7   63.14    4.27
  -1  -4   7   74.86    4.32
  -1  -4   7   73.68    4.24
   1   5  -7   18.64    1.93
   1   5  -7   21.66    1.99
  -1  -5   7   20.30    1.81
  -1  -5   7   21.96    1.95
   1   6  -7    9.35    1.46
   1   6  -7    7.49    1.35
  -1  -6   7    6.77    1.11
  -1  -6   7    7.52    1.28
   1   7  -7    8.99    1.64
   1   7  -7    9.93    1.67
  -1  -7   7    9.12    1.57
   1   8  -7   14.23    2.04
   1   8  -7   14.41    2.07
   0   8   7    0.65    1.28
   0   8   7    2.98    1.15
   0   8   7    2.40    1.04
   0   7   7   11.06    1.65
   0   7   7    9.76    1.52
   0   7   7   10.04    1.42
   0  -6  -7    1.71    0.87
   0   6   7    0.59    0.90
   0   6   7    0.22    0.86
   0   6   7    1.94    0.87
   0  -5  -7   31.91    2.43
   0   5   7   35.89    2.52
   0   5   7   37.18    2.58
   0  -4  -7   86.29    5.28
   0  -4  -7   85.77    5.37
   0   4   7   90.69    5.33
   0   4   7   99.55    5.44
   0   4   7   88.26    5.16
   0  -3  -7  123.49    7.10
   0  -3  -7  118.02    6.94
   0  -3  -7  122.88    6.93
   0   3   7  120.53    7.00
   0   3   7  127.01    7.11
   0   3   7  122.89    6.93
   0  -2  -7   70.97    4.43
   0  -2  -7   74.49    4.69
   0  -2  -7   77.24    4.44
   0   2   7   82.53    4.58
   0   2   7   77.90    4.68
   0   2   7   77.62    4.59
   0   2   7   80.57    4.57
   0  -1  -7   77.00    4.27
   0  -1  -7   73.94    4.54
   0  -1  -7   79.39    4.29
   0   1   7   73.42    4.44
   0   1   7   78.27    4.37
   0   1   7   70.96    4.38
   0   1   7   69.01    4.52
   0   0  -7    0.04    0.55
   0   0  -7    0.47    0.55
   0   0  -7    0.20    0.31
   0   0  -7   -0.14    0.28
   0   0   7   -0.15    0.29
   0   0   7    0.23    0.40
   0   0   7   -0.39    0.45
   0   0   7    0.30    0.58
   0   1  -7   75.15    4.62
   0   1  -7   73.53    4.31
   0   1  -7   74.66    4.62
   0   1  -7   72.75    4.32
   0  -1   7   79.00    4.62
   0  -1   7   76.28    4.37
   0  -1   7   78.01    4.53
   0   2  -7   84.59    4.90
   0   2  -7   83.44    4.94
   0   2  -7   80.56    4.61
   0   2  -7   80.39    4.64
   0  -2   7   74.07    4.82
   0  -2   7   79.69    4.79
   0  -2   7   79.00    4.58
   0   3  -7  119.85    7.07
   0   3  -7  123.22    7.13
   0   3  -7  118.54    6.85
   0  -3   7  123.43    6.75
   0  -3   7  121.72    7.10
   0  -3   7  119.99    7.01
   0   4  -7   96.19    5.35
   0   4  -7   95.68    5.56
   0  -4   7   87.04    5.44
   0  -4   7   85.46    5.52
   0   5  -7   38.36    2.65
   0   5  -7   39.16    2.87
   0   5  -7   39.81    2.90
   0  -5   7   40.30    2.73
   0  -5   7   34.35    2.80
   0   6  -7    0.47    0.94
   0   6  -7    0.89    0.97
   0  -6   7    1.44    0.77
   0  -6   7    0.30    0.84
   0   7  -7   12.27    1.76
   0   7  -7    9.28    1.58
   0   8  -7    2.49    1.26
   0   8  -7    3.26    1.28
   1   8   7    3.09    1.25
   1   8   7    3.99    1.35
   1   8   7    1.40    1.05
  -1  -7  -7    9.61    1.60
   1   7   7   11.10    1.59
   1   7   7   13.35    1.55
   1   7   7   13.76    1.76
  -1  -6  -7   11.26    1.46
   1   6   7   10.34    1.39
   1   6   7   10.51    1.51
   1   6   7   13.31    1.65
  -1  -5  -7    3.40    1.37
  -1  -5  -7    3.40    0.92
  -1  -5  -7    3.76    0.95
   1   5   7    0.56    0.81
   1   5   7    1.27    0.85
  -1  -4  -7   48.35    3.02
  -1  -4  -7   46.77    3.10
  -1  -4  -7   48.45    2.99
   1   4   7   40.97    2.77
   1   4   7   42.51    2.97
   1   4   7   42.33    3.05
  -1  -3  -7   71.99    3.95
  -1  -3  -7   73.10    3.94
  -1  -3  -7   72.35    4.14
   1   3   7   58.24    3.93
   1   3   7   54.37    3.99
   1   3   7   58.25    3.84
  -1  -2  -7   22.96    1.82
  -1  -2  -7   24.74    1.82
  -1  -2  -7   23.44    2.05
   1   2   7   28.47    1.90
   1   2   7   29.54    1.91
   1   2   7   29.45    2.09
  -1  -1  -7   37.55    2.63
  -1  -1  -7   35.54    2.30
  -1  -1  -7   37.57    2.33
   1   1   7   36.74    2.39
   1   1   7   36.16    2.58
   1   1   7   37.34    2.46
  -1   0  -7    9.40    1.16
  -1   0  -7    9.89    0.96
  -1   0  -7    9.00    1.17
  -1   0  -7    9.58    0.92
   1   0   7    9.38    1.08
   1   0   7    8.52    0.92
   1   0   7    9.37    1.17
   1   0   7    9.88    0.96
  -1   1  -7   36.09    2.68
  -1   1  -7   37.03    2.46
  -1   1  -7   42.07    2.48
  -1   1  -7   40.07    2.70
   1  -1   7   39.00    2.69
   1  -1   7   34.91    2.57
   1  -1   7   39.71    2.42
  -1   2  -7   30.27    2.19
  -1   2  -7   29.83    1.92
  -1   2  -7   26.88    2.07
  -1   2  -7   27.15    1.93
   1  -2   7   25.27    2.00
   1  -2   7   24.96    2.05
   1  -2   7   23.65    1.73
  -1   3  -7   56.32    3.79
  -1   3  -7   58.05    4.07
  -1   3  -7   55.52    3.81
  -1   3  -7   56.06    3.95
   1  -3   7   74.44    4.16
   1  -3   7   77.39    4.08
   1  -3   7   70.24    3.66
  -1   4  -7   39.28    2.93
  -1   4  -7   40.69    2.97
  -1   4  -7   40.86    2.81
   1  -4   7   45.38    3.07
   1  -4   7   46.45    2.95
  -1   5  -7    0.99    0.91
  -1   5  -7    1.86    0.73
  -1   5  -7    0.56    0.82
   1  -5   7    2.59    0.83
   1  -5   7    2.45    0.93
  -1   6  -7   10.38    1.42
  -1   6  -7   12.24    1.73
   1  -6   7   13.11    1.70
   1  -6   7   13.67    1.50
  -1   7  -7   16.00    2.05
  -1   7  -7   14.71    1.97
  -1   8  -7    2.28    1.39
  -1   8  -7    4.06    1.44
  -2  -7  -7   11.17    1.63
   2   7   7   11.37    1.51
   2   7   7   10.80    1.73
   2   7   7   10.46    1.55
  -2  -6  -7    1.51    0.95
   2   6   7    2.66    1.14
   2   6   7    1.52    0.92
   2   6   7    2.91    1.01
  -2  -5  -7   20.65    1.92
  -2  -5  -7   19.23    2.02
  -2  -5  -7   20.12    1.96
   2   5   7   25.67    2.03
   2   5   7   21.50    2.10
  -2  -4  -7  101.26    6.38
  -2  -4  -7   95.83    6.25
  -2  -4  -7   99.11    6.23
   2   4   7  116.29    6.14
   2   4   7  111.95    6.27
   2   4   7  111.95    6.41
  -2  -3  -7    2.72    0.79
  -2  -3  -7    2.83    0.79
  -2  -3  -7    2.97    0.77
   2   3   7    2.55    0.65
   2   3   7    2.08    0.72
   2   3   7    2.61    0.87
  -2  -2  -7   58.81    3.79
  -2  -2  -7   60.25    3.99
  -2  -2  -7   61.97    3.80
   2   2   7   61.45    3.98
   2   2   7   63.45    3.83
   2   2   7   67.17    3.84
  -2  -1  -7   94.97    5.22
  -2  -1  -7   94.88    5.26
  -2  -1  -7   91.00    5.44
   2   1   7   86.64    5.29
   2   1   7   86.91    5.21
   2   1   7   81.64    5.38
  -2   0  -7    1.97    0.57
  -2   0  -7    0.66    0.66
  -2   0  -7    2.16    0.60
  -2   0  -7    1.10    0.66
   2   0   7    1.91    0.77
   2   0   7    1.14    0.53
   2   0   7    1.65    0.66
  -2   1  -7   87.07    5.43
  -2   1  -7   88.00    5.22
  -2   1  -7   84.31    5.24
  -2   1  -7   86.32    5.35
   2  -1   7   94.76    5.34
   2  -1   7   90.49    5.11
   2  -1   7   92.21    5.40
  -2   2  -7   66.73    4.14
  -2   2  -7   62.63    3.99
  -2   2  -7   65.12    3.93
  -2   2  -7   63.79    3.97
   2  -2   7   61.69    3.97
   2  -2   7   62.56    4.06
   2  -2   7   62.23    3.70
  -2   3  -7    3.26    0.78
  -2   3  -7    3.88    0.98
  -2   3  -7    2.91    0.83
  -2   3  -7    4.09    0.84
   2  -3   7    2.36    0.79
   2  -3   7    3.17    0.94
  -2   4  -7  117.37    6.58
  -2   4  -7  120.25    6.69
  -2   4  -7  113.77    6.61
  -2   4  -7  110.13    6.75
   2  -4   7  103.71    6.58
   2  -4   7  105.21    6.72
  -2   5  -7   22.30    2.12
  -2   5  -7   21.00    1.89
  -2   5  -7   22.30    2.05
   2  -5   7   18.79    1.92
   2  -5   7   20.89    2.10
  -2   6  -7    1.73    0.89
  -2   6  -7    3.25    1.12
  -2   6  -7    3.02    1.13
   2  -6   7    2.19    0.92
  -2   7  -7   10.17    1.70
  -2   7  -7   13.53    1.85
  -3  -7  -7   10.29    1.72
   3   7   7    9.43    1.46
   3   7   7    9.65    1.73
  -3  -6  -7   10.73    1.51
   3   6   7    7.91    1.52
   3   6   7    7.51    1.36
  -3  -5  -7   45.55    3.23
  -3  -5  -7   51.54    3.38
  -3  -5  -7   46.13    3.21
   3   5   7   41.72    3.13
   3   5   7   38.15    3.18
  -3  -4  -7   11.22    1.55
  -3  -4  -7    8.71    1.31
  -3  -4  -7   10.91    1.40
   3   4   7   10.09    1.47
   3   4   7   12.61    1.43
  -3  -3  -7   33.90    2.33
  -3  -3  -7   31.79    2.35
  -3  -3  -7   27.81    2.37
   3   3   7   29.17    2.14
   3   3   7   27.93    2.42
   3   3   7   27.31    2.17
  -3  -2  -7   12.71    1.44
  -3  -2  -7   13.61    1.61
  -3  -2  -7   15.22    1.47
   3   2   7   15.42    1.64
   3   2   7   16.39    1.50
   3   2   7   17.36    1.53
  -3  -1  -7   27.84    2.54
  -3  -1  -7   32.35    2.44
  -3  -1  -7   33.80    2.39
   3   1   7   38.24    2.41
   3   1   7   39.13    2.52
   3   1   7   39.07    2.66
  -3   0  -7   16.36    1.50
  -3   0  -7   15.91    1.54
  -3   0  -7   16.92    1.70
   3   0   7   18.11    1.44
   3   0   7   18.71    1.63
   3   0   7   17.21    1.74
  -3   1  -7   38.93    2.70
  -3   1  -7   40.87    2.56
  -3   1  -7   39.24    2.57
  -3   1  -7   42.15    2.64
   3  -1   7   30.68    2.29
   3  -1   7   29.34    2.55
   3  -1   7   31.81    2.52
  -3   2  -7   15.85    1.64
  -3   2  -7   14.40    1.62
  -3   2  -7   16.80    1.59
  -3   2  -7   15.60    1.48
   3  -2   7   16.01    1.62
   3  -2   7   14.57    1.22
   3  -2   7   11.27    1.37
  -3   3  -7   23.39    2.09
  -3   3  -7   25.53    2.16
  -3   3  -7   27.69    2.30
  -3   3  -7   24.00    2.09
   3  -3   7   28.45    2.17
   3  -3   7   29.86    2.28
  -3   4  -7   10.68    1.38
  -3   4  -7   13.84    1.49
  -3   4  -7    9.71    1.33
  -3   4  -7   10.75    1.54
   3  -4   7   10.50    1.34
   3  -4   7    9.85    1.46
  -3   5  -7   40.51    3.06
  -3   5  -7   44.37    3.17
  -3   5  -7   43.30    3.31
  -3   5  -7   38.18    3.11
   3  -5   7   51.74    3.19
  -3   6  -7    7.30    1.39
  -3   6  -7    8.99    1.57
   3  -6   7   11.72    1.46
  -3   7  -7    9.12    1.61
  -3   7  -7    8.74    1.63
  -4  -7  -7    2.73    1.35
   4   7   7    2.69    1.22
   4   7   7    2.08    1.34
  -4  -6  -7   10.57    1.64
  -4  -6  -7   11.10    1.70
   4   6   7   12.80    1.89
   4   6   7    9.37    1.44
  -4  -5  -7    4.69    1.20
  -4  -5  -7    7.73    1.45
   4   5   7   11.86    1.46
   4   5   7    8.40    1.55
  -4  -4  -7    6.05    1.23
  -4  -4  -7    3.60    1.16
  -4  -4  -7    6.89    1.22
   4   4   7   11.21    1.52
   4   4   7    9.18    1.28
  -4  -3  -7    1.19    0.87
  -4  -3  -7    3.40    0.93
  -4  -3  -7    1.33    0.81
   4   3   7    1.93    1.05
   4   3   7    1.54    0.84
  -4  -2  -7   12.94    1.63
  -4  -2  -7   11.87    1.38
  -4  -2  -7   12.61    1.39
   4   2   7   10.87    1.48
   4   2   7   11.94    1.38
   4   2   7   10.46    1.28
  -4  -1  -7   47.08    3.12
  -4  -1  -7   46.19    3.05
  -4  -1  -7   38.70    3.16
   4   1   7   45.12    2.96
   4   1   7   49.56    3.12
   4   1   7   42.52    3.17
  -4   0  -7  164.04    9.20
  -4   0  -7  157.75    9.32
  -4   0  -7  161.68    9.25
   4   0   7  164.48    9.06
   4   0   7  162.04    9.23
   4   0   7  153.27    9.27
  -4   1  -7   46.54    3.29
  -4   1  -7   46.43    3.22
  -4   1  -7   46.37    3.17
  -4   1  -7   48.52    3.16
   4  -1   7   46.99    2.96
   4  -1   7   47.47    3.22
   4  -1   7   47.02    3.30
  -4   2  -7   10.24    1.49
  -4   2  -7   14.71    1.63
  -4   2  -7   12.92    1.42
  -4   2  -7   12.50    1.56
   4  -2   7   12.48    1.18
   4  -2   7   13.59    1.52
   4  -2   7   13.25    1.55
  -4   3  -7    1.73    0.75
  -4   3  -7    1.72    0.91
  -4   3  -7    2.25    0.87
  -4   3  -7    2.44    0.96
   4  -3   7    0.74    0.77
   4  -3   7    0.59    0.84
  -4   4  -7   12.17    1.53
  -4   4  -7   11.55    1.50
  -4   4  -7   11.35    1.56
  -4   4  -7   10.98    1.41
   4  -4   7    6.10    1.27
  -4   5  -7    8.57    1.51
  -4   5  -7    9.59    1.44
  -4   5  -7   10.74    1.51
   4  -5   7   10.49    1.51
  -4   6  -7   12.42    1.68
  -4   6  -7   11.58    1.80
  -4   6  -7   12.89    1.76
   4  -6   7   10.80    1.55
  -4   7  -7    2.24    1.22
  -4   7  -7    1.97    1.13
  -4   7  -7    3.95    1.35
  -5  -6  -7    9.35    1.70
  -5  -6  -7    5.80    1.53
   5   6   7    6.65    1.45
   5   6   7    5.75    1.66
  -5  -5  -7   15.33    2.06
  -5  -5  -7   19.40    2.14
   5   5   7   20.86    2.29
   5   5   7   15.22    1.83
  -5  -4  -7    7.33    1.39
  -5  -4  -7    8.19    1.47
   5   4   7    6.88    1.43
   5   4   7    6.32    1.25
  -5  -3  -7    1.90    0.97
  -5  -3  -7    2.42    0.99
  -5  -3  -7    2.05    0.95
   5   3   7    1.01    0.93
   5   3   7    0.33    0.80
  -5  -2  -7   14.92    1.66
  -5  -2  -7   17.37    1.76
  -5  -2  -7   12.38    1.59
   5   2   7   12.03    1.44
   5   2   7   12.90    1.69
  -5  -1  -7   10.82    1.58
  -5  -1  -7   13.31    1.59
  -5  -1  -7   10.66    1.45
   5   1   7   16.81    1.81
   5   1   7   12.06    1.32
  -5   0  -7   17.25    1.86
  -5   0  -7   19.58    1.79
  -5   0  -7   19.49    1.94
   5   0   7   16.79    1.81
   5   0   7   19.33    1.96
   5   0   7   17.34    1.57
  -5   1  -7   15.91    1.70
  -5   1  -7   15.88    1.65
  -5   1  -7   14.79    1.48
  -5   1  -7   13.05    1.59
   5  -1   7   12.12    1.26
   5  -1   7   10.47    1.46
   5  -1   7    9.44    1.48
  -5   2  -7   13.75    1.72
  -5   2  -7   12.04    1.65
  -5   2  -7   14.81    1.76
  -5   2  -7   13.00    1.50
   5  -2   7   18.53    1.83
   5  -2   7   16.90    1.83
  -5   3  -7    1.58    0.76
  -5   3  -7    1.28    1.02
  -5   3  -7    2.23    0.97
  -5   3  -7    0.94    0.94
   5  -3   7    0.94    0.91
  -5   4  -7    7.65    1.23
  -5   4  -7    6.46    1.39
  -5   4  -7    8.27    1.53
   5  -4   7    9.40    1.43
  -5   5  -7   16.42    1.90
  -5   5  -7   18.01    2.11
  -5   5  -7   20.89    2.25
   5  -5   7   17.28    1.95
  -5   6  -7    7.30    1.53
  -5   6  -7    7.63    1.42
  -5   6  -7    8.45    1.60
  -6  -5  -7    6.43    1.54
  -6  -5  -7    6.40    1.48
   6   5   7    5.10    1.54
   6   5   7    4.79    1.38
  -6  -4  -7    4.51    1.33
  -6  -4  -7    5.23    1.41
   6   4   7    2.84    1.34
   6   4   7    4.25    1.29
  -6  -3  -7    4.40    1.25
  -6  -3  -7    5.43    1.30
   6   3   7    3.10    1.11
   6   3   7    3.50    1.32
  -6  -2  -7   29.68    2.68
  -6  -2  -7   29.58    2.62
   6   2   7   31.82    2.79
   6   2   7   35.17    2.53
  -6  -1  -7   -0.31    0.81
  -6  -1  -7   -0.07    0.82
  -6  -1  -7   -0.45    0.86
   6   1   7    0.20    0.91
   6   1   7    1.67    0.87
  -6   0  -7   24.45    2.25
  -6   0  -7   24.75    2.32
  -6   0  -7   23.13    2.22
   6   0   7   25.92    2.00
   6   0   7   21.48    2.25
  -6   1  -7    1.19    0.93
  -6   1  -7   -0.11    0.78
  -6   1  -7    0.19    0.80
   6  -1   7   -0.17    0.63
  -6   2  -7   34.80    2.80
  -6   2  -7   33.43    2.85
  -6   3  -7    2.12    1.17
  -6   3  -7    4.72    1.22
  -6   4  -7    3.71    1.27
  -6   4  -7    3.52    1.23
  -6   5  -7    4.85    1.26
  -6   5  -7    5.14    1.41
  -6   5  -7    5.89    1.46
  -7  -4  -7    3.45    1.39
  -7  -4  -7    4.06    1.41
   7   4   7    3.24    1.45
   7   4   7    2.51    1.19
  -7  -3  -7   20.21    2.26
  -7  -3  -7   17.04    2.09
   7   3   7   16.87    1.89
   7   3   7   17.70    2.13
  -7  -2  -7    4.46    1.25
  -7  -2  -7    5.29    1.34
   7   2   7    4.28    1.35
   7   2   7    2.33    1.09
  -7  -1  -7   21.70    2.22
  -7  -1  -7   18.78    2.11
   7   1   7   18.07    1.86
  -7   0  -7    3.89    1.15
  -7   0  -7    3.52    1.17
   7   0   7    2.30    0.92
  -7   1  -7   18.10    2.13
  -7   1  -7   19.92    2.19
   7  -1   7   24.81    2.07
  -7   2  -7    2.72    1.17
  -7   2  -7    2.95    1.15
  -7   3  -7   18.99    2.28
  -7   3  -7   18.74    2.13
  -7   4  -7    5.07    1.45
  -7   4  -7    1.92    1.15
  -8  -3  -7    3.28    1.37
  -8  -3  -7    2.79    1.27
   8   3   7    2.49    1.21
  -8  -2  -7    4.81    1.38
  -8  -2  -7    6.68    1.46
   8   2   7    8.56    1.47
  -8  -1  -7    3.13    1.25
  -8  -1  -7    2.40    1.18
   8   1   7    1.01    1.02
  -8   0  -7    3.27    1.27
  -8   0  -7    3.20    1.21
   8   0   7    2.62    1.06
  -8   1  -7    2.26    1.16
  -8   1  -7    1.79    1.13
  -8   2  -7    8.77    1.68
  -8   2  -7    9.83    1.63
  -8   3  -7    3.63    1.42
  -8   3  -7    4.11    1.30
  -9   0  -7    0.97    1.24
   9   0   7   -0.32    1.10
 -12   2   8    1.02    1.01
 -12   2   8    1.85    1.05
 -12   1   8   17.18    2.05
 -12   0   8    3.16    1.17
 -12  -1   8   14.96    1.99
 -12  -2   8    1.87    1.05
 -12  -2   8    0.70    0.77
 -11   4   8    6.28    1.24
 -11   3   8    4.07    1.14
 -11   3   8    3.65    1.08
 -11   2   8   14.84    1.81
 -11   2   8   18.56    1.93
 -11   1   8    1.08    0.94
 -11   0   8    0.25    0.88
 -11  -1   8    2.37    0.72
 -11  -1   8    2.43    1.07
 -11  -2   8   12.98    1.71
 -11  -2   8   12.82    1.46
 -11  -3   8    1.11    0.83
 -11  -3   8    1.07    1.02
 -11  -4   8    4.28    1.28
 -10   5   8   11.19    1.62
 -10   4   8    3.34    1.04
 -10   4   8    3.25    0.97
 -10   3   8    3.26    0.99
 -10   3   8    4.39    1.00
 -10   2   8   17.81    1.87
 -10   2   8   20.05    1.93
 -10   1   8   44.48    3.23
 -10   0   8    1.00    0.88
 -10   0   8    1.67    0.57
 -10  -1   8   47.24    3.05
 -10  -1   8   47.62    3.44
 -10  -2   8   19.34    1.78
 -10  -2   8   20.25    2.09
 -10  -3   8    2.21    0.87
 -10  -3   8    2.84    1.06
 -10  -4   8    1.93    0.98
 -10  -4   8    6.14    1.36
 -10  -5   8   11.96    1.73
 -10  -5   8   11.57    1.74
  -9   5   8    2.18    1.02
  -9   5   8    3.31    1.02
  -9   4   8    9.07    1.19
  -9   4   8    7.56    1.29
  -9   3   8    2.58    0.93
  -9   3   8    3.70    0.91
  -9   2   8    9.00    1.30
  -9   2   8   12.22    1.41
  -9   1   8    6.55    1.13
  -9   1   8    6.15    1.12
  -9   0   8   27.78    1.90
  -9   0   8   25.91    2.25
  -9  -1   8    3.89    0.77
  -9  -1   8    6.09    1.18
  -9  -2   8   14.87    1.52
  -9  -2   8   14.63    1.73
  -9  -3   8    4.54    1.15
  -9  -3   8    2.43    0.87
  -9  -4   8    9.84    1.46
  -9  -4   8   12.18    1.68
  -9  -5   8    2.45    1.07
  -9  -5   8    1.98    1.05
  -8   6   8   25.39    2.50
  -8   5   8   29.19    2.36
  -8   4   8    9.99    1.22
  -8   4   8   11.38    1.43
  -8   3   8    5.42    0.94
  -8   3   8    4.37    0.98
  -8   2   8   11.00    1.32
  -8   2   8    9.64    1.27
  -8   1   8   52.77    3.40
  -8   1   8   49.89    3.31
  -8   1   8   49.28    3.06
  -8   0   8   53.66    3.57
  -8   0   8   53.79    3.30
  -8  -1   8   44.37    3.08
  -8  -1   8   43.27    2.84
  -8  -2   8    7.39    1.24
  -8  -2   8    8.14    1.10
  -8  -3   8    4.56    1.00
  -8  -3   8    4.84    1.12
  -8  -4   8   10.53    1.47
  -8  -4   8    9.25    1.37
  -8  -5   8   24.45    2.34
  -8  -5   8   25.61    2.32
  -8  -6   8   16.30    2.01
  -8  -6   8   17.78    2.01
  -7   7   8    3.47    1.33
  -7   6   8    3.10    1.20
  -7   6   8    3.57    1.02
  -7   5   8   13.63    1.59
  -7   4   8   25.92    1.97
  -7   4   8   26.64    2.15
  -7   3   8    8.49    1.21
  -7   3   8   10.90    1.24
  -7   2   8   48.72    3.19
  -7   2   8   46.88    2.96
  -7   2   8   52.94    3.26
  -7   1   8   55.13    3.50
  -7   1   8   51.26    3.42
  -7   1   8   54.28    3.28
  -7   0   8    0.94    0.62
  -7   0   8    1.05    0.55
  -7   0   8    1.47    0.68
  -7  -1   8   54.70    3.40
  -7  -1   8   54.03    3.59
  -7  -2   8   52.41    3.43
  -7  -2   8   55.28    3.58
   7   3  -8    8.82    1.36
  -7  -3   8    7.10    1.13
  -7  -3   8    7.67    1.16
   7   4  -8   25.43    2.47
  -7  -4   8   28.94    2.38
  -7  -4   8   32.33    2.41
   7   5  -8   13.69    1.80
  -7  -5   8   13.54    1.63
  -7  -5   8   12.26    1.61
   7   6  -8    2.06    1.20
  -7  -6   8    4.91    1.15
  -7  -6   8    2.78    1.17
  -7  -7   8    2.23    1.22
  -6   7   8    3.97    1.35
  -6   6   8   30.19    2.47
  -6   6   8   31.34    2.76
  -6   5   8   18.43    1.82
  -6   4   8   23.10    1.60
  -6   4   8   25.17    1.85
  -6   4   8   26.14    2.02
  -6   3   8   70.31    4.13
  -6   3   8   72.38    4.38
  -6   3   8   75.06    4.44
  -6   2   8    2.86    0.64
  -6   2   8    3.41    0.80
  -6   2   8    3.85    0.80
  -6   1   8   28.09    2.09
  -6   1   8   27.98    2.07
  -6   1   8   28.82    1.97
  -6   0   8   33.31    2.32
  -6   0   8   36.25    2.33
  -6   0   8   33.45    2.43
  -6  -1   8   21.52    1.68
  -6  -1   8   23.25    1.74
  -6  -1   8   21.95    1.84
   6   2  -8    2.83    0.88
  -6  -2   8    1.28    0.73
  -6  -2   8    1.08    0.62
   6   3  -8   74.46    4.50
  -6  -3   8   64.03    4.30
  -6  -3   8   67.77    4.30
   6   4  -8   23.89    2.22
   6   4  -8   23.81    2.34
  -6  -4   8   25.36    2.17
  -6  -4   8   28.87    2.19
   6   5  -8   15.79    1.85
   6   5  -8   15.36    1.91
  -6  -5   8   14.69    1.67
  -6  -5   8   17.27    1.88
   6   6  -8   33.85    2.76
   6   6  -8   27.39    2.65
  -6  -6   8   25.16    2.36
  -6  -6   8   30.23    2.65
   6   7  -8    5.46    1.51
   6   7  -8    2.97    1.39
  -6  -7   8    1.42    1.17
  -5   7   8    4.75    1.43
  -5   6   8    6.32    1.16
  -5   6   8    4.17    0.90
  -5   5   8   14.95    1.25
  -5   5   8   17.28    1.65
  -5   4   8    7.73    0.84
  -5   4   8    7.90    0.95
  -5   4   8    7.82    1.12
  -5   3   8  128.34    7.17
  -5   3   8  125.63    7.34
  -5   3   8  127.50    7.28
  -5   2   8   18.52    1.56
  -5   2   8   19.82    1.55
  -5   2   8   18.62    1.55
  -5   1   8   41.67    2.64
  -5   1   8   39.39    2.68
  -5   1   8   40.40    2.66
  -5   0   8    1.92    0.62
  -5   0   8    2.36    0.67
  -5   0   8    2.44    0.64
  -5  -1   8   39.90    2.61
  -5  -1   8   40.60    2.64
  -5  -1   8   39.42    2.72
   5   2  -8   21.10    1.99
   5   2  -8   20.89    1.74
  -5  -2   8   21.20    1.65
  -5  -2   8   21.82    1.83
  -5  -2   8   23.97    1.80
   5   3  -8  128.30    7.45
   5   3  -8  127.25    7.25
  -5  -3   8  124.61    7.08
  -5  -3   8  118.69    7.22
  -5  -3   8  122.95    7.27
   5   4  -8    7.91    1.41
   5   4  -8    8.18    1.25
  -5  -4   8   10.51    1.33
  -5  -4   8   12.06    1.44
   5   5  -8   17.81    1.98
   5   5  -8   19.58    2.00
  -5  -5   8   17.05    1.89
  -5  -5   8   15.81    1.73
   5   6  -8    4.31    1.27
   5   6  -8    2.97    1.21
  -5  -6   8    5.35    1.12
  -5  -6   8    5.74    1.25
   5   7  -8    2.92    1.32
   5   7  -8    4.84    1.46
  -5  -7   8    8.29    1.52
  -4   7   8    5.15    1.41
  -4   7   8    4.53    1.15
  -4   7   8    4.25    0.89
  -4   6   8   15.58    1.45
  -4   6   8   16.49    1.74
  -4   5   8    1.54    0.60
  -4   5   8    0.74    0.80
  -4   4   8   25.56    1.83
  -4   4   8   24.80    1.98
  -4   4   8   24.81    1.82
  -4   3   8   22.54    1.89
  -4   3   8   26.23    1.81
  -4   3   8   23.00    1.78
  -4   2   8  109.40    6.07
  -4   2   8  103.58    6.02
  -4   2   8   99.38    6.03
  -4   1   8   30.32    2.13
  -4   1   8   31.34    2.13
  -4   1   8   28.14    2.06
   4   0  -8    0.56    0.53
  -4   0   8    0.50    0.56
  -4   0   8    1.25    0.55
  -4   0   8    0.51    0.59
   4   1  -8   28.46    2.40
   4   1  -8   30.46    2.25
  -4  -1   8   35.08    2.31
  -4  -1   8   33.13    2.26
  -4  -1   8   33.05    2.17
   4   2  -8   98.66    6.00
  -4  -2   8   98.81    5.68
  -4  -2   8   96.73    5.81
  -4  -2   8  100.49    5.81
   4   3  -8   24.10    2.12
   4   3  -8   23.70    1.95
  -4  -3   8   23.83    1.95
  -4  -3   8   23.00    1.93
  -4  -3   8   23.89    1.71
   4   4  -8   21.99    2.15
   4   4  -8   23.22    2.24
  -4  -4   8   28.16    2.14
  -4  -4   8   29.71    1.90
  -4  -4   8   29.26    2.19
   4   5  -8    1.91    0.98
   4   5  -8    1.17    0.93
  -4  -5   8    0.21    0.70
  -4  -5   8   -0.48    0.69
   4   6  -8   13.38    1.72
   4   6  -8   15.81    1.97
  -4  -6   8   10.91    1.64
  -4  -6   8   13.09    1.58
   4   7  -8    3.35    1.39
   4   7  -8    4.18    1.40
  -4  -7   8    5.37    1.39
  -3   8   8    3.16    1.45
  -3   8   8    5.72    1.16
  -3   7   8    6.08    1.09
  -3   7   8    6.08    1.20
  -3   7   8    5.74    1.41
  -3   6   8   42.54    2.96
  -3   6   8   46.83    3.17
  -3   5   8   13.30    1.40
  -3   5   8   13.28    1.46
  -3   4   8   56.43    3.76
  -3   4   8   63.43    3.77
  -3   4   8   60.85    3.65
  -3   3   8   87.05    5.08
  -3   3   8   82.10    5.07
  -3   3   8   86.63    5.02
  -3   2   8   39.30    2.54
  -3   2   8   39.43    2.50
  -3   2   8   33.57    2.54
   3  -1  -8   37.35    2.61
  -3   1   8   37.06    2.56
  -3   1   8   41.70    2.65
  -3   1   8   40.57    2.61
   3   0  -8   66.76    3.99
  -3   0   8   66.11    3.99
  -3   0   8   62.50    3.87
  -3   0   8   62.94    3.95
   3   1  -8   35.46    2.49
   3   1  -8   36.88    2.63
  -3  -1   8   34.87    2.46
  -3  -1   8   33.80    2.43
  -3  -1   8   36.47    2.33
   3   2  -8   36.07    2.63
   3   2  -8   38.93    2.56
  -3  -2   8   34.15    2.49
  -3  -2   8   34.69    2.29
  -3  -2   8   33.84    2.46
   3   3  -8   84.09    4.96
   3   3  -8   84.90    4.85
  -3  -3   8   75.99    4.77
  -3  -3   8   73.98    4.53
  -3  -3   8   73.14    4.75
   3   4  -8   57.84    4.11
   3   4  -8   61.45    4.08
  -3  -4   8   66.49    3.79
  -3  -4   8   68.92    4.11
  -3  -4   8   64.47    4.13
   3   5  -8   16.08    1.77
   3   5  -8   12.34    1.59
  -3  -5   8   12.09    1.62
  -3  -5   8   10.14    1.37
   3   6  -8   44.99    3.44
   3   6  -8   42.80    3.51
  -3  -6   8   50.31    3.35
  -3  -6   8   52.46    3.55
   3   7  -8    5.70    1.43
   3   7  -8    6.41    1.57
  -3  -7   8    6.92    1.49
   3   8  -8    7.30    1.67
   3   8  -8    4.92    1.54
  -3  -8   8    1.99    1.28
  -2   8   8   13.08    1.63
  -2   8   8   11.89    1.98
  -2   7   8    2.74    0.99
  -2   7   8    1.88    1.19
  -2   7   8    2.44    1.03
  -2   6   8   32.49    2.57
  -2   6   8   32.83    2.47
  -2   5   8    1.58    0.81
  -2   5   8    1.57    0.73
  -2   4   8   34.05    2.42
  -2   4   8   34.96    2.44
  -2   4   8   31.24    2.18
  -2   3   8   14.02    1.43
  -2   3   8   14.72    1.30
  -2   3   8   13.70    1.44
   2  -2  -8   14.04    1.43
  -2   2   8   10.02    1.13
  -2   2   8   11.35    1.30
  -2   2   8   11.40    1.19
  -2   1   8   10.44    1.15
  -2   1   8   13.28    1.34
  -2   1   8   11.06    1.18
   2   0  -8   80.26    4.64
  -2   0   8   75.37    4.47
  -2   0   8   73.53    4.59
  -2   0   8   73.66    4.55
   2   1  -8   11.79    1.55
   2   1  -8   13.17    1.53
  -2  -1   8   19.75    1.58
  -2  -1   8   19.38    1.60
  -2  -1   8   21.97    1.45
   2   2  -8   12.01    1.50
   2   2  -8   10.84    1.33
  -2  -2   8   12.41    1.36
  -2  -2   8   12.63    1.31
  -2  -2   8   13.56    1.16
   2   3  -8   14.31    1.74
  -2  -3   8   19.75    1.40
  -2  -3   8   19.60    1.70
  -2  -3   8   18.64    1.65
   2   4  -8   33.39    2.54
   2   4  -8   30.32    2.45
  -2  -4   8   30.72    2.40
  -2  -4   8   34.46    2.41
  -2  -4   8   32.13    2.41
   2   5  -8    1.59    0.96
   2   5  -8    1.20    0.93
  -2  -5   8    0.62    0.75
  -2  -5   8    0.54    0.74
   2   6  -8   34.15    2.95
   2   6  -8   35.64    2.98
  -2  -6   8   38.49    2.90
  -2  -6   8   38.30    2.76
   2   7  -8    3.06    1.25
   2   7  -8    3.81    1.32
  -2  -7   8    1.08    1.15
   2   8  -8   11.50    1.92
   2   8  -8    9.83    1.87
  -2  -8   8   10.33    2.20
  -1   8   8    1.07    1.03
  -1   8   8   -0.35    1.19
  -1   8   8    0.70    1.06
  -1   7   8   15.51    1.82
  -1   7   8   17.62    2.08
  -1   7   8   15.50    1.78
  -1   6   8    5.25    1.12
  -1   6   8    5.25    1.14
   1  -5  -8   70.02    4.39
  -1   5   8   72.39    4.46
  -1   5   8   72.25    4.51
   1  -4  -8   11.74    1.21
  -1   4   8   11.33    1.41
  -1   4   8   10.67    1.14
  -1   4   8   11.07    1.31
   1  -3  -8    4.68    0.97
   1  -3  -8    6.57    0.79
  -1   3   8    4.90    0.95
  -1   3   8    4.09    0.75
  -1   3   8    3.87    0.81
   1  -2  -8    5.74    0.68
   1  -2  -8    5.60    0.99
   1  -2  -8    6.20    0.68
  -1   2   8    3.82    0.92
  -1   2   8    6.21    0.92
  -1   2   8    5.07    0.80
   1  -1  -8  330.08   17.74
   1  -1  -8  333.78   17.73
   1  -1  -8  328.44   18.10
  -1   1   8  327.97   18.01
  -1   1   8  314.58   18.06
  -1   1   8  325.48   17.96
   1   0  -8   31.43    2.28
   1   0  -8   30.01    1.81
  -1   0   8   31.74    2.05
  -1   0   8   29.67    2.05
  -1   0   8   27.95    2.22
  -1   0   8   32.58    2.22
   1   1  -8  324.64   18.47
   1   1  -8  324.75   18.42
   1   1  -8  335.70   18.02
  -1  -1   8  337.91   18.20
  -1  -1   8  343.31   18.44
  -1  -1   8  328.26   18.35
   1   2  -8    3.84    0.92
   1   2  -8    4.36    0.76
   1   2  -8    5.15    1.03
  -1  -2   8    4.94    0.71
  -1  -2   8    4.32    0.91
  -1  -2   8    4.84    0.91
   1   3  -8    4.54    1.00
   1   3  -8    4.25    1.02
  -1  -3   8    5.65    1.02
  -1  -3   8    4.50    0.93
  -1  -3   8    5.74    0.72
   1   4  -8   10.42    1.42
  -1  -4   8   13.21    1.57
  -1  -4   8   10.20    1.30
   1   5  -8   76.20    4.74
   1   5  -8   75.32    4.76
  -1  -5   8   66.67    4.62
  -1  -5   8   70.96    4.53
   1   6  -8    3.67    1.26
   1   6  -8    5.18    1.39
  -1  -6   8    5.44    1.13
  -1  -6   8    6.13    1.33
   1   7  -8   16.45    2.06
   1   7  -8   14.84    1.98
  -1  -7   8   13.97    1.94
   1   8  -8   -0.21    1.24
   1   8  -8   -0.23    1.16
   0   7   8    7.23    1.46
   0   7   8    4.78    1.30
   0   7   8    6.18    1.31
   0  -6  -8   17.00    1.77
   0   6   8   14.23    1.77
   0   6   8   13.73    1.64
   0  -5  -8   30.07    2.31
   0   5   8   31.48    2.48
   0   5   8   31.71    2.42
   0  -4  -8   32.42    2.35
   0   4   8   33.86    2.26
   0   4   8   34.96    2.65
   0   4   8   33.40    2.47
   0  -3  -8   13.45    1.21
   0  -3  -8   11.94    1.22
   0  -3  -8   13.71    1.58
   0   3   8   14.68    1.57
   0   3   8   11.45    1.34
   0   3   8   13.13    1.27
   0  -2  -8    5.75    0.76
   0  -2  -8    6.47    1.15
   0  -2  -8    5.95    0.76
   0   2   8    6.96    1.01
   0   2   8    7.38    1.13
   0   2   8    6.82    0.93
   0  -1  -8   63.63    4.46
   0  -1  -8   65.90    4.14
   0  -1  -8   65.39    4.15
   0   1   8   80.04    4.33
   0   1   8   81.36    4.44
   0   1   8   75.58    4.52
   0   1   8   78.66    4.36
   0   0  -8    8.30    0.84
   0   0  -8    8.81    0.81
   0   0  -8   11.09    1.34
   0   0   8   10.21    1.05
   0   0   8    7.26    0.99
   0   0   8    9.31    0.93
   0   0   8   10.52    1.28
   0   1  -8   78.09    4.59
   0   1  -8   78.15    4.19
   0   1  -8   80.33    4.64
   0   1  -8   78.25    4.21
   0  -1   8   65.18    4.25
   0  -1   8   66.52    4.48
   0  -1   8   63.07    4.41
   0   2  -8    9.55    0.93
   0   2  -8    9.63    1.30
   0   2  -8    7.74    0.89
   0   2  -8    6.32    1.07
   0  -2   8    5.45    0.96
   0  -2   8    6.26    0.80
   0  -2   8    6.38    1.07
   0   3  -8   12.72    1.21
   0   3  -8   15.21    1.64
   0   3  -8   12.76    1.18
   0   3  -8   12.02    1.55
   0  -3   8   13.62    1.62
   0  -3   8   13.22    1.50
   0  -3   8   13.59    1.11
   0   4  -8   30.70    2.51
   0   4  -8   31.52    2.50
   0  -4   8   28.64    2.36
   0  -4   8   32.33    2.46
   0   5  -8   30.64    2.56
   0   5  -8   28.88    2.52
   0  -5   8   29.75    2.54
   0  -5   8   30.45    2.39
   0   6  -8   12.85    1.78
   0  -6   8   14.74    1.85
   0  -6   8   15.51    1.66
   0   7  -8    6.55    1.53
   0   7  -8    7.97    1.66
  -1  -7  -8    2.15    1.17
   1   7   8    4.13    1.33
   1   7   8    1.49    1.17
   1   7   8    4.19    1.23
  -1  -6  -8   11.18    1.47
   1   6   8   12.02    1.54
   1   6   8    9.78    1.59
  -1  -5  -8   15.75    1.64
   1   5   8   15.41    1.76
   1   5   8   13.18    1.56
  -1  -4  -8   15.07    1.64
  -1  -4  -8   16.00    1.52
  -1  -4  -8   15.05    1.49
   1   4   8   12.05    1.31
   1   4   8   13.67    1.67
   1   4   8   15.23    1.60
  -1  -3  -8   29.20    2.09
  -1  -3  -8   28.94    2.10
  -1  -3  -8   31.80    2.43
   1   3   8   28.98    2.37
   1   3   8   28.85    2.22
   1   3   8   29.47    2.13
  -1  -2  -8   11.53    1.12
  -1  -2  -8   13.64    1.57
  -1  -2  -8   11.30    1.12
   1   2   8    7.71    1.20
   1   2   8    9.71    1.14
   1   2   8    6.12    1.03
  -1  -1  -8   70.49    4.75
  -1  -1  -8   70.56    4.44
  -1  -1  -8   73.38    4.43
   1   1   8   82.34    4.56
   1   1   8   82.64    4.65
   1   1   8   80.72    4.78
  -1   0  -8  202.85   11.31
  -1   0  -8  207.39   11.63
  -1   0  -8  204.91   11.33
   1   0   8  194.97   11.55
   1   0   8  211.95   11.54
   1   0   8  206.22   11.37
  -1   1  -8   81.63    4.75
  -1   1  -8   90.45    5.14
  -1   1  -8   84.35    4.73
  -1   1  -8   89.05    5.08
   1  -1   8   72.49    4.98
   1  -1   8   75.66    4.92
   1  -1   8   77.42    4.73
  -1   2  -8   10.03    1.12
  -1   2  -8   10.54    1.44
  -1   2  -8    8.69    1.31
  -1   2  -8    9.00    1.14
   1  -2   8   11.82    1.47
   1  -2   8   12.54    1.40
   1  -2   8   10.82    1.02
  -1   3  -8   31.05    2.44
  -1   3  -8   31.55    2.25
  -1   3  -8   29.60    2.53
  -1   3  -8   32.16    2.22
   1  -3   8   30.81    2.39
   1  -3   8   32.52    2.54
  -1   4  -8   11.07    1.29
  -1   4  -8   12.69    1.66
  -1   4  -8   13.00    1.41
  -1   4  -8   11.24    1.46
   1  -4   8   18.62    1.81
   1  -4   8   13.81    1.49
  -1   5  -8   13.34    1.68
  -1   5  -8   15.99    1.92
   1  -5   8   14.83    1.64
   1  -5   8   15.55    1.84
  -1   6  -8   12.89    1.83
  -1   6  -8   13.68    1.83
   1  -6   8   11.98    1.52
   1  -6   8   10.87    2.48
  -1   7  -8    4.34    1.29
  -1   7  -8    3.25    1.35
  -2  -7  -8    8.71    1.52
   2   7   8    7.37    1.59
   2   7   8    7.18    1.41
  -2  -6  -8    6.23    1.31
   2   6   8    6.24    1.33
   2   6   8    6.44    1.34
   2   6   8    4.63    1.43
  -2  -5  -8    1.13    0.85
  -2  -5  -8    0.63    0.82
   2   5   8    1.09    0.99
   2   5   8    0.90    0.99
  -2  -4  -8   35.38    2.86
  -2  -4  -8   36.50    2.68
  -2  -4  -8   37.66    2.63
   2   4   8   38.05    2.92
   2   4   8   36.45    2.71
   2   4   8   37.62    2.55
  -2  -3  -8   10.36    1.49
  -2  -3  -8    9.00    1.18
  -2  -3  -8   10.52    1.21
   2   3   8   10.30    1.46
   2   3   8    7.39    1.19
   2   3   8    8.89    1.12
  -2  -2  -8   90.77    5.54
  -2  -2  -8   98.40    5.34
  -2  -2  -8   97.39    5.30
   2   2   8   82.65    5.31
   2   2   8   79.87    5.47
   2   2   8   85.52    5.31
  -2  -1  -8    1.83    0.59
  -2  -1  -8    1.52    0.85
  -2  -1  -8    0.68    0.56
   2   1   8    0.81    0.64
   2   1   8    0.82    0.83
   2   1   8    1.41    0.71
  -2   0  -8   11.39    1.15
  -2   0  -8   10.95    1.39
  -2   0  -8   11.62    1.12
   2   0   8    8.87    1.22
   2   0   8   10.08    1.12
   2   0   8    8.93    1.27
  -2   1  -8    1.44    0.60
  -2   1  -8    0.92    0.54
  -2   1  -8    1.57    0.80
  -2   1  -8    1.17    0.75
   2  -1   8    1.62    0.86
   2  -1   8    1.01    0.75
   2  -1   8    1.48    0.58
  -2   2  -8   83.40    5.34
  -2   2  -8   86.42    5.33
  -2   2  -8   87.19    5.46
  -2   2  -8   80.86    5.50
   2  -2   8   98.29    5.58
   2  -2   8   92.12    5.45
   2  -2   8   95.33    5.15
  -2   3  -8    9.04    1.30
  -2   3  -8   10.39    1.23
  -2   3  -8    7.71    1.35
  -2   3  -8    8.46    1.22
   2  -3   8    8.86    1.41
   2  -3   8   11.84    1.43
  -2   4  -8   40.67    3.13
  -2   4  -8   39.57    2.83
  -2   4  -8   39.84    2.99
  -2   4  -8   39.78    2.89
   2  -4   8   42.21    2.99
   2  -4   8   42.47    3.14
  -2   5  -8   -0.85    0.84
  -2   5  -8    0.04    0.73
  -2   5  -8    0.26    0.96
   2  -5   8   -0.23    0.91
   2  -5   8    1.27    0.88
  -2   6  -8    4.71    1.35
  -2   6  -8    6.76    1.36
   2  -6   8    4.45    1.19
  -2   7  -8    8.58    1.69
  -2   7  -8    9.11    1.72
  -3  -7  -8    0.98    1.18
   3   7   8    0.41    1.06
   3   7   8   -0.51    1.20
  -3  -6  -8   -0.28    1.01
   3   6   8    0.06    0.98
   3   6   8    0.24    1.17
  -3  -5  -8   12.72    1.84
  -3  -5  -8   13.85    1.73
   3   5   8   16.73    1.99
   3   5   8   13.31    1.66
  -3  -4  -8   11.90    1.46
  -3  -4  -8   12.45    1.72
  -3  -4  -8    9.98    1.41
   3   4   8    8.39    1.53
   3   4   8   11.23    1.49
  -3  -3  -8   32.09    2.55
  -3  -3  -8   32.72    2.59
  -3  -3  -8   32.31    2.77
   3   3   8   37.53    2.58
   3   3   8   37.31    2.64
   3   3   8   38.38    2.89
  -3  -2  -8   10.27    1.27
  -3  -2  -8   10.01    1.26
  -3  -2  -8    7.08    1.30
   3   2   8   10.86    1.23
   3   2   8   14.73    1.44
   3   2   8   12.24    1.55
  -3  -1  -8   12.03    1.55
  -3  -1  -8   11.18    1.32
  -3  -1  -8   13.54    1.44
   3   1   8   15.49    1.56
   3   1   8   16.22    1.78
   3   1   8   17.26    1.50
  -3   0  -8   16.48    1.78
  -3   0  -8   13.29    1.37
  -3   0  -8   13.95    1.45
   3   0   8   12.06    1.27
   3   0   8   13.58    1.58
   3   0   8   12.62    1.43
  -3   1  -8   15.11    1.68
  -3   1  -8   15.69    1.46
  -3   1  -8   15.93    1.51
  -3   1  -8   16.68    1.66
   3  -1   8   11.95    1.28
   3  -1   8   14.68    1.72
   3  -1   8   14.82    1.65
  -3   2  -8   13.04    1.46
  -3   2  -8   14.48    1.54
  -3   2  -8   14.53    1.67
  -3   2  -8   13.47    1.50
   3  -2   8   11.12    1.52
   3  -2   8    8.89    1.36
   3  -2   8   10.72    1.15
  -3   3  -8   37.35    2.95
  -3   3  -8   38.76    2.81
  -3   3  -8   38.90    2.77
  -3   3  -8   36.80    2.82
   3  -3   8   37.04    2.82
   3  -3   8   35.38    2.87
  -3   4  -8    9.19    1.52
  -3   4  -8   10.58    1.47
  -3   4  -8   10.76    1.45
  -3   4  -8   11.21    1.42
   3  -4   8   11.24    1.58
   3  -4   8   11.75    1.53
  -3   5  -8   14.60    1.80
  -3   5  -8   14.48    1.70
  -3   5  -8   17.81    2.09
  -3   5  -8   13.73    1.74
   3  -5   8   14.43    1.76
  -3   6  -8    0.71    0.91
  -3   6  -8   -0.59    0.98
  -3   6  -8   -0.63    1.05
   3  -6   8    1.37    0.99
  -3   7  -8   -0.18    1.11
  -3   7  -8    0.55    1.02
  -3   7  -8    0.44    1.15
  -4  -6  -8   10.78    1.71
   4   6   8    8.38    1.71
   4   6   8    5.57    1.34
  -4  -5  -8    5.69    1.43
  -4  -5  -8    8.02    1.46
   4   5   8    8.62    1.61
   4   5   8    8.28    1.39
  -4  -4  -8   27.20    2.53
  -4  -4  -8   24.41    2.21
   4   4   8   25.06    2.26
   4   4   8   19.54    2.30
  -4  -3  -8   52.50    3.79
  -4  -3  -8   56.46    3.64
  -4  -3  -8   55.09    3.60
   4   3   8   49.30    3.79
   4   3   8   47.84    3.46
  -4  -2  -8    0.78    0.72
  -4  -2  -8    0.70    0.97
  -4  -2  -8    0.21    0.75
   4   2   8    1.17    1.02
   4   2   8    1.50    0.81
   4   2   8    0.47    0.80
  -4  -1  -8   25.05    2.41
  -4  -1  -8   27.93    2.17
  -4  -1  -8   29.73    2.24
   4   1   8   24.20    2.29
   4   1   8   26.04    2.11
   4   1   8   28.04    2.28
  -4   0  -8    2.03    0.84
  -4   0  -8    1.45    0.78
  -4   0  -8    1.16    0.96
   4   0   8    0.92    0.71
   4   0   8    3.22    1.07
   4   0   8    1.58    0.85
  -4   1  -8   24.81    2.31
  -4   1  -8   24.30    2.13
  -4   1  -8   25.51    2.15
  -4   1  -8   27.17    2.12
   4  -1   8   29.59    2.44
   4  -1   8   25.39    1.97
   4  -1   8   29.28    2.31
  -4   2  -8    0.55    0.77
  -4   2  -8    2.28    0.84
  -4   2  -8    0.80    0.93
  -4   2  -8    0.25    0.78
   4  -2   8    0.31    0.87
   4  -2   8    1.23    0.92
  -4   3  -8   45.05    3.39
  -4   3  -8   50.06    3.61
  -4   3  -8   50.50    3.56
  -4   3  -8   48.72    3.65
   4  -3   8   51.74    3.55
   4  -3   8   54.37    3.62
  -4   4  -8   22.14    2.34
  -4   4  -8   23.51    2.33
  -4   4  -8   23.82    2.17
  -4   4  -8   21.72    2.18
   4  -4   8   27.07    2.33
  -4   5  -8   11.66    1.62
  -4   5  -8    7.86    1.42
  -4   5  -8    8.60    1.59
   4  -5   8    8.11    1.51
  -4   6  -8    9.42    1.61
  -4   6  -8    7.03    1.63
  -4   6  -8    8.06    1.51
   4  -6   8   11.28    1.64
  -5  -5  -8    2.79    1.35
  -5  -5  -8    3.36    1.33
   5   5   8    7.95    1.74
   5   5   8    7.43    1.44
  -5  -4  -8   14.67    1.83
  -5  -4  -8   13.80    1.94
   5   4   8   10.06    1.51
   5   4   8    9.18    1.73
  -5  -3  -8   -0.09    0.94
  -5  -3  -8    0.44    0.94
   5   3   8   -0.57    1.11
   5   3   8   -0.70    0.87
  -5  -2  -8    2.33    0.94
  -5  -2  -8    3.04    1.17
  -5  -2  -8    2.18    0.93
   5   2   8    5.23    1.28
   5   2   8    4.01    0.98
  -5  -1  -8   28.90    2.37
  -5  -1  -8   26.59    2.49
  -5  -1  -8   29.20    2.31
   5   1   8   23.52    2.10
   5   1   8   23.91    2.46
  -5   0  -8    8.27    1.28
  -5   0  -8    6.63    1.21
  -5   0  -8    6.68    1.41
   5   0   8    7.11    1.37
   5   0   8    6.76    1.05
   5   0   8    5.83    1.20
  -5   1  -8   23.27    2.17
  -5   1  -8   22.15    2.16
  -5   1  -8   23.77    2.35
   5  -1   8   26.73    2.41
   5  -1   8   26.17    1.99
   5  -1   8   28.68    2.39
  -5   2  -8    6.66    1.37
  -5   2  -8    7.89    1.35
  -5   2  -8    6.81    1.19
  -5   2  -8    4.55    1.18
   5  -2   8    3.53    1.14
  -5   3  -8    0.51    0.80
  -5   3  -8    0.20    0.96
  -5   3  -8   -0.51    0.91
   5  -3   8    1.01    0.99
  -5   4  -8   10.76    1.75
  -5   4  -8    9.33    1.46
  -5   4  -8   11.97    1.76
   5  -4   8   13.34    1.75
  -5   5  -8    8.20    1.40
  -5   5  -8    7.95    1.53
  -5   5  -8    8.31    1.63
   5  -5   8    3.29    1.31
  -6  -5  -8   14.08    2.05
   6   5   8   18.70    2.13
   6   5   8   15.60    2.25
  -6  -4  -8   14.46    1.92
  -6  -4  -8   10.70    1.86
   6   4   8   13.01    1.99
   6   4   8   15.53    1.84
  -6  -3  -8    2.80    1.17
  -6  -3  -8    2.18    1.21
   6   3   8    1.48    1.33
   6   3   8    3.11    1.11
  -6  -2  -8   12.93    1.74
  -6  -2  -8   13.69    1.96
   6   2   8   14.20    1.70
   6   2   8   18.54    2.10
  -6  -1  -8    9.89    1.66
  -6  -1  -8    9.55    1.46
   6   1   8   10.91    1.43
   6   1   8    9.96    1.67
  -6   0  -8   14.58    1.92
  -6   0  -8   15.69    1.83
   6   0   8   15.84    1.64
   6   0   8   18.39    2.08
  -6   1  -8    8.91    1.43
  -6   1  -8    9.75    1.64
   6  -1   8   10.73    1.34
  -6   2  -8   16.26    1.94
  -6   2  -8   16.59    2.02
  -6   3  -8    2.12    1.16
  -6   3  -8    3.36    1.24
  -6   4  -8   14.59    2.05
  -6   4  -8   17.19    2.22
  -6   5  -8   20.22    2.43
  -7  -3  -8    7.49    1.59
  -7  -3  -8    3.40    1.40
   7   3   8    3.38    1.25
   7   3   8    5.79    1.62
  -7  -2  -8    3.86    1.35
  -7  -2  -8    3.79    1.28
   7   2   8    3.65    1.20
   7   2   8    4.33    1.59
  -7  -1  -8    1.36    1.04
  -7  -1  -8    0.70    1.08
   7   1   8    1.18    0.99
  -7   0  -8   22.05    2.31
  -7   0  -8   17.56    2.07
   7   0   8   19.99    1.94
  -7   1  -8    1.51    1.06
  -7   1  -8    2.28    1.23
  -7   2  -8    3.82    1.29
  -7   2  -8    3.82    1.25
  -7   3  -8    4.43    1.37
  -7   3  -8    4.43    1.44
  -8  -1  -8    9.19    1.71
  -8  -1  -8    6.47    1.51
   8   1   8    9.26    1.50
  -8   0  -8    1.73    1.19
  -8   0  -8    1.11    1.13
   8   0   8    1.48    1.08
  -8   1  -8    8.98    1.71
  -8   1  -8    9.00    1.60
 -11   3   9   16.15    1.87
 -11   3   9   13.30    1.75
 -11   2   9   16.06    1.88
 -11   2   9   15.84    1.88
 -11   1   9    7.27    1.32
 -11   1   9    5.27    1.22
 -11   0   9    0.30    0.93
 -11  -1   9    5.23    1.25
 -11  -1   9    4.38    0.90
 -11  -2   9   12.57    1.47
 -11  -2   9   14.43    1.91
 -11  -3   9   10.12    1.69
 -11  -3   9    9.13    1.41
 -10   4   9   13.09    1.69
 -10   3   9    0.43    0.73
 -10   3   9    0.08    0.86
 -10   2   9   28.80    2.45
 -10   2   9   28.64    2.41
 -10   1   9    0.60    0.85
 -10   1   9    1.27    0.88
 -10   0   9    1.15    0.92
 -10  -1   9    1.59    0.97
 -10  -1   9   -0.48    0.58
 -10  -2   9   33.99    2.50
 -10  -2   9   31.79    2.78
 -10  -3   9   -0.11    0.76
 -10  -3   9   -0.64    0.95
 -10  -4   9   12.68    1.82
 -10  -4   9   11.59    1.62
  -9   5   9   -0.27    0.87
  -9   4   9    0.54    0.89
  -9   3   9   77.03    4.80
  -9   3   9   73.70    4.76
  -9   2   9    1.97    0.81
  -9   2   9    2.99    0.98
  -9   1   9   24.13    2.13
  -9   1   9   23.38    2.06
  -9   0   9    3.86    1.01
  -9   0   9    3.39    0.97
  -9   0   9    5.12    0.83
  -9  -1   9   25.63    2.33
  -9  -1   9   26.62    2.03
  -9  -2   9    2.55    1.07
  -9  -2   9    3.90    0.88
  -9  -3   9   68.27    4.46
  -9  -3   9   71.48    4.67
  -9  -4   9    0.41    0.88
  -9  -4   9   -0.33    0.94
  -9  -5   9    1.53    1.10
  -9  -5   9    1.12    1.11
  -8   6   9   35.75    3.12
  -8   5   9   11.68    1.55
  -8   4   9    4.97    1.12
  -8   3   9   30.56    2.41
  -8   3   9   33.15    2.50
  -8   2   9   18.51    1.71
  -8   2   9   19.80    1.81
  -8   1   9    9.40    1.30
  -8   1   9    9.36    1.34
  -8   1   9   10.04    1.07
  -8   0   9   16.22    1.66
  -8   0   9   14.61    1.66
  -8   0   9   14.95    1.42
  -8  -1   9   12.22    1.37
  -8  -1   9    9.39    1.39
  -8  -1   9   10.11    1.18
  -8  -2   9   16.61    1.68
  -8  -2   9   18.77    1.93
  -8  -3   9   28.93    2.38
  -8  -3   9   30.60    2.54
   8   4  -9    2.73    1.13
  -8  -4   9    3.63    1.07
  -8  -4   9    3.39    1.11
  -8  -5   9   10.03    1.66
  -8  -5   9   11.75    1.61
  -8  -6   9   29.06    2.64
  -8  -6   9   27.77    2.79
  -7   6   9    4.31    1.13
  -7   6   9    3.67    1.32
  -7   5   9   12.41    1.59
  -7   4   9    0.41    0.82
  -7   3   9   14.88    1.57
  -7   3   9   17.28    1.72
  -7   2   9   11.39    1.16
  -7   2   9   11.66    1.36
  -7   2   9   13.04    1.42
  -7   1   9   44.03    2.83
  -7   1   9   44.02    2.98
  -7   1   9   43.87    3.03
  -7   0   9    0.65    0.66
  -7   0   9    0.62    0.65
  -7   0   9    0.65    0.58
  -7  -1   9   58.43    3.64
  -7  -1   9   57.05    3.79
  -7  -1   9   56.57    3.65
  -7  -2   9   16.73    1.55
  -7  -2   9   17.23    1.76
  -7  -2   9   14.85    1.54
   7   3  -9   15.99    1.86
  -7  -3   9   12.84    1.51
  -7  -3   9   13.08    1.60
   7   4  -9    0.98    0.94
  -7  -4   9    0.45    0.83
  -7  -4   9    0.18    0.84
   7   5  -9   10.01    1.75
  -7  -5   9   10.08    1.57
  -7  -5   9   13.32    1.68
   7   6  -9    5.41    1.50
  -7  -6   9    3.79    1.26
  -7  -6   9    3.28    1.12
  -6   7   9    2.83    1.38
  -6   6   9   59.75    4.01
  -6   5   9    8.75    1.30
  -6   4   9   25.01    2.10
  -6   4   9   24.13    1.68
  -6   3   9    1.71    0.80
  -6   3   9    1.53    0.68
  -6   3   9    1.72    0.59
  -6   2   9   25.99    2.00
  -6   2   9   23.95    2.01
  -6   2   9   25.96    1.92
  -6   1   9   54.59    3.40
  -6   1   9   47.99    3.29
  -6   1   9   51.42    3.26
  -6   0   9   87.02    5.08
  -6   0   9   82.71    5.17
  -6   0   9   85.21    5.09
  -6  -1   9   46.62    3.09
  -6  -1   9   47.51    3.17
  -6  -1   9   46.88    3.07
   6   2  -9   26.16    2.25
  -6  -2   9   22.06    1.91
  -6  -2   9   23.28    2.01
  -6  -2   9   22.04    1.82
   6   3  -9    2.15    1.00
  -6  -3   9    2.53    0.74
  -6  -3   9    1.35    0.80
  -6  -3   9    2.02    0.83
   6   4  -9   26.38    2.54
  -6  -4   9   27.61    2.38
  -6  -4   9   27.80    2.08
  -6  -4   9   30.60    2.38
   6   5  -9    8.40    1.61
  -6  -5   9    7.78    1.35
  -6  -5   9    8.75    1.42
  -6  -5   9    6.49    1.51
   6   6  -9   54.76    4.54
   6   6  -9   56.32    4.15
  -6  -6   9   53.37    3.89
  -6  -6   9   56.93    4.04
   6   7  -9    1.01    1.41
   6   7  -9    2.27    1.45
  -5   7   9    0.35    1.00
  -5   7   9    0.89    1.29
  -5   6   9   17.62    1.88
  -5   5   9   17.95    1.83
  -5   5   9   17.24    1.46
  -5   4   9   12.29    1.46
  -5   4   9   12.04    1.22
  -5   3   9   19.31    1.82
  -5   3   9   22.31    1.72
  -5   3   9   20.40    1.71
  -5   2   9    6.15    0.95
  -5   2   9    5.33    0.93
  -5   2   9    5.42    0.98
  -5   1   9   23.26    1.94
  -5   1   9   26.95    2.05
  -5   1   9   25.87    1.96
  -5   0   9   15.32    1.52
  -5   0   9   17.29    1.60
  -5   0   9   16.42    1.54
  -5  -1   9   28.65    2.23
  -5  -1   9   28.94    2.10
  -5  -1   9   29.46    2.17
   5   2  -9    5.78    1.10
  -5  -2   9    4.11    0.93
  -5  -2   9    3.93    0.80
  -5  -2   9    5.88    0.99
   5   3  -9   25.59    2.02
   5   3  -9   23.15    2.19
  -5  -3   9   21.82    1.73
  -5  -3   9   18.88    1.90
  -5  -3   9   21.78    1.92
   5   4  -9   12.97    1.73
   5   4  -9   11.91    1.52
  -5  -4   9   11.35    1.53
  -5  -4   9   10.43    1.40
  -5  -4   9   11.14    1.23
   5   5  -9   18.89    2.16
   5   5  -9   17.46    1.98
  -5  -5   9   15.79    1.82
  -5  -5   9   16.14    1.92
   5   6  -9   15.71    2.00
   5   6  -9   17.32    2.22
  -5  -6   9   16.37    1.86
  -5  -6   9   15.25    1.95
   5   7  -9    1.87    1.32
   5   7  -9   -0.03    1.23
  -5  -7   9    2.47    1.28
  -4   7   9   12.80    2.00
  -4   7   9   13.79    1.47
  -4   7   9   13.07    1.66
  -4   6   9    0.25    0.91
  -4   6   9    1.61    0.73
  -4   5   9   31.39    2.46
  -4   5   9   30.72    2.25
  -4   4   9   32.78    2.55
  -4   4   9   36.35    2.47
  -4   3   9    0.50    0.64
  -4   3   9    0.39    0.56
  -4   3   9    0.11    0.67
  -4   2   9   42.03    2.92
  -4   2   9   44.02    2.91
  -4   2   9   45.45    2.94
  -4   1   9  124.10    7.40
  -4   1   9  130.89    7.44
  -4   1   9  131.58    7.46
  -4   0   9    7.73    1.07
  -4   0   9    8.52    1.12
  -4   0   9    6.06    0.92
   4   1  -9  129.63    7.65
  -4  -1   9  136.93    7.64
  -4  -1   9  127.85    7.49
  -4  -1   9  131.48    7.64
   4   2  -9   42.71    2.92
   4   2  -9   45.15    3.13
  -4  -2   9   38.89    2.88
  -4  -2   9   41.35    2.87
  -4  -2   9   40.05    2.68
   4   3  -9    0.26    0.75
   4   3  -9    0.47    0.91
  -4  -3   9   -0.20    0.65
  -4  -3   9    0.37    0.52
  -4  -3   9    0.00    0.69
   4   4  -9   34.16    2.65
   4   4  -9   33.18    2.78
  -4  -4   9   33.22    2.57
  -4  -4   9   31.88    2.24
  -4  -4   9   33.34    2.59
   4   5  -9   30.24    2.68
   4   5  -9   25.31    2.51
  -4  -5   9   28.29    2.40
  -4  -5   9   32.30    2.60
   4   6  -9    1.45    1.09
   4   6  -9    1.95    1.29
  -4  -6   9   -0.60    0.98
  -4  -6   9    0.82    0.93
   4   7  -9   12.48    1.97
   4   7  -9   13.08    2.02
  -4  -7   9   14.02    2.02
  -3   7   9    5.90    1.14
  -3   7   9    5.69    1.54
  -3   7   9    5.29    1.29
  -3   6   9   11.34    1.39
  -3   6   9   10.03    1.46
  -3   5   9    9.63    1.39
  -3   5   9    8.51    1.19
  -3   4   9   23.43    1.96
  -3   4   9   22.55    1.92
  -3   3   9   39.73    2.66
  -3   3   9   40.15    2.71
  -3   3   9   38.81    2.80
  -3   2   9   37.21    2.72
  -3   2   9   42.02    2.68
  -3   2   9   38.20    2.67
  -3   1   9   66.90    4.08
  -3   1   9   65.50    4.11
  -3   1   9   64.47    4.03
   3   0  -9    2.97    0.79
  -3   0   9    1.87    0.72
  -3   0   9    2.52    0.79
  -3   0   9    2.23    0.62
   3   1  -9   63.99    3.85
   3   1  -9   60.34    3.91
  -3  -1   9   58.71    3.77
  -3  -1   9   57.46    3.61
  -3  -1   9   54.21    3.76
   3   2  -9   40.48    3.10
   3   2  -9   41.95    3.24
  -3  -2   9   47.39    3.14
  -3  -2   9   49.88    2.94
  -3  -2   9   47.52    3.15
   3   3  -9   37.48    2.85
   3   3  -9   37.57    2.78
  -3  -3   9   37.05    2.72
  -3  -3   9   38.15    2.47
  -3  -3   9   36.43    2.73
   3   4  -9   24.11    2.14
   3   4  -9   21.91    2.14
  -3  -4   9   22.10    1.71
  -3  -4   9   20.29    1.95
  -3  -4   9   17.38    1.94
   3   5  -9    9.22    1.57
   3   5  -9    6.96    1.38
  -3  -5   9    8.46    1.44
  -3  -5   9    9.80    1.39
   3   6  -9   10.47    1.75
   3   6  -9    9.91    1.59
  -3  -6   9   10.76    1.61
  -3  -6   9   10.43    1.47
   3   7  -9    4.90    1.44
   3   7  -9    7.99    1.68
  -3  -7   9    4.78    1.47
  -2   7   9    2.63    1.42
  -2   7   9    3.25    1.18
  -2   7   9    3.34    1.08
  -2   6   9    1.83    0.98
  -2   6   9    1.72    0.95
  -2   5   9   15.15    1.69
  -2   5   9   15.73    1.67
  -2   4   9   13.62    1.50
  -2   4   9   15.34    1.64
  -2   3   9  111.81    6.68
  -2   3   9  109.90    6.48
  -2   3   9  114.45    6.57
  -2   2   9   61.62    3.97
  -2   2   9   66.02    3.89
  -2   2   9   58.40    3.87
   2  -1  -9   18.76    1.75
  -2   1   9   24.11    1.80
  -2   1   9   20.05    1.64
  -2   1   9   21.45    1.81
   2   0  -9   51.06    3.35
  -2   0   9   47.19    3.27
  -2   0   9   52.87    3.36
  -2   0   9   50.18    3.18
   2   1  -9   21.87    1.86
   2   1  -9   24.53    2.02
  -2  -1   9   19.39    1.81
  -2  -1   9   18.55    1.73
  -2  -1   9   18.24    1.56
   2   2  -9   60.81    3.97
   2   2  -9   59.20    3.86
  -2  -2   9   54.92    3.79
  -2  -2   9   55.80    3.75
  -2  -2   9   59.17    3.54
   2   3  -9  117.83    6.62
   2   3  -9  116.19    6.52
  -2  -3   9   98.87    6.09
  -2  -3   9  100.59    6.39
  -2  -3   9  103.93    6.37
   2   4  -9   12.93    1.62
   2   4  -9   15.02    1.84
  -2  -4   9   12.30    1.59
  -2  -4   9   16.19    1.71
   2   5  -9   14.14    1.85
   2   5  -9   15.19    1.95
  -2  -5   9   13.65    1.67
  -2  -5   9   15.24    1.85
   2   6  -9    2.79    1.29
   2   6  -9    1.49    1.17
  -2  -6   9    1.74    0.94
  -2  -6   9    1.90    1.12
   2   7  -9    0.08    1.24
   2   7  -9    1.30    1.30
  -2  -7   9    0.71    1.17
  -1   7   9   11.88    1.68
  -1   7   9   11.09    1.90
  -1   7   9    8.57    1.55
  -1   6   9    7.56    1.37
  -1   6   9    9.44    1.47
  -1   5   9   20.85    2.02
  -1   5   9   22.54    2.11
  -1   4   9   24.77    2.29
  -1   4   9   30.24    2.28
  -1   3   9   18.03    1.88
  -1   3   9   17.83    1.69
  -1   3   9   16.30    1.54
   1  -2  -9  103.93    6.04
  -1   2   9  100.11    5.84
  -1   2   9   90.76    5.95
  -1   2   9  100.76    5.83
   1  -1  -9   30.03    2.23
  -1   1   9   24.83    2.02
  -1   1   9   26.91    2.03
  -1   1   9   27.75    2.18
   1   0  -9   -0.23    0.64
  -1   0   9    0.67    0.68
  -1   0   9    0.22    0.52
  -1   0   9    0.70    0.62
   1   1  -9   27.55    2.29
   1   1  -9   25.50    2.26
  -1  -1   9   30.05    2.06
  -1  -1   9   30.95    2.21
  -1  -1   9   31.11    2.28
   1   2  -9   93.39    6.20
   1   2  -9   92.72    6.14
  -1  -2   9  104.36    6.10
  -1  -2   9  110.45    6.23
  -1  -2   9  106.52    5.85
   1   3  -9   15.21    1.81
   1   3  -9   12.83    1.67
  -1  -3   9   17.22    1.67
  -1  -3   9   16.85    1.34
  -1  -3   9   17.57    1.81
   1   4  -9   24.19    2.43
   1   4  -9   24.90    2.42
  -1  -4   9   33.03    2.53
  -1  -4   9   32.84    2.39
   1   5  -9   20.68    2.10
   1   5  -9   20.86    2.22
  -1  -5   9   22.20    2.04
  -1  -5   9   20.59    2.16
   1   6  -9   10.32    1.75
  -1  -6   9    8.20    1.40
  -1  -6   9    9.42    1.64
   1   7  -9   14.87    2.07
   1   7  -9   11.35    1.94
  -1  -7   9   10.02    1.83
   0   7   9    3.05    1.21
   0   7   9    0.67    1.16
   0   7   9    2.42    1.34
   0  -6  -9    8.16    1.65
   0   6   9    5.11    1.23
   0   6   9    6.19    1.41
   0  -5  -9   15.76    1.83
   0   5   9   21.52    2.03
   0   5   9   22.49    2.17
   0  -4  -9    7.98    1.58
   0   4   9    6.37    1.31
   0   4   9    5.13    1.09
   0  -3  -9   55.29    3.98
   0   3   9   58.57    4.01
   0   3   9   61.80    3.72
   0   3   9   60.84    3.80
   0  -2  -9   11.39    1.46
   0   2   9    5.03    0.96
   0   2   9    6.15    1.19
   0   2   9    4.26    0.95
   0  -1  -9   26.01    2.28
   0   1   9   28.72    2.19
   0   1   9   27.81    2.11
   0   1   9   31.07    2.36
   0   0  -9   27.63    2.20
   0   0   9   24.06    2.07
   0   0   9   25.24    1.91
   0   0   9   26.50    2.09
   0   1  -9   29.66    2.35
   0   1  -9   27.13    2.33
   0  -1   9   26.80    2.22
   0  -1   9   27.30    1.97
   0  -1   9   27.68    2.20
   0   2  -9    4.39    1.15
   0   2  -9    3.02    1.07
   0  -2   9    9.34    1.22
   0  -2   9    9.33    1.30
   0  -2   9    7.46    0.90
   0   3  -9   59.34    3.90
   0   3  -9   55.95    3.89
   0  -3   9   56.64    3.89
   0  -3   9   53.25    3.73
   0   4  -9    6.28    1.22
   0   4  -9    5.02    1.17
   0  -4   9    7.29    1.38
   0  -4   9    6.47    1.18
   0   5  -9   20.78    2.23
   0   5  -9   23.61    2.24
   0  -5   9   16.39    1.88
   0  -5   9   21.52    2.30
   0   6  -9    8.04    1.62
   0   6  -9    5.63    1.48
   0  -6   9    7.98    1.31
   0  -6   9    8.56    1.60
   0   7  -9    0.58    1.17
   0   7  -9    2.12    1.33
  -1  -7  -9    5.04    1.37
   1   7   9    3.84    1.37
   1   7   9    3.66    1.33
   1   7   9    5.29    1.49
  -1  -6  -9   38.48    2.89
   1   6   9   35.90    3.18
   1   6   9   36.32    2.96
  -1  -5  -9    5.78    1.15
   1   5   9    5.20    1.37
   1   5   9    3.56    1.06
  -1  -4  -9   59.48    3.59
   1   4   9   51.90    3.66
   1   4   9   52.74    3.90
  -1  -3  -9   14.14    1.71
  -1  -3  -9   13.95    1.35
   1   3   9   12.33    1.66
   1   3   9   15.66    1.50
   1   3   9    9.73    1.38
  -1  -2  -9    8.91    1.49
  -1  -2  -9    8.65    1.04
   1   2   9   11.01    1.45
   1   2   9   10.75    1.25
   1   2   9   10.56    1.22
  -1  -1  -9   11.24    1.56
   1   1   9   13.52    1.43
   1   1   9   16.59    1.71
   1   1   9   11.70    1.28
  -1   0  -9  110.94    6.48
   1   0   9  101.26    6.30
   1   0   9  111.52    6.46
   1   0   9  102.36    6.13
  -1   1  -9   17.61    1.80
  -1   1  -9   17.45    1.82
   1  -1   9   11.29    1.51
   1  -1   9   10.79    1.20
   1  -1   9   11.99    1.47
  -1   2  -9   13.40    1.62
  -1   2  -9   12.39    1.51
   1  -2   9    8.36    1.37
   1  -2   9    6.65    1.19
   1  -2   9    7.69    0.94
  -1   3  -9    9.59    1.52
  -1   3  -9   10.67    1.51
   1  -3   9   13.30    1.50
   1  -3   9   15.35    1.79
  -1   4  -9   53.71    3.89
  -1   4  -9   53.37    3.98
   1  -4   9   58.57    4.01
   1  -4   9   59.06    3.81
  -1   5  -9    4.85    1.27
  -1   5  -9    4.21    1.26
   1  -5   9    4.61    1.11
   1  -5   9    4.80    1.25
  -1   6  -9   42.87    3.30
  -1   6  -9   36.38    3.25
   1  -6   9   36.22    3.00
  -1   7  -9    7.16    1.70
  -1   7  -9    4.63    1.49
  -2  -6  -9    1.33    1.06
   2   6   9    0.72    1.08
   2   6   9    1.01    1.28
  -2  -5  -9    8.94    1.43
   2   5   9   15.39    1.96
   2   5   9   12.44    1.65
  -2  -4  -9    2.36    1.09
  -2  -4  -9    1.63    0.85
   2   4   9    1.63    0.95
   2   4   9    2.30    1.22
  -2  -3  -9   11.64    1.34
  -2  -3  -9    9.95    1.57
  -2  -3  -9   12.31    1.70
   2   3   9   11.01    1.41
   2   3   9   12.52    1.67
   2   3   9   10.84    1.34
  -2  -2  -9    1.42    0.71
  -2  -2  -9    2.16    0.81
  -2  -2  -9    2.39    1.03
   2   2   9    2.37    1.00
   2   2   9    2.70    0.87
   2   2   9    2.83    0.90
  -2  -1  -9   76.98    4.69
  -2  -1  -9   72.18    4.30
  -2  -1  -9   78.02    4.71
   2   1   9   67.68    4.37
   2   1   9   70.73    4.50
   2   1   9   63.78    4.56
  -2   0  -9    4.96    0.84
  -2   0  -9    4.43    1.14
   2   0   9    5.27    0.88
   2   0   9    5.21    1.20
   2   0   9    4.91    1.05
  -2   1  -9   73.04    4.69
  -2   1  -9   68.10    4.40
  -2   1  -9   68.72    4.57
   2  -1   9   70.95    4.55
   2  -1   9   73.66    4.66
   2  -1   9   74.54    4.32
  -2   2  -9    2.31    0.95
  -2   2  -9    2.96    1.02
   2  -2   9    1.79    0.89
   2  -2   9    2.68    1.04
   2  -2   9    2.06    0.65
  -2   3  -9    9.87    1.52
  -2   3  -9   10.77    1.51
   2  -3   9    9.19    1.37
   2  -3   9   13.08    1.71
  -2   4  -9    1.97    1.02
  -2   4  -9    0.80    0.92
   2  -4   9    2.76    1.03
   2  -4   9    1.90    1.15
  -2   5  -9   15.89    1.87
  -2   5  -9   12.76    1.81
   2  -5   9    7.16    1.41
  -2   6  -9    1.60    1.19
  -2   6  -9    3.21    1.32
   2  -6   9    1.63    1.03
  -3  -6  -9   13.34    1.83
   3   6   9   11.44    1.71
   3   6   9   12.43    1.98
  -3  -5  -9   19.20    2.01
   3   5   9   14.41    2.09
   3   5   9   16.36    1.89
  -3  -4  -9   20.21    1.91
  -3  -4  -9   22.41    2.34
  -3  -4  -9   22.48    2.15
   3   4   9   15.22    1.85
   3   4   9   12.09    1.88
  -3  -3  -9    9.57    1.35
  -3  -3  -9   11.35    1.71
  -3  -3  -9    9.65    1.35
   3   3   9   10.94    1.40
   3   3   9    8.81    1.36
   3   3   9    8.29    1.47
  -3  -2  -9    3.36    0.88
  -3  -2  -9    3.30    0.89
  -3  -2  -9    3.22    1.18
   3   2   9    2.99    0.95
   3   2   9    2.76    0.94
   3   2   9    2.69    1.06
  -3  -1  -9   34.75    2.44
  -3  -1  -9   32.00    2.47
  -3  -1  -9   30.10    2.70
   3   1   9   37.65    2.69
   3   1   9   37.55    2.87
   3   1   9   34.44    2.52
  -3   0  -9    9.99    1.50
  -3   0  -9   10.48    1.23
  -3   0  -9   10.19    1.30
   3   0   9    8.05    1.44
   3   0   9    8.33    1.34
   3   0   9   11.47    1.26
  -3   1  -9   35.33    2.52
  -3   1  -9   39.10    2.75
  -3   1  -9   38.92    2.91
   3  -1   9   33.10    2.73
   3  -1   9   33.83    2.43
   3  -1   9   33.66    2.87
  -3   2  -9    3.87    1.21
  -3   2  -9    3.65    1.04
  -3   2  -9    4.08    0.96
   3  -2   9    2.65    1.13
   3  -2   9    3.07    1.05
  -3   3  -9   11.07    1.70
  -3   3  -9   10.26    1.63
  -3   3  -9   11.24    1.59
   3  -3   9   12.16    1.62
   3  -3   9   11.93    1.65
  -3   4  -9   16.56    2.16
  -3   4  -9   17.24    1.99
   3  -4   9   19.77    2.06
  -3   5  -9   15.44    1.94
  -3   5  -9   18.24    2.26
   3  -5   9   17.12    2.00
  -3   6  -9   10.41    1.91
  -3   6  -9   15.24    1.96
   3  -6   9   17.40    1.98
  -4  -5  -9    6.06    1.56
  -4  -5  -9    7.65    1.45
   4   5   9    6.42    1.65
   4   5   9    6.28    1.32
  -4  -4  -9    2.67    1.33
  -4  -4  -9    2.09    1.05
   4   4   9    4.07    1.24
   4   4   9    3.03    1.27
  -4  -3  -9   34.03    2.78
  -4  -3  -9   34.87    3.14
   4   3   9   39.92    2.93
   4   3   9   43.15    3.27
  -4  -2  -9    3.40    0.95
  -4  -2  -9    2.96    0.93
  -4  -2  -9    3.41    1.20
   4   2   9    1.23    1.12
   4   2   9    0.06    0.88
   4   2   9    1.48    0.98
  -4  -1  -9   20.18    1.80
  -4  -1  -9   18.82    1.87
  -4  -1  -9   17.22    2.11
   4   1   9   16.47    1.86
   4   1   9   20.96    2.24
   4   1   9   18.91    1.82
  -4   0  -9    6.35    1.09
  -4   0  -9    6.78    1.37
  -4   0  -9    6.43    1.19
   4   0   9    7.10    1.43
   4   0   9    8.88    1.14
   4   0   9    5.81    1.24
  -4   1  -9   18.82    2.07
  -4   1  -9   19.93    1.87
  -4   1  -9   14.87    1.93
  -4   1  -9   16.03    1.73
   4  -1   9   20.71    1.74
   4  -1   9   16.66    1.90
   4  -1   9   20.01    2.16
  -4   2  -9    1.85    0.91
  -4   2  -9    2.00    1.09
  -4   2  -9    1.36    0.86
   4  -2   9    2.09    1.06
   4  -2   9    4.03    1.24
  -4   3  -9   39.00    3.27
  -4   3  -9   42.95    3.10
  -4   3  -9   42.35    3.12
   4  -3   9   35.86    3.06
  -4   4  -9    3.65    1.20
  -4   4  -9    3.14    1.26
  -4   4  -9    3.21    1.25
   4  -4   9    3.73    1.17
  -4   5  -9   11.98    1.79
  -4   5  -9   10.35    1.81
   4  -5   9    7.79    1.58
  -5  -4  -9    9.56    1.79
  -5  -4  -9    8.25    1.53
   5   4   9    9.12    1.88
   5   4   9    6.23    1.29
  -5  -3  -9    0.27    1.08
  -5  -3  -9    0.08    0.95
   5   3   9    2.66    1.15
   5   3   9    1.42    1.39
  -5  -2  -9   24.18    2.16
  -5  -2  -9   24.66    2.57
   5   2   9   24.54    2.56
   5   2   9   18.47    1.99
  -5  -1  -9    7.32    1.27
  -5  -1  -9    4.42    1.39
   5   1   9   10.19    1.70
   5   1   9   11.23    1.58
   5   1   9    8.68    1.31
  -5   0  -9    6.74    1.22
  -5   0  -9    7.51    1.32
  -5   0  -9    8.53    1.61
   5   0   9    8.88    1.61
   5   0   9    6.29    1.38
   5   0   9    5.25    1.09
  -5   1  -9    8.22    1.54
  -5   1  -9    9.85    1.40
  -5   1  -9    7.01    1.65
   5  -1   9    6.81    1.14
   5  -1   9    8.65    1.60
   5  -1   9    7.55    1.45
  -5   2  -9   22.78    2.23
  -5   2  -9   23.73    2.51
   5  -2   9   24.67    2.46
  -5   3  -9    1.13    1.14
  -5   3  -9    0.71    1.02
   5  -3   9   -0.37    1.00
  -5   4  -9    9.41    1.66
  -5   4  -9    7.30    1.43
  -5   4  -9    8.94    1.76
   5  -4   9    9.61    1.67
  -6  -3  -9    4.22    1.30
  -6  -3  -9    4.23    1.49
   6   3   9    3.67    1.22
   6   3   9    5.46    1.60
  -6  -2  -9    7.35    1.60
  -6  -2  -9    9.64    1.52
   6   2   9   10.46    1.55
   6   2   9    7.52    1.68
  -6  -1  -9    4.97    1.50
  -6  -1  -9    7.26    1.34
   6   1   9    7.20    1.29
   6   1   9    4.80    1.49
  -6   0  -9    3.27    1.31
  -6   0  -9    4.24    1.17
   6   0   9    4.41    1.11
  -6   1  -9    7.25    1.60
  -6   1  -9    8.48    1.41
  -6   2  -9    8.04    1.69
  -6   2  -9    7.17    1.42
  -6   3  -9    4.25    1.33
  -6   3  -9    4.60    1.38
  -7  -1  -9    1.44    1.26
  -7  -1  -9    0.53    1.04
   7   1   9    1.76    1.13
  -7   0  -9   -0.45    0.99
  -7   0  -9    0.74    1.16
   7   0   9    2.31    1.11
  -7   1  -9    2.97    1.24
  -7   1  -9    2.29    1.33
 -11   2  10    3.42    1.16
 -11   2  10    5.90    1.28
 -11   1  10    4.99    1.28
 -11   1  10    5.54    1.25
 -11   0  10   20.91    2.29
 -11   0  10   16.90    1.98
 -11  -1  10    5.55    1.43
 -11  -2  10    5.42    1.45
 -11  -2  10    2.38    0.93
 -10   3  10    2.50    1.12
 -10   3  10    3.56    1.03
 -10   2  10    2.75    1.03
 -10   2  10    3.17    1.12
 -10   1  10   12.76    1.69
 -10   1  10   12.32    1.63
 -10   0  10   13.26    1.81
 -10   0  10   13.30    1.66
 -10  -1  10   13.83    1.84
 -10  -1  10   10.99    1.37
 -10  -1  10   11.11    1.56
 -10  -2  10    1.11    0.82
 -10  -2  10    2.46    1.15
 -10  -3  10    3.37    1.03
 -10  -3  10    2.83    1.19
  -9   4  10    8.11    1.39
  -9   3  10   11.28    1.63
  -9   3  10   14.01    1.65
  -9   2  10    8.41    1.33
  -9   2  10    7.52    1.27
  -9   1  10    9.98    1.47
  -9   1  10   11.87    1.58
  -9   0  10   38.96    2.95
  -9   0  10   35.31    2.72
  -9   0  10   37.90    2.59
  -9  -1  10    9.47    1.32
  -9  -1  10   10.44    1.30
  -9  -1  10   11.67    1.64
  -9  -2  10    7.87    1.22
  -9  -2  10    7.79    1.25
  -9  -2  10    8.88    1.48
  -9  -3  10   14.21    1.85
  -9  -3  10   15.90    1.80
  -9  -4  10    8.80    1.53
  -9  -4  10    6.60    1.37
  -8   5  10   17.14    1.91
  -8   4  10    3.96    1.13
  -8   3  10   29.21    2.43
  -8   3  10   29.71    2.40
  -8   2  10    9.91    1.40
  -8   2  10    9.40    1.39
  -8   1  10    8.31    1.29
  -8   1  10   10.64    1.15
  -8   1  10    8.92    1.31
  -8   0  10    2.76    0.79
  -8   0  10    2.77    0.89
  -8   0  10    1.96    0.91
  -8  -1  10    8.20    1.22
  -8  -1  10    9.42    1.23
  -8  -1  10    9.98    1.45
  -8  -2  10    6.25    1.24
  -8  -2  10    5.00    1.02
  -8  -2  10    4.32    0.99
  -8  -3  10   24.84    2.35
  -8  -3  10   25.54    2.28
  -8  -3  10   26.77    2.16
   8   4 -10    4.96    1.38
  -8  -4  10    7.38    1.36
  -8  -4  10    6.66    1.18
  -8  -4  10    6.91    1.40
   8   5 -10   14.74    2.45
  -8  -5  10   16.31    2.00
  -8  -5  10   20.49    2.17
  -7   6  10   -0.72    0.92
  -7   5  10    0.60    0.95
  -7   4  10   28.01    2.38
  -7   3  10    0.83    0.85
  -7   3  10    0.23    0.69
  -7   2  10   93.90    5.79
  -7   2  10   97.98    5.61
  -7   2  10   93.83    5.79
  -7   1  10    1.73    0.69
  -7   1  10    2.58    0.86
  -7   1  10    2.49    0.83
  -7   0  10    1.76    0.81
  -7   0  10    2.11    0.83
  -7   0  10    3.15    0.85
  -7  -1  10    2.67    0.96
  -7  -1  10    2.79    0.86
  -7  -1  10    0.95    0.72
  -7  -2  10   89.78    5.31
  -7  -2  10   85.47    5.35
  -7  -2  10   86.76    5.47
   7   3 -10    0.42    0.91
  -7  -3  10    1.27    0.79
  -7  -3  10    1.97    0.98
  -7  -3  10    0.79    0.79
   7   4 -10   30.08    2.62
  -7  -4  10   24.72    2.36
  -7  -4  10   23.88    2.08
  -7  -4  10   23.19    2.28
   7   5 -10    1.72    1.24
  -7  -5  10    1.23    1.03
  -7  -5  10    1.47    1.06
   7   6 -10    0.03    1.32
  -7  -6  10    0.15    1.05
  -7  -6  10    0.61    1.09
  -6   6  10    4.83    1.30
  -6   5  10   13.78    1.64
  -6   4  10    2.47    0.99
  -6   4  10    3.46    0.72
  -6   3  10   23.56    1.95
  -6   3  10   23.65    2.10
  -6   3  10   24.67    1.86
  -6   2  10   29.27    2.41
  -6   2  10   32.91    2.45
  -6   2  10   33.82    2.35
  -6   1  10   29.55    2.33
  -6   1  10   32.66    2.30
  -6   1  10   29.74    2.37
  -6   0  10   13.75    1.45
  -6   0  10   13.77    1.57
  -6   0  10   12.56    1.42
  -6  -1  10   28.78    2.38
  -6  -1  10   30.62    2.31
  -6  -1  10   28.88    2.21
  -6  -2  10   33.89    2.44
  -6  -2  10   31.57    2.58
  -6  -2  10   35.42    2.59
   6   3 -10   25.95    2.29
  -6  -3  10   20.96    1.94
  -6  -3  10   18.88    1.97
  -6  -3  10   17.89    1.76
   6   4 -10    1.31    1.14
  -6  -4  10    4.59    0.91
  -6  -4  10    3.69    1.10
  -6  -4  10    5.13    1.23
   6   5 -10   16.12    2.14
  -6  -5  10   15.67    1.96
  -6  -5  10   13.46    1.78
   6   6 -10    6.74    1.71
  -6  -6  10    2.95    1.17
  -6  -6  10    2.62    1.24
  -5   6  10    4.96    1.26
  -5   5  10   18.92    1.64
  -5   5  10   16.15    1.83
  -5   4  10   14.29    1.45
  -5   4  10   11.72    1.50
  -5   3  10   47.18    3.29
  -5   3  10   49.74    3.29
  -5   3  10   50.75    3.29
  -5   2  10   48.24    3.25
  -5   2  10   50.54    3.30
  -5   2  10   48.00    3.25
  -5   1  10    5.22    1.02
  -5   1  10    6.07    1.01
  -5   1  10    4.12    0.91
  -5   0  10   28.92    2.21
  -5   0  10   28.27    2.25
  -5   0  10   28.85    2.18
  -5  -1  10    8.02    1.17
  -5  -1  10    8.20    1.21
  -5  -1  10    7.18    1.03
   5   2 -10   50.23    3.71
  -5  -2  10   50.79    3.55
  -5  -2  10   53.12    3.36
  -5  -2  10   55.36    3.59
   5   3 -10   49.48    3.36
  -5  -3  10   41.04    3.13
  -5  -3  10   41.81    2.89
  -5  -3  10   43.42    3.14
   5   4 -10   13.05    2.50
   5   4 -10   15.92    2.06
  -5  -4  10   11.62    1.63
  -5  -4  10   12.88    1.36
  -5  -4  10   12.31    1.62
   5   5 -10   17.79    2.03
   5   5 -10   15.84    2.12
  -5  -5  10   19.29    2.11
  -5  -5  10   15.71    1.88
   5   6 -10    4.44    1.45
   5   6 -10    2.75    1.47
  -5  -6  10    6.90    1.40
  -5  -6  10    7.26    1.46
  -4   6  10    7.90    1.45
  -4   6  10    8.13    1.22
  -4   5  10   53.68    3.73
  -4   5  10   54.85    3.53
  -4   4  10    3.13    0.99
  -4   4  10    2.75    0.90
  -4   3  10    5.43    1.13
  -4   3  10    6.26    1.12
  -4   3  10    8.02    1.10
  -4   2  10    8.56    1.15
  -4   2  10    8.61    1.14
  -4   2  10    8.39    1.24
  -4   1  10   65.39    4.20
  -4   1  10   71.14    4.31
  -4   1  10   67.96    4.30
  -4   0  10   11.45    1.40
  -4   0  10   13.41    1.38
  -4   0  10   14.56    1.53
  -4  -1  10   63.77    3.98
  -4  -1  10   63.02    4.17
  -4  -1  10   66.36    4.17
   4   2 -10    8.71    1.38
   4   2 -10    8.74    1.51
  -4  -2  10   12.54    1.49
  -4  -2  10   12.29    1.48
  -4  -2  10   11.24    1.21
   4   3 -10    5.02    1.23
   4   3 -10    5.94    1.18
  -4  -3  10    5.97    0.93
  -4  -3  10    5.46    1.16
  -4  -3  10    5.58    1.09
   4   4 -10    1.48    1.15
  -4  -4  10    4.20    1.15
  -4  -4  10    4.58    1.10
  -4  -4  10    3.45    1.19
   4   5 -10   51.97    3.85
   4   5 -10   56.97    4.05
  -4  -5  10   52.84    3.72
  -4  -5  10   47.72    3.74
   4   6 -10    7.71    1.61
   4   6 -10    5.48    1.58
  -4  -6  10    5.56    1.30
  -4  -6  10    8.19    1.62
  -3   6  10   19.32    1.89
  -3   6  10   10.85    1.70
  -3   5  10    1.67    1.01
  -3   5  10    2.01    0.92
  -3   4  10   18.40    1.89
  -3   4  10   19.99    2.02
  -3   3  10   17.84    1.60
  -3   3  10   16.86    1.67
  -3   3  10   12.76    1.67
  -3   2  10   23.10    1.91
  -3   2  10   24.60    2.13
  -3   2  10   25.57    2.03
  -3   1  10   26.60    2.18
  -3   1  10   27.63    2.12
  -3   1  10   28.45    2.18
  -3   0  10  112.78    6.67
  -3   0  10  107.38    6.62
  -3   0  10  115.21    6.53
   3   1 -10   30.14    2.41
  -3  -1  10   31.40    2.21
  -3  -1  10   29.68    2.37
  -3  -1  10   30.48    2.41
   3   2 -10   24.14    2.41
   3   2 -10   27.05    2.31
  -3  -2  10   26.85    1.98
  -3  -2  10   26.16    2.25
  -3  -2  10   28.40    2.26
   3   3 -10   16.71    2.01
   3   3 -10   17.71    1.97
  -3  -3  10   19.88    1.56
  -3  -3  10   18.31    1.88
  -3  -3  10   19.85    1.95
   3   4 -10   18.35    2.17
   3   4 -10   18.17    2.04
  -3  -4  10   18.18    1.91
  -3  -4  10   18.37    2.04
   3   5 -10    2.47    1.27
  -3  -5  10    1.35    0.96
  -3  -5  10    0.71    1.05
   3   6 -10   17.30    2.27
   3   6 -10   18.60    2.25
  -3  -6  10   12.73    1.90
  -3  -6  10   13.64    1.78
  -2   6  10   42.14    3.14
  -2   6  10   40.80    3.16
  -2   5  10    9.31    1.48
  -2   5  10   12.20    1.61
  -2   4  10   30.54    2.55
  -2   4  10   30.66    2.49
  -2   3  10   16.48    1.60
  -2   3  10   15.89    1.84
  -2   3  10   16.75    1.70
  -2   2  10   26.46    2.10
  -2   2  10   27.27    2.21
  -2   2  10   24.18    2.08
  -2   1  10    5.13    0.94
  -2   1  10    5.44    0.99
  -2   1  10    4.30    0.98
   2   0 -10   44.93    3.07
  -2   0  10   42.35    3.00
  -2   0  10   41.56    2.79
  -2   0  10   39.29    2.92
   2   1 -10    5.63    1.12
   2   1 -10    8.25    1.39
  -2  -1  10    9.51    1.13
  -2  -1  10    6.97    1.11
  -2  -1  10    9.74    1.35
   2   2 -10   25.05    2.19
   2   2 -10   26.41    2.33
  -2  -2  10   21.69    2.06
  -2  -2  10   22.56    1.82
  -2  -2  10   23.32    2.17
   2   3 -10   14.66    1.93
   2   3 -10   17.98    1.86
  -2  -3  10   19.68    1.52
  -2  -3  10   20.39    1.95
  -2  -3  10   13.42    1.68
   2   4 -10   32.23    2.76
   2   4 -10   30.88    2.82
  -2  -4  10   34.88    2.78
  -2  -4  10   31.03    2.58
   2   5 -10   10.90    1.63
   2   5 -10    8.52    1.61
  -2  -5  10   11.16    1.62
  -2  -5  10   11.50    1.57
   2   6 -10   41.70    3.51
  -2  -6  10   45.42    3.56
  -2  -6  10   45.96    3.34
  -1   6  10    1.99    1.20
  -1   6  10    1.06    1.05
  -1   5  10    3.31    1.21
  -1   5  10    2.75    1.05
  -1   4  10   23.50    2.02
  -1   4  10   22.53    2.29
  -1   3  10   17.28    1.66
  -1   3  10   18.67    1.83
  -1   3  10   17.27    1.96
  -1   2  10   30.17    2.28
  -1   2  10   28.58    2.23
  -1   2  10   28.35    2.45
   1  -1 -10   52.91    3.34
  -1   1  10   45.47    3.15
  -1   1  10   43.96    3.07
  -1   1  10   43.14    3.24
   1   0 -10    1.33    0.81
  -1   0  10   -0.21    0.58
  -1   0  10    1.41    0.78
  -1   0  10    2.15    0.88
   1   1 -10   45.13    3.50
   1   1 -10   47.43    3.48
  -1  -1  10   54.86    3.54
  -1  -1  10   50.66    3.21
  -1  -1  10   51.37    3.40
   1   2 -10   27.41    2.33
   1   2 -10   25.59    2.36
  -1  -2  10   24.62    2.29
  -1  -2  10   23.44    2.14
  -1  -2  10   25.69    1.87
   1   3 -10   18.23    2.01
   1   3 -10   19.12    2.09
  -1  -3  10   21.57    2.21
  -1  -3  10   19.70    2.04
   1   4 -10   23.53    2.27
   1   4 -10   24.50    2.36
  -1  -4  10   20.85    2.33
  -1  -4  10   21.55    2.14
   1   5 -10    1.79    1.13
   1   5 -10    2.26    1.14
  -1  -5  10    2.18    1.04
  -1  -5  10    0.23    0.95
   1   6 -10    3.54    1.41
   1   6 -10    2.51    1.35
  -1  -6  10    2.23    1.11
  -1  -6  10    1.72    1.19
   0   6  10   10.90    1.80
   0   6  10    9.45    1.55
   0   5  10    3.36    1.33
   0   5  10    2.17    1.01
   0   4  10   11.22    1.45
   0   4  10   11.46    1.74
   0   3  10   55.22    3.97
   0   3  10   58.53    3.75
   0   3  10   55.74    3.64
   0  -2 -10   21.01    2.15
   0   2  10   20.63    1.85
   0   2  10   19.98    2.13
   0   2  10   17.74    1.80
   0  -1 -10   55.30    3.63
   0   1  10   48.93    3.42
   0   1  10   48.47    3.57
   0   1  10   51.89    3.37
   0   0 -10    1.91    0.87
   0   0  10    1.72    0.92
   0   0  10    0.77    0.67
   0   0  10    2.47    0.92
   0   1 -10   48.80    3.53
   0   1 -10   49.61    3.57
   0  -1  10   49.09    3.20
   0  -1  10   52.30    3.55
   0  -1  10   49.63    3.44
   0   2 -10   22.19    2.13
   0   2 -10   20.94    2.11
   0  -2  10   21.14    2.01
   0  -2  10   19.86    1.98
   0  -2  10   18.55    1.62
   0   3 -10   61.25    4.24
   0   3 -10   55.83    4.19
   0  -3  10   59.03    4.21
   0  -3  10   67.80    4.17
   0   4 -10   12.60    1.79
   0   4 -10   10.74    1.75
   0  -4  10   14.93    1.77
   0  -4  10   11.60    1.81
   0   5 -10    4.21    1.37
   0   5 -10    2.75    1.22
   0  -5  10    2.07    1.00
   0  -5  10    1.72    1.16
   0   6 -10   10.04    1.83
   0   6 -10    8.34    1.68
   0  -6  10   10.94    1.87
   0  -6  10    8.90    1.50
   1   6  10    3.02    1.31
   1   6  10    3.73    1.46
   1   5  10    9.69    1.75
   1   5  10    6.85    1.34
   1   4  10    2.20    1.06
   1   4  10    1.51    1.29
  -1  -3 -10   47.30    3.77
   1   3  10   49.93    3.42
   1   3  10   54.57    3.48
   1   3  10   51.58    3.76
  -1  -2 -10    5.74    1.37
   1   2  10    6.07    1.25
   1   2  10    7.97    1.23
   1   2  10    7.75    1.21
  -1  -1 -10   16.32    1.91
   1   1  10   12.44    1.43
   1   1  10   18.51    1.74
   1   1  10   15.53    1.79
  -1   0 -10   13.88    1.72
   1   0  10   11.75    1.31
   1   0  10   12.54    1.68
   1   0  10   13.27    1.51
  -1   1 -10   18.19    1.97
  -1   1 -10   17.55    1.79
   1  -1  10   12.97    1.60
   1  -1  10   11.43    1.28
   1  -1  10   11.65    1.60
  -1   2 -10    7.13    1.34
  -1   2 -10    9.01    1.49
   1  -2  10    7.41    1.42
   1  -2  10    6.38    1.19
   1  -2  10    6.23    0.92
  -1   3 -10   50.11    3.76
  -1   3 -10   54.09    3.77
   1  -3  10   51.87    3.60
   1  -3  10   48.79    3.72
  -1   4 -10    1.89    1.13
  -1   4 -10    0.96    1.08
   1  -4  10    2.40    1.22
   1  -4  10    1.73    0.98
  -1   5 -10    9.11    1.58
  -1   5 -10    6.02    1.50
   1  -5  10    6.72    1.35
   1  -5  10    8.04    1.62
  -1   6 -10    2.07    1.34
  -1   6 -10    4.88    1.45
   1  -6  10    5.17    1.33
   2   5  10    5.67    1.36
   2   5  10    3.06    1.51
   2   4  10   20.52    2.35
   2   4  10   17.07    1.94
  -2  -3 -10    3.34    1.30
   2   3  10    4.18    1.13
   2   3  10    4.19    1.03
   2   3  10    5.89    1.45
  -2  -2 -10   33.15    2.82
   2   2  10   31.14    2.54
   2   2  10   31.18    2.45
   2   2  10   29.79    2.76
  -2  -1 -10    0.48    0.96
   2   1  10    2.54    1.12
   2   1  10    2.77    0.90
   2   1  10    1.51    0.92
  -2   0 -10    4.94    1.21
   2   0  10    3.38    0.89
   2   0  10    3.69    1.28
   2   0  10    4.06    1.07
  -2   1 -10    2.46    0.95
  -2   1 -10    3.44    1.08
   2  -1  10    0.98    0.70
   2  -1  10    0.42    1.01
   2  -1  10    0.53    0.85
  -2   2 -10   29.65    2.62
  -2   2 -10   30.76    2.78
   2  -2  10   32.93    2.76
   2  -2  10   32.48    2.64
  -2   3 -10    2.86    1.19
  -2   3 -10    4.34    1.18
   2  -3  10    2.44    1.06
   2  -3  10    3.08    1.28
  -2   4 -10   22.11    2.38
  -2   4 -10   18.75    2.32
   2  -4  10   24.74    2.32
   2  -4  10   21.02    2.37
  -2   5 -10    5.44    1.48
  -2   5 -10    4.87    1.38
   2  -5  10    5.75    1.34
   3   5  10   16.94    2.28
   3   5  10   16.40    2.03
  -3  -4 -10    1.20    1.25
   3   4  10    2.12    1.20
   3   4  10    2.58    1.45
  -3  -3 -10    0.62    1.14
   3   3  10    0.99    0.91
   3   3  10   -0.34    0.92
   3   3  10    0.88    1.26
  -3  -2 -10   11.02    1.75
   3   2  10    8.54    1.64
   3   2  10    9.29    1.39
   3   2  10    7.92    1.30
  -3  -1 -10   33.86    3.05
   3   1  10   37.12    2.74
   3   1  10   37.42    2.91
   3   1  10   38.37    3.11
  -3   0 -10   48.65    3.68
   3   0  10   49.65    3.68
   3   0  10   50.06    3.30
   3   0  10   47.50    3.51
  -3   1 -10   43.32    3.04
  -3   1 -10   36.98    3.16
   3  -1  10   39.12    3.07
   3  -1  10   39.04    2.73
   3  -1  10   37.41    3.08
  -3   2 -10    9.88    1.70
  -3   2 -10   11.02    1.64
   3  -2  10   12.26    1.70
   3  -2  10   13.13    1.81
  -3   3 -10    1.14    1.13
  -3   3 -10    0.74    0.95
   3  -3  10    0.07    1.05
   3  -3  10    2.25    1.12
  -3   4 -10    2.42    1.18
  -3   4 -10    2.22    1.30
   3  -4  10    3.55    1.22
  -3   5 -10   14.67    2.10
  -3   5 -10   15.50    2.13
   3  -5  10   16.64    2.03
  -4  -4 -10    4.79    1.57
   4   4  10    5.70    1.63
   4   4  10    4.65    1.27
  -4  -3 -10    1.79    1.36
   4   3  10    4.10    1.19
   4   3  10    3.61    1.54
  -4  -2 -10    0.89    1.22
   4   2  10   -0.73    0.94
   4   2  10    0.16    0.91
   4   2  10    0.32    1.26
  -4  -1 -10    4.04    1.36
   4   1  10    2.85    0.99
   4   1  10    4.21    1.38
   4   1  10    1.90    1.08
  -4   0 -10    7.02    1.54
   4   0  10    4.44    1.06
   4   0  10    5.93    1.43
   4   0  10    4.17    1.21
  -4   1 -10    2.03    1.14
   4  -1  10    5.18    1.42
   4  -1  10    1.61    0.89
   4  -1  10    2.23    1.07
  -4   2 -10    1.13    0.92
  -4   2 -10    2.55    1.18
   4  -2  10    0.83    1.02
   4  -2  10   -0.43    1.16
  -4   3 -10    5.88    1.50
  -4   3 -10    3.83    1.24
   4  -3  10    3.19    1.25
  -4   4 -10    5.89    1.32
  -4   4 -10    4.54    1.42
   4  -4  10    3.02    1.27
  -5  -3 -10   -0.28    1.18
   5   3  10   -1.34    0.98
   5   3  10    0.98    1.42
  -5  -2 -10    1.59    1.31
   5   2  10    2.39    1.45
   5   2  10    1.48    1.05
  -5  -1 -10   19.65    2.47
   5   1  10   26.99    2.51
   5   1  10   27.46    2.75
   5   1  10   23.15    2.21
  -5   0 -10    9.70    1.76
   5   0  10    5.30    1.12
   5   0  10    6.17    1.45
   5   0  10    6.07    1.56
  -5   1 -10   22.97    2.59
   5  -1  10   27.88    2.61
   5  -1  10   22.68    2.52
  -5   2 -10    2.18    1.19
   5  -2  10    1.68    1.23
  -5   3 -10    0.57    1.22
   5  -3  10   -0.04    1.18
  -6  -1 -10    3.29    1.49
  -6  -1 -10    4.39    2.10
   6   1  10    3.82    1.24
   6   1  10    6.14    1.67
  -6   0 -10    2.61    1.38
   6   0  10    2.84    1.10
  -6   1 -10    7.87    1.69
 -10   2  11   17.91    2.04
 -10   2  11   17.27    1.97
 -10   1  11    9.75    1.61
 -10   1  11   11.49    1.63
 -10   0  11    0.12    0.96
 -10   0  11   -0.88    0.84
 -10  -1  11   10.77    1.58
 -10  -1  11   10.11    1.37
 -10  -1  11   10.17    1.67
 -10  -2  11   16.55    1.78
 -10  -2  11   16.36    2.09
 -10  -2  11   13.65    1.75
  -9   3  11   -0.18    0.95
  -9   3  11    0.26    0.73
  -9   2  11    9.17    1.51
  -9   2  11    9.57    1.46
  -9   1  11    8.62    1.34
  -9   1  11    7.64    1.37
  -9   0  11   19.56    2.06
  -9   0  11   21.92    1.89
  -9   0  11   21.59    2.19
  -9  -1  11    7.78    1.25
  -9  -1  11   10.69    1.52
  -9  -1  11    8.20    1.48
  -9  -2  11    8.95    1.36
  -9  -2  11    9.22    1.38
  -9  -2  11    7.91    1.48
  -9  -3  11    0.64    0.89
  -9  -3  11    0.21    0.85
  -9  -3  11    0.21    1.02
  -8   4  11    8.15    1.42
  -8   3  11    3.33    1.01
  -8   3  11    3.27    1.10
  -8   2  11   18.88    1.90
  -8   2  11   17.50    1.90
  -8   1  11   14.28    1.68
  -8   1  11   11.88    1.58
  -8   1  11   12.71    1.38
  -8   0  11   37.29    2.90
  -8   0  11   36.82    2.75
  -8   0  11   35.69    2.66
  -8  -1  11   11.97    1.65
  -8  -1  11   12.61    1.52
  -8  -1  11   12.70    1.55
  -8  -2  11   22.05    2.25
  -8  -2  11   18.61    1.95
  -8  -2  11   19.68    1.93
  -8  -3  11    4.80    1.14
  -8  -3  11    4.65    1.08
  -8  -3  11    4.15    1.24
   8   4 -11    9.05    1.67
  -8  -4  11    6.68    1.43
  -8  -4  11    8.16    1.30
  -8  -4  11    6.42    1.41
  -7   5  11   30.17    2.60
  -7   4  11   15.74    1.84
  -7   3  11    0.87    0.95
  -7   3  11    0.50    0.76
  -7   2  11   19.46    1.97
  -7   2  11   20.19    1.97
  -7   2  11   20.72    1.79
  -7   1  11   18.60    1.68
  -7   1  11   15.93    1.73
  -7   1  11   17.21    1.86
  -7   0  11   -0.33    0.76
  -7   0  11    0.66    0.73
  -7   0  11   -0.14    0.70
  -7  -1  11   19.14    1.83
  -7  -1  11   16.98    1.77
  -7  -1  11   14.57    1.83
  -7  -2  11   19.85    1.89
  -7  -2  11   21.53    2.15
  -7  -2  11   22.15    2.07
  -7  -3  11    1.50    0.85
  -7  -3  11    1.21    0.90
  -7  -3  11    1.54    1.01
   7   4 -11   15.93    2.08
  -7  -4  11   16.84    1.74
  -7  -4  11   15.58    2.00
  -7  -4  11   17.08    2.01
   7   5 -11   28.61    3.01
  -7  -5  11   30.37    2.71
  -7  -5  11   28.02    2.72
  -6   5  11    3.09    1.12
  -6   4  11   10.31    1.52
  -6   4  11    7.83    1.12
  -6   3  11    3.21    0.95
  -6   3  11    4.44    0.97
  -6   3  11    2.53    0.89
  -6   2  11   22.08    1.93
  -6   2  11   22.12    1.95
  -6   2  11   18.79    1.99
  -6   1  11    5.36    1.01
  -6   1  11    5.80    1.13
  -6   1  11    5.13    1.07
  -6   0  11   52.31    3.46
  -6   0  11   50.30    3.51
  -6   0  11   49.09    3.39
  -6  -1  11    7.53    1.27
  -6  -1  11    6.93    1.22
  -6  -1  11    8.32    1.19
  -6  -2  11   21.63    2.08
  -6  -2  11   18.03    1.93
  -6  -2  11   19.65    1.78
   6   3 -11    2.73    1.23
  -6  -3  11    2.93    1.03
  -6  -3  11    1.91    0.97
  -6  -3  11    3.11    0.88
   6   4 -11    7.61    1.64
  -6  -4  11    8.40    1.49
  -6  -4  11    7.13    1.13
  -6  -4  11   10.65    1.54
   6   5 -11    3.05    1.40
  -6  -5  11    4.89    1.29
  -6  -5  11    5.20    1.32
  -5   6  11    5.86    1.38
  -5   5  11    5.56    1.03
  -5   5  11    5.75    1.31
  -5   4  11    5.12    1.20
  -5   4  11    4.59    1.05
  -5   3  11   70.64    4.53
  -5   3  11   70.38    4.56
  -5   3  11   71.19    4.49
  -5   2  11   30.32    2.37
  -5   2  11   26.57    2.30
  -5   2  11   28.29    2.25
  -5   1  11   18.99    1.82
  -5   1  11   19.33    1.82
  -5   1  11   19.99    1.90
  -5   0  11    0.50    0.79
  -5   0  11   -0.17    0.71
  -5   0  11    0.50    0.73
  -5  -1  11   23.39    1.90
  -5  -1  11   21.60    2.01
  -5  -1  11   22.04    2.05
   5   2 -11   31.04    2.66
  -5  -2  11   28.86    2.44
  -5  -2  11   27.61    2.22
  -5  -2  11   26.67    2.44
   5   3 -11   72.81    4.92
  -5  -3  11   73.72    4.73
  -5  -3  11   67.23    4.67
  -5  -3  11   71.89    4.42
   5   4 -11    4.92    1.52
  -5  -4  11    7.37    1.42
  -5  -4  11    4.73    1.21
   5   5 -11    7.24    1.76
  -5  -5  11    8.49    1.46
  -5  -5  11    6.91    1.50
   5   6 -11    4.04    1.64
  -5  -6  11    4.36    1.32
  -4   6  11    5.22    1.41
  -4   6  11    6.56    1.23
  -4   5  11    4.30    1.08
  -4   5  11    3.05    1.22
  -4   4  11   18.99    2.02
  -4   4  11   22.54    2.09
  -4   3  11    2.80    1.03
  -4   3  11    3.45    1.04
  -4   3  11    2.50    0.89
  -4   2  11   47.11    3.26
  -4   2  11   48.36    3.31
  -4   2  11   44.80    3.22
  -4   1  11    1.34    0.81
  -4   1  11   -0.43    0.67
  -4   1  11    0.81    0.78
  -4   0  11   14.09    1.64
  -4   0  11   13.76    1.53
  -4   0  11   13.11    1.57
  -4  -1  11   -0.18    0.77
  -4  -1  11    1.01    0.84
  -4  -1  11   -0.17    0.66
   4   2 -11   48.26    3.32
  -4  -2  11   35.51    2.96
  -4  -2  11   38.33    2.99
  -4  -2  11   39.68    2.75
   4   3 -11    1.21    1.02
  -4  -3  11    3.29    1.14
  -4  -3  11    2.87    1.06
  -4  -3  11    3.52    0.84
   4   4 -11   22.32    2.40
   4   4 -11   26.23    2.64
  -4  -4  11   21.97    2.22
  -4  -4  11   20.25    2.29
   4   5 -11    6.34    1.67
   4   5 -11    4.46    1.41
  -4  -5  11    5.07    1.28
  -4  -5  11    4.32    1.36
   4   6 -11    7.47    1.86
  -4  -6  11    4.63    1.44
  -4  -6  11    6.20    1.43
  -3   6  11    7.48    1.39
  -3   6  11    6.21    1.39
  -3   5  11    6.49    1.37
  -3   5  11    7.85    1.42
  -3   4  11   12.70    1.77
  -3   4  11   13.45    1.67
  -3   3  11   27.06    2.47
  -3   3  11   28.35    2.37
  -3   3  11   28.46    2.26
  -3   2  11   26.73    2.18
  -3   2  11   26.87    2.35
  -3   2  11   27.89    2.27
  -3   1  11   10.84    1.32
  -3   1  11    9.60    1.38
  -3   1  11    9.35    1.31
  -3   0  11   26.58    2.23
  -3   0  11   26.91    2.27
  -3   0  11   25.11    2.08
  -3  -1  11   12.35    1.40
  -3  -1  11   13.61    1.66
  -3  -1  11   14.70    1.71
   3   2 -11   26.85    2.44
   3   2 -11   25.73    2.39
  -3  -2  11   27.15    2.08
  -3  -2  11   26.17    2.31
  -3  -2  11   26.49    2.39
   3   3 -11   26.22    2.66
   3   3 -11   30.66    2.84
  -3  -3  11   34.22    2.63
  -3  -3  11   30.69    2.67
  -3  -3  11   34.04    2.32
   3   4 -11   10.30    1.69
   3   4 -11    9.76    1.74
  -3  -4  11   17.63    1.92
  -3  -4  11   12.81    1.75
   3   5 -11    7.22    1.73
   3   5 -11    4.16    1.33
  -3  -5  11    8.92    1.46
  -3  -5  11    6.84    1.56
   3   6 -11    7.92    1.85
   3   6 -11    7.93    1.75
  -3  -6  11    7.67    1.47
  -3  -6  11    8.65    1.72
  -2   6  11   20.97    2.27
  -2   6  11   17.47    2.02
  -2   5  11    3.49    1.15
  -2   5  11    6.40    1.45
  -2   4  11   10.39    1.50
  -2   4  11   11.76    1.73
  -2   3  11    5.29    1.03
  -2   3  11    5.34    1.19
  -2   3  11    5.48    1.27
  -2   2  11   27.12    2.23
  -2   2  11   27.77    2.27
  -2   2  11   28.33    2.43
  -2   1  11    2.89    0.92
  -2   1  11    3.03    0.90
  -2   1  11    2.98    0.97
  -2   0  11  135.54    7.91
  -2   0  11  132.02    7.86
  -2   0  11  131.65    7.71
   2   1 -11    2.71    0.97
  -2  -1  11    2.10    0.78
  -2  -1  11    2.17    0.96
  -2  -1  11    2.30    0.99
   2   2 -11   28.64    2.41
   2   2 -11   29.18    2.55
  -2  -2  11   26.01    1.94
  -2  -2  11   21.60    2.26
  -2  -2  11   21.40    2.21
   2   3 -11    5.23    1.35
   2   3 -11    5.76    1.34
  -2  -3  11    3.54    1.05
  -2  -3  11    2.98    1.18
   2   4 -11   11.05    1.73
   2   4 -11    9.74    1.81
  -2  -4  11    8.84    1.47
  -2  -4  11    6.93    1.49
   2   5 -11    3.04    1.29
   2   5 -11    3.47    1.42
  -2  -5  11    7.33    1.53
  -2  -5  11    8.97    1.48
   2   6 -11   17.41    2.34
   2   6 -11   18.34    2.30
  -2  -6  11   15.35    2.16
  -2  -6  11   15.71    2.03
  -1   6  11   -0.66    1.16
  -1   6  11    0.85    1.19
  -1   5  11   34.52    2.84
  -1   5  11   33.17    3.05
  -1   4  11    1.81    1.23
  -1   4  11    1.26    0.96
  -1   3  11    7.69    1.55
  -1   3  11    8.11    1.37
  -1   3  11    7.37    1.19
  -1   2  11   18.26    1.82
  -1   2  11   17.53    2.00
  -1   2  11   15.19    1.71
  -1   1  11   36.00    2.68
  -1   1  11   38.72    2.95
  -1   1  11   36.89    2.83
   1   0 -11    0.76    0.87
  -1   0  11    1.06    0.87
  -1   0  11    0.51    0.80
  -1   0  11   -0.07    0.71
   1   1 -11   39.63    2.85
  -1  -1  11   31.07    2.37
  -1  -1  11   30.66    2.59
  -1  -1  11   31.10    2.69
   1   2 -11   17.59    2.04
   1   2 -11   12.84    1.89
  -1  -2  11   18.16    2.09
  -1  -2  11   16.09    1.54
  -1  -2  11   19.16    1.97
   1   3 -11    7.49    1.46
   1   3 -11    7.34    1.60
  -1  -3  11    8.23    1.42
  -1  -3  11    7.78    1.46
   1   4 -11    2.05    1.12
   1   4 -11    0.19    0.99
  -1  -4  11    1.62    1.00
  -1  -4  11    2.38    1.20
   1   5 -11   31.28    3.09
   1   5 -11   37.76    3.29
  -1  -5  11   33.98    2.93
  -1  -5  11   37.21    3.14
   1   6 -11   -0.94    1.27
   1   6 -11    0.76    1.25
  -1  -6  11    0.06    1.05
  -1  -6  11    1.13    1.29
   0   5  11   19.21    2.08
   0   5  11   20.86    2.48
   0   4  11    4.68    1.49
   0   4  11    3.82    1.18
   0   3  11    4.33    1.31
   0   3  11    2.01    1.02
   0   3  11    2.94    0.97
   0   2  11   13.89    1.60
   0   2  11   13.64    1.59
   0   2  11   15.04    1.91
   0  -1 -11   40.65    3.28
   0   1  11   46.11    3.18
   0   1  11   44.54    3.31
   0   1  11   41.65    3.02
   0   0 -11   49.75    3.66
   0   0  11   49.94    3.37
   0   0  11   51.95    3.58
   0   0  11   52.63    3.71
   0   1 -11   44.50    3.30
   0  -1  11   43.93    3.26
   0  -1  11   44.84    3.34
   0  -1  11   42.79    2.94
   0   2 -11   15.48    1.93
   0   2 -11   15.18    1.97
   0  -2  11   14.67    1.48
   0  -2  11   15.63    1.84
   0  -2  11   15.58    1.97
   0   3 -11    3.01    1.18
   0   3 -11    4.97    1.38
   0  -3  11    3.33    1.19
   0  -3  11    3.38    1.12
   0   4 -11    5.22    1.43
   0   4 -11    6.57    1.45
   0  -4  11    2.43    1.26
   0  -4  11    3.25    1.11
   0   5 -11   23.90    2.67
   0   5 -11   20.81    2.58
   0  -5  11   20.75    2.28
   0  -5  11   24.84    2.64
   1   5  11    9.03    1.93
   1   5  11   10.59    1.69
   1   4  11    4.68    1.61
   1   4  11    6.01    1.37
   1   3  11    4.04    1.09
   1   3  11    2.46    1.10
   1   3  11    3.71    1.36
  -1  -2 -11    3.35    1.23
   1   2  11    3.24    1.24
   1   2  11    2.58    1.00
   1   2  11    3.52    1.06
  -1  -1 -11    3.67    1.19
   1   1  11    3.78    0.95
   1   1  11    2.84    1.27
   1   1  11    2.85    1.05
  -1   0 -11   22.62    2.27
   1   0  11   19.32    1.85
   1   0  11   21.06    2.10
   1   0  11   23.04    2.33
  -1   1 -11    3.65    1.23
   1  -1  11    2.92    1.18
   1  -1  11    2.43    0.82
   1  -1  11    3.38    1.08
  -1   2 -11    3.45    1.26
  -1   2 -11    3.62    1.28
   1  -2  11    4.78    1.23
   1  -2  11    4.84    1.37
  -1   3 -11    4.26    1.35
  -1   3 -11    2.56    1.22
   1  -3  11    6.14    1.49
   1  -3  11    6.28    1.29
  -1   4 -11    5.61    1.50
  -1   4 -11    7.29    1.57
   1  -4  11    3.58    1.40
   1  -4  11    5.37    1.31
  -1   5 -11    9.28    1.82
  -1   5 -11   10.81    1.96
   1  -5  11   15.63    1.92
   1  -5  11   14.84    2.15
   2   4  11   38.93    3.13
   2   4  11   39.52    3.54
   2   3  11    1.26    1.22
   2   3  11    3.97    1.17
   2   3  11    1.98    1.00
  -2  -2 -11   24.33    2.68
   2   2  11   30.20    2.47
   2   2  11   29.17    2.82
   2   2  11   31.21    2.51
  -2  -1 -11    6.18    1.42
   2   1  11    5.28    1.22
   2   1  11    4.51    1.03
   2   1  11    5.39    1.43
  -2   0 -11   11.98    1.77
   2   0  11   10.27    1.58
   2   0  11   10.03    1.31
   2   0  11    9.50    1.73
  -2   1 -11    7.83    1.54
   2  -1  11    5.34    1.03
   2  -1  11    8.22    1.65
   2  -1  11    7.18    1.41
  -2   2 -11   30.81    2.65
  -2   2 -11   29.03    2.73
   2  -2  11   23.21    2.46
   2  -2  11   25.03    2.63
  -2   3 -11    0.35    1.16
  -2   3 -11    1.20    1.06
   2  -3  11    1.70    1.07
   2  -3  11    1.47    1.22
  -2   4 -11   39.98    3.35
  -2   4 -11   38.86    3.24
   2  -4  11   36.00    3.09
   2  -4  11   32.92    3.23
   3   4  11    5.59    1.74
   3   4  11    5.36    1.40
  -3  -3 -11    6.30    1.66
   3   3  11    3.54    1.22
   3   3  11    3.83    1.26
   3   3  11    5.28    1.61
  -3  -2 -11   15.05    2.07
   3   2  11   11.51    1.66
   3   2  11   10.69    1.58
   3   2  11   12.30    1.95
  -3  -1 -11   -0.08    1.16
   3   1  11    2.44    1.39
   3   1  11    1.22    0.98
   3   1  11   -0.07    1.01
  -3   0 -11    8.89    1.71
   3   0  11    8.86    1.68
   3   0  11    8.32    1.52
   3   0  11    9.19    1.35
  -3   1 -11    0.88    1.15
   3  -1  11    1.62    1.10
   3  -1  11    2.02    1.31
   3  -1  11    3.31    1.08
  -3   2 -11    7.23    1.63
  -3   2 -11    8.59    1.56
   3  -2  11   13.40    1.81
   3  -2  11   13.02    1.89
  -3   3 -11    5.34    1.39
  -3   3 -11    5.09    1.50
   3  -3  11    7.31    1.60
   3  -3  11    7.95    1.48
  -3   4 -11    3.93    1.51
  -3   4 -11    5.19    1.43
   3  -4  11    4.00    1.38
  -4  -3 -11   25.14    2.89
   4   3  11   32.49    3.15
   4   3  11   27.64    2.64
  -4  -2 -11    0.30    1.34
   4   2  11    1.34    1.09
   4   2  11    0.44    1.30
   4   2  11    0.69    1.11
  -4  -1 -11    4.57    1.50
   4   1  11    2.35    1.07
   4   1  11    0.93    1.10
   4   1  11    2.58    1.32
  -4   0 -11    8.13    1.59
   4   0  11    6.92    1.55
   4   0  11    7.46    1.35
   4   0  11    7.74    1.72
  -4   1 -11    3.07    1.43
   4  -1  11    4.99    1.57
   4  -1  11    3.43    1.26
  -4   2 -11   -0.31    1.08
   4  -2  11    1.39    1.39
   4  -2  11    0.63    1.16
  -4   3 -11   31.26    2.98
  -4   3 -11   33.16    3.15
   4  -3  11   33.23    3.03
   5   1  11    7.86    1.56
   5   1  11    4.29    1.60
   5   1  11    4.79    1.22
  -5   0 -11   19.29    2.39
   5   0  11   16.41    2.25
   5   0  11   15.89    2.06
   5   0  11   13.64    1.70
   5  -1  11    4.32    1.45
  -9   2  12    2.77    1.07
  -9   2  12    1.72    1.11
  -9   1  12   10.67    1.63
  -9   1  12   13.11    1.68
  -9   0  12    1.78    0.85
  -9   0  12    3.52    1.20
  -9   0  12    3.38    1.06
  -9  -1  12   11.80    1.62
  -9  -1  12   11.42    1.74
  -9  -1  12   12.92    1.56
  -9  -2  12    1.83    0.99
  -9  -2  12    1.82    0.98
  -9  -2  12    1.85    1.13
  -8   3  12   21.04    2.08
  -8   3  12   18.10    2.03
  -8   2  12    7.81    1.43
  -8   2  12   10.67    1.51
  -8   1  12   11.10    1.57
  -8   1  12   10.39    1.32
  -8   1  12    9.46    1.49
  -8   0  12    8.10    1.36
  -8   0  12    7.97    1.43
  -8   0  12    7.14    1.21
  -8  -1  12   10.09    1.50
  -8  -1  12   11.11    1.52
  -8  -1  12   11.64    1.65
  -8  -2  12   13.15    1.68
  -8  -2  12   13.70    1.84
  -8  -2  12    9.59    1.49
  -8  -3  12   22.03    2.28
  -8  -3  12   21.11    2.05
  -8  -3  12   21.00    2.30
  -7   4  12    6.64    1.38
  -7   3  12    5.00    1.16
  -7   3  12    5.46    1.29
  -7   2  12   11.75    1.60
  -7   2  12   14.70    1.70
  -7   2  12   13.61    1.51
  -7   1  12   21.70    2.09
  -7   1  12   20.40    2.10
  -7   1  12   22.18    1.97
  -7   0  12    8.97    1.47
  -7   0  12   11.10    1.48
  -7   0  12   11.36    1.50
  -7  -1  12   23.20    2.27
  -7  -1  12   22.11    2.03
  -7  -1  12   20.78    2.13
  -7  -2  12    9.63    1.47
  -7  -2  12    8.06    1.29
  -7  -2  12    8.97    1.53
  -7  -3  12    3.77    1.21
  -7  -3  12    6.71    1.40
  -7  -3  12    5.51    1.11
   7   4 -12    5.66    1.56
  -7  -4  12    5.59    1.14
  -7  -4  12    5.13    1.34
  -7  -4  12    4.43    1.42
  -6   4  12    4.22    1.21
  -6   4  12    6.19    1.12
  -6   3  12    1.69    0.90
  -6   3  12    1.49    1.01
  -6   3  12    1.55    0.90
  -6   2  12   15.09    1.75
  -6   2  12   13.12    1.63
  -6   2  12   15.62    1.76
  -6   1  12    6.51    1.25
  -6   1  12    7.32    1.23
  -6   1  12    6.65    1.23
  -6   0  12   39.94    3.09
  -6   0  12   39.16    2.94
  -6   0  12   42.25    3.03
  -6  -1  12    8.90    1.39
  -6  -1  12    6.52    1.32
  -6  -1  12    6.80    1.18
  -6  -2  12   10.29    1.55
  -6  -2  12   10.20    1.55
  -6  -2  12   10.91    1.43
   6   3 -12    2.17    1.26
  -6  -3  12    1.02    0.84
  -6  -3  12    1.63    1.05
  -6  -3  12    3.78    1.18
   6   4 -12    4.00    1.48
  -6  -4  12    6.31    1.42
  -6  -4  12    7.67    1.52
  -5   5  12    2.31    1.18
  -5   5  12    0.68    0.87
  -5   4  12    6.35    1.22
  -5   4  12    5.37    1.32
  -5   3  12   10.24    1.53
  -5   3  12   13.47    1.67
  -5   3  12   13.25    1.56
  -5   2  12   24.94    2.21
  -5   2  12   29.02    2.33
  -5   2  12   23.99    2.28
  -5   1  12    2.71    0.97
  -5   1  12    3.86    1.03
  -5   1  12    3.39    1.02
  -5   0  12   63.48    4.15
  -5   0  12   58.53    4.07
  -5   0  12   60.53    3.98
  -5  -1  12    5.36    1.23
  -5  -1  12    4.85    1.04
  -5  -1  12    4.17    1.13
  -5  -2  12   29.63    2.56
  -5  -2  12   28.48    2.54
  -5  -2  12   26.24    2.27
   5   3 -12   12.86    1.92
  -5  -3  12    9.51    1.63
  -5  -3  12    9.93    1.53
  -5  -3  12    9.91    1.33
   5   4 -12    3.66    1.44
  -5  -4  12    3.13    1.25
  -5  -4  12    1.83    1.09
   5   5 -12    1.38    1.43
  -5  -5  12    1.32    1.15
  -5  -5  12    0.51    1.17
  -4   5  12   38.01    3.09
  -4   5  12   40.05    3.15
  -4   4  12    2.12    1.13
  -4   4  12    3.69    1.20
  -4   3  12    1.57    1.01
  -4   3  12    2.37    1.09
  -4   3  12    2.99    0.99
  -4   2  12    8.42    1.33
  -4   2  12   10.18    1.45
  -4   2  12    8.36    1.30
  -4   1  12   14.84    1.69
  -4   1  12   18.87    1.87
  -4   1  12   17.57    1.91
  -4   0  12    0.62    0.79
  -4   0  12    0.04    0.84
  -4   0  12    0.15    0.85
  -4  -1  12   13.44    1.76
  -4  -1  12   18.83    1.99
  -4  -1  12   18.35    1.71
  -4  -2  12   10.02    1.36
  -4  -2  12   10.11    1.51
  -4  -2  12   12.83    1.70
   4   3 -12    2.11    1.13
  -4  -3  12    4.22    1.22
  -4  -3  12    3.73    0.95
  -4  -3  12    2.81    1.09
   4   4 -12    2.26    1.37
  -4  -4  12    6.44    1.40
  -4  -4  12    5.08    1.41
   4   5 -12   41.98    3.71
  -4  -5  12   37.74    3.39
  -4  -5  12   40.88    3.28
  -3   5  12    4.60    1.36
  -3   5  12    5.91    1.46
  -3   4  12   19.20    2.09
  -3   4  12   19.07    2.27
  -3   3  12   38.48    3.07
  -3   3  12   33.46    2.72
  -3   3  12   41.06    2.97
  -3   2  12   37.73    2.84
  -3   2  12   36.19    2.84
  -3   2  12   39.33    3.02
  -3   1  12   16.05    1.69
  -3   1  12   16.30    1.85
  -3   1  12   12.48    1.66
  -3   0  12    6.06    1.19
  -3   0  12    5.97    1.10
  -3   0  12    4.18    1.16
  -3  -1  12   20.32    2.08
  -3  -1  12   15.52    1.62
  -3  -1  12   16.20    1.88
   3   2 -12   38.78    3.19
  -3  -2  12   36.38    3.06
  -3  -2  12   34.51    2.63
  -3  -2  12   38.76    3.01
   3   3 -12   38.14    3.11
   3   3 -12   36.92    3.62
  -3  -3  12   32.21    2.93
  -3  -3  12   31.14    2.79
   3   4 -12   19.16    2.37
   3   4 -12   16.86    2.14
  -3  -4  12   15.99    2.03
  -3  -4  12   14.80    2.10
   3   5 -12    8.67    1.91
   3   5 -12    5.94    1.61
  -3  -5  12    4.82    1.47
  -3  -5  12    5.12    1.34
  -2   5  12   10.79    1.88
  -2   5  12   10.07    1.64
  -2   4  12    7.32    1.64
  -2   4  12    6.26    1.30
  -2   3  12   19.73    2.13
  -2   3  12   26.72    2.22
  -2   3  12   23.67    2.49
  -2   2  12   11.52    1.67
  -2   2  12   11.13    1.52
  -2   2  12   11.48    1.53
  -2   1  12    4.02    1.18
  -2   1  12    3.88    1.09
  -2   1  12    3.61    1.06
  -2   0  12    5.10    1.11
  -2   0  12    5.77    1.27
  -2   0  12    6.98    1.26
  -2  -1  12    2.98    1.03
  -2  -1  12    4.10    0.98
  -2  -1  12    2.64    1.08
   2   2 -12   13.23    1.88
   2   2 -12   13.95    1.99
  -2  -2  12   16.56    1.89
  -2  -2  12   14.23    1.88
  -2  -2  12   12.37    1.44
   2   3 -12   25.59    2.61
   2   3 -12   23.34    2.68
  -2  -3  12   27.68    2.49
  -2  -3  12   28.32    2.66
   2   4 -12    8.24    1.66
   2   4 -12    6.39    1.67
  -2  -4  12    3.22    1.19
  -2  -4  12    5.08    1.50
   2   5 -12    9.96    2.07
   2   5 -12    9.53    1.94
  -2  -5  12   13.85    1.98
  -2  -5  12   16.48    1.98
  -1   5  12    4.89    1.37
  -1   5  12    4.54    1.60
  -1   4  12   30.91    3.01
  -1   4  12   31.46    2.71
  -1   3  12    5.78    1.45
  -1   3  12    3.34    1.03
  -1   3  12    2.72    1.08
  -1   2  12   45.18    3.24
  -1   2  12   42.54    3.40
  -1   2  12   43.93    3.26
  -1   1  12    9.20    1.37
  -1   1  12    9.20    1.47
  -1   1  12   11.18    1.71
  -1   0  12    3.06    0.95
  -1   0  12    2.76    1.09
  -1   0  12    2.88    1.13
   1   1 -12    8.78    1.60
  -1  -1  12    9.91    1.32
  -1  -1  12   10.11    1.56
  -1  -1  12   12.09    1.68
   1   2 -12   42.71    3.31
   1   2 -12   44.37    3.37
  -1  -2  12   39.22    3.27
  -1  -2  12   39.61    2.79
  -1  -2  12   36.54    3.12
   1   3 -12    2.83    1.37
   1   3 -12    3.17    1.24
  -1  -3  12    6.73    1.40
  -1  -3  12    6.68    1.49
   1   4 -12   28.26    3.04
   1   4 -12   29.74    2.93
  -1  -4  12   31.21    2.98
  -1  -4  12   31.31    2.79
   1   5 -12    5.63    1.62
   1   5 -12    5.64    1.65
  -1  -5  12    6.58    1.60
  -1  -5  12    7.49    1.55
   0   4  12    3.98    1.24
   0   4  12    6.27    1.61
   0   3  12    0.21    0.89
   0   3  12    2.52    1.31
   0   3  12    0.06    0.93
   0   2  12    4.72    1.40
   0   2  12    4.70    1.17
   0   2  12    3.75    1.08
   0   1  12    2.91    1.22
   0   1  12    1.64    0.92
   0   1  12    1.78    1.03
   0   0 -12    1.92    1.08
   0   0  12    1.29    1.06
   0   0  12    0.73    1.03
   0   0  12    0.95    0.82
   0   1 -12    3.26    1.26
   0  -1  12    1.03    0.98
   0  -1  12    0.64    0.79
   0  -1  12   -0.11    1.01
   0   2 -12    3.58    1.21
   0   2 -12    6.40    1.53
   0  -2  12    3.12    1.18
   0  -2  12    4.80    1.40
   0   3 -12    2.11    1.21
   0   3 -12    0.86    1.15
   0  -3  12    2.28    1.14
   0  -3  12    1.94    1.20
   0   4 -12    7.95    1.75
   0   4 -12    7.82    1.76
   0  -4  12    9.34    1.71
   0  -4  12    8.59    1.50
   1   4  12    6.69    1.80
   1   4  12    5.64    1.42
   1   3  12   13.71    1.78
   1   3  12   16.34    1.88
   1   3  12   17.40    2.22
   1   2  12    8.35    1.45
   1   2  12    6.93    1.65
   1   2  12   11.99    1.63
  -1  -1 -12    8.72    1.61
   1   1  12    8.52    1.69
   1   1  12    7.71    1.34
   1   1  12    8.66    1.46
  -1   0 -12   77.04    5.10
   1   0  12   75.96    5.13
   1   0  12   72.62    4.67
   1   0  12   72.30    4.91
  -1   1 -12   11.05    1.80
   1  -1  12   10.52    1.80
   1  -1  12   10.40    1.62
   1  -1  12    9.05    1.29
  -1   2 -12    7.98    1.57
  -1   2 -12    9.64    1.69
   1  -2  12    7.77    1.46
   1  -2  12   10.34    1.70
  -1   3 -12   11.83    1.90
  -1   3 -12   13.22    1.99
   1  -3  12   17.60    2.24
   1  -3  12   13.97    1.84
  -1   4 -12    6.68    1.68
  -1   4 -12    6.70    1.68
   1  -4  12    5.91    1.45
   1  -4  12    6.78    1.67
   2   3  12   -0.21    1.05
   2   3  12   -0.03    1.29
   2   3  12    1.07    1.14
  -2  -2 -12    1.78    1.30
   2   2  12    3.10    1.18
   2   2  12    2.27    1.15
   2   2  12    1.30    1.42
  -2  -1 -12    2.31    1.25
   2   1  12    8.26    1.74
   2   1  12    5.48    1.19
   2   1  12    6.54    1.43
  -2   0 -12   26.24    2.67
   2   0  12   23.90    2.60
   2   0  12   23.35    2.45
   2   0  12   24.72    2.20
  -2   1 -12    7.24    1.54
   2  -1  12    3.51    1.24
   2  -1  12    3.92    1.37
  -2   2 -12    2.72    1.13
  -2   2 -12    2.61    1.25
   2  -2  12    1.12    1.07
   2  -2  12    0.73    1.24
  -2   3 -12    0.30    1.16
  -2   3 -12    0.46    1.06
   2  -3  12    0.54    1.06
   2  -3  12   -0.42    1.17
  -3  -2 -12    3.44    1.50
   3   2  12    0.78    1.06
   3   2  12    1.35    1.39
   3   2  12    1.81    1.19
  -3  -1 -12   11.01    1.94
   3   1  12   10.16    1.56
   3   1  12   11.33    1.99
   3   1  12   10.34    1.69
  -3   0 -12   35.79    3.18
   3   0  12   32.76    3.00
   3   0  12   32.91    2.76
   3   0  12   34.14    3.20
  -3   1 -12   13.38    2.06
   3  -1  12   11.05    1.79
   3  -1  12   12.00    2.03
  -3   2 -12    0.81    1.21
  -3   2 -12    1.79    1.12
   3  -2  12    1.40    1.44
   3  -2  12    0.77    1.17
  -8   1  13    3.69    1.24
  -8   1  13    5.19    1.36
  -8   1  13    3.47    0.95
  -8   0  13    4.84    1.33
  -8   0  13    2.22    1.09
  -8   0  13    5.78    1.19
  -8  -1  13    5.01    1.40
  -8  -1  13    6.52    1.33
  -8  -1  13    4.60    1.20
  -7   2  13   33.12    2.77
  -7   2  13   30.15    2.52
  -7   2  13   33.88    2.80
  -7   1  13    0.34    0.93
  -7   1  13    0.73    0.84
  -7   1  13    1.44    1.00
  -7   0  13    0.03    0.88
  -7   0  13   -0.33    0.89
  -7   0  13    0.20    0.95
  -7  -1  13    0.39    0.90
  -7  -1  13   -0.05    0.87
  -7  -1  13    0.01    1.01
  -7  -2  13   35.92    2.98
  -7  -2  13   37.40    2.87
  -7  -2  13   34.15    3.07
  -6   3  13   25.90    2.30
  -6   3  13   22.72    2.34
  -6   2  13   22.42    2.31
  -6   2  13   26.10    2.29
  -6   2  13   25.86    2.38
  -6   1  13    7.54    1.39
  -6   1  13    9.04    1.38
  -6   1  13    9.34    1.49
  -6   0  13    0.30    0.91
  -6   0  13    1.65    0.95
  -6   0  13    0.58    0.95
  -6  -1  13    6.84    1.36
  -6  -1  13    5.35    1.16
  -6  -1  13    6.20    1.37
  -6  -2  13   23.91    2.18
  -6  -2  13   22.86    2.41
  -6  -2  13   20.99    2.35
  -6  -3  13   23.41    2.05
  -6  -3  13   18.14    2.18
  -6  -3  13   20.76    2.30
  -5   3  13    9.00    1.86
  -5   3  13   10.10    1.65
  -5   3  13   11.41    1.60
  -5   2  13    4.01    1.15
  -5   2  13    5.74    1.27
  -5   2  13    3.31    1.13
  -5   1  13    7.22    1.39
  -5   1  13    6.42    1.31
  -5   1  13    8.60    1.42
  -5   0  13    3.60    1.07
  -5   0  13    5.85    1.24
  -5   0  13    4.34    1.22
  -5  -1  13    7.51    1.44
  -5  -1  13    6.74    1.36
  -5  -1  13    7.60    1.27
  -5  -2  13    6.76    1.36
  -5  -2  13    6.49    1.49
  -5  -2  13    8.38    1.31
   5   3 -13    6.78    1.60
  -5  -3  13    8.70    1.54
  -5  -3  13    6.04    1.23
  -5  -3  13    8.62    1.63
  -4   4  13    2.88    1.25
  -4   4  13    0.98    1.15
  -4   3  13    0.81    1.11
  -4   3  13    1.01    1.08
  -4   3  13    0.57    1.05
  -4   2  13   24.41    2.35
  -4   2  13   25.47    2.45
  -4   2  13   25.63    2.41
  -4   1  13   44.27    3.46
  -4   1  13   50.89    3.64
  -4   1  13   56.55    3.74
  -4   0  13    2.54    1.13
  -4   0  13    5.07    1.26
  -4   0  13    4.82    1.12
  -4  -1  13   48.16    3.51
  -4  -1  13   47.97    3.31
  -4  -1  13   42.90    3.51
  -4  -2  13   22.00    2.07
  -4  -2  13   22.15    2.34
  -4  -2  13   23.80    2.46
   4   3 -13    0.48    1.19
  -4  -3  13    2.79    1.22
  -4  -3  13    1.18    1.05
   4   4 -13    5.21    1.71
  -4  -4  13    4.45    1.39
  -4  -4  13    2.36    1.23
  -3   4  13    0.04    1.20
  -3   4  13    1.63    1.18
  -3   3  13    3.35    1.31
  -3   3  13   -0.16    1.05
  -3   2  13   -0.42    1.01
  -3   2  13    0.24    0.97
  -3   2  13   -0.04    0.84
  -3   1  13    3.59    1.08
  -3   1  13    3.69    1.21
  -3   1  13    2.64    1.05
  -3   0  13    2.53    1.14
  -3   0  13    4.26    1.15
  -3   0  13    4.50    1.14
  -3  -1  13    4.50    1.12
  -3  -1  13    5.59    1.32
  -3  -1  13    3.60    1.20
  -3  -2  13    1.07    0.86
  -3  -2  13    0.18    1.01
  -3  -2  13    0.81    1.00
   3   3 -13    0.06    1.18
  -3  -3  13    0.49    1.10
  -3  -3  13    0.24    0.94
   3   4 -13    2.34    1.56
  -3  -4  13    1.96    1.19
  -3  -4  13    1.01    1.24
  -2   3  13    6.48    1.55
  -2   3  13    6.46    1.33
  -2   2  13   13.18    1.72
  -2   2  13   11.94    1.68
  -2   2  13   11.96    1.79
  -2   1  13    6.17    1.43
  -2   1  13    5.53    1.32
  -2   1  13    4.37    1.10
  -2   0  13   60.71    4.25
  -2   0  13   56.52    4.13
  -2   0  13   62.47    4.00
  -2  -1  13    5.41    1.36
  -2  -1  13    4.89    1.22
  -2  -1  13    4.89    1.12
  -2  -2  13   12.45    1.56
  -2  -2  13   16.17    2.11
  -2  -2  13   14.22    1.87
   2   3 -13    6.21    1.91
   2   3 -13    6.60    1.72
  -2  -3  13    4.21    1.34
  -2  -3  13    5.72    1.32
  -1   3  13   11.07    1.65
  -1   3  13   10.41    1.87
  -1   2  13   18.99    2.05
  -1   2  13   16.52    2.13
  -1   2  13   16.87    1.93
  -1   1  13    3.22    1.21
  -1   1  13    3.22    1.10
  -1   1  13    4.87    1.40
  -1   0  13   24.56    2.54
  -1   0  13   20.68    2.27
  -1   0  13   23.40    2.15
  -1  -1  13    7.05    1.46
  -1  -1  13    5.21    1.44
  -1  -1  13    5.10    1.13
   1   2 -13   15.97    2.18
  -1  -2  13   16.69    2.04
  -1  -2  13   19.83    2.25
   1   3 -13   10.14    1.81
   1   3 -13   12.51    2.10
  -1  -3  13   12.99    2.01
  -1  -3  13   11.45    1.80
   0   3  13   18.81    2.15
   0   3  13   22.92    2.57
   0   2  13    4.19    1.44
   0   2  13    2.41    1.16
   0   2  13    1.53    1.05
   0   1  13   13.61    1.98
   0   1  13    8.13    1.40
   0   1  13   10.65    1.64
   0   0  13    6.05    1.37
   0   0  13    7.20    1.62
   0   0  13    6.44    1.23
   0   1 -13   12.01    1.85
   0  -1  13   13.40    1.91
   0  -1  13   10.72    1.68
   0  -1  13    8.83    1.37
   0   2 -13    2.29    1.27
   0  -2  13    3.05    1.41
   0  -2  13    3.03    1.24
   0   3 -13   21.05    2.48
   0   3 -13   23.29    2.61
   0  -3  13   19.34    2.31
   0  -3  13   18.32    2.45
   1   2  13    0.80    1.04
   1   2  13    3.12    1.23
   1   2  13    1.48    1.33
   1   1  13    3.96    1.33
   1   1  13    4.55    1.21
   1   1  13    5.27    1.59
  -1   0 -13    2.15    1.36
   1   0  13    0.19    0.94
   1   0  13    0.10    1.21
   1   0  13   -0.21    1.01
  -1   1 -13    7.76    1.65
   1  -1  13    6.50    1.69
   1  -1  13    4.99    1.35
  -1   2 -13    3.11    1.39
   1  -2  13    4.00    1.44
   1  -2  13    3.25    1.29
  -6   0  14    1.52    1.06
  -6   0  14    1.80    1.05
  -6   0  14    1.14    1.07
  -5   1  14    5.69    1.33
  -5   1  14    7.54    1.47
  -5   1  14    7.55    1.46
  -5   0  14    3.90    1.16
  -5   0  14    5.03    1.29
  -5   0  14    5.34    1.35
  -5  -1  14    6.19    1.49
  -5  -1  14    8.06    1.36
  -5  -1  14    7.07    1.47
  -4   2  14    8.32    1.62
  -4   2  14   11.58    1.63
  -4   1  14    4.88    1.35
  -4   1  14    3.40    1.22
  -4   1  14    2.88    1.19
  -4   0  14   -0.62    0.98
  -4   0  14    0.73    0.96
  -4   0  14   -0.43    0.98
  -4  -1  14    3.39    1.13
  -4  -1  14    5.14    1.36
  -4  -1  14    2.65    1.23
  -4  -2  14   10.63    1.75
  -4  -2  14   11.78    1.53
  -3   2  14    8.56    1.51
  -3   2  14    6.50    1.45
  -3   1  14    8.59    1.54
  -3   1  14    6.84    1.39
  -3   1  14    4.67    1.24
  -3   0  14    2.16    1.08
  -3   0  14    1.56    1.11
  -3   0  14    1.06    1.08
  -3  -1  14    7.38    1.54
  -3  -1  14    5.83    1.27
  -3  -1  14    6.44    1.43
  -3  -2  14    9.39    1.71
  -2   1  14    3.26    1.19
  -2   1  14    2.55    1.23
  -2   1  14    4.49    1.36
  -2   0  14    7.97    1.35
  -2   0  14    6.51    1.51
  -2   0  14   10.00    1.77
  -2  -1  14    2.99    1.08
  -2  -1  14    1.29    1.19
  -2  -1  14    1.92    1.19
  -1   0  14    0.72    0.98
  -1   0  14    0.03    1.05
   0   0   0    0.00    0.00
;
_shelx_hkl_checksum              62790
loop_
_space_group_symop_operation_xyz
'x, y, z'
'-x, y+1/2, -z'
loop_
_atom_site_label
_atom_site_type_symbol
_atom_site_fract_x
_atom_site_fract_y
_atom_site_fract_z
_atom_site_U_iso_or_equiv
_atom_site_adp_type
_atom_site_occupancy
_atom_site_site_symmetry_order
_atom_site_calc_flag
_atom_site_refinement_flags_posn
_atom_site_refinement_flags_adp
Br1 Br 0.72502(6) 0.16104(9) 0.30913(6) 0.02719(16) Uani 1 1 d . .
Br2 Br 0.59483(8) 0.33344(9) 0.66664(6) 0.0396(2) Uani 1 1 d . .
Cl1 Cl 0.73926(17) 0.7212(2) 0.13853(13) 0.0301(3) Uani 1 1 d . .
Cl2 Cl 0.83361(16) 0.8385(2) 0.62188(12) 0.0291(3) Uani 1 1 d . .
O1 O 0.8889(4) 0.3927(6) 0.0677(4) 0.0246(9) Uani 1 1 d . .
H1O H 0.9061 0.4699 0.0154 0.037 Uiso 1 1 calc R U
O2 O 0.9099(4) 0.6273(6) 0.8815(3) 0.0249(9) Uani 1 1 d . .
H2O H 0.9665 0.7179 0.8975 0.037 Uiso 1 1 calc R U
C1 C 0.7392(6) 0.3794(9) 0.0474(5) 0.0263(12) Uani 1 1 d . .
H1A H 0.7124 0.2477 0.0485 0.032 Uiso 1 1 calc R U
H1B H 0.6890 0.4294 -0.0401 0.032 Uiso 1 1 calc R U
C2 C 0.6876(6) 0.4826(8) 0.1500(5) 0.0213(11) Uani 1 1 d . .
C3 C 0.7646(6) 0.4246(8) 0.2875(5) 0.0192(10) Uani 1 1 d . .
H3 H 0.8710 0.4382 0.3001 0.023 Uiso 1 1 calc R U
C4 C 0.7276(6) 0.5284(8) 0.3978(5) 0.0208(11) Uani 1 1 d . .
H4A H 0.7270 0.6624 0.3803 0.025 Uiso 1 1 calc R U
H4B H 0.6294 0.4927 0.4003 0.025 Uiso 1 1 calc R U
C5 C 0.8345(5) 0.4884(9) 0.5291(5) 0.0206(11) Uani 1 1 d . .
H5A H 0.9329 0.5184 0.5238 0.025 Uiso 1 1 calc R U
H5B H 0.8321 0.3546 0.5466 0.025 Uiso 1 1 calc R U
C6 C 0.8088(6) 0.5933(8) 0.6452(5) 0.0191(10) Uani 1 1 d . .
C7 C 0.9230(6) 0.5350(8) 0.7693(5) 0.0214(11) Uani 1 1 d . .
H7A H 0.9151 0.4006 0.7816 0.026 Uiso 1 1 calc R U
H7B H 1.0201 0.5599 0.7589 0.026 Uiso 1 1 calc R U
C8 C 0.5230(6) 0.4750(11) 0.1157(6) 0.0337(15) Uani 1 1 d . .
H8A H 0.4812 0.5065 0.0233 0.051 Uiso 1 1 calc R U
H8B H 0.4892 0.5632 0.1701 0.051 Uiso 1 1 calc R U
H8C H 0.4927 0.3503 0.1317 0.051 Uiso 1 1 calc R U
C9 C 0.6576(6) 0.5859(9) 0.6565(5) 0.0257(12) Uani 1 1 d . .
H9A H 0.5912 0.6472 0.5797 0.031 Uiso 1 1 calc R U
H9B H 0.6532 0.6538 0.7358 0.031 Uiso 1 1 calc R U
loop_
_atom_site_aniso_label
_atom_site_aniso_U_11
_atom_site_aniso_U_22
_atom_site_aniso_U_33
_atom_site_aniso_U_23
_atom_site_aniso_U_13
_atom_site_aniso_U_12
Br1 0.0350(3) 0.0206(3) 0.0315(3) 0.0011(2) 0.0183(2) -0.0003(2)
Br2 0.0467(4) 0.0477(4) 0.0252(3) -0.0035(3) 0.0114(2) -0.0269(3)
Cl1 0.0465(9) 0.0202(7) 0.0207(6) 0.0023(5) 0.0049(6) 0.0041(6)
Cl2 0.0380(8) 0.0262(7) 0.0211(6) 0.0022(5) 0.0050(5) -0.0074(6)
O1 0.035(2) 0.024(2) 0.0181(18) 0.0056(16) 0.0138(16) 0.0089(17)
O2 0.033(2) 0.031(3) 0.0104(15) -0.0010(15) 0.0049(14) -0.0091(17)
C1 0.035(3) 0.030(3) 0.014(2) -0.006(2) 0.008(2) -0.003(2)
C2 0.027(3) 0.022(3) 0.013(2) 0.001(2) 0.003(2) 0.001(2)
C3 0.022(3) 0.019(3) 0.017(2) 0.0011(19) 0.0063(19) -0.001(2)
C4 0.020(3) 0.028(3) 0.013(2) 0.000(2) 0.0026(18) 0.007(2)
C5 0.017(2) 0.031(3) 0.016(2) 0.000(2) 0.0065(19) 0.006(2)
C6 0.019(3) 0.024(3) 0.016(2) -0.0004(19) 0.0068(19) -0.002(2)
C7 0.025(3) 0.021(3) 0.016(2) 0.002(2) 0.0037(19) -0.001(2)
C8 0.024(3) 0.046(4) 0.025(3) -0.010(3) -0.003(2) 0.006(3)
C9 0.029(3) 0.038(3) 0.012(2) -0.002(2) 0.007(2) -0.002(2)
loop_
_atom_type_symbol
_atom_type_description
_atom_type_scat_dispersion_real
_atom_type_scat_dispersion_imag
_atom_type_scat_source
C C 0.0033 0.0016 'International Tables Vol C Tables 4.2.6.8 and 6.1.1.4'
H H 0.0000 0.0000 'International Tables Vol C Tables 4.2.6.8 and 6.1.1.4'
O O 0.0106 0.0060 'International Tables Vol C Tables 4.2.6.8 and 6.1.1.4'
Cl Cl 0.1484 0.1585 'International Tables Vol C Tables 4.2.6.8 and 6.1.1.4'
Br Br -0.2901 2.4595 'International Tables Vol C Tables 4.2.6.8 and 6.1.1.4'
loop_
_geom_angle_atom_site_label_1
_geom_angle_atom_site_label_2
_geom_angle_atom_site_label_3
_geom_angle
O1 C1 C2 112.9(4)
C3 C2 C1 113.1(5)
C3 C2 C8 114.5(5)
C1 C2 C8 109.9(4)
C3 C2 Cl1 105.3(4)
C1 C2 Cl1 105.5(4)
C8 C2 Cl1 107.8(4)
C2 C3 C4 117.2(5)
C2 C3 Br1 109.0(4)
C4 C3 Br1 107.0(4)
C5 C4 C3 111.9(4)
C4 C5 C6 115.4(4)
C9 C6 C7 113.6(4)
C9 C6 C5 115.7(4)
C7 C6 C5 108.7(4)
C9 C6 Cl2 102.4(4)
C7 C6 Cl2 107.4(4)
C5 C6 Cl2 108.4(4)
O2 C7 C6 112.9(5)
C6 C9 Br2 111.4(4)
C1 O1 H1O 109.5
C7 O2 H2O 109.5
O1 C1 H1A 109.0
C2 C1 H1A 109.0
O1 C1 H1B 109.0
C2 C1 H1B 109.0
H1A C1 H1B 107.8
C2 C3 H3 107.8
C4 C3 H3 107.8
Br1 C3 H3 107.8
C5 C4 H4A 109.2
C3 C4 H4A 109.2
C5 C4 H4B 109.2
C3 C4 H4B 109.2
H4A C4 H4B 107.9
C4 C5 H5A 108.4
C6 C5 H5A 108.4
C4 C5 H5B 108.4
C6 C5 H5B 108.4
H5A C5 H5B 107.5
O2 C7 H7A 109.0
C6 C7 H7A 109.0
O2 C7 H7B 109.0
C6 C7 H7B 109.0
H7A C7 H7B 107.8
C2 C8 H8A 109.5
C2 C8 H8B 109.5
H8A C8 H8B 109.5
C2 C8 H8C 109.5
H8A C8 H8C 109.5
H8B C8 H8C 109.5
C6 C9 H9A 109.4
Br2 C9 H9A 109.4
C6 C9 H9B 109.4
Br2 C9 H9B 109.4
H9A C9 H9B 108.0
loop_
_geom_bond_atom_site_label_1
_geom_bond_atom_site_label_2
_geom_bond_distance
Br1 C3 1.976(6)
Br2 C9 1.942(7)
Cl1 C2 1.815(6)
Cl2 C6 1.821(6)
O1 C1 1.400(7)
O2 C7 1.409(6)
C1 C2 1.523(8)
C2 C3 1.503(7)
C2 C8 1.525(8)
C3 C4 1.522(7)
C4 C5 1.511(6)
C5 C6 1.533(7)
C6 C9 1.497(8)
C6 C7 1.520(7)
O1 H1O 0.8400
O2 H2O 0.8400
C1 H1A 0.9900
C1 H1B 0.9900
C3 H3 1.0000
C4 H4A 0.9900
C4 H4B 0.9900
C5 H5A 0.9900
C5 H5B 0.9900
C7 H7A 0.9900
C7 H7B 0.9900
C8 H8A 0.9800
C8 H8B 0.9800
C8 H8C 0.9800
C9 H9A 0.9900
C9 H9B 0.9900
loop_
_geom_hbond_atom_site_label_D
_geom_hbond_atom_site_label_H
_geom_hbond_atom_site_label_A
_geom_hbond_distance_DH
_geom_hbond_distance_HA
_geom_hbond_distance_DA
_geom_hbond_angle_DHA
_geom_hbond_site_symmetry_A
O1 H1O O2 0.84 1.84 2.667(6) 169.3 1_554
O2 H2O O1 0.84 1.84 2.676(6) 171.8 2_756
loop_
_geom_torsion_atom_site_label_1
_geom_torsion_atom_site_label_2
_geom_torsion_atom_site_label_3
_geom_torsion_atom_site_label_4
_geom_torsion
O1 C1 C2 C3 -55.1(7)
O1 C1 C2 C8 175.5(5)
O1 C1 C2 Cl1 59.5(5)
C1 C2 C3 C4 176.2(5)
C8 C2 C3 C4 -56.8(7)
Cl1 C2 C3 C4 61.4(6)
C1 C2 C3 Br1 -62.1(5)
C8 C2 C3 Br1 64.9(6)
Cl1 C2 C3 Br1 -176.9(3)
C2 C3 C4 C5 -167.0(5)
Br1 C3 C4 C5 70.3(5)
C3 C4 C5 C6 177.7(5)
C4 C5 C6 C9 49.7(7)
C4 C5 C6 C7 178.9(5)
C4 C5 C6 Cl2 -64.6(5)
C9 C6 C7 O2 -50.8(6)
C5 C6 C7 O2 178.8(5)
Cl2 C6 C7 O2 61.7(5)
C7 C6 C9 Br2 -69.7(5)
C5 C6 C9 Br2 57.1(5)
Cl2 C6 C9 Br2 174.8(2)
