#------------------------------------------------------------------------------
#$Date: 2019-11-25 07:59:13 +0200 (Mon, 25 Nov 2019) $
#$Revision: 240430 $
#$URL: file:///home/coder/svn-repositories/cod/cif/4/12/97/4129773.cif $
#------------------------------------------------------------------------------
#
# This file is available in the Crystallography Open Database (COD),
# http://www.crystallography.net/
#
# All data on this site have been placed in the public domain by the
# contributors.
#
data_4129773
loop_
_publ_author_name
'Rovira, Alexander R.'
'Fin, Andrea'
'Tor, Yitzhak'
_publ_section_title
;
 Chemical Mutagenesis of an Emissive RNA Alphabet.
;
_journal_issue                   46
_journal_name_full               'Journal of the American Chemical Society'
_journal_page_first              14602
_journal_page_last               14605
_journal_paper_doi               10.1021/jacs.5b10420
_journal_volume                  137
_journal_year                    2015
_chemical_absolute_configuration ad
_chemical_formula_moiety         'C10 H12 N4 O5 S, 0.5(H2 O)'
_chemical_formula_sum            'C10 H13 N4 O5.5 S'
_chemical_formula_weight         309.30
_space_group_crystal_system      triclinic
_space_group_IT_number           1
_space_group_name_Hall           'P 1'
_space_group_name_H-M_alt        'P 1'
_atom_sites_solution_hydrogens   mixed
_atom_sites_solution_primary     direct
_atom_sites_solution_secondary   difmap
_audit_creation_date             2015-06-01
_audit_creation_method
;
Olex2 1.2-beta
(compiled 2015.01.26 svn.r3150 for OlexSys, GUI svn.r4998)
;
_cell_angle_alpha                81.369(7)
_cell_angle_beta                 82.830(6)
_cell_angle_gamma                72.019(7)
_cell_formula_units_Z            2
_cell_length_a                   4.8777(4)
_cell_length_b                   7.7049(8)
_cell_length_c                   17.0972(15)
_cell_measurement_reflns_used    4979
_cell_measurement_temperature    100
_cell_measurement_theta_max      67.719
_cell_measurement_theta_min      2.623
_cell_volume                     602.14(10)
_computing_cell_refinement       'SAINT v8.34A (Bruker, 2013)'
_computing_data_collection       'APEX2 v2014.9-0 (Bruker, 2014)'
_computing_data_reduction        'SAINT v8.34A (Bruker, 2013)'
_computing_molecular_graphics    'Olex2 (Dolomanov et al., 2009)'
_computing_publication_material  'Olex2 (Dolomanov et al., 2009)'
_computing_structure_refinement  'XL (Sheldrick, 2008)'
_computing_structure_solution    'ShelXT (Sheldrick, 2008)'
_diffrn_ambient_temperature      100.0
_diffrn_detector                 'Bruker APEX-II CCD'
_diffrn_detector_area_resol_mean 7.9
_diffrn_detector_type            'CCD Area Detector'
_diffrn_measured_fraction_theta_full 0.956
_diffrn_measured_fraction_theta_max 0.950
_diffrn_measurement_device       'Kappa Four-Circle Diffractometer'
_diffrn_measurement_device_type  'Bruker X8 APEX II'
_diffrn_measurement_method       '\w and \f scans'
_diffrn_radiation_monochromator  'Double Bounce Multilayer Mirrors'
_diffrn_radiation_probe          x-ray
_diffrn_radiation_type           CuK\a
_diffrn_radiation_wavelength     1.54178
_diffrn_reflns_av_R_equivalents  0.0510
_diffrn_reflns_av_unetI/netI     0.0691
_diffrn_reflns_Laue_measured_fraction_full 0.956
_diffrn_reflns_Laue_measured_fraction_max 0.950
_diffrn_reflns_limit_h_max       5
_diffrn_reflns_limit_h_min       -5
_diffrn_reflns_limit_k_max       9
_diffrn_reflns_limit_k_min       -9
_diffrn_reflns_limit_l_max       20
_diffrn_reflns_limit_l_min       -20
_diffrn_reflns_number            8102
_diffrn_reflns_point_group_measured_fraction_full 0.801
_diffrn_reflns_point_group_measured_fraction_max 0.795
_diffrn_reflns_theta_full        68.000
_diffrn_reflns_theta_max         68.318
_diffrn_reflns_theta_min         2.623
_diffrn_source                   'Micro Focus Rotating Anode'
_diffrn_source_type              'Bruker FR-591'
_diffrn_standards_number         0
_exptl_absorpt_coefficient_mu    2.737
_exptl_absorpt_correction_T_max  0.3201
_exptl_absorpt_correction_T_min  0.1936
_exptl_absorpt_correction_type   multi-scan
_exptl_absorpt_process_details
;
SADABS-2014/4 (Bruker,2014/4) was used for absorption correction.
wR2(int) was 0.1099 before and 0.0732 after correction.
The Ratio of minimum to maximum transmission is 0.6048.
The \l/2 correction factor is 0.00150.
;
_exptl_crystal_colour            'Light Yellow'
_exptl_crystal_colour_modifier   light
_exptl_crystal_colour_primary    yellow
_exptl_crystal_density_diffrn    1.706
_exptl_crystal_description       Needle
_exptl_crystal_F_000             322
_exptl_crystal_size_max          0.131
_exptl_crystal_size_mid          0.023
_exptl_crystal_size_min          0.014
_refine_diff_density_max         0.634
_refine_diff_density_min         -0.378
_refine_diff_density_rms         0.073
_refine_ls_abs_structure_details
;
 Flack x determined using 1152 quotients [(I+)-(I-)]/[(I+)+(I-)]
 (Parsons, Flack and Wagner, Acta Cryst. B69 (2013) 249-259).
;
_refine_ls_abs_structure_Flack   0.073(18)
_refine_ls_extinction_method     none
_refine_ls_goodness_of_fit_ref   1.034
_refine_ls_hydrogen_treatment    mixed
_refine_ls_matrix_type           full
_refine_ls_number_parameters     403
_refine_ls_number_reflns         3512
_refine_ls_number_restraints     27
_refine_ls_restrained_S_all      1.031
_refine_ls_R_factor_all          0.0514
_refine_ls_R_factor_gt           0.0458
_refine_ls_shift/su_max          0.000
_refine_ls_shift/su_mean         0.000
_refine_ls_structure_factor_coef Fsqd
_refine_ls_weighting_details
'w=1/[\s^2^(Fo^2^)+(0.0844P)^2^] where P=(Fo^2^+2Fc^2^)/3'
_refine_ls_weighting_scheme      calc
_refine_ls_wR_factor_gt          0.1167
_refine_ls_wR_factor_ref         0.1202
_reflns_Friedel_coverage         0.675
_reflns_Friedel_fraction_full    0.646
_reflns_Friedel_fraction_max     0.641
_reflns_number_gt                3222
_reflns_number_total             3512
_reflns_threshold_expression     'I > 2\s(I)'
_cod_data_source_file            ja5b10420_si_002.cif
_cod_data_source_block           Tor106
_cod_depositor_comments
;
The following automatic conversions were performed:

data item '_diffrn_radiation_probe' value 'X-ray' was changed to
'x-ray' in accordance with the
/home/saulius/struct/COD-crude-data/automatic-downloads/DataCite-retrospective/ACS/depositions/lib/dictionaries/cif_core.dic
dictionary named 'cif_core.dic' version 2.4.2 last updated on
2011-04-26.

data item '_exptl_crystal_colour_modifier' value 'Light' was changed
to 'light' in accordance with the
/home/saulius/struct/COD-crude-data/automatic-downloads/DataCite-retrospective/ACS/depositions/lib/dictionaries/cif_core.dic
dictionary named 'cif_core.dic' version 2.4.2 last updated on
2011-04-26.

data item '_exptl_crystal_colour_primary' value 'Yellow' was changed
to 'yellow' in accordance with the
/home/saulius/struct/COD-crude-data/automatic-downloads/DataCite-retrospective/ACS/depositions/lib/dictionaries/cif_core.dic
dictionary named 'cif_core.dic' version 2.4.2 last updated on
2011-04-26.

Automatic conversion script
Id: cif_fix_values 6909 2019-04-08 15:41:33Z antanas 
;
_cod_original_formula_sum        'C10 H13 N4 O5.50 S'
_cod_database_code               4129773
_shelx_space_group_comment
;
The symmetry employed for this shelxl refinement is uniquely defined
by the following loop, which should always be used as a source of
symmetry information in preference to the above space-group names.
They are only intended as comments.
;
_shelx_estimated_absorpt_t_max   0.963
_shelx_estimated_absorpt_t_min   0.716
_olex2_refinement_description
;
1. Fixed Uiso
 At 1.2 times of:
  All C(H) groups, All C(H,H) groups, All N(H) groups, All N(H,H) groups
 At 1.5 times of:
  All O(H) groups, All O(H,H) groups
2. Restrained distances
 O1SB-H1SB = O1S-H1S = O1S-H1SA
 0.95 with sigma of 0.02
 H1S-H1SA
 1.45 with sigma of 0.02
 O1SB-H1S
 0.95 with sigma of 0.02
 H1S-H1SB
 1.45 with sigma of 0.02
3. Uiso/Uaniso restraints and constraints
Uanis(C1B) = Uanis(C1')
Uanis(O1SB) = Uanis(O1S)
4. Rigid body (RIGU) restrains
 O1', O1B, C2', C1', C1B
 with sigma for 1-2 distances of 0.002 and sigma for 1-3 distances of 0.002
5. Others
 Sof(O1B)=Sof(H1B)=Sof(H2'A)=Sof(C1B)=Sof(H1BA)=Sof(H1BB)=1-FVAR(1)
 Sof(O1')=Sof(H1')=Sof(H2')=Sof(C1')=Sof(H1'A)=Sof(H1'B)=FVAR(1)
 Sof(O1SB)=Sof(H1SB)=1-FVAR(2)
 Sof(O1S)=Sof(H1SA)=FVAR(2)
6.a Ternary CH refined with riding coordinates:
 C2(H2), C3(H3B), C4(H4C), C5(H5), C2'(H2'A), C2'(H2'), C3'(H3'B), C4'(H4'C),
 C5'(H5')
6.b Secondary CH2 refined with riding coordinates:
 C1(H1A,H1C), C1'(H1'A,H1'B), C1B(H1BA,H1BB)
6.c Aromatic/amide H refined with riding coordinates:
 N3(H3A), N3'(H3'A)
6.d X=CH2 refined with riding coordinates:
 N4(H4A,H4B), N4'(H4'A,H4'B)
6.e Idealised tetrahedral OH refined as rotating group:
 O1(H1), O3(H3), O4(H4), O3'(H3'), O4'(H4'), O1'(H1'), O1B(H1B)
;
_shelx_res_file
;
    tor106.res created by SHELXL-2014/7

TITL Tor106 in P1 #1
REM SHELXT solution in P1
REM R1 0.096, Rweak 0.039, Alpha 0.000, Orientation as input
REM Flack x = 0.108 ( 0.017 ) from Parsons' quotients
REM Formula found by SHELXT: C21 N7 O11 S2
CELL 1.54178 4.8777 7.7049 17.0972 81.369 82.83 72.019
ZERR 2 0.0004 0.0008 0.0015 0.007 0.006 0.007
LATT -1
SFAC C H N O S
UNIT 20 26 8 11 2
EQIV $1 1+X,-1+Y,+Z
EQIV $2 -1+X,+Y,+Z
EQIV $3 -2+X,+Y,1+Z
EQIV $4 1+X,-1+Y,-1+Z
EQIV $5 +X,1+Y,+Z
EQIV $6 -1+X,-1+Y,+Z
DFIX 0.95 O1SB H1SB O1S H1S O1S H1Sa
DFIX 1.45 H1S H1Sa
DFIX 0.95 O1SB H1S
DFIX 1.45 H1S H1SB
RIGU 0.002 0.002 O1' O1B C2' C1' C1B
EADP C1B C1'
EADP O1SB O1S

L.S. 10
PLAN  50
SIZE 0.131 0.023 0.014
TEMP -173.15
HTAB O3' O3
HTAB O4' O1_$1
HTAB O1 O1S_$2
HTAB O1 O1SB_$2
HTAB O4 N2
HTAB N3 N1'_$3
HTAB N4' O5_$4
HTAB N3' N1_$4
HTAB O1' N2'_$5
HTAB N4 O5'_$3
HTAB N4 O1SB_$6
HTAB O1S O4_$5
HTAB O1SB O4_$5
BOND $H
ACTA 136
fmap 2 53
REM <olex2.extras>
REM <HklSrc "%.\\Tor106.hkl">
REM </olex2.extras>

WGHT    0.084400
FVAR       1.63160   0.55902   0.59695
S1    5   -0.314919   -0.161800    0.842880    11.00000    0.01736    0.02810 =
         0.02661   -0.00272    0.00223   -0.00754
O1    4   -0.557094    0.036691    0.551706    11.00000    0.02339    0.03556 =
         0.03517   -0.00120    0.00548   -0.00765
AFIX 147
H1    2   -0.614011    0.039905    0.600054    11.00000   -1.50000
AFIX   0
O2    4   -0.157634   -0.187755    0.669962    11.00000    0.02766    0.03165 =
         0.02637   -0.00235    0.00182   -0.01244
O3    4   -0.036617   -0.500117    0.543253    11.00000    0.02025    0.03496 =
         0.03276   -0.00951    0.00485   -0.00930
AFIX 147
H3    2   -0.050018   -0.500581    0.494782    11.00000   -1.50000
AFIX   0
O4    4   -0.398036   -0.581349    0.661895    11.00000    0.03188    0.03813 =
         0.03175   -0.00577    0.00675   -0.01831
AFIX 147
H4    2   -0.439904   -0.614137    0.709848    11.00000   -1.50000
AFIX   0
O5    4   -0.894954   -0.374428    1.034480    11.00000    0.01951    0.03029 =
         0.02665   -0.00232    0.00244   -0.00839
N1    3   -0.514960   -0.211508    0.923231    11.00000    0.01933    0.02595 =
         0.02820   -0.00061    0.00082   -0.00460
N2    3   -0.612518   -0.557838    0.815481    11.00000    0.01547    0.02720 =
         0.02871   -0.00446    0.00326   -0.00711
N3    3   -0.872661   -0.563497    0.942626    11.00000    0.01524    0.02773 =
         0.02606   -0.00176    0.00198   -0.00817
AFIX  43
H3A   2   -0.983075   -0.618253    0.975290    11.00000   -1.20000
AFIX   0
N4    3   -0.885257   -0.757812    0.853870    11.00000    0.02075    0.02556 =
         0.02858   -0.00468    0.00332   -0.00765
AFIX  93
H4A   2   -0.838001   -0.800707    0.807590    11.00000   -1.20000
H4B   2   -0.999216   -0.802265    0.889894    11.00000   -1.20000
AFIX   0
C1    1   -0.249891   -0.012049    0.542550    11.00000    0.02315    0.03335 =
         0.03224    0.00288    0.00311   -0.01064
AFIX  23
H1A   2   -0.184923    0.080060    0.563745    11.00000   -1.20000
H1C   2   -0.183409   -0.011268    0.485405    11.00000   -1.20000
AFIX   0
C2    1   -0.116732   -0.199759    0.585494    11.00000    0.01653    0.03060 =
         0.02792   -0.00197    0.00105   -0.00582
AFIX  13
H2    2    0.095051   -0.241142    0.568886    11.00000   -1.20000
AFIX   0
C3    1   -0.253361   -0.344699    0.571394    11.00000    0.01423    0.03279 =
         0.02710   -0.00270    0.00027   -0.00558
AFIX  13
H3B   2   -0.403586   -0.291281    0.532576    11.00000   -1.20000
AFIX   0
C4    1   -0.393195   -0.397633    0.652827    11.00000    0.01425    0.03012 =
         0.03173   -0.00269    0.00259   -0.00755
AFIX  13
H4C   2   -0.595829   -0.314921    0.659206    11.00000   -1.20000
AFIX   0
C5    1   -0.208334   -0.353860    0.709434    11.00000    0.01742    0.02415 =
         0.02763   -0.00256    0.00137   -0.00361
AFIX  13
H5    2   -0.020462   -0.453687    0.713104    11.00000   -1.20000
AFIX   0
C6    1   -0.350741   -0.324569    0.790232    11.00000    0.01169    0.03084 =
         0.03074    0.00216   -0.00239   -0.00542
C7    1   -0.526680   -0.418337    0.837560    11.00000    0.00792    0.02579 =
         0.02444    0.00232   -0.00049   -0.00559
C8    1   -0.610438   -0.347162    0.911002    11.00000    0.01103    0.02461 =
         0.02620    0.00251    0.00103   -0.00428
C9    1   -0.803609   -0.423498    0.969217    11.00000    0.01605    0.03122 =
         0.02287    0.00202   -0.00107   -0.00902
C10   1   -0.784341   -0.625663    0.869388    11.00000    0.00895    0.02689 =
         0.02782   -0.00133    0.00137   -0.00129

S1'   5    0.664508   -0.535382    0.151859    11.00000    0.01747    0.02744 =
         0.02648   -0.00463    0.00188   -0.00595
O2'   4    0.211508   -0.409384    0.283279    11.00000    0.04375    0.02963 =
         0.02751   -0.00125   -0.00129    0.00709
O3'   4    0.524167   -0.565676    0.471317    11.00000    0.01945    0.03105 =
         0.02823   -0.00576    0.00147   -0.00679
AFIX 147
H3'   2    0.378716   -0.495837    0.494310    11.00000   -1.50000
AFIX   0
O4'   4    0.213414   -0.756753    0.413659    11.00000    0.02147    0.03429 =
         0.02686   -0.00018    0.00174   -0.01083
AFIX 147
H4'   2    0.294307   -0.818914    0.453679    11.00000   -1.50000
AFIX   0
O5'   4    0.742864   -0.905878   -0.034918    11.00000    0.02215    0.03063 =
         0.02866   -0.00488    0.00510   -0.00966
PART 1
O1'   4    0.021131   -0.057368    0.322787    21.00000    0.02461    0.02947 =
         0.03359    0.00236    0.00361   -0.00415
AFIX 147
H1'   2    0.068765    0.018478    0.287314    21.00000   -1.50000
AFIX   0
PART 0
PART 2
O1B   4    0.144369   -0.033466    0.338364   -21.00000    0.02700    0.02666 =
         0.02984    0.00048    0.00264   -0.00504
AFIX 147
H1B   2    0.081611   -0.035939    0.295099   -21.00000   -1.50000
AFIX   0
PART 0
N1'   3    0.742446   -0.653096    0.074757    11.00000    0.01958    0.02875 =
         0.02403    0.00050    0.00099   -0.00435
N2'   3    0.271889   -0.910145    0.182712    11.00000    0.01528    0.02411 =
         0.02822   -0.00152    0.00216   -0.00494
N3'   3    0.423023   -1.006405    0.054022    11.00000    0.02156    0.02174 =
         0.02678   -0.00240    0.00202   -0.00806
AFIX  43
H3'A  2    0.402961   -1.076318    0.020195    11.00000   -1.20000
AFIX   0
N4'   3    0.111183   -1.129670    0.140811    11.00000    0.02207    0.02735 =
         0.02729   -0.00220    0.00399   -0.01014
AFIX  93
H4'A  2    0.005410   -1.138315    0.186025    11.00000   -1.20000
H4'B  2    0.112286   -1.197839    0.103762    11.00000   -1.20000
AFIX   0
C2'   1    0.245793   -0.373829    0.360511    11.00000    0.03015    0.02890 =
         0.02544   -0.00079    0.00366   -0.00202
PART 2
AFIX  13
H2'A  2    0.064098   -0.359697    0.396483   -21.00000   -1.20000
AFIX  13
PART 0
PART 1
H2'   2    0.065450   -0.375304    0.395225    21.00000   -1.20000
AFIX   0
PART 0
C3'   1    0.493422   -0.541381    0.390053    11.00000    0.01598    0.02727 =
         0.02965    0.00046    0.00500   -0.00694
AFIX  13
H3'B  2    0.678893   -0.528636    0.361226    11.00000   -1.20000
AFIX   0
C4'   1    0.421312   -0.698098    0.358772    11.00000    0.01593    0.02644 =
         0.02480   -0.00083    0.00301   -0.00381
AFIX  13
H4'C  2    0.598666   -0.802211    0.348285    11.00000   -1.20000
AFIX   0
C5'   1    0.276524   -0.603605    0.281420    11.00000    0.01686    0.03343 =
         0.02727   -0.00564    0.00301   -0.00289
AFIX  13
H5'   2    0.089633   -0.632769    0.283179    11.00000   -1.20000
AFIX   0
C6'   1    0.447752   -0.654263    0.204408    11.00000    0.01439    0.02914 =
         0.02688    0.00005   -0.00299   -0.00307
C7'   1    0.430978   -0.784681    0.161110    11.00000    0.01164    0.02671 =
         0.02252   -0.00091   -0.00207   -0.00349
C8'   1    0.599613   -0.778748    0.088569    11.00000    0.01183    0.02607 =
         0.02655    0.00103   -0.00047   -0.00377
C9'   1    0.603006   -0.897919    0.030045    11.00000    0.01238    0.02464 =
         0.02893   -0.00067    0.00058   -0.00371
C10'  1    0.271015   -1.012373    0.128343    11.00000    0.01371    0.02308 =
         0.02743    0.00338   -0.00186   -0.00099
PART 1
C1'   1    0.272665   -0.188176    0.351435    21.00000    0.02838    0.02891 =
         0.03169   -0.00149    0.00204   -0.00282
AFIX  23
H1'A  2    0.304994   -0.158956    0.403347    21.00000   -1.20000
H1'B  2    0.442192   -0.181760    0.313966    21.00000   -1.20000
AFIX   0
PART 0
PART 2
C1B   1    0.372604   -0.199512    0.356257   -21.00000    0.02838    0.02891 =
         0.03169   -0.00149    0.00204   -0.00282
AFIX  23
H1BA  2    0.445141   -0.198790    0.407729   -21.00000   -1.20000
H1BB  2    0.535093   -0.209118    0.314576   -21.00000   -1.20000
AFIX   0

PART 0
PART 1
O1S   4    0.098758    0.117202    0.693040    31.00000    0.03204    0.03640 =
         0.04403   -0.00533    0.00509   -0.01252
PART 0
H1S   2   -0.034169    0.230441    0.680483    11.00000   -1.50000
PART 1
H1SA  2   -0.010270    0.034674    0.695826    31.00000   -1.50000
PART 0
PART 2
O1SB  4    0.151800    0.157839    0.697967   -31.00000    0.03204    0.03640 =
         0.04403   -0.00533    0.00509   -0.01252
H1SB  2    0.255864    0.243507    0.680485   -31.00000   -1.50000
HKLF 4

REM  Tor106 in P1 #1
REM R1 =  0.0458 for    3222 Fo > 4sig(Fo)  and  0.0514 for all    3512 data
REM    403 parameters refined using     27 restraints

END

WGHT      0.0844      0.0000

REM Highest difference peak  0.634,  deepest hole -0.378,  1-sigma level  0.073
Q1    1   0.6431 -0.5240  0.0982  11.00000  0.05    0.63
Q2    1  -0.3189 -0.1765  0.9006  11.00000  0.05    0.45
Q3    1   0.6025 -0.4041  0.1429  11.00000  0.05    0.41
Q4    1  -0.3250 -0.1369  0.7844  11.00000  0.05    0.36
Q5    1   0.7208 -0.6627  0.1731  11.00000  0.05    0.36
Q6    1  -0.5558 -0.4203  0.8933  11.00000  0.05    0.36
Q7    1   0.6718 -0.5695  0.2104  11.00000  0.05    0.36
Q8    1  -0.2738 -0.2782  0.8382  11.00000  0.05    0.34
Q9    1   0.6963 -0.6211  0.1195  11.00000  0.05    0.33
Q10   1  -0.3755 -0.0350  0.8192  11.00000  0.05    0.32
Q11   1   0.1101 -1.2000  0.1987  11.00000  0.05    0.31
Q12   1   0.4073 -0.6815  0.3050  11.00000  0.05    0.31
Q13   1   0.4378 -0.4929  0.1573  11.00000  0.05    0.29
Q14   1  -0.2064 -0.3681  0.7618  11.00000  0.05    0.29
Q15   1  -0.5156 -0.1118  0.8450  11.00000  0.05    0.28
Q16   1   0.6518 -0.4845  0.0118  11.00000  0.05    0.28
Q17   1   0.2138 -0.8809  0.1204  11.00000  0.05    0.28
Q18   1  -0.3155 -0.2208  0.8029  11.00000  0.05    0.28
Q19   1   0.3242 -0.4846  0.2872  11.00000  0.05    0.27
Q20   1  -0.8545 -0.5274  0.8806  11.00000  0.05    0.26
Q21   1  -0.7831 -0.6479  0.9252  11.00000  0.05    0.26
Q22   1  -0.1661 -0.0817  0.5843  11.00000  0.05    0.26
Q23   1   0.4440 -0.6668  0.2461  11.00000  0.05    0.25
Q24   1   0.2558 -0.9015  0.2349  11.00000  0.05    0.25
Q25   1  -0.5522 -0.1559  0.9372  11.00000  0.05    0.24
Q26   1   0.7705 -0.7691  0.0761  11.00000  0.05    0.23
Q27   1   0.2097 -0.3392  0.3029  11.00000  0.05    0.23
Q28   1  -0.3384 -0.4118  0.8240  11.00000  0.05    0.23
Q29   1  -0.6185 -0.3419  0.8555  11.00000  0.05    0.23
Q30   1  -0.2406 -0.4215  0.8196  11.00000  0.05    0.22
Q31   1   0.2385 -1.2373  0.1800  11.00000  0.05    0.22
Q32   1  -0.1409 -0.1843  0.6253  11.00000  0.05    0.22
Q33   1   0.5729 -0.6672  0.0761  11.00000  0.05    0.22
Q34   1  -0.3057 -0.3006  0.7410  11.00000  0.05    0.22
Q35   1   0.4449 -1.0399  0.1166  11.00000  0.05    0.21
Q36   1  -0.5303 -0.1726  0.9770  11.00000  0.05    0.21
Q37   1   0.3151 -1.0413  0.1912  11.00000  0.05    0.21
Q38   1   0.9367 -0.6398  0.1153  11.00000  0.05    0.21
Q39   1  -0.0692 -0.5038  0.5992  11.00000  0.05    0.21
Q40   1  -0.2384 -0.0589  0.6451  11.00000  0.05    0.21
Q41   1   0.7347 -0.6561  0.0237  11.00000  0.05    0.21
Q42   1   0.2526 -0.8661  0.4069  11.00000  0.05    0.21
Q43   1  -0.7985 -0.4404  1.0378  11.00000  0.05    0.21
Q44   1   0.7675 -0.8024  0.1254  11.00000  0.05    0.20
Q45   1   0.4476 -1.1962 -0.0029  11.00000  0.05    0.20
Q46   1   0.6315 -0.7996  0.1396  11.00000  0.05    0.20
Q47   1  -0.6543  0.0325  0.4932  11.00000  0.05    0.20
Q48   1   0.7511 -0.7939 -0.0222  11.00000  0.05    0.20
Q49   1   0.1293  0.0589  0.6668  11.00000  0.05    0.19
Q50   1  -1.0808 -0.3065  1.0028  11.00000  0.05    0.19
;
_shelx_res_checksum              21840
_shelx_hkl_file
;
  -1   0   0 5923.11  344.07
   1   0   0 4858.21  343.67
   1   0   0 5402.06  344.37
   1   0   0 5241.08  343.87
  -2   0   0 3199.98  213.58
   2   0   0 3235.78  212.48
   2   0   0 3192.28  214.78
   2   0   0 3485.05  215.68
  -3   0   0  558.34   56.99
   3   0   0  662.23   63.09
   3   0   0  668.53   56.99
  -4   0   0 1023.50   65.39
  -4   0   0 1074.29   65.59
  -4   0   0  993.80   66.39
   4   0   0  981.60   78.19
   4   0   0  951.50   86.69
  -5   0   0  426.96   26.50
  -5   0   0  362.76   27.00
  -5   0   0  384.96   26.60
   5   0   0  321.77   42.80
  -5   1   0  255.17   19.70
   4  -1   0   69.19   33.40
   4  -1   0   73.89   42.90
  -4   1   0   57.79   12.50
  -4   1   0   38.10   11.10
  -4   1   0   50.09    7.50
  -4   1   0   37.70    9.70
  -4   1   0   61.69    8.90
   3  -1   0  399.16   53.89
   3  -1   0  367.46   44.60
  -3   1   0  405.26   29.00
  -3   1   0  424.66   29.50
  -3   1   0  416.46   27.40
  -3   1   0  422.06   27.80
  -3   1   0  353.56   31.90
  -3   1   0  413.76   27.40
  -3   1   0  440.16   51.89
   2  -1   0  848.82   67.29
   2  -1   0  985.10   69.09
   2  -1   0  885.81   64.89
   1  -1   0 3509.85  227.48
  -1  -1   0  633.44   59.29
  -1  -1   0  684.13   51.99
  -1  -1   0  571.84   51.89
   1   1   0  710.93   52.99
   1   1   0  614.04   52.39
  -2  -1   0  808.92   62.19
   2   1   0  761.82   64.69
   2   1   0  786.92   65.19
  -3  -1   0  168.28   31.80
   3   1   0  243.98   36.30
   3   1   0  200.38   36.40
  -4  -1   0  213.68   19.10
  -4  -1   0  239.98   19.60
  -4  -1   0  237.78   26.20
  -4  -1   0  216.98   18.00
   4   1   0  291.27   44.50
   4   1   0  173.08   42.10
  -5  -1   0  184.58   14.00
  -5  -1   0  144.89   15.00
   5   1   0  151.08   37.50
  -4   2   0  258.87   22.30
  -4   2   0  265.27   20.80
  -4   2   0  294.57   21.80
  -4   2   0  270.07   25.30
  -4   2   0  300.17   22.70
   3  -2   0  122.99   35.90
   3  -2   0  109.89   28.00
  -3   2   0  111.99   11.70
  -3   2   0  135.39   11.20
  -3   2   0   98.19   12.90
  -3   2   0  117.69   10.40
  -3   2   0  113.89   12.30
  -3   2   0   95.39   10.00
  -2   2   0  449.46   50.39
   1  -2   0  120.09   22.00
  -1  -2   0 1785.22  127.89
  -1  -2   0 1886.31  130.29
  -1  -2   0 1988.20  126.59
   1   2   0 1850.81  128.09
  -2  -2   0  161.38   35.80
  -2  -2   0  174.28   35.20
   2   2   0   96.89   30.90
   2   2   0  115.29   30.80
   3   2   0  507.85   43.70
  -4  -2   0   14.70    7.50
  -4  -2   0   27.80    8.60
  -4  -2   0   16.60    9.50
  -4  -2   0   14.20   12.70
   4   2   0    5.90   22.20
  -5  -2   0  296.07   22.50
  -5  -2   0  293.07   20.60
  -5  -2   0  272.17   21.20
   5   2   0  282.57   40.40
   4  -3   0  224.88   42.10
  -4   3   0  243.88   20.10
  -4   3   0  236.78   18.70
  -4   3   0  251.67   19.00
   3  -3   0  261.57   38.90
  -3   3   0  240.78   24.20
  -3   3   0  252.37   20.80
  -3   3   0  229.98   19.90
  -3   3   0  273.97   21.80
  -3   3   0  258.47   20.90
  -2   3   0  613.34   40.20
  -2   3   0  596.84   42.30
  -2   3   0  554.64   41.30
  -2   3   0  635.74   39.70
   1  -3   0 3668.33  242.08
  -1  -3   0  753.02   68.19
  -1  -3   0  799.32   61.69
  -1  -3   0  836.72   60.49
   1   3   0  636.84   60.59
  -2  -3   0  590.24   52.99
  -2  -3   0  617.64   68.09
   2   3   0  465.05   58.69
   3   3   0  890.31   61.09
   3   3   0  964.30   66.29
  -4  -3   0  232.68   21.90
  -4  -3   0  222.78   18.60
   4   3   0  242.88   35.60
  -5  -3   0  605.94   40.30
  -5  -3   0  574.34   38.80
   5   3   0  583.34   52.09
  -4   4   0  196.48   15.30
   3  -4   0   29.70   26.10
  -3   4   0   37.90   10.10
  -3   4   0   47.50   11.90
  -3   4   0   24.40    8.60
  -2   4   0   44.30   10.00
  -2   4   0   45.40    9.50
  -2   4   0   46.70   14.30
  -2   4   0   47.30    7.50
  -1   4   0   45.60    8.30
  -1   4   0   50.59   11.30
  -1  -4   0   37.30   23.70
  -1  -4   0   74.69   33.90
  -2  -4   0 3883.41  253.57
  -2  -4   0 3889.31  249.68
   2   4   0 3507.35  240.08
  -3  -4   0  234.08   22.00
   3   4   0  252.57   21.20
  -4  -4   0   66.99   12.80
  -5  -4   0   39.60    9.50
  -3   5   0  243.18   20.30
  -3   5   0  223.88   18.20
  -2   5   0  147.69   16.40
  -2   5   0  175.48   19.90
  -2   5   0  203.28   19.10
  -1   5   0 1389.96   91.89
  -1   5   0 1466.55   91.09
  -1   5   0 1356.66   91.49
   0  -5   0 3235.18  216.48
   0   5   0 2856.81  199.18
   0   5   0 2835.32  199.48
   0   5   0 3551.24  200.78
  -1  -5   0   90.09   41.10
   1   5   0   14.70    7.90
   1   5   0   41.80   11.40
  -2  -5   0  704.03   78.39
  -2  -5   0  800.32   90.39
   2   5   0  728.03   54.39
   2   5   0  752.32   49.70
  -3  -5   0  800.22   58.79
   3   5   0  964.60   58.59
  -4  -5   0  319.57   30.90
  -4  -5   0  371.26   27.80
  -4  -5   0  325.37   24.10
   4   5   0  308.17   26.60
  -5  -5   0   35.80    9.10
  -5  -5   0   28.20    6.50
  -2   6   0  151.48   16.60
  -1   6   0  549.54   39.00
  -1   6   0  565.14   40.40
  -1   6   0  533.35   39.90
   0   6   0  842.02   51.49
   0   6   0  708.03   52.39
   0   6   0  685.93   53.99
  -1  -6   0  449.06   67.29
   1   6   0  485.55   34.40
   1   6   0  472.55   36.00
   1   6   0  403.56   36.90
  -2  -6   0  197.28   48.60
   2   6   0  184.98   24.40
   2   6   0  184.28   19.90
  -3  -6   0  570.44   83.19
   3   6   0  752.12   46.50
   3   6   0  640.74   49.99
  -4  -6   0   72.19   12.80
  -4  -6   0   45.40   14.80
   4   6   0   84.79   13.70
  -5  -6   0   56.09    9.20
  -1   7   0  130.09   14.80
  -1   7   0  126.89   15.20
   0   7   0   52.59   14.10
   0   7   0   54.29   13.00
  -1  -7   0  144.49   46.50
   1   7   0  122.09   16.20
   1   7   0  187.98   26.40
  -2  -7   0  728.63   89.99
   2   7   0  655.03   49.50
   2   7   0  603.24   45.30
   2   7   0  662.63   46.30
  -3  -7   0   22.90   44.00
   3   7   0   42.80   15.20
   3   7   0   35.50   10.80
  -4  -7   0   41.60   12.80
   4   7   0   50.79   11.00
   0   8   0  512.65   37.20
   1   8   0  250.07   24.80
   1   8   0  218.38   22.90
   2   8   0  361.66   33.50
   2   8   0  420.56   30.20
  -3  -8   0   68.89   14.80
   3   8   0   98.99   13.70
  -4  -8   0   41.10   10.50
   4   8   0   63.69    9.60
   1   9   0   57.39    9.10
   2   9   0   -1.10    9.50
   2   9  -1    9.10    8.90
  -4  -8   1  192.68   18.60
   3   8  -1   -3.00   11.30
   3   8  -1    8.80    8.30
  -3  -8   1   -3.10   12.50
   2   8  -1  174.98   18.20
   1   8  -1  172.18   22.60
   1   8  -1  163.28   20.40
   0   8  -1  532.35   38.40
   4   7  -1  424.56   32.60
  -4  -7   1  440.36   34.50
   3   7  -1  184.98   19.40
   3   7  -1  177.78   25.10
  -3  -7   1  142.09   49.30
   2   7  -1  371.96   30.00
   2   7  -1  404.96   34.50
  -2  -7   1  378.76   80.79
   1   7  -1  240.68   23.40
   1   7  -1  228.88   30.40
  -1  -7   1  207.38   51.19
   0   7  -1  238.88   23.60
   0   7  -1  233.08   28.80
   0   7  -1  226.98   21.40
  -1   7  -1  155.38   16.00
  -5  -6   1   -4.10    8.00
  -5  -6   1    1.10    7.30
   4   6  -1  279.17   25.60
   4   6  -1  317.77   24.60
  -4  -6   1  260.97   29.10
  -4  -6   1  293.37   24.10
   3   6  -1   50.89   11.40
  -3  -6   1   79.59   50.89
   2   6  -1  635.74   43.30
   2   6  -1  611.24   45.20
   2   6  -1  729.93   48.90
  -2  -6   1  619.44   83.49
   1   6  -1  102.49   13.50
   1   6  -1  110.39   15.90
   1   6  -1   79.79   11.30
   1   6  -1  100.59   16.30
  -1  -6   1   72.69   44.50
   0   6  -1  138.49   16.70
   0   6  -1  142.29   18.50
   0   6  -1  140.69   15.60
  -1   6  -1  239.78   27.10
  -1   6  -1  318.47   24.10
  -2   6  -1   55.99   10.90
  -5  -5   1   49.99    9.70
   4   5  -1 1463.15   97.79
  -4  -5   1 1424.96   99.59
  -4  -5   1 1612.84   97.99
   3   5  -1  618.74   42.30
  -3  -5   1  593.84   42.30
   2   5  -1   60.89   17.60
   2   5  -1   22.90   13.90
   2   5  -1   17.80    9.40
  -2  -5   1   75.49   50.39
  -2  -5   1   56.59   42.80
   1   5  -1 1789.62  119.09
   1   5  -1 1891.51  118.59
   1   5  -1 1740.43  119.69
  -1  -5   1 1834.62  131.19
  -1  -5   1 2006.10  136.09
   0   5  -1  227.28   20.30
   0   5  -1  324.37   23.90
   0   5  -1  278.07   22.60
  -1   5  -1  683.43   42.80
  -1   5  -1  612.04   41.40
  -1   5  -1  538.25   42.40
  -2   5  -1  787.92   51.09
  -2   5  -1  744.53   49.99
  -2   5  -1  736.73   51.49
  -3   5  -1  280.77   22.60
  -3   5  -1  248.48   19.30
  -3   5  -1  257.27   21.50
  -5  -4   1 1082.59   67.79
  -5  -4   1  988.30   66.59
   4   4  -1 2491.05  160.18
  -4  -4   1 2441.56  159.58
  -4  -4   1 2647.44  160.68
  -4  -4   1 2393.76  161.68
   3   4  -1  512.85   33.30
  -3  -4   1  421.26   33.60
  -2  -4   1  110.59   39.30
  -2  -4   1  117.59   41.20
  -1  -4   1 2119.09  146.49
  -1  -4   1 2112.89  142.59
  -1   4  -1  120.49   14.30
  -1   4  -1  141.49   12.70
  -2   4  -1   79.29   11.70
  -2   4  -1   93.19    9.70
  -2   4  -1   89.79   13.30
  -2   4  -1  120.39   11.70
  -3   4  -1  109.29   11.80
  -3   4  -1  107.59   13.70
  -3   4  -1   74.99    9.80
   3  -4   1   54.49   27.80
  -4   4  -1   99.79   10.40
  -5  -3   1  178.28   14.30
  -5  -3   1  183.08   17.70
   4   3  -1  322.37   37.20
  -4  -3   1  301.47   28.10
  -4  -3   1  295.97   25.40
  -4  -3   1  299.57   22.20
   3   3  -1  128.09   27.00
   3   3  -1  123.89   11.80
   2   3  -1 3492.25  243.48
  -2  -3   1 3523.85  245.48
  -2  -3   1 3602.14  242.78
  -2  -3   1 4054.59  242.08
   1   3  -1  752.72   64.29
  -1  -3   1  851.51   71.79
  -1  -3   1  836.62   65.29
  -1  -3   1  835.82   64.39
   1  -3   1  116.69   25.50
  -2   3  -1  275.67   22.10
  -2   3  -1  249.97   22.50
  -2   3  -1  295.57   20.50
  -2   3  -1  295.77   21.10
  -3   3  -1  492.35   34.80
  -3   3  -1  525.75   36.40
  -3   3  -1  501.75   34.10
  -3   3  -1  524.85   34.60
  -3   3  -1  449.56   34.90
   3  -3   1  478.15   57.39
  -4   3  -1   71.79   10.00
  -4   3  -1   99.39   13.20
  -4   3  -1   73.09    9.10
  -4   3  -1   61.79    8.80
   4  -3   1   85.09   28.00
   5   2  -1 1177.48   87.29
  -5  -2   1 1190.38   78.69
  -5  -2   1 1257.47   79.39
  -5  -2   1 1244.48   78.39
   4   2  -1  789.72   60.79
  -4  -2   1  777.22   49.50
  -4  -2   1  727.23   48.80
  -4  -2   1  689.63   52.79
  -4  -2   1  727.13   49.99
   3   2  -1 2293.37  165.98
  -3  -2   1 2791.32  179.18
   2   2  -1 1965.20  123.79
   2   2  -1 1613.74  120.09
  -2  -2   1 1633.34  125.89
  -2  -2   1 1769.52  120.39
   1   2  -1   59.89   25.10
   1   2  -1   95.69   24.70
  -1  -2   1   94.19   30.20
  -1  -2   1   62.99   21.20
  -1  -2   1   81.19   25.00
   1  -2   1 2480.35  164.68
  -3   2  -1   61.89    8.40
  -3   2  -1   73.39    8.90
  -3   2  -1   84.09   10.90
  -3   2  -1   95.39    9.80
  -3   2  -1   78.79   10.40
   3  -2   1   72.19   27.40
   3  -2   1   91.09   35.90
  -4   2  -1   38.80    8.10
  -4   2  -1   36.20    9.20
  -4   2  -1   53.79   12.70
  -4   2  -1   61.49    9.60
  -4   2  -1   51.59    9.00
   4  -2   1   50.19   31.40
   4  -2   1   -5.70   42.80
  -5   2  -1  111.59   13.80
   5   1  -1   30.30   24.00
  -5  -1   1   53.99    7.40
  -5  -1   1   51.19    7.90
  -5  -1   1   53.59    9.00
   4   1  -1  505.95   50.49
  -4  -1   1  498.75   33.50
  -4  -1   1  461.75   32.10
  -4  -1   1  460.25   51.29
  -4  -1   1  453.05   33.30
   3   1  -1  291.67   48.40
   3   1  -1  280.17   44.80
  -3  -1   1  336.97   37.50
   2   1  -1 3937.21  291.37
   2   1  -1 4337.57  292.97
   2   1  -1 5045.90  293.47
   2   1  -1 4763.72  294.27
  -2  -1   1 4472.05  292.97
   1   1  -1 4171.88  313.17
   1   1  -1 4650.94  314.57
   1   1  -1 4943.11  314.17
  -1  -1   1 5464.15  313.87
  -1  -1   1 5117.29  315.57
   2  -1   1  204.48   37.90
   2  -1   1  169.08   31.60
   2  -1   1  193.78   28.90
  -3   1  -1  603.14   46.00
  -3   1  -1  662.83   42.60
  -3   1  -1  640.64   43.70
  -3   1  -1  656.33   42.60
  -3   1  -1  630.04   44.00
   3  -1   1  734.63   65.49
   3  -1   1  648.64   56.19
  -4   1  -1  132.29   14.70
  -4   1  -1  111.29   11.10
  -4   1  -1   97.99   12.40
  -4   1  -1  128.19   11.60
  -4   1  -1  114.19   10.40
   4  -1   1  108.79   46.60
   4  -1   1  123.09   30.40
  -5   1  -1  239.98   19.10
  -5   1  -1  258.57   19.30
   5   0  -1   70.39   27.20
  -5   0   1   68.39    8.80
  -5   0   1   78.59    8.50
  -5   0   1   87.09    9.90
   4   0  -1  865.91   81.59
   4   0  -1  904.01   76.29
  -4   0   1  981.50   78.99
  -4   0   1  981.30   61.39
  -4   0   1  971.90   62.19
   3   0  -1  416.96   46.80
   3   0  -1  397.56   52.69
  -3   0   1  353.46   45.50
   2   0  -1 2969.70  198.88
   2   0  -1 3075.79  202.18
   2   0  -1 3084.39  201.38
  -2   0   1 3141.29  200.68
   1   0  -1 3734.13  256.97
   1   0  -1 4152.88  256.27
   1   0  -1 3852.61  255.67
   1   0  -1 3942.51  255.47
  -1   0   1 4166.18  255.77
   0   0  -1 1385.46   98.49
   0   0   1 1569.84   98.99
   0   0   1 1709.83   99.09
   0   0   1 1458.65   98.69
  -1   0  -1 9349.96  604.24
   1   0   1 9455.25  604.34
   1   0   1 9999.00  604.94
   1   0   1 8999.40  604.14
  -2   0  -1 1433.36  100.29
   2   0   1 1469.45  100.09
   2   0   1 1570.24  103.89
   2   0   1 1434.16  103.79
  -3   0  -1 1543.65  113.89
  -3   0  -1 1771.92  120.79
   3   0   1 1921.91  126.79
   3   0   1 1915.11  122.49
  -4   0  -1  277.37   19.70
  -4   0  -1  340.67   29.40
  -4   0  -1  284.07   20.90
  -4   0  -1  247.88   22.40
   4   0   1  275.77   49.10
   4   0   1  190.88   43.90
  -5   0  -1  348.67   23.80
  -5   0  -1  298.47   23.90
   5   0   1  343.07   42.60
  -5   1   1 1152.28   75.59
  -5   1   1 1188.78   75.69
   4  -1  -1 1402.16  105.29
  -4   1   1 1454.35   91.19
  -4   1   1 1337.37   90.79
  -4   1   1 1431.16   91.49
  -4   1   1 1424.46   91.99
   3  -1  -1  573.04   48.70
  -3   1   1  475.45   31.80
  -3   1   1  470.05   33.90
  -3   1   1  452.65   31.80
  -3   1   1  437.76   54.29
  -3   1   1  464.15   32.10
  -3   1   1  476.85   33.20
   2  -1  -1  184.68   33.20
   2  -1  -1  201.48   33.50
   2  -1  -1  156.28   29.70
   1  -1  -1  912.81   69.99
   1  -1  -1  972.30   64.69
   0  -1  -1 3352.86  203.78
   0  -1  -1 2978.30  203.68
  -1  -1  -1 5914.81  366.16
  -1  -1  -1 5653.43  367.46
   1   1   1 5587.44  366.96
   1   1   1 6176.38  366.66
   1   1   1 5125.19  366.06
  -2  -1  -1 2030.80  143.69
   2   1   1 2091.89  144.39
   2   1   1 2130.09  147.09
   2   1   1 2323.07  146.09
  -3  -1  -1  466.95   45.80
   3   1   1  570.34   60.79
   3   1   1  624.54   57.79
   3   1   1  557.04   49.90
  -4  -1  -1  578.14   36.10
  -4  -1  -1  472.85   35.50
  -4  -1  -1  556.74   40.20
  -4  -1  -1  547.75   35.00
   4   1   1  493.05   50.89
   4   1   1  373.26   66.09
  -5  -1  -1  204.68   15.50
  -5  -1  -1  171.18   16.50
   5   1   1  190.48   38.40
   4  -2  -1   13.30   41.10
  -4   2   1   57.59   12.00
  -4   2   1   64.49   10.00
  -4   2   1   42.30    9.00
  -4   2   1   57.49    8.60
   3  -2  -1  314.97   52.59
   3  -2  -1  265.47   43.30
  -3   2   1  282.37   22.30
  -3   2   1  306.27   21.80
  -3   2   1  248.98   23.80
  -3   2   1  278.47   20.30
  -3   2   1  265.07   23.50
  -3   2   1  284.37   20.60
   2  -2  -1    9.90   21.90
  -2   2   1    7.30   24.10
   1  -2  -1   85.49   20.50
  -1  -2  -1 1362.66   93.09
  -1  -2  -1 1282.27   98.39
   1   2   1 1360.46   96.49
  -2  -2  -1 1075.19   79.49
  -2  -2  -1 1054.99   87.59
   2   2   1 1016.20   81.29
   2   2   1 1072.39   84.39
  -3  -2  -1  356.76   45.90
   3   2   1  520.25   41.70
  -4  -2  -1  443.66   29.70
  -4  -2  -1  399.96   29.20
  -4  -2  -1  403.06   30.70
  -4  -2  -1  402.16   34.10
   4   2   1  419.56   45.80
  -5  -2  -1   31.60    7.00
  -5  -2  -1   29.70    7.50
  -5  -2  -1   35.40    8.70
   5   2   1   54.79   25.30
   4  -3  -1  190.18   40.00
  -4   3   1  122.59   12.40
  -4   3   1  115.59   13.00
  -4   3   1  135.19   13.70
   3  -3  -1  374.36   51.69
  -3   3   1  346.27   26.60
  -3   3   1  403.86   28.20
  -3   3   1  330.87   26.90
  -3   3   1  362.66   29.60
  -3   3   1  396.16   27.20
  -3   3   1  398.66   32.10
  -2   3   1  138.49   16.80
  -2   3   1  198.98   14.90
  -2   3   1  150.98   14.00
   1  -3  -1  991.00   79.09
  -1  -3  -1 5142.19  350.36
  -1  -3  -1 5417.96  352.96
  -1  -3  -1 5712.03  350.96
   1   3   1 5466.65  351.46
  -2  -3  -1 4376.26  267.67
  -2  -3  -1 4022.90  271.97
  -2  -3  -1 3927.01  267.57
   2   3   1 3990.40  269.47
   3   3   1  575.74   45.40
   3   3   1  525.15   38.00
  -4  -3  -1  343.27   25.20
  -4  -3  -1  328.97   27.40
   4   3   1  347.87   41.20
  -5  -3  -1  292.87   23.20
  -5  -3  -1  280.47   21.40
   5   3   1  307.37   40.50
  -4   4   1  176.98   14.30
   3  -4  -1  163.18   30.00
  -3   4   1  169.48   16.60
  -3   4   1  183.78   15.60
  -3   4   1  172.28   20.70
  -2   4   1  723.43   53.69
  -2   4   1  825.82   53.19
  -2   4   1  862.61   52.59
  -2   4   1  786.92   54.19
   1  -4  -1 1504.85  117.09
  -1   4   1 1553.04  103.79
  -1   4   1 1751.52  103.49
   0  -4  -1  792.12   75.99
  -1  -4  -1 3787.22  240.78
  -1  -4  -1 3630.44  244.38
  -1  -4  -1 3650.83  240.98
  -2  -4  -1  413.46   48.70
   2   4   1  499.95   33.20
  -3  -4  -1  103.69   12.20
   3   4   1   56.39   10.00
   3   4   1   84.89   21.20
  -4  -4  -1  332.67   27.70
  -4  -4  -1  321.37   24.70
  -4  -4  -1  307.07   29.50
   4   4   1  369.66   41.20
  -5  -4  -1  426.76   30.60
  -5  -4  -1  480.95   32.40
  -3   5   1   60.29   10.80
  -3   5   1   58.29    8.10
  -2   5   1  350.56   27.30
  -2   5   1  320.67   29.60
  -2   5   1  351.06   25.50
  -2   5   1  370.56   27.50
  -1   5   1  242.48   24.50
  -1   5   1  379.76   26.20
  -1   5   1  333.97   24.40
   0  -5  -1  409.76   61.59
  -1  -5  -1  900.31   73.09
   1   5   1  756.92   54.79
   1   5   1  865.21   57.79
  -2  -5  -1  418.96   61.39
  -2  -5  -1  435.26   73.59
   2   5   1  380.26   34.30
   2   5   1  318.27   27.50
  -3  -5  -1 1854.01  114.59
  -3  -5  -1 1572.74  113.59
   3   5   1 1883.91  114.39
  -4  -5  -1  694.03   51.09
  -4  -5  -1  686.63   46.70
  -4  -5  -1  730.83   49.10
  -5  -5  -1  128.39   15.10
  -5  -5  -1  105.29   10.80
  -2   6   1  133.89   14.20
  -1   6   1  201.18   23.50
   0   6   1   29.20   10.90
   0   6   1   57.39   12.80
  -1  -6  -1  569.04   63.99
   1   6   1  414.36   37.20
   1   6   1  456.65   36.60
   1   6   1  468.45   35.50
   1   6   1  418.36   33.60
  -2  -6  -1  755.22   83.19
   2   6   1  804.32   53.79
   2   6   1  816.12   59.19
   2   6   1  789.92   53.89
   2   6   1  810.92   57.79
  -3  -6  -1  785.62   55.39
  -3  -6  -1  765.62   88.39
   3   6   1  870.61   55.09
  -4  -6  -1  210.18   26.30
  -4  -6  -1  229.98   23.20
   4   6   1  271.47   25.80
  -5  -6  -1  426.86   30.00
  -1   7   1  174.58   16.30
  -1   7   1  150.58   16.40
   0   7   1  273.37   29.90
   0   7   1  329.47   27.10
  -1  -7  -1 1426.36  117.69
   1   7   1 1474.85   92.79
   1   7   1 1406.16   94.19
   1   7   1 1325.27   93.89
  -2  -7  -1  598.44   84.69
   2   7   1  491.95   37.90
   2   7   1  487.95   46.30
   2   7   1  571.14   42.40
   2   7   1  514.85   39.40
  -3  -7  -1  262.97   50.79
   3   7   1  356.46   27.70
   3   7   1  344.07   32.50
  -4  -7  -1   -2.20   12.40
   4   7   1    0.70   11.00
   0   8   1  387.86   30.30
   1   8   1  366.06   28.90
   1   8   1  324.17   30.70
   2   8   1  239.18   25.90
   2   8   1  196.68   21.40
   3   8   1   66.39   13.20
  -4  -8  -1  104.19   16.20
   4   8   1  118.19   12.20
   1   9   1  166.88   18.40
   2   9   1   84.19   11.30
   3   8  -2   78.29   12.30
   3   8  -2   53.99    9.50
  -3  -8   2   62.69   13.20
   2   8  -2    7.20   12.70
   1   8  -2   29.70   12.60
   1   8  -2   39.20   11.20
   0   8  -2   -2.80   10.70
   4   7  -2  168.88   18.50
   4   7  -2  122.39   12.30
  -4  -7   2   96.09   15.50
   3   7  -2   13.00    6.80
   3   7  -2   22.90   12.60
   3   7  -2   21.30    9.90
  -3  -7   2   -3.70   14.80
  -3  -7   2   -4.10   56.49
   2   7  -2  352.46   31.80
   2   7  -2  256.47   22.10
   2   7  -2  279.37   25.20
  -2  -7   2  320.67   58.69
   1   7  -2   19.10   16.20
   1   7  -2   30.30   12.40
  -1  -7   2    8.70   47.40
   0   7  -2  182.78   20.50
   0   7  -2  170.18   17.40
  -1   7  -2  112.49   14.20
  -5  -6   2    3.70    8.00
  -5  -6   2   12.30    7.20
   4   6  -2  140.89   15.20
  -4  -6   2  174.98   24.40
  -4  -6   2  185.08   17.80
   3   6  -2  968.40   68.99
   3   6  -2 1043.70   66.99
   2   6  -2 1015.30   71.19
   2   6  -2 1076.69   67.79
   2   6  -2 1040.10   69.19
  -2  -6   2 1025.90  103.29
   1   6  -2  233.58   21.70
   1   6  -2  219.08   19.40
   1   6  -2  292.07   24.70
   1   6  -2  276.07   28.10
  -1  -6   2  210.78   50.49
   0   6  -2  149.79   16.90
   0   6  -2  131.69   15.10
  -1   6  -2  930.11   65.09
  -1   6  -2 1081.49   66.19
  -1   6  -2  936.71   66.69
  -2   6  -2  476.25   33.90
  -5  -5   2   19.70    9.00
  -5  -5   2   39.90    8.60
   4   5  -2  220.68   21.70
  -4  -5   2  207.78   27.30
  -4  -5   2  243.88   21.80
   3   5  -2  115.39   13.30
  -3  -5   2  139.99   17.70
   2   5  -2  171.18   19.60
   2   5  -2  187.78   25.60
  -2  -5   2  192.38   48.00
  -2  -5   2  217.08   49.80
   1   5  -2 1035.10   69.39
   1   5  -2  911.01   70.69
   1   5  -2 1113.79   68.59
  -1  -5   2 1136.29   91.29
  -1  -5   2 1115.09   90.09
   0   5  -2  167.18   18.30
   0   5  -2  142.89   14.70
   0   5  -2  120.89   13.60
  -1   5  -2  683.33   47.90
  -1   5  -2  687.73   46.10
  -1   5  -2  652.83   48.00
  -1   5  -2  715.63   46.20
  -2   5  -2  286.97   25.60
  -2   5  -2  344.97   25.70
  -2   5  -2  327.17   23.60
  -3   5  -2  102.09   10.90
  -3   5  -2   78.09    8.90
  -3   5  -2  100.99   12.30
  -5  -4   2  185.78   19.00
  -4  -4   2   95.69   12.50
  -4  -4   2   61.39   14.40
   3   4  -2 1421.46   95.29
  -3  -4   2 1540.25   97.39
  -3  -4   2 1438.76   95.39
   2   4  -2  348.87   28.50
  -2  -4   2  483.45   61.89
  -2  -4   2  393.36   63.99
  -1  -4   2 2056.79  131.09
  -1  -4   2 1617.54  128.69
  -1  -4   2 2052.79  134.99
  -1   4  -2  319.07   26.80
  -1   4  -2  344.27   24.70
  -1   4  -2  359.76   24.80
  -2   4  -2  776.12   53.99
  -2   4  -2  832.12   53.59
  -2   4  -2  826.52   52.99
  -2   4  -2  791.82   53.69
  -3   4  -2   36.30    8.30
  -3   4  -2   72.39   12.50
  -3   4  -2   47.60   10.30
  -4   4  -2  280.77   19.80
  -5  -3   2  400.16   28.30
  -5  -3   2  452.25   30.40
  -4  -3   2  780.92   53.09
  -4  -3   2  783.32   51.39
  -4  -3   2  795.72   55.19
   3   3  -2  289.17   23.00
   2   3  -2 2352.86  160.08
  -2  -3   2 2344.67  159.58
  -2  -3   2 2319.27  162.08
  -2  -3   2 2239.88  156.18
  -1  -3   2  518.95   51.09
  -1  -3   2  595.24   54.29
  -1  -3   2  589.44   62.09
   1  -3   2  160.28   29.00
  -2   3  -2  257.27   20.70
  -2   3  -2  276.37   21.60
  -2   3  -2  287.67   19.80
  -2   3  -2  241.68   22.20
  -3   3  -2  358.86   30.10
  -3   3  -2  380.66   27.80
  -3   3  -2  367.76   27.10
  -3   3  -2  396.86   28.30
   3  -3   2  400.66   53.59
  -4   3  -2   46.20    9.20
  -4   3  -2   40.70    8.10
  -4   3  -2   34.00    7.80
  -4   3  -2   68.09   12.30
   4  -3   2   48.00   25.40
   5   2  -2   56.19   22.20
  -5  -2   2   57.89    9.50
  -5  -2   2   59.89    8.20
  -5  -2   2   51.99    6.80
   4   2  -2  255.47   37.10
  -4  -2   2  252.87   21.60
  -4  -2   2  236.18   24.30
  -4  -2   2  249.38   18.90
  -4  -2   2  263.67   20.50
   3   2  -2  377.76   39.80
   2   2  -2  889.51   73.69
   2   2  -2  960.40   76.89
  -2  -2   2 1024.30   72.09
  -2  -2   2  863.31   79.39
   1   2  -2  221.38   39.30
   1   2  -2  218.38   43.30
  -1  -2   2  235.48   33.70
  -1  -2   2  244.78   48.40
  -2   2  -2  132.49   13.00
  -3   2  -2  578.04   40.20
  -3   2  -2  497.65   41.90
  -3   2  -2  635.24   38.60
  -3   2  -2  628.64   39.80
  -3   2  -2  555.84   38.90
  -3   2  -2  587.64   38.50
   3  -2   2  593.74   54.39
   3  -2   2  478.75   65.99
  -4   2  -2  149.69   16.30
  -4   2  -2  150.98   15.90
  -4   2  -2  172.48   19.90
  -4   2  -2  135.79   17.00
  -4   2  -2  140.49   14.90
   4  -2   2  200.38   41.30
  -5   2  -2  112.69   13.50
   5   1  -2  355.86   44.90
  -5  -1   2  432.76   30.50
  -5  -1   2  492.35   29.30
  -5  -1   2  430.96   29.80
   4   1  -2  528.45   56.69
  -4  -1   2  638.64   40.90
  -4  -1   2  579.84   59.09
  -4  -1   2  619.24   39.70
  -4  -1   2  605.14   41.00
   3   1  -2 4050.09  255.67
   3   1  -2 3862.01  251.67
  -3  -1   2 3638.04  250.17
   2   1  -2 4874.51  341.77
   2   1  -2 5555.94  343.67
   2   1  -2 5359.06  340.27
   2   1  -2 5343.37  342.07
  -2  -1   2 5286.97  342.17
   1   1  -2 1110.89   90.89
   1   1  -2 1148.09   83.09
   1   1  -2 1041.40   84.49
   1   1  -2 1221.58   84.99
  -1  -1   2 1324.07   83.59
  -1  -1   2 1332.47   90.59
   0   1  -2 1362.86  107.99
   0  -1   2 1595.34  106.29
   0  -1   2 1801.32  107.89
   0  -1   2 1683.13  106.79
   2  -1   2 1138.79   81.19
   2  -1   2 1127.29   78.59
   2  -1   2 1165.18   83.39
  -3   1  -2 1303.67   81.19
  -3   1  -2 1215.58   81.89
  -3   1  -2 1282.57   81.19
  -3   1  -2 1091.89   82.99
  -3   1  -2 1210.28   81.99
   3  -1   2 1427.86   98.49
   3  -1   2 1340.17   90.99
  -4   1  -2  186.88   16.20
  -4   1  -2  197.28   21.20
  -4   1  -2  190.98   17.60
  -4   1  -2  167.88   19.50
  -4   1  -2  213.78   17.90
   4  -1   2  173.48   48.60
   4  -1   2  238.38   42.00
  -5   1  -2  253.47   19.30
  -5   1  -2  246.38   18.10
  -5   1  -2  249.28   19.40
   5   0  -2  464.15   51.69
  -5   0   2  551.64   38.30
  -5   0   2  621.94   38.10
  -5   0   2  638.84   39.00
   4   0  -2  743.63   69.19
   4   0  -2  679.13   72.49
  -4   0   2  831.72   52.89
  -4   0   2  831.62   72.09
  -4   0   2  864.51   51.89
  -4   0   2  775.12   52.79
   3   0  -2  524.35   59.39
   3   0  -2  568.14   52.89
  -3   0   2  535.15   53.59
   2   0  -2  495.45   45.70
   2   0  -2  453.65   49.10
   2   0  -2  448.96   39.90
   2   0  -2  440.36   41.50
   2   0  -2  467.75   45.60
  -2   0   2  456.05   43.20
   1   0  -2 6961.90  411.16
   1   0  -2 5448.35  410.56
   1   0  -2 6100.69  412.66
   1   0  -2 6638.44  410.16
   1   0  -2 6162.58  410.46
  -1   0   2 7070.19  410.56
   0   0  -2  121.59   20.90
   0   0  -2  101.59   18.80
   0   0  -2  109.29   27.40
   0   0   2  147.09   27.50
   0   0   2  144.09   27.80
   0   0   2  124.79   22.70
  -1   0  -2 6207.68  398.86
   1   0   2 6027.20  398.86
   1   0   2 6414.56  399.16
  -2   0  -2  451.25   42.90
   2   0   2  549.45   50.99
   2   0   2  529.25   45.20
   2   0   2  545.05   51.99
  -3   0  -2  535.65   38.00
   3   0   2  604.34   56.59
   3   0   2  636.04   62.79
  -4   0  -2  285.87   20.50
  -4   0  -2  340.97   28.40
  -4   0  -2  283.87   20.80
  -4   0  -2  235.88   22.20
  -4   0  -2  239.08   19.50
   4   0   2  239.48   42.70
   4   0   2  222.88   49.30
  -5   0  -2  201.98   16.30
  -5   0  -2  167.98   16.10
   5   0   2  176.78   37.50
  -5   1   2  173.48   14.50
   4  -1  -2  -15.00   33.50
  -4   1   2   25.20    7.10
  -4   1   2    2.50    8.70
  -4   1   2   22.20   10.60
  -4   1   2   29.70    8.20
   3  -1  -2 1495.65  104.59
   3  -1  -2 1537.85  110.19
  -3   1   2 1508.15   95.89
  -3   1   2 1425.06   95.29
  -3   1   2 1468.85  109.19
  -3   1   2 1457.05   96.39
  -3   1   2 1501.55   95.29
   2  -1  -2 1586.94  109.89
   2  -1  -2 1545.85  106.09
   2  -1  -2 1543.05  114.49
   2  -1  -2 1636.94  107.99
   1  -1  -2 2044.70  137.89
   1  -1  -2 1809.32  135.69
   1  -1  -2 2262.77  140.99
   1  -1  -2 2118.59  135.89
   1  -1  -2 1966.80  138.19
  -1   1   2 2245.88  136.29
   0  -1  -2 1527.75  108.29
   0  -1  -2 1496.95  103.89
   0   1   2 1708.03  105.39
   0   1   2 1508.85  105.99
  -1  -1  -2 2561.34  184.98
  -1  -1  -2 2615.04  181.68
   1   1   2 3186.28  184.18
   1   1   2 2733.43  184.08
  -2  -1  -2 1574.14  104.99
   2   1   2 1500.15  105.39
   2   1   2 1503.85  107.79
   2   1   2 1444.46  107.49
   3   1   2  847.42   74.69
   3   1   2  786.32   63.09
   3   1   2  821.92   67.69
  -4  -1  -2  583.94   37.80
  -4  -1  -2  478.75   38.70
  -4  -1  -2  551.54   41.30
  -4  -1  -2  589.94   37.00
   4   1   2  551.44   52.69
   4   1   2  444.36   70.99
  -5  -1  -2  202.88   17.70
  -5  -1  -2  220.58   17.00
   5   1   2  211.18   37.30
   4  -2  -2  293.57   56.39
  -4   2   2  276.17   25.00
  -4   2   2  288.27   21.80
  -4   2   2  292.47   22.60
  -4   2   2  309.87   23.50
   3  -2  -2  686.93   68.19
   3  -2  -2  652.93   59.79
  -3   2   2  659.93   44.00
  -3   2   2  668.23   43.90
  -3   2   2  658.63   45.80
  -3   2   2  690.13   44.80
  -3   2   2  669.43   44.30
  -3   2   2  649.83   68.19
  -3   2   2  654.03   46.00
   2  -2  -2  465.65   46.60
  -2   2   2  518.75   52.39
   0  -2  -2 3538.65  234.08
  -1  -2  -2 3788.02  246.88
  -1  -2  -2 3936.71  244.18
   1   2   2 3545.05  247.18
  -2  -2  -2 1799.02  128.49
  -2  -2  -2 1763.52  133.39
   2   2   2 1981.20  130.49
   2   2   2 1965.20  133.09
  -3  -2  -2 2573.44  192.08
   3   2   2 3158.78  188.08
  -4  -2  -2  675.63   40.40
  -4  -2  -2  584.54   40.00
  -4  -2  -2  572.64   43.60
  -4  -2  -2  574.74   41.00
   4   2   2  531.85   53.99
  -5  -2  -2  139.89   15.30
  -5  -2  -2  155.28   13.70
  -5  -2  -2  147.39   14.20
   5   2   2  131.59   27.70
  -4   3   2  226.78   17.90
  -4   3   2  235.18   18.40
   3  -3  -2 1107.99   83.49
  -3   3   2 1068.19   70.89
  -3   3   2 1118.79   71.79
  -3   3   2 1001.10   70.19
  -3   3   2 1044.20   71.49
  -3   3   2 1098.09   70.29
  -3   3   2 1110.79   70.19
  -2   3   2  103.09   11.60
  -2   3   2  113.19   12.10
  -2   3   2   92.99   10.70
  -2   3   2   96.79   27.00
  -2   3   2  116.59    9.40
   1  -3  -2 1786.82  126.39
   0  -3  -2  464.35   62.69
  -1  -3  -2 2478.45  174.08
  -1  -3  -2 2532.25  173.38
  -1  -3  -2 2710.63  178.58
   1   3   2 2801.52  176.18
  -2  -3  -2   46.20   40.30
  -2  -3  -2   63.69   34.10
  -2  -3  -2   -3.00   26.20
   2   3   2   45.10   31.30
   3   3   2 1175.58   79.19
   3   3   2 1257.87   84.59
  -4  -3  -2  910.61   62.49
  -4  -3  -2  920.11   64.89
  -4  -3  -2  965.30   63.79
   4   3   2 1018.90   73.19
  -5  -3  -2  554.14   36.80
  -5  -3  -2  530.25   37.80
   5   3   2  566.44   51.79
  -4   4   2  220.08   16.60
   3  -4  -2  448.16   53.09
  -3   4   2  535.55   34.80
  -3   4   2  550.34   36.90
  -3   4   2  484.15   35.80
  -2   4   2  448.06   35.40
  -2   4   2  542.05   36.30
  -2   4   2  449.76   35.10
  -2   4   2  485.65   34.20
  -2   4   2  514.15   33.40
   1  -4  -2 1543.65  114.79
  -1   4   2 1595.44   99.29
  -1   4   2 1484.45   99.49
   0  -4  -2 1053.79   89.39
  -1  -4  -2 1440.46  107.89
  -1  -4  -2 1556.84  100.19
  -1  -4  -2 1212.58   97.79
  -2  -4  -2   39.50   43.60
  -2  -4  -2   22.80   26.30
  -2  -4  -2  106.99   36.30
   2   4   2   33.40   22.10
   2   4   2   50.69   11.20
  -3  -4  -2 1265.77   72.19
  -3  -4  -2 1013.10   72.09
   3   4   2 1048.70   78.39
   3   4   2 1066.29   71.69
  -4  -4  -2 1527.15  101.89
  -4  -4  -2 1495.85  100.69
   4   4   2 1661.13  108.89
  -5  -4  -2  720.93   44.20
  -5  -4  -2  655.33   42.80
   5   4   2  558.54   55.29
  -3   5   2  412.26   28.50
  -2   5   2  503.95   34.90
  -2   5   2  457.65   36.40
  -2   5   2  532.65   33.80
  -2   5   2  446.86   35.00
   1  -5  -2  125.99   35.50
  -1   5   2  219.48   18.10
  -1   5   2  139.39   17.80
  -1   5   2  162.58   15.90
   0  -5  -2   46.20   31.60
   0   5   2   55.39   10.50
  -1  -5  -2  425.66   68.29
  -1  -5  -2  455.75   53.99
  -2  -5  -2  863.81   88.09
  -2  -5  -2  729.83   74.99
   2   5   2  743.23   51.39
   2   5   2  780.32   55.09
  -3  -5  -2  198.48   18.80
  -3  -5  -2  242.38   23.00
  -4  -5  -2  284.67   25.70
  -4  -5  -2  287.07   21.80
  -4  -5  -2  278.87   27.90
   4   5   2  250.87   57.89
  -5  -5  -2   64.49    7.80
  -5  -5  -2   77.89   10.70
  -2   6   2  329.87   27.60
  -1   6   2  552.84   40.40
  -1   6   2  558.84   41.70
   0   6   2   73.99   12.10
   0   6   2  105.39   16.90
   0   6   2   83.19   13.30
  -1  -6  -2  139.29   39.40
   1   6   2   50.59   14.60
   1   6   2   68.59   13.80
   1   6   2  110.79   16.60
   1   6   2   48.20   10.90
  -2  -6  -2  179.18   44.80
  -2  -6  -2  109.09   61.09
  -3  -6  -2  869.31   94.69
  -3  -6  -2  812.92   54.19
  -3  -6  -2  707.33   51.99
   3   6   2  809.32   53.39
  -4  -6  -2   71.29   14.70
  -4  -6  -2  115.39   14.20
  -4  -6  -2   91.69    9.90
  -5  -6  -2  151.08   14.40
  -5  -6  -2  106.09   10.30
  -1   7   2  230.18   23.50
  -1   7   2  247.08   24.50
   0   7   2  354.46   30.70
   0   7   2  361.06   29.50
   1   7   2  816.72   57.99
   1   7   2  904.61   55.59
   1   7   2  754.52   53.89
   1   7   2  683.43   54.99
  -2  -7  -2  619.44   82.69
   2   7   2  553.44   43.30
   2   7   2  458.15   38.50
   2   7   2  510.15   38.70
   2   7   2  522.05   46.50
  -3  -7  -2  345.07   70.49
   3   7   2  361.76   30.10
   3   7   2  395.56   34.70
  -4  -7  -2  187.38   23.90
  -4  -7  -2  250.97   20.90
   4   7   2  207.28   24.60
   0   8   2  240.78   23.80
   0   8   2  298.77   25.40
   1   8   2  259.47   23.40
   1   8   2  255.97   26.60
   2   8   2   56.79   13.20
   2   8   2   29.80   10.30
   2   8   2   83.69   18.50
   3   8   2   17.20   11.70
  -4  -8  -2    4.80    9.50
   4   8   2    7.50    9.20
   1   9   2   44.80    8.30
   2   9   2   54.89    9.80
  -3  -9  -2   34.60   10.40
   3   8  -3  290.07   22.50
   3   8  -3  280.17   24.60
  -3  -8   3  277.07   25.30
   2   8  -3   17.40   12.30
  -2  -8   3   25.70   12.20
   1   8  -3  238.08   25.10
   1   8  -3  236.68   25.90
   0   8  -3  138.49   18.40
   4   7  -3    5.30    9.90
   4   7  -3    6.50    5.80
  -4  -7   3    1.40   11.30
   3   7  -3    9.10   12.40
   3   7  -3    7.50    9.80
   3   7  -3    6.90    6.80
  -3  -7   3   -9.60   14.30
   2   7  -3  456.95   35.20
   2   7  -3  382.46   28.80
   2   7  -3  397.26   31.40
  -2  -7   3  459.35   84.49
   1   7  -3  128.49   15.20
   1   7  -3  164.98   18.80
   1   7  -3  150.78   15.90
   0   7  -3   71.09   16.10
   0   7  -3   52.69   14.10
  -5  -6   3   42.60   11.30
   4   6  -3  316.87   24.30
  -4  -6   3  265.47   28.80
   3   6  -3  463.85   33.70
   3   6  -3  420.16   29.70
   3   6  -3  418.46   32.60
  -3  -6   3  390.86   37.30
   2   6  -3  531.65   39.60
   2   6  -3  561.64   37.30
  -2  -6   3  548.55   87.29
   1   6  -3  583.44   40.70
   1   6  -3  591.44   43.90
   1   6  -3  530.35   37.40
   1   6  -3  506.55   39.10
  -1  -6   3  584.74   79.79
   0   6  -3  831.22   56.39
   0   6  -3  802.22   57.99
   0   6  -3  810.32   53.59
  -1   6  -3  248.58   25.10
  -1   6  -3  188.08   27.10
  -1   6  -3  239.38   21.00
  -2   6  -3  244.18   20.90
  -5  -5   3  197.88   20.50
  -5  -5   3  265.27   19.20
   4   5  -3  526.75   37.60
  -4  -5   3  540.95   37.10
  -4  -5   3  493.65   41.00
   3   5  -3 2990.20  185.58
   3   5  -3 2761.42  186.18
  -3  -5   3 2911.71  187.08
   2   5  -3  422.96   32.30
   2   5  -3  361.36   29.10
  -2  -5   3  333.47   74.99
  -2  -5   3  359.76   56.99
   1   5  -3  224.38   21.00
   1   5  -3  211.28   24.50
   1   5  -3  227.08   18.80
  -1  -5   3  354.16   62.29
  -1  -5   3  308.67   46.30
   0   5  -3  610.94   46.90
   0   5  -3  676.23   43.60
   0   5  -3  689.53   47.80
   0   5  -3  638.74   45.50
  -1   5  -3  195.48   18.10
  -1   5  -3  217.38   25.50
  -1   5  -3  213.98   18.40
  -1   5  -3  177.68   21.40
  -1   5  -3  176.18   18.10
  -2   5  -3  233.78   22.70
  -2   5  -3  259.17   20.00
  -2   5  -3  260.37   22.10
  -2   5  -3  267.27   21.70
  -3   5  -3   70.09    8.00
  -3   5  -3   70.79    9.90
  -3   5  -3   84.49   11.70
  -5  -4   3   31.30    9.00
  -4  -4   3   90.49   15.30
  -4  -4   3  129.59   16.90
   3   4  -3   57.39   10.40
  -3  -4   3   64.09   11.20
  -3  -4   3   64.79   14.10
   2   4  -3   63.39    9.70
  -2  -4   3   98.49   41.30
  -2  -4   3   91.09   41.80
  -1  -4   3 1406.76   93.59
  -1  -4   3 1029.10   89.29
  -1  -4   3 1265.97   97.89
  -1   4  -3   32.80    9.70
  -1   4  -3   32.50    7.60
  -1   4  -3   31.10    7.10
  -2   4  -3  247.48   20.30
  -2   4  -3  232.28   22.20
  -2   4  -3  232.98   20.80
  -2   4  -3  227.58   18.90
  -3   4  -3  184.28   20.50
  -3   4  -3  168.98   18.40
  -3   4  -3  176.18   16.50
  -4   4  -3  107.89   11.20
  -4   4  -3  139.79   12.60
  -5  -3   3    8.70    8.50
  -5  -3   3   -3.40    4.70
  -4  -3   3  782.22   54.59
  -4  -3   3  818.02   52.49
  -4  -3   3  735.73   50.89
   3   3  -3  355.56   25.70
  -3  -3   3  313.67   25.40
  -3  -3   3  342.07   30.20
   2   3  -3 1130.79   92.89
   2   3  -3 1044.70   89.99
  -2  -3   3 1125.49   89.99
  -2  -3   3 1040.60   91.89
  -1  -3   3 1042.90   86.89
  -1  -3   3  979.50   77.89
  -1  -3   3 1098.89   80.49
  -2   3  -3  179.08   15.00
  -2   3  -3  186.08   16.00
  -2   3  -3  176.88   17.20
  -2   3  -3  161.38   17.20
  -3   3  -3 1210.18   77.79
  -3   3  -3 1215.58   78.99
  -3   3  -3 1215.38   77.49
  -3   3  -3 1142.59   78.09
  -4   3  -3   97.39   10.30
  -4   3  -3  117.09   13.80
  -4   3  -3  113.99   11.60
  -5  -2   3  130.99   14.80
  -5  -2   3  120.39   10.80
  -5  -2   3  101.99   12.30
   4   2  -3    2.50   21.20
  -4  -2   3   10.40    9.30
  -4  -2   3    0.30   10.60
  -4  -2   3    7.00    8.40
  -4  -2   3    7.70    6.20
  -3  -2   3  137.49   21.60
   2   2  -3 1449.26  113.59
   2   2  -3 1569.44  114.99
  -2  -2   3 1750.42  119.29
  -2  -2   3 1632.04  111.69
   1   2  -3 3133.29  210.08
   1   2  -3 3205.98  211.78
  -1  -2   3 3149.98  208.58
  -1  -2   3 3270.27  212.68
  -2   2  -3 7035.30  448.66
  -3   2  -3  128.09   13.40
  -3   2  -3   98.69   14.80
  -3   2  -3  129.59   11.40
  -3   2  -3  108.29   10.50
  -3   2  -3  113.29   12.40
  -3   2  -3  101.49   12.20
   3  -2   3  136.19   34.60
   3  -2   3   99.59   39.90
  -4   2  -3  446.96   33.20
  -4   2  -3  427.66   32.10
  -4   2  -3  469.15   34.70
  -4   2  -3  453.15   32.60
  -4   2  -3  476.75   32.00
   4  -2   3  513.85   50.59
   5   1  -3  367.46   41.50
   5   1  -3  399.46   31.80
  -5  -1   3  383.16   26.20
  -5  -1   3  422.86   27.90
  -5  -1   3  384.06   27.60
  -5  -1   3  356.06   26.70
   4   1  -3  168.58   29.50
  -4  -1   3  160.38   28.00
  -4  -1   3  146.79   16.50
  -4  -1   3  160.68   13.10
  -4  -1   3  104.69   19.00
  -4  -1   3  160.48   16.00
   3   1  -3  772.02   62.79
  -3  -1   3  622.74   60.49
   2   1  -3  162.68   29.80
   2   1  -3  168.28   33.30
   2   1  -3  150.18   25.80
   2   1  -3  163.28   37.20
  -2  -1   3  142.09   24.80
   1   1  -3 6868.31  489.25
   1   1  -3 7703.63  492.95
   1   1  -3 7888.91  490.95
   1   1  -3 7246.77  490.65
  -1  -1   3 8492.75  490.25
  -1  -1   3 7612.64  491.75
   0   1  -3 2257.87  152.98
   0  -1   3 2248.48  151.78
   0  -1   3 2241.38  152.38
   0  -1   3 2434.16  153.48
   2  -1   3 2043.30  128.19
   2  -1   3 1868.51  126.59
   2  -1   3 1714.03  123.09
  -3   1  -3  610.94   41.40
  -3   1  -3  643.74   40.20
  -3   1  -3  614.84   41.40
  -3   1  -3  631.24   40.20
  -3   1  -3  541.15   43.00
   3  -1   3  674.53   58.59
   3  -1   3  487.55   66.29
  -4   1  -3  451.85   29.50
  -4   1  -3  446.36   29.20
  -4   1  -3  397.86   28.80
  -4   1  -3  408.96   31.40
  -4   1  -3  413.96   35.30
  -4   1  -3  390.16   30.70
   4  -1   3  447.76   48.80
   4  -1   3  293.17   69.19
  -5   1  -3  193.58   14.90
  -5   1  -3  191.78   16.20
  -5   1  -3  189.08   16.30
   5   0  -3  639.14   58.69
   5   0  -3  705.23   49.20
  -5   0   3  771.12   46.20
  -5   0   3  668.53   46.30
  -5   0   3  733.13   47.20
   4   0  -3 1230.18  100.99
   4   0  -3 1337.17   98.29
  -4   0   3 1389.26   87.19
  -4   0   3 1334.87   87.39
  -4   0   3 1349.96   86.49
  -4   0   3 1416.06  102.79
   3   0  -3 1293.47   92.09
   3   0  -3 1314.27   96.69
  -3   0   3 1262.17   81.99
  -3   0   3 1185.58   92.79
   2   0  -3  418.26   43.40
   2   0  -3  432.86   39.60
   2   0  -3  437.76   45.00
   2   0  -3  477.65   44.00
   2   0  -3  401.36   52.19
   1   0  -3 2860.01  201.98
   1   0  -3 2707.13  198.68
   1   0  -3 3330.07  199.58
   1   0  -3 3214.18  197.68
  -1   0   3 3096.19  200.78
   0   0  -3  191.68   36.00
   0   0  -3  148.09   28.10
   0   0  -3  152.68   29.30
   0   0   3  214.38   32.40
  -1   0  -3 2320.97  144.39
   1   0   3 2247.78  148.09
   1   0   3 2060.09  147.59
   1   0   3 2089.09  145.99
  -2   0  -3  425.96   45.00
   2   0   3  552.14   53.29
   2   0   3  514.85   51.99
   2   0   3  531.85   47.80
  -3   0  -3  477.15   32.30
  -3   0  -3  417.56   32.30
   3   0   3  528.85   47.60
   3   0   3  434.06   60.49
   3   0   3  600.24   54.49
  -4   0  -3  503.75   35.70
  -4   0  -3  518.95   37.50
  -4   0  -3  557.24   36.50
  -4   0  -3  541.65   41.30
  -4   0  -3  539.65   36.30
   4   0   3  600.54   53.79
   4   0   3  440.86   73.59
  -5   0  -3  267.07   21.60
  -5   0  -3  300.77   21.30
   5   0   3  284.27   39.50
   5  -1  -3   30.50   10.70
  -5   1   3   22.60    6.90
  -5   1   3   42.90    6.50
  -5   1   3   36.40    6.80
   4  -1  -3  219.88   39.50
  -4   1   3  288.87   36.60
  -4   1   3  259.97   19.70
  -4   1   3  232.88   20.60
  -4   1   3  228.78   18.90
  -4   1   3  264.27   22.70
   3  -1  -3   48.10   30.00
   3  -1  -3   40.70   28.50
  -3   1   3   22.70   26.90
  -3   1   3   39.60    6.60
  -3   1   3   48.60    8.50
  -3   1   3   49.30   11.30
  -3   1   3   40.30    6.80
  -3   1   3   30.60    9.50
   2  -1  -3 2013.00  137.49
   2  -1  -3 1896.71  139.19
   2  -1  -3 2107.49  144.49
   2  -1  -3 2213.48  141.69
   2  -1  -3 2139.99  138.79
   1  -1  -3 1103.79   84.19
   1  -1  -3 1012.40   77.59
   1  -1  -3 1070.69   77.09
   1  -1  -3 1040.80   73.99
  -1   1   3  993.60   73.69
   0  -1  -3 1556.74   95.69
   0  -1  -3 1219.58  100.49
   0  -1  -3 1244.58   95.39
   0   1   3 1525.45   97.79
  -1  -1  -3   32.60   25.20
  -1  -1  -3   34.80   18.80
   1   1   3    5.60   30.50
   1   1   3   58.49   33.60
  -2  -1  -3  331.57   42.10
   2   1   3  441.36   53.89
   2   1   3  330.37   49.00
   2   1   3  419.56   49.60
   3   1   3 1699.13  113.29
   3   1   3 1830.82  118.39
   3   1   3 1448.06  122.79
  -4  -1  -3   61.89   10.60
  -4  -1  -3   84.49   13.60
  -4  -1  -3   96.59   11.30
  -4  -1  -3   78.19   10.40
   4   1   3   86.89   25.70
   4   1   3   64.89   45.20
  -5  -1  -3   28.20    7.40
  -5  -1  -3   16.20    8.00
   5   1   3   31.30   25.30
   4  -2  -3   65.29   35.70
  -4   2   3   72.89   10.30
  -4   2   3   53.19    9.10
  -4   2   3   59.09    8.70
  -4   2   3   53.29   12.00
  -3   2   3  172.98   15.20
  -3   2   3  149.79   12.00
  -3   2   3  125.79   15.20
  -3   2   3  154.18   17.90
  -3   2   3  139.49   14.90
  -3   2   3  141.09   32.10
  -3   2   3  127.09   13.90
   2  -2  -3  660.63   57.99
   2  -2  -3  704.43   57.69
  -2   2   3  700.13   61.79
   1  -2  -3  634.64   53.49
   1  -2  -3  770.62   64.09
   1  -2  -3  614.04   58.09
   1  -2  -3  644.54   56.59
   0  -2  -3 1181.28   80.89
   0  -2  -3 1122.39   83.19
   0  -2  -3 1179.18   90.39
   0   2   3 1116.19   82.89
  -1  -2  -3  293.77   55.69
  -1  -2  -3  352.46   39.10
   1   2   3  282.17   50.39
  -2  -2  -3 1782.72  135.49
  -2  -2  -3 1641.04  113.59
   2   2   3 1671.13  116.99
   2   2   3 1437.46  118.19
  -3  -2  -3  643.54   67.29
  -4  -2  -3  441.96   34.20
  -4  -2  -3  521.25   37.70
  -4  -2  -3  444.56   33.10
  -4  -2  -3  527.95   33.40
   4   2   3  411.06   48.70
  -5  -2  -3  886.81   57.39
  -5  -2  -3  809.82   54.29
  -5  -2  -3  816.82   54.09
  -5  -2  -3  741.43   55.39
   5   2   3  893.71   65.99
  -4   3   3   99.09   12.20
  -4   3   3  116.49   14.70
  -4   3   3  151.88   13.00
   3  -3  -3  621.74   59.19
  -3   3   3  587.14   40.70
  -3   3   3  649.74   42.20
  -3   3   3  591.94   39.90
  -3   3   3  553.74   39.90
  -3   3   3  555.94   40.10
  -3   3   3  607.94   42.40
   2  -3  -3  115.09   30.70
  -2   3   3  108.19   12.60
  -2   3   3  130.39   10.20
  -2   3   3  144.99   11.70
  -2   3   3  108.19   11.80
  -2   3   3  115.89   12.40
  -2   3   3  110.89   12.70
  -2   3   3  114.69   26.90
   1  -3  -3  621.54   62.89
   1  -3  -3  771.12   67.59
   0  -3  -3 2877.01  193.08
   0  -3  -3 2797.12  186.08
  -1  -3  -3 2097.59  149.19
  -1  -3  -3 2306.37  141.99
  -1  -3  -3 1860.71  142.19
   1   3   3 2192.68  146.19
  -2  -3  -3  964.10   87.39
  -2  -3  -3  875.91   78.19
  -2  -3  -3  951.20   73.39
   2   3   3  887.81   80.79
   3   3   3  119.39   29.30
  -4  -3  -3  571.54   45.00
  -4  -3  -3  583.84   41.40
  -4  -3  -3  610.14   42.90
   4   3   3  661.13   55.59
  -5  -3  -3   18.20    7.70
  -5  -3  -3    0.80   13.00
  -5  -3  -3   15.70    8.90
   5   3   3   22.10   25.30
   3  -4  -3  279.87   49.99
  -3   4   3  348.07   26.00
  -3   4   3  328.07   24.30
  -3   4   3  348.37   28.30
   2  -4  -3   76.69   33.80
  -2   4   3   82.29   12.10
  -2   4   3   83.69    9.10
  -2   4   3   91.89   13.30
  -2   4   3   68.09   10.90
  -2   4   3   83.29   11.20
   1  -4  -3  722.33   70.29
   1  -4  -3  815.62   73.69
  -1   4   3  805.82   50.59
  -1   4   3  746.23   50.69
  -1   4   3  728.93   49.60
   0  -4  -3  628.94   67.09
   0   4   3  521.75   68.89
  -1  -4  -3 2310.77  148.89
  -1  -4  -3 2240.98  155.48
  -1  -4  -3 2144.69  149.79
  -1  -4  -3 2190.68  158.18
  -2  -4  -3 2362.86  159.18
  -2  -4  -3 2262.67  150.68
  -2  -4  -3 2121.99  152.68
   2   4   3 2166.08  141.59
   2   4   3 2110.69  146.89
  -3  -4  -3   12.80    9.30
  -3  -4  -3   12.30   10.50
   3   4   3   12.80   21.30
   3   4   3    3.70    8.30
  -4  -4  -3  751.72   50.29
  -4  -4  -3  692.33   48.70
   4   4   3  741.43   61.89
  -5  -4  -3 1022.90   66.89
  -5  -4  -3 1041.40   65.99
   5   4   3  981.70   76.29
  -3   5   3   93.39   10.10
  -2   5   3  758.12   51.99
  -2   5   3  816.72   53.19
  -2   5   3  752.82   53.99
  -2   5   3  767.92   51.19
   1  -5  -3  495.85   65.89
  -1   5   3  456.05   30.70
  -1   5   3  363.66   28.30
  -1   5   3  412.46   31.40
  -1   5   3  389.76   33.00
  -1   5   3  401.76   30.00
   0   5   3 1048.60   72.99
   0   5   3 1176.78   75.09
  -1  -5  -3  261.87   48.20
  -1  -5  -3  186.88   38.20
  -2  -5  -3  460.05   60.59
  -2  -5  -3  553.64   73.89
   2   5   3  287.17   48.00
   2   5   3  407.26   34.00
   2   5   3  377.06   28.90
  -3  -5  -3  628.84   44.50
  -3  -5  -3  634.64   46.50
   3   5   3  629.44   60.09
   3   5   3  749.42   45.60
  -4  -5  -3 1512.05  103.49
  -4  -5  -3 1696.63  104.79
  -5  -5  -3  176.68   17.70
  -5  -5  -3  168.88   14.50
  -2   6   3  211.58   22.10
  -1   6   3  672.73   44.80
  -1   6   3  613.54   44.00
  -1   6   3  615.04   47.10
   0   6   3  295.07   25.00
   0   6   3  279.77   31.30
   0   6   3  294.27   24.60
   0   6   3  305.47   25.70
  -1  -6  -3  390.06   65.49
   1   6   3  439.96   31.40
   1   6   3  384.36   32.60
   1   6   3  402.66   35.50
   1   6   3  412.06   30.50
   1   6   3  420.66   36.80
  -2  -6  -3 1386.16  110.19
   2   6   3 1369.26   89.19
   2   6   3 1369.96   91.99
   2   6   3 1340.47   89.09
  -3  -6  -3  616.74   44.20
  -3  -6  -3  584.44   41.60
   3   6   3  640.84   43.50
  -4  -6  -3  134.99   14.20
  -4  -6  -3  172.08   19.30
  -4  -6  -3  108.19   15.90
  -5  -6  -3   10.40    8.60
  -5  -6  -3    8.50    5.00
  -1   7   3  280.27   27.20
  -1   7   3  327.87   26.60
   0  -7  -3  191.78   41.50
   0   7   3  103.49   14.40
   0   7   3  126.59   15.50
   0   7   3  134.09   20.50
  -1  -7  -3  545.55   75.99
   1   7   3  434.96   35.40
   1   7   3  533.85   37.20
   1   7   3  430.26   41.10
  -2  -7  -3  359.26   73.89
   2   7   3  375.76   37.70
   2   7   3  325.37   30.60
   2   7   3  411.86   34.50
  -3  -7  -3  209.88   56.99
  -3  -7  -3  212.98   21.50
   3   7   3  285.47   29.60
  -4  -7  -3   25.00   11.00
  -4  -7  -3   12.30    8.40
  -4  -7  -3   -3.10   11.40
   4   7   3    8.40   12.60
   0   8   3  390.06   30.80
   0   8   3  425.96   32.30
   1   8   3  263.67   25.10
   1   8   3  279.77   29.50
   2   8   3   85.19   19.90
   2   8   3   78.49   11.50
   2   8   3   71.09   13.90
   3   8   3   42.70   12.60
  -4  -8  -3   96.69   15.80
   4   8   3  117.39   16.10
   1   9   3   -4.30    7.60
   2   9   3   63.59   10.80
   2   9   3   83.49   10.30
  -3  -9  -3   14.70    8.80
   3   8  -4  204.48   20.20
  -3  -8   4  181.48   20.00
   2   8  -4  196.28   19.30
   2   8  -4  248.08   22.70
   1   8  -4  125.19   14.40
   0   8  -4   42.10   10.20
   4   7  -4   -0.90    5.60
  -4  -7   4    0.50   10.20
   3   7  -4  153.18   16.20
   3   7  -4  152.38   13.90
   3   7  -4  137.69   14.40
  -3  -7   4  118.69   17.60
   2   7  -4  322.77   25.30
   2   7  -4  355.86   28.80
   2   7  -4  335.37   31.70
  -2  -7   4  339.87   60.49
  -2  -7   4  400.26   31.20
   1   7  -4 1445.16   94.29
   1   7  -4 1527.25   92.99
   1   7  -4 1325.17   90.89
  -1  -7   4 1326.07  120.19
   0   7  -4   23.20   12.60
   0   7  -4   30.60   12.10
   0   7  -4   32.70   15.10
   4   6  -4   47.40    7.70
   4   6  -4   36.50   10.40
  -4  -6   4   44.80   13.70
   3   6  -4   19.80    7.60
   3   6  -4   11.10   10.80
   3   6  -4    6.40   12.00
  -3  -6   4  -12.60   15.50
   2   6  -4  887.51   60.59
   2   6  -4  983.20   62.39
   2   6  -4  920.11   63.29
  -2  -6   4  909.41  104.39
   1   6  -4  459.75   36.90
   1   6  -4  452.65   34.60
   1   6  -4  396.76   32.40
   1   6  -4  425.76   30.50
  -1  -6   4  457.05   79.89
   0   6  -4   75.89    9.70
   0   6  -4   83.49   16.80
   0   6  -4   67.49   13.80
  -1   6  -4   -6.80   15.00
  -1   6  -4    9.30   12.00
  -1   6  -4    8.30    8.90
  -2   6  -4    4.20    9.10
  -5  -5   4  180.98   16.00
  -5  -5   4  169.88   17.40
   4   5  -4  424.96   30.80
  -4  -5   4  371.16   35.00
  -4  -5   4  428.66   30.30
   3   5  -4  211.48   22.80
   3   5  -4  235.08   24.10
   2   5  -4  860.71   56.09
   2   5  -4  853.91   54.29
   2   5  -4  799.42   57.59
  -2  -5   4  859.91   93.49
  -2  -5   4  724.03   89.79
   1   5  -4  226.98   23.50
   1   5  -4  250.57   25.40
   1   5  -4  223.08   19.60
   1   5  -4  241.18   22.10
  -1  -5   4  325.77   49.40
  -1  -5   4  379.46   69.99
   0   5  -4 1209.88   77.09
   0   5  -4 1212.18   79.79
   0   5  -4 1144.09   78.39
  -1   5  -4   23.80   11.80
  -1   5  -4   30.30   15.10
  -1   5  -4   18.80   12.50
  -1   5  -4   14.10    8.50
  -1   5  -4   14.00    8.70
  -2   5  -4  333.17   26.30
  -2   5  -4  333.07   26.00
  -2   5  -4  335.57   26.40
  -3   5  -4  339.37   24.10
  -3   5  -4  330.87   25.40
  -3   5  -4  383.96   26.70
  -5  -4   4  177.68   16.20
  -5  -4   4  143.19   17.40
  -4  -4   4  161.28   25.00
  -4  -4   4  170.48   18.70
   3   4  -4  351.56   28.00
  -3  -4   4  368.96   27.30
  -3  -4   4  343.77   33.10
   2   4  -4  485.05   32.40
  -2  -4   4  383.26   69.09
  -2  -4   4  434.36   69.29
   1   4  -4  358.46   29.60
  -1  -4   4  428.36   63.09
  -1  -4   4  473.85   60.39
   0   4  -4   37.30   11.70
  -1   4  -4  124.99   13.10
  -1   4  -4  128.79   13.10
  -1   4  -4  115.49   13.70
  -1   4  -4  117.69   13.30
  -1   4  -4  115.99   16.20
  -2   4  -4  671.23   45.00
  -2   4  -4  622.44   43.90
  -2   4  -4  658.03   44.40
  -2   4  -4  653.93   43.50
  -3   4  -4    5.90    7.70
  -3   4  -4   21.00    9.80
  -3   4  -4   28.90   11.40
  -4   4  -4  213.08   18.40
  -5  -3   4  250.67   19.70
  -5  -3   4  220.78   20.70
  -4  -3   4  540.95   41.20
  -4  -3   4  545.15   38.30
   3   3  -4  824.62   53.59
  -3  -3   4  774.82   53.49
  -3  -3   4  808.02   56.49
   2   3  -4   12.80   32.00
  -2  -3   4   10.30   35.80
  -2  -3   4  -12.70   31.40
  -2  -3   4   11.00   36.00
   1   3  -4  750.92   78.19
  -1  -3   4  652.93   62.39
  -1  -3   4  723.43   66.79
  -1  -3   4  783.02   74.39
  -2   3  -4  448.36   32.40
  -2   3  -4  465.85   32.40
  -2   3  -4  460.15   31.70
  -2   3  -4  463.75   31.30
  -3   3  -4   19.30    8.80
  -3   3  -4   19.60    9.40
  -3   3  -4   22.40   11.40
  -3   3  -4   14.80    8.40
   3  -3   4   26.90   41.30
  -4   3  -4   57.49    9.50
  -4   3  -4   61.29    8.10
  -4   3  -4   61.99   12.00
  -4   3  -4   44.30    8.10
   5   2  -4  368.46   37.50
  -5  -2   4  418.06   28.20
  -5  -2   4  395.66   26.00
  -5  -2   4  363.16   27.10
   4   2  -4  223.68   31.30
  -4  -2   4  322.87   24.60
  -4  -2   4  392.96   60.19
  -4  -2   4  313.57   27.10
  -4  -2   4  292.97   21.30
  -4  -2   4  324.67   23.30
  -3  -2   4  872.11   71.99
  -3  -2   4  900.31   69.09
  -3  -2   4 1063.49   63.79
   2   2  -4 2779.22  193.78
   2   2  -4 2848.11  193.98
  -2  -2   4 2987.00  191.48
   1   2  -4 2366.76  161.88
   1   2  -4 2347.67  162.88
  -1  -2   4 2394.96  164.78
  -1  -2   4 2464.05  159.58
  -1  -2   4 2368.16  161.48
   0   2  -4 2071.89  137.69
   0  -2   4 2044.30  132.49
   0  -2   4 1760.12  136.69
  -2   2  -4 7600.04  489.05
  -2   2  -4 7738.73  489.15
  -3   2  -4 1228.08   73.89
  -3   2  -4  996.80   75.59
  -3   2  -4 1094.09   74.79
  -3   2  -4 1178.48   74.79
  -3   2  -4 1204.08   74.09
  -4   2  -4  252.07   22.70
  -4   2  -4  279.77   24.60
  -4   2  -4  248.88   21.50
  -4   2  -4  275.27   20.90
   4  -2   4  281.07   40.10
   5   1  -4  775.42   58.29
  -5  -1   4  873.01   55.29
  -5  -1   4  811.42   55.69
  -5  -1   4  904.01   56.39
  -5  -1   4  908.51   56.29
   4   1  -4  863.21   66.69
  -4  -1   4  812.12   53.89
  -4  -1   4  846.52   54.89
  -4  -1   4  841.32   56.39
  -4  -1   4  823.02   55.49
  -4  -1   4  773.62   73.59
  -3  -1   4  116.99   23.70
   2   1  -4 3483.05  228.08
   2   1  -4 3454.95  231.98
   2   1  -4 3334.67  227.48
   2   1  -4 3252.07  223.28
   2   1  -4 3400.06  225.58
  -2  -1   4 3720.53  226.68
   1   1  -4 3025.20  210.28
   1   1  -4 3306.67  210.88
   1   1  -4 3121.29  207.78
   1   1  -4 3071.89  214.38
  -1  -1   4 3376.06  209.18
  -1  -1   4 3257.07  213.28
   0   1  -4 1763.62  113.59
   0  -1   4 1454.35  112.99
   0  -1   4 1569.54  111.89
   0  -1   4 1689.33  114.99
  -1   1  -4 5046.50  353.06
   1  -1   4 5960.10  356.46
   2  -1   4  223.38   35.00
   2  -1   4  240.38   34.10
   2  -1   4  259.17   38.30
  -3   1  -4   14.60   10.50
  -3   1  -4    5.30    8.60
  -3   1  -4   -1.60    6.60
  -3   1  -4    4.50    6.70
  -3   1  -4    6.10    8.30
  -3   1  -4    0.50    7.60
   3  -1   4   11.30   33.40
   3  -1   4   35.00   37.30
   3  -1   4   12.80   26.40
  -4   1  -4   32.80    7.90
  -4   1  -4   41.30   11.00
  -4   1  -4   47.00    8.20
  -4   1  -4   19.90   10.30
  -4   1  -4   74.79   15.50
  -4   1  -4   42.70    8.80
   4  -1   4   47.00   27.90
   4  -1   4  -12.60   48.70
  -5   1  -4  183.58   14.40
  -5   1  -4  178.58   15.50
  -5   1  -4  178.58   15.60
   5   0  -4  211.78   23.20
  -5   0   4  225.48   17.20
  -5   0   4  225.98   17.50
  -5   0   4  254.27   19.30
   4   0  -4  212.88   42.00
  -4   0   4  219.48   34.40
  -4   0   4  159.58   17.10
  -4   0   4  170.78   15.00
  -4   0   4  159.48   18.50
   3   0  -4  407.26   51.59
   3   0  -4  437.16   46.00
  -3   0   4  372.76   26.10
  -3   0   4  340.07   27.00
  -3   0   4  343.57   52.69
  -3   0   4  373.96   27.10
   2   0  -4  291.47   51.49
   2   0  -4  270.27   39.90
   2   0  -4  286.67   40.40
   2   0  -4  296.07   37.20
   2   0  -4  302.67   34.10
  -2   0   4  327.97   39.30
   1   0  -4  290.17   48.40
   1   0  -4  311.27   35.80
   1   0  -4  336.77   40.70
   1   0  -4  259.27   39.10
  -1   0   4  373.36   47.10
   0   0  -4 6897.61  464.35
   0   0   4 7423.36  466.05
   0   0   4 7406.46  466.55
  -1   0  -4 1696.43  115.39
   1   0   4 1714.33  118.99
   1   0   4 1865.41  120.59
   1   0   4 1506.55  120.49
   2   0   4  776.72   61.39
   2   0   4  678.53   63.49
   2   0   4  630.24   66.09
  -3   0  -4 1041.70   68.39
  -3   0  -4 1092.19   68.49
   3   0   4 1035.50   77.19
   3   0   4 1067.49   84.59
  -4   0  -4  706.03   43.70
  -4   0  -4  628.64   43.60
  -4   0  -4  610.54   44.70
  -4   0  -4  723.33   49.20
  -4   0  -4  693.53   48.40
  -4   0  -4  585.94   43.00
   4   0   4  649.54   58.69
  -5   0  -4  366.46   27.30
  -5   0  -4  401.06   26.70
   5   0   4  381.46   42.10
   5  -1  -4  219.18   22.10
  -5   1   4  223.58   17.20
  -5   1   4  218.48   16.80
  -5   1   4  228.38   16.90
   4  -1  -4  163.98   35.50
  -4   1   4  146.69   34.00
  -4   1   4  148.19   15.00
  -4   1   4  157.98   18.10
  -4   1   4  163.88   12.90
  -4   1   4  132.09   15.90
   3  -1  -4  451.25   53.49
   3  -1  -4  442.66   48.40
  -3   1   4  392.56   26.50
  -3   1   4  348.67   28.10
  -3   1   4  393.26   54.69
  -3   1   4  373.66   26.60
  -3   1   4  401.06   27.80
  -3   1   4  363.36   29.50
   2  -1  -4  138.39   24.50
   2  -1  -4   89.99   20.60
   2  -1  -4  181.28   34.50
   2  -1  -4  113.09   27.50
  -2   1   4   92.69   24.80
   1  -1  -4 5318.37  351.86
   1  -1  -4 5224.28  346.57
   1  -1  -4 5097.29  348.57
   1  -1  -4 5568.54  348.67
  -1   1   4 5698.13  347.77
   0  -1  -4 2102.99  152.38
   0  -1  -4 2135.49  152.78
   0  -1  -4 2136.39  152.78
   0  -1  -4 2279.47  156.28
   0  -1  -4 2504.35  155.28
   0   1   4 2652.13  155.38
   0   1   4 2221.18  154.48
  -1  -1  -4 5696.03  388.36
  -1  -1  -4 6783.12  389.66
  -1  -1  -4 5302.27  389.06
   1   1   4 6384.96  392.06
  -2  -1  -4 2897.51  191.48
   2   1   4 3143.09  192.98
   2   1   4 2510.95  194.68
   2   1   4 3008.00  195.08
  -3  -1  -4  329.77   23.10
   3   1   4  331.57   55.29
   3   1   4  333.77   37.90
   3   1   4  293.67   48.40
  -4  -1  -4 1191.98   74.59
  -4  -1  -4 1217.78   75.19
  -4  -1  -4 1066.09   76.59
  -4  -1  -4 1100.79   74.29
   4   1   4 1152.08   85.29
  -5  -1  -4  182.48   15.30
  -5  -1  -4  149.49   15.80
  -5  -1  -4  205.48   23.70
   5   1   4  143.09   28.20
   4  -2  -4  110.89   33.40
  -4   2   4  141.39   12.30
  -4   2   4  114.49   13.50
  -4   2   4  124.29   13.40
  -4   2   4  116.49   13.50
   3  -2  -4  800.02   69.09
  -3   2   4  867.11   55.69
  -3   2   4  842.22   55.19
  -3   2   4  864.81   56.79
  -3   2   4  826.32   55.39
  -3   2   4  873.41   77.39
   2  -2  -4 1346.87  108.09
   2  -2  -4 1664.83  106.99
   2  -2  -4 1430.86  110.19
   2  -2  -4 1595.44  105.19
  -2   2   4 1501.45   97.39
  -2   2   4 1544.75  107.69
   1  -2  -4 1067.29   88.19
   1  -2  -4  879.91   77.49
   1  -2  -4 1148.09   76.89
   1  -2  -4 1058.99   81.69
   1  -2  -4 1114.49   79.59
   0  -2  -4 6205.28  375.46
   0  -2  -4 5832.12  378.26
   0   2   4 5437.26  376.36
  -1  -2  -4  911.31   77.59
  -1  -2  -4  987.70   72.49
   1   2   4  942.61   79.09
   1   2   4 1009.90   79.39
  -2  -2  -4 1342.77   98.09
   2   2   4 1370.26  103.19
   2   2   4 1391.06  106.39
   3   2   4   64.89   49.00
  -4  -2  -4  770.32   54.89
  -4  -2  -4  770.92   52.09
  -4  -2  -4  839.32   52.19
  -4  -2  -4  718.43   52.79
   4   2   4  803.32   64.09
  -5  -2  -4    7.60    7.50
  -5  -2  -4    4.80    7.80
  -5  -2  -4    9.90   14.40
   5   2   4    0.40   24.00
  -4   3   4   65.29    8.30
  -4   3   4   56.09    9.30
  -4   3   4   44.70    7.00
   3  -3  -4  929.31   74.69
  -3   3   4  867.81   79.79
  -3   3   4  865.91   57.99
  -3   3   4  861.11   58.59
  -3   3   4  895.71   58.49
  -3   3   4  887.81   58.09
  -3   3   4  891.61   59.79
   2  -3  -4  843.62   72.79
  -2   3   4  911.71   59.09
  -2   3   4  950.50   59.99
  -2   3   4  951.00   58.59
  -2   3   4  799.52   59.69
  -2   3   4  952.60   74.79
  -2   3   4  893.31   58.59
  -2   3   4  914.11   59.39
   1  -3  -4  559.04   63.69
   1  -3  -4  514.65   57.49
   1  -3  -4  506.95   51.59
   0  -3  -4 6353.56  448.16
   0  -3  -4 7091.49  454.05
   0  -3  -4 7487.35  448.86
   0  -3  -4 7017.20  449.26
  -1  -3  -4 2417.36  168.08
  -1  -3  -4 2233.88  163.08
  -1  -3  -4 2659.83  162.48
  -2  -3  -4 2628.04  183.48
  -2  -3  -4 2575.34  183.68
  -2  -3  -4 2876.81  183.28
   2   3   4 2848.42  188.68
   3   3   4  579.64   49.30
  -4  -3  -4  203.58   21.40
  -4  -3  -4  224.88   26.20
  -4  -3  -4  199.28   19.40
   4   3   4  168.48   29.10
  -5  -3  -4  742.93   49.10
  -5  -3  -4  695.73   49.70
  -5  -3  -4  685.03   51.79
   5   3   4  866.11   61.79
   3  -4  -4   38.30   36.10
  -3   4   4   25.90   12.20
  -3   4   4   30.00   10.70
  -3   4   4   33.70    9.00
   2  -4  -4  575.44   60.19
  -2   4   4  577.24   40.50
  -2   4   4  517.85   38.30
  -2   4   4  529.25   38.90
  -2   4   4  577.54   37.60
   1  -4  -4  544.85   62.79
   1  -4  -4  576.14   66.09
  -1   4   4  516.95   36.90
  -1   4   4  545.35   38.40
  -1   4   4  610.74   38.00
   0  -4  -4  840.72   64.29
   0  -4  -4  815.72   79.59
   0  -4  -4  864.31   69.69
  -1  -4  -4   34.50   30.60
  -1  -4  -4   56.39   23.40
  -1  -4  -4   53.79   30.70
  -2  -4  -4   43.40   43.10
  -2  -4  -4   54.59   29.30
  -2  -4  -4   36.60   34.00
   2   4   4   12.20    8.20
   2   4   4   14.60   23.70
  -3  -4  -4   24.30    9.70
  -3  -4  -4   22.10   10.70
   3   4   4   20.20   22.90
  -4  -4  -4   27.10   12.50
  -4  -4  -4   25.90   10.20
   4   4   4   40.90   26.30
  -5  -4  -4  444.36   32.20
  -5  -4  -4  455.15   31.00
   5   4   4  441.86   47.60
  -3   5   4   88.59   14.20
  -2   5   4  236.88   25.40
  -2   5   4  225.08   19.80
  -2   5   4  225.78   23.30
   1  -5  -4  486.15   66.99
  -1   5   4  405.36   31.10
  -1   5   4  376.46   28.50
  -1   5   4  397.36   29.50
  -1   5   4  332.17   26.80
   0   5   4  179.18   18.00
   0   5   4  239.38   19.40
  -1  -5  -4  251.17   50.69
  -1  -5  -4  253.97   59.39
  -2  -5  -4  237.78   55.59
  -2  -5  -4  181.48   41.20
   2   5   4  137.89   18.90
   2   5   4  102.59   31.20
   2   5   4  124.59   12.70
  -3  -5  -4  442.16   29.60
  -3  -5  -4  425.56   32.30
   3   5   4  342.57   50.39
   3   5   4  397.26   39.50
  -4  -5  -4  328.67   25.20
  -4  -5  -4  360.46   28.40
   4   5   4  280.87   48.20
  -5  -5  -4  138.79   12.90
  -5  -5  -4  147.19   16.10
   5   5   4   97.29   29.00
  -2   6   4  241.68   23.60
  -2   6   4  267.87   25.40
  -1   6   4  603.64   44.80
  -1   6   4  573.24   41.70
  -1   6   4  610.14   43.10
   0  -6  -4  947.01   80.89
   0   6   4  889.41   64.19
   0   6   4  938.91   61.69
   0   6   4  899.21   61.99
   0   6   4  949.01   61.69
  -1  -6  -4  833.22   76.19
   1   6   4  652.83   49.90
   1   6   4  706.73   46.80
   1   6   4  686.63   48.10
   1   6   4  714.83   52.19
   1   6   4  563.44   75.99
   1   6   4  698.73   48.10
  -2  -6  -4  813.72   76.09
   2   6   4  789.62   53.19
   2   6   4  655.53   49.99
   2   6   4  682.63   49.30
   2   6   4  718.13   49.80
  -3  -6  -4  368.06   27.80
  -3  -6  -4  405.76   31.40
   3   6   4  350.56   39.70
   3   6   4  337.57   55.29
  -4  -6  -4  284.27   20.50
  -4  -6  -4  247.18   25.50
  -4  -6  -4  276.17   24.00
   4   6   4  174.78   47.40
  -5  -6  -4  154.08   13.10
   5   6   4  180.38   17.80
  -1   7   4   44.40   10.80
  -1   7   4   50.59   11.70
   0  -7  -4   89.09   40.10
   0   7   4   80.79   19.10
   0   7   4   53.59   11.80
   0   7   4   67.79   13.50
  -1  -7  -4  466.65   71.19
   1   7   4  365.66   31.00
   1   7   4  399.16   32.80
   1   7   4  361.06   37.00
  -2  -7  -4  265.67   21.60
  -2  -7  -4  322.97   68.69
   2   7   4  256.17   29.30
   2   7   4  236.38   34.00
   2   7   4  261.17   25.10
  -3  -7  -4  254.67   26.40
  -3  -7  -4  215.78   19.10
   3   7   4  218.18   29.70
  -4  -7  -4   11.00   11.40
  -4  -7  -4   21.10    7.20
  -4  -7  -4   41.40   11.50
   4   7   4   19.30   12.70
   0   8   4  256.77   23.40
   0   8   4  286.27   25.60
   1   8   4  317.87   28.10
   1   8   4  246.78   30.60
   1   8   4  244.38   23.50
   2   8   4   55.79   13.20
   2   8   4   69.19   11.50
   2   8   4   82.09   19.70
   3   8   4   92.89   13.80
  -4  -8  -4    6.90    8.90
   4   8   4    0.10    8.90
   1   9   4  105.99   10.40
   2   9   4   73.49   11.10
   2   8  -5    5.90   11.20
   1   8  -5  311.67   27.10
   0   8  -5  147.09   18.20
  -4  -7   5   12.10    9.60
   3   7  -5  142.99   20.50
   3   7  -5  144.59   13.40
   3   7  -5  140.79   13.40
  -3  -7   5  102.09   16.30
   2   7  -5  131.39   17.60
   2   7  -5  124.69   13.70
   2   7  -5  129.09   14.40
  -2  -7   5  125.19   54.29
  -2  -7   5  156.68   23.20
   1   7  -5  316.87   27.80
   1   7  -5  228.18   20.30
  -1  -7   5  234.98   56.19
   0   7  -5  236.98   26.60
   0   7  -5  226.38   19.30
  -1   7  -5  207.58   22.50
   4   6  -5  115.39   11.20
   4   6  -5   88.89   11.10
  -4  -6   5   68.99   13.80
   3   6  -5  462.05   36.70
   3   6  -5  549.65   34.00
   3   6  -5  510.25   36.60
  -3  -6   5  455.25   40.10
   2   6  -5  696.63   51.29
   2   6  -5  726.73   47.90
   2   6  -5  769.72   49.90
  -2  -6   5  707.23   53.29
  -2  -6   5  696.03   95.19
   1   6  -5  313.67   24.40
   1   6  -5  326.17   27.00
   1   6  -5  307.47   31.60
   1   6  -5  334.87   28.20
  -1  -6   5  372.36   63.99
   0   6  -5  134.09   18.50
   0   6  -5  134.29   16.00
   0   6  -5  137.19   15.30
  -1   6  -5   49.90    9.80
  -1   6  -5   35.50   15.50
  -2   6  -5   26.20   11.30
  -5  -5   5  113.49   12.90
  -5  -5   5   98.79   13.70
   4   5  -5  154.78   15.70
  -4  -5   5  187.48   24.10
  -4  -5   5  181.58   18.50
   3   5  -5    2.00   11.30
  -3  -5   5   -9.80   14.90
   2   5  -5  202.48   21.80
   2   5  -5  215.18   17.90
   2   5  -5  224.28   24.00
  -2  -5   5  211.88   53.59
  -2  -5   5  172.78   57.49
   1   5  -5   53.99   10.70
   1   5  -5   44.20   11.60
   1   5  -5   50.09    8.10
   1   5  -5   54.29   14.20
  -1  -5   5   99.09   48.20
  -1  -5   5   40.70   43.60
   0   5  -5  460.45   29.70
   0   5  -5  444.06   35.20
   0   5  -5  410.86   32.20
   0  -5   5  291.17   63.49
  -1   5  -5  728.83   52.39
  -1   5  -5  713.73   50.79
  -1   5  -5  745.23   49.00
  -2   5  -5   93.79   12.50
  -2   5  -5  106.59   12.70
  -2   5  -5  133.49   12.30
  -3   5  -5   25.80    9.60
  -3   5  -5   34.00    5.80
  -3   5  -5   28.30    7.90
  -5  -4   5  183.18   16.00
  -5  -4   5  143.29   16.70
  -4  -4   5  181.08   19.00
  -4  -4   5  173.38   24.90
   3   4  -5  836.82   54.19
  -3  -4   5  766.82   57.39
  -3  -4   5  803.52   53.59
   2   4  -5 1748.43  117.79
  -2  -4   5 1720.53  139.49
  -2  -4   5 2063.79  123.69
  -2  -4   5 1748.33  139.19
   1   4  -5 1613.94  100.99
   1   4  -5 1552.54  100.29
  -1  -4   5 1623.44  119.79
  -1  -4   5 1438.86  121.29
   0   4  -5 1608.94   96.29
   0   4  -5 1682.03   95.89
   0  -4   5 1230.68  108.79
   0  -4   5 1381.36  112.69
  -1   4  -5    8.70    7.00
  -1   4  -5   17.70    7.90
  -1   4  -5   15.50    7.30
  -1   4  -5    0.60   13.30
  -1   4  -5   11.40   10.10
  -2   4  -5  196.18   20.70
  -2   4  -5  190.08   19.10
  -2   4  -5  158.48   19.60
  -2   4  -5  189.18   18.00
  -2   4  -5  194.08   16.90
  -3   4  -5   44.10   11.70
  -3   4  -5   39.00    8.10
  -3   4  -5   60.19   10.10
  -4   4  -5  142.79   15.00
  -5  -3   5   92.49   14.80
  -5  -3   5  101.89   13.90
  -4  -3   5  159.38   23.40
  -4  -3   5  165.48   18.30
   3   3  -5  124.79   38.70
   3   3  -5  116.99   12.90
  -3  -3   5  133.09   16.00
  -3  -3   5  137.89   22.30
   2   3  -5 1400.86  106.69
   2   3  -5 1312.87   83.59
  -2  -3   5 1228.98  104.99
  -2  -3   5 1211.28  105.99
   1   3  -5  635.64   76.19
  -1  -3   5  685.33   73.49
  -1  -3   5  677.63   67.39
  -1  -3   5  556.54   59.69
   0  -3   5  419.76   53.79
   0  -3   5  453.45   61.79
  -2   3  -5  111.59   11.50
  -2   3  -5  122.49   11.80
  -2   3  -5  136.09   13.20
  -2   3  -5  126.49   16.30
  -2   3  -5  122.79   15.60
  -2   3  -5  146.09   17.80
  -3   3  -5  230.08   20.80
  -3   3  -5  236.78   19.30
  -3   3  -5  214.98   19.50
  -3   3  -5  224.78   22.80
   3  -3   5  181.48   50.79
  -4   3  -5   33.40    7.30
  -4   3  -5   33.30   11.60
  -4   3  -5   43.60    8.80
  -4   3  -5   34.90    7.50
   5   2  -5  231.38   25.70
  -5  -2   5  184.38   18.90
   4   2  -5  793.92   55.89
  -4  -2   5  851.51   76.89
  -4  -2   5  770.22   53.09
  -4  -2   5  721.93   50.69
  -4  -2   5  725.23   51.39
   3   2  -5  463.75   60.19
   3   2  -5  409.76   35.20
  -3  -2   5  444.16   34.40
  -3  -2   5  354.56   48.10
  -3  -2   5  416.16   30.00
  -3  -2   5  446.46   30.50
   2   2  -5  797.32   73.29
   2   2  -5  780.72   70.49
  -2  -2   5  771.92   65.79
   1   2  -5 3567.04  240.08
   1   2  -5 3362.06  238.78
  -1  -2   5 3714.63  238.48
  -1  -2   5 3632.84  237.38
  -1  -2   5 3748.32  241.58
   0   2  -5 3054.59  216.48
   0  -2   5 3418.06  214.48
   0  -2   5 2906.61  212.98
   0  -2   5 3560.64  214.18
   1  -2   5  501.55   56.49
  -2   2  -5 5620.34  337.47
  -2   2  -5 5487.45  337.27
  -2   2  -5 5514.85  337.27
   2  -2   5 4516.45  340.27
  -3   2  -5  290.77   21.40
  -3   2  -5  272.77   24.80
  -3   2  -5  292.27   23.80
  -3   2  -5  229.28   29.60
  -3   2  -5  286.87   21.80
  -3   2  -5  257.77   23.60
  -4   2  -5  353.86   27.80
  -4   2  -5  336.77   26.60
  -4   2  -5  333.87   25.50
  -4   2  -5  347.57   25.00
   5   1  -5  122.99   18.70
  -5  -1   5  153.28   15.20
  -5  -1   5  153.18   12.30
  -5  -1   5  159.48   14.70
  -5  -1   5  143.29   13.80
   4   1  -5 1097.99  100.69
  -4  -1   5 1324.07   82.79
  -4  -1   5 1303.57   81.79
  -4  -1   5 1219.08   80.59
  -4  -1   5 1249.88   97.89
  -4  -1   5 1283.37   81.29
  -3  -1   5 3849.51  239.58
  -3  -1   5 3588.14  243.88
  -3  -1   5 4014.00  238.48
  -3  -1   5 3463.55  238.58
   2   1  -5  401.76   61.99
   2   1  -5  367.56   45.90
   2   1  -5  428.26   50.99
  -2  -1   5  270.17   42.40
   1   1  -5 1471.25  102.19
   1   1  -5 1344.47  108.09
   1   1  -5 1292.47  101.19
   1   1  -5 1590.24   97.39
  -1  -1   5 1385.06   99.29
  -1  -1   5 1263.97  108.09
   0   1  -5  464.65   52.19
   0   1  -5  424.66   59.59
   0   1  -5  359.86   49.99
   0  -1   5  470.15   50.29
   0  -1   5  484.35   58.09
  -1   1  -5 3556.24  263.57
   1  -1   5 4220.48  265.87
   1  -1   5 4105.09  266.97
   1  -1   5 4345.06  262.67
   2  -1   5 1860.51  130.89
   2  -1   5 1998.50  132.79
  -3   1  -5   30.80   10.90
  -3   1  -5   42.90    8.00
  -3   1  -5   40.90    9.40
  -3   1  -5   29.10    7.40
  -3   1  -5   23.00    8.70
   3  -1   5   22.50   25.80
   3  -1   5   37.50   39.70
   3  -1   5    6.30   35.20
  -4   1  -5  520.25   37.40
  -4   1  -5  502.85   35.70
  -4   1  -5  534.35   40.30
  -4   1  -5  518.15   37.10
  -4   1  -5  527.45   35.80
  -4   1  -5  526.85   35.50
   4  -1   5  523.95   52.79
  -5   1  -5  337.57   24.10
  -5   1  -5  338.27   23.50
   5   0  -5   53.89   11.80
  -5   0   5   58.79    8.70
  -5   0   5   71.69    8.40
  -5   0   5   63.39    7.20
   4   0  -5  156.18   31.80
  -4   0   5  102.49   32.90
  -4   0   5  109.09   11.50
  -4   0   5   85.79   13.10
  -4   0   5  107.99    9.90
  -4   0   5   98.49   12.80
   3   0  -5  173.98   34.30
   3   0  -5  152.98   31.80
  -3   0   5   99.29   10.90
  -3   0   5  111.09   28.60
  -3   0   5  128.59   14.20
  -3   0   5  109.19   14.40
  -3   0   5  120.09   17.90
   2   0  -5  364.46   57.09
   2   0  -5  343.17   44.40
   2   0  -5  366.86   39.80
   2   0  -5  357.76   44.40
   2   0  -5  380.76   36.90
  -2   0   5  328.77   44.80
  -2   0   5  348.97   45.90
   1   0  -5 1000.40   85.79
   1   0  -5 1049.09   80.29
   1   0  -5 1015.90   79.09
   1   0  -5 1060.49   76.09
  -1   0   5  982.70   83.09
  -1   0   5 1198.78   78.89
   0   0  -5  856.51   65.39
   0   0  -5  940.01   72.79
   0   0   5  833.92   71.79
   0   0   5  825.62   77.89
  -1   0  -5  350.96   43.70
   1   0   5  355.26   56.49
   1   0   5  406.56   58.79
   2   0   5  467.75   62.19
   2   0   5  528.15   55.19
   2   0   5  462.35   55.39
  -3   0  -5  324.87   29.10
  -3   0  -5  389.76   27.90
  -3   0  -5  363.96   25.60
  -3   0  -5  382.06   25.90
   3   0   5  437.46   42.50
   3   0   5  344.37   63.69
   3   0   5  325.57   56.59
  -4   0  -5  660.73   44.30
  -4   0  -5  626.54   43.80
  -4   0  -5  654.03   47.80
  -4   0  -5  633.84   45.50
  -4   0  -5  685.23   47.40
  -4   0  -5  697.13   44.20
   4   0   5  688.23   58.99
  -5   0  -5   52.59    9.10
  -5   0  -5   75.49    8.50
   5   0   5   72.29   22.60
   5  -1  -5   20.40   10.00
  -5   1   5   34.80    7.80
  -5   1   5   42.30    7.00
  -4   1   5  420.56   30.50
  -4   1   5  345.17   29.70
  -4   1   5  441.46   29.40
  -4   1   5  432.66   31.30
  -4   1   5  413.26   62.39
  -4   1   5  420.16   28.90
   3  -1  -5  330.27   43.70
   3  -1  -5  304.17   50.19
  -3   1   5  336.87   23.10
  -3   1   5  316.97   24.70
  -3   1   5  363.36   54.99
  -3   1   5  315.17   26.60
  -3   1   5  351.66   24.50
  -3   1   5  312.47   25.20
  -3   1   5  315.27   22.90
   2  -1  -5  780.62   69.89
   2  -1  -5  899.51   64.49
   2  -1  -5  923.51   67.39
   2  -1  -5  931.91   79.39
   2  -1  -5  832.72   69.49
  -2   1   5  768.22   69.59
   1  -1  -5 1890.41  120.39
   1  -1  -5 1792.02  124.29
   1  -1  -5 1691.83  119.49
   1  -1  -5 1794.82  122.99
   1  -1  -5 1842.02  131.19
  -1   1   5 1637.94  121.29
   0  -1  -5  240.28   42.70
   0  -1  -5  314.67   53.19
   0  -1  -5  259.77   42.70
   0  -1  -5  271.17   45.60
   0   1   5  231.18   43.50
   0   1   5  271.97   45.50
  -1  -1  -5 1490.35  114.79
  -1  -1  -5 1600.84  117.09
  -1  -1  -5 1912.71  117.39
  -1  -1  -5 1663.43  116.59
   1   1   5 1822.22  123.19
   2   1   5  223.18   49.30
   2   1   5  266.37   44.80
   2   1   5  248.98   53.49
  -3  -1  -5  257.07   19.70
   3   1   5  200.38   46.50
   3   1   5  261.87   35.10
   3   1   5  290.27   43.70
  -4  -1  -5  732.43   51.79
  -4  -1  -5  741.13   48.40
  -4  -1  -5  757.12   49.20
  -4  -1  -5  676.53   48.00
  -4  -1  -5  651.83   47.50
   4   1   5  794.22   60.99
  -5  -1  -5  336.77   25.60
  -5  -1  -5  401.86   31.50
  -5  -1  -5  385.86   25.20
   5   1   5  284.77   41.50
  -4   2   5  838.42   54.79
  -4   2   5  849.91   53.89
  -4   2   5  771.92   54.09
   3  -2  -5  245.48   44.60
  -3   2   5  258.27   20.20
  -3   2   5  242.28   19.20
  -3   2   5  213.38   19.50
  -3   2   5  231.08   36.90
  -3   2   5  235.78   23.30
  -3   2   5  278.17   21.80
   2  -2  -5 1888.51  133.59
   2  -2  -5 1995.70  128.39
   2  -2  -5 1970.00  130.79
   2  -2  -5 1838.62  139.19
  -2   2   5 1666.13  121.39
  -2   2   5 1983.60  121.29
  -2   2   5 1912.91  131.49
   1  -2  -5  408.36   42.50
   1  -2  -5  365.86   46.40
   1  -2  -5  368.66   46.50
   1  -2  -5  416.26   51.99
   1  -2  -5  352.56   60.79
   0  -2  -5  590.84   53.09
   0  -2  -5  527.55   62.59
   0  -2  -5  534.75   73.49
   0  -2  -5  536.15   56.59
   0  -2  -5  578.84   54.19
   0   2   5  516.45   54.29
  -1  -2  -5 9738.12  597.14
  -1  -2  -5 8720.43  597.04
  -1  -2  -5 9333.37  598.04
   1   2   5 9389.96  599.74
  -2  -2  -5  263.87   40.70
   2   2   5  301.37   62.89
   2   2   5  308.77   56.79
  -4  -2  -5   59.69    9.10
  -4  -2  -5   80.09   10.90
  -4  -2  -5   61.39   12.10
  -4  -2  -5   67.29   14.00
  -4  -2  -5   72.79   11.20
   4   2   5   55.89   25.00
  -5  -2  -5   23.40    7.80
  -5  -2  -5   33.20   15.00
  -5  -2  -5   11.80    8.00
   5   2   5   13.90   24.50
   4  -3  -5   33.00   11.10
  -4   3   5   49.00    7.10
  -4   3   5   53.59    9.00
   3  -3  -5   11.80   33.40
  -3   3   5   11.20   10.60
  -3   3   5   30.50   11.30
  -3   3   5   22.80    8.90
  -3   3   5   12.70    7.60
  -3   3   5    8.60   33.20
   2  -3  -5   83.59   31.90
   2  -3  -5  136.89   29.00
  -2   3   5  113.49   11.30
  -2   3   5  121.99   11.90
  -2   3   5  119.89   10.20
  -2   3   5   99.79   29.20
  -2   3   5  106.99   12.70
  -2   3   5  130.69   13.90
  -2   3   5  103.79   14.00
   1  -3  -5  214.68   37.40
   1  -3  -5  235.68   32.70
   1  -3  -5  190.98   30.90
   1  -3  -5  243.38   37.60
   0  -3  -5  135.09   32.50
   0  -3  -5  180.58   30.60
   0  -3  -5  172.68   29.20
   0  -3  -5  206.68   32.00
  -1  -3  -5   -1.00   31.30
  -1  -3  -5    8.90   28.10
  -1  -3  -5   -1.90   31.10
  -1  -3  -5    8.20   23.10
  -2  -3  -5 1954.40  134.99
  -2  -3  -5 1938.61  137.09
  -2  -3  -5 1960.00  138.49
   2   3   5 1868.51  142.39
   2   3   5 2017.30  130.89
   3   3   5  724.53   57.99
  -4  -3  -5  368.96   29.70
  -4  -3  -5  386.96   31.30
  -4  -3  -5  400.96   34.90
   4   3   5  448.96   48.10
  -5  -3  -5  262.97   26.20
  -5  -3  -5  278.77   21.10
  -5  -3  -5  252.67   21.60
   5   3   5  294.37   40.30
   3  -4  -5  270.97   53.09
  -3   4   5  238.48   23.80
  -3   4   5  255.77   19.80
   2  -4  -5  373.16   53.99
  -2   4   5  329.97   31.10
  -2   4   5  352.76   29.70
  -2   4   5  381.86   27.70
  -2   4   5  311.07   27.20
  -2   4   5  393.76   26.00
   1  -4  -5  613.24   73.69
   1  -4  -5  660.13   69.29
  -1   4   5  596.44   40.50
  -1   4   5  540.25   38.90
  -1   4   5  584.94   39.70
  -1   4   5  578.04   41.40
   0  -4  -5  623.84   57.19
   0  -4  -5  598.74   54.49
   0  -4  -5  590.44   68.59
   0   4   5  442.06   64.59
  -1  -4  -5 3058.69  205.98
  -1  -4  -5 3250.37  211.48
  -1  -4  -5 3087.79  204.18
  -1  -4  -5 3124.19  207.28
   1   4   5 2980.80  205.98
  -2  -4  -5 1105.19   87.19
  -2  -4  -5  977.90   82.49
   2   4   5  966.50   76.99
  -3  -4  -5  874.81   61.99
  -3  -4  -5  893.51   61.19
   3   4   5 1017.70   72.19
  -4  -4  -5  190.98   22.70
  -4  -4  -5  171.28   19.70
  -4  -4  -5  210.58   22.40
   4   4   5  250.67   42.90
  -5  -4  -5  467.75   34.00
  -5  -4  -5  501.75   33.10
   5   4   5  472.25   49.30
  -3   5   5   -9.30    9.00
   2  -5  -5  267.37   47.20
  -2   5   5  281.07   25.50
  -2   5   5  261.07   26.60
  -2   5   5  289.47   21.50
   1  -5  -5   23.00   35.10
   1  -5  -5   35.90   38.60
  -1   5   5    5.80   10.70
  -1   5   5    0.30   12.80
  -1   5   5    1.40    8.70
   0  -5  -5 1602.24  112.99
   0  -5  -5 1630.74  113.39
   0   5   5 1619.54  102.09
   0   5   5 1547.25  101.89
   0   5   5 1502.45  103.39
   0   5   5 1572.14  101.99
  -1  -5  -5  239.38   39.60
  -1  -5  -5  161.18   37.70
  -1  -5  -5  189.48   38.80
   1   5   5  188.78   24.10
   1   5   5  168.48   39.00
   1   5   5  180.38   17.50
  -2  -5  -5  597.34   67.19
  -2  -5  -5  654.73   78.69
   2   5   5  614.14   45.10
   2   5   5  541.55   59.99
  -3  -5  -5  830.42   57.79
  -3  -5  -5  867.61   56.39
   3   5   5  892.41   62.29
   3   5   5  808.12   72.99
  -4  -5  -5  132.19   16.40
  -4  -5  -5  156.58   13.80
   4   5   5  102.09   32.40
  -5  -5  -5   37.70   10.00
  -5  -5  -5   28.60    7.70
   5   5   5   42.30   26.80
  -2   6   5  247.58   24.80
  -2   6   5  259.97   23.10
   1  -6  -5   49.10   34.40
  -1   6   5   48.20   10.50
  -1   6   5   62.99   16.10
  -1   6   5   67.49   12.10
   0  -6  -5  540.85   64.49
   0   6   5  414.66   33.90
   0   6   5  423.76   39.00
   0   6   5  492.05   34.30
  -1  -6  -5  114.19   40.40
   1   6   5   90.79   18.60
   1   6   5   86.49   13.40
  -2  -6  -5  888.81   87.19
  -2  -6  -5  872.71   61.39
   2   6   5  946.31   61.29
   2   6   5  932.91   60.69
   2   6   5  891.61   65.09
  -3  -6  -5  595.64   43.60
  -3  -6  -5  594.94   41.00
   3   6   5  544.05   66.19
   3   6   5  669.93   51.29
  -4  -6  -5  146.79   19.10
  -4  -6  -5   97.49   12.10
   4   6   5  123.69   34.20
  -5  -6  -5   57.89    9.30
  -5  -6  -5   33.90    6.30
  -1   7   5  128.59   19.70
  -1   7   5  116.39   14.70
  -1   7   5  169.38   14.20
   0   7   5  304.37   26.70
   0   7   5  336.77   27.90
   0   7   5  317.97   34.10
  -1  -7  -5  778.72   79.39
   1   7   5  715.63   50.19
   1   7   5  689.53   54.99
   1   7   5  768.02   51.29
   1   7   5  691.13   50.99
  -2  -7  -5  525.15   33.10
  -2  -7  -5  511.05   74.79
   2   7   5  425.76   38.50
   2   7   5  436.16   42.30
   2   7   5  454.75   35.00
  -3  -7  -5  106.79   12.00
  -3  -7  -5  100.59   14.90
   3   7   5  139.39   17.80
  -4  -7  -5   76.59   12.40
  -4  -7  -5   90.49    9.60
  -4  -7  -5  117.19   13.00
   4   7   5   73.49   14.50
   0   8   5   17.50   12.00
   0   8   5   19.30   15.90
   0   8   5   10.80    9.40
   1   8   5   73.89   19.70
   1   8   5  103.19   14.60
   1   8   5   76.59   11.00
  -2  -8  -5    4.10    7.80
   2   8   5   -1.20   10.10
   2   8   5   -0.40   19.10
   2   8   5    9.40   11.50
  -3  -8  -5   60.39    8.40
   3   8   5   66.09   12.40
  -4  -8  -5   97.59   14.10
   4   8   5   94.59   11.10
   1   9   5  194.08   17.40
   2   9   5  434.36   32.10
   2   8  -6  123.89   13.50
   1   8  -6   22.60   10.80
   3   7  -6   54.59   11.50
   3   7  -6   43.60    7.20
   3   7  -6   49.00   10.20
  -3  -7   6   31.60   12.30
   2   7  -6   34.40   10.20
   2   7  -6   42.40   12.80
   2   7  -6   31.00    7.60
   1   7  -6  453.95   36.10
   1   7  -6  457.35   31.50
   0   7  -6  169.48   22.50
   0   7  -6  148.39   15.90
  -1   7  -6   42.10   12.20
   4   6  -6  361.86   22.50
  -4  -6   6  260.47   26.60
   3   6  -6  337.67   27.70
   3   6  -6  315.17   24.00
  -3  -6   6  333.87   31.70
   2   6  -6  340.87   27.60
   2   6  -6  319.27   24.10
   2   6  -6  289.17   29.70
  -2  -6   6  348.37   65.99
  -2  -6   6  337.37   31.50
   1   6  -6   92.29   12.30
   1   6  -6   84.49   17.60
   1   6  -6   78.79   10.10
  -1  -6   6   99.69   58.69
   0   6  -6  785.32   53.19
   0   6  -6  750.82   49.10
   0  -6   6  626.04   78.59
  -1   6  -6  159.48   23.40
  -1   6  -6  153.18   17.00
  -2   6  -6  124.19   13.90
  -4  -5   6   61.59   13.70
  -4  -5   6   77.29   12.70
   3   5  -6  239.48   24.80
  -3  -5   6  285.07   29.70
   2   5  -6  218.68   18.30
   2   5  -6  206.28   22.50
   2   5  -6  222.08   22.70
  -2  -5   6  187.88   60.19
  -2  -5   6  230.18   27.60
   1   5  -6  248.38   25.20
   1   5  -6  184.98   22.90
   1   5  -6  236.28   19.10
   1   5  -6  229.28   22.40
  -1  -5   6  218.18   53.49
  -1  -5   6  269.47   55.29
   0   5  -6  246.68   27.00
   0   5  -6  246.98   19.50
   0   5  -6  234.88   22.00
   0   5  -6  202.28   23.10
   0  -5   6  207.38   48.90
  -1   5  -6   66.69   10.40
  -1   5  -6   81.99   16.70
  -2   5  -6    6.70    9.70
  -2   5  -6    1.70    8.70
  -2   5  -6   12.40    9.90
  -3   5  -6  222.18   19.30
  -5  -4   6  122.09   14.90
  -5  -4   6  161.58   14.50
  -4  -4   6  211.28   20.60
  -4  -4   6  205.38   25.00
   3   4  -6  484.35   38.50
  -3  -4   6  529.15   42.60
  -3  -4   6  573.84   37.70
   2   4  -6  922.11   61.19
  -2  -4   6  988.20   63.69
  -2  -4   6  833.22   92.99
  -2  -4   6  857.31   95.59
   1   4  -6  130.19   13.60
   1   4  -6  137.79   13.50
  -1  -4   6  181.18   47.10
  -1  -4   6  142.49   48.20
   0   4  -6   42.90    9.10
   0   4  -6   37.80    7.00
   0  -4   6  -52.59   43.70
   0  -4   6   19.00   41.40
  -1   4  -6  108.09   11.50
  -1   4  -6  134.89   16.30
  -1   4  -6  112.79   11.00
  -2   4  -6  158.88   18.60
  -2   4  -6  197.88   20.40
  -2   4  -6  164.98   17.40
  -2   4  -6  178.78   19.50
  -2   4  -6  154.48   16.30
  -3   4  -6  136.99   16.20
  -3   4  -6  159.58   19.10
  -3   4  -6  152.28   14.60
  -5  -3   6  166.88   16.70
  -5  -3   6  176.88   16.60
  -4  -3   6   76.49   13.50
   3   3  -6  376.46   30.00
   3   3  -6  249.38   48.80
  -3  -3   6  333.97   25.10
  -3  -3   6  313.57   29.80
   2   3  -6  802.82   82.69
   2   3  -6  780.82   51.29
  -2  -3   6  709.03   82.69
   1   3  -6 2371.16  142.59
   1   3  -6 2265.77  160.08
  -1  -3   6 2270.07  160.58
  -1  -3   6 1869.91  151.98
  -1  -3   6 2302.47  156.18
   0  -3   6 1922.91  134.49
   0  -3   6 1711.23  130.09
  -1   3  -6  801.02   50.69
  -1   3  -6  744.93   50.29
  -2   3  -6  642.94   42.80
  -2   3  -6  659.83   41.80
  -2   3  -6  543.05   45.70
  -2   3  -6  671.33   43.30
  -2   3  -6  629.74   41.90
  -2   3  -6  606.34   42.60
  -3   3  -6 4211.88  258.27
  -3   3  -6 4175.68  258.67
  -3   3  -6 3664.63  258.67
  -3   3  -6 3919.81  258.27
  -3   3  -6 4236.58  258.77
  -4   3  -6  243.48   19.80
  -4   3  -6  243.08   22.50
  -4   3  -6  263.07   18.90
  -4   3  -6  246.88   19.40
  -5  -2   6   48.20    8.20
  -5  -2   6   53.79    7.60
  -5  -2   6   72.39    9.40
   4   2  -6  732.43   56.19
  -4  -2   6  816.82   75.89
  -4  -2   6  777.82   52.39
  -4  -2   6  809.42   53.09
  -4  -2   6  813.12   54.69
   3   2  -6  765.22   52.89
   3   2  -6  789.12   78.29
  -3  -2   6  647.34   64.09
  -3  -2   6  756.12   52.19
  -3  -2   6  727.53   49.10
  -3  -2   6  717.33   48.90
   2   2  -6  134.39   35.50
   2   2  -6   70.59   31.50
  -2  -2   6   90.29   23.50
   1   2  -6  940.41   87.09
  -1  -2   6 1057.19   93.69
  -1  -2   6 1074.69   86.49
  -1  -2   6  997.70   80.39
   0   2  -6 1765.32  126.29
   0  -2   6 1456.75  120.39
   0  -2   6 1775.82  124.49
   0  -2   6 1874.71  124.79
   1  -2   6  707.93   60.59
   1  -2   6  642.64   66.19
  -2   2  -6 1247.78   76.89
  -2   2  -6 1169.18   77.49
  -2   2  -6 1159.68   76.79
  -2   2  -6 1186.38   77.19
  -3   2  -6   14.60    9.30
  -3   2  -6   13.60    9.90
  -3   2  -6    3.90   10.90
  -3   2  -6   25.40    8.50
  -3   2  -6   31.40   11.10
   3  -2   6    3.20   46.40
  -4   2  -6   87.09   10.60
  -4   2  -6   76.59   11.20
  -4   2  -6   93.79   10.10
  -4   2  -6  111.19   13.30
   4  -2   6   34.30   51.89
   5   1  -6   41.90   11.40
  -5  -1   6   67.19    8.10
  -5  -1   6   77.19    8.90
   4   1  -6  122.49   17.40
  -4  -1   6  130.69   34.00
  -4  -1   6  123.09   16.80
  -4  -1   6  120.49   14.10
  -4  -1   6  123.19   14.80
  -4  -1   6   95.79   11.50
  -3  -1   6  451.85   33.10
  -3  -1   6  505.65   33.10
  -3  -1   6  450.15   57.59
  -3  -1   6  464.95   36.30
   2   1  -6 1826.92  119.49
   2   1  -6 1515.65  116.59
   2   1  -6 1674.93  125.89
  -2  -1   6 1543.85  114.59
  -2  -1   6 1519.85  112.09
   1   1  -6 2955.90  207.28
   1   1  -6 2947.10  206.98
   1   1  -6 3034.40  212.08
  -1  -1   6 3355.46  205.88
  -1  -1   6 3440.36  211.98
  -1  -1   6 2837.32  213.68
   0   1  -6  989.40   84.19
   0   1  -6  944.41   77.29
   0   1  -6  917.31   77.09
   0  -1   6  921.51   82.49
   0  -1   6 1000.70   83.89
   0  -1   6  922.81   76.69
   1  -1   6 1452.45  106.19
   1  -1   6 1391.96  103.09
   1  -1   6 1378.56  106.89
  -2   1  -6 1254.97   75.29
   2  -1   6  986.60   96.39
   2  -1   6 1315.97   89.49
   2  -1   6 1061.69   89.19
  -3   1  -6  165.98   17.00
  -3   1  -6  134.79   15.30
  -3   1  -6  158.48   15.20
  -3   1  -6  165.58   14.80
  -3   1  -6  147.99   18.00
   3  -1   6  178.88   51.09
   3  -1   6   77.79   40.80
   3  -1   6  162.28   28.60
  -4   1  -6  182.08   16.80
  -4   1  -6  193.18   19.60
  -4   1  -6  172.08   18.70
  -4   1  -6  199.28   16.00
  -4   1  -6  158.38   24.50
   4  -1   6   66.79   54.59
   4  -1   6  162.18   37.10
  -5   1  -6   53.39    7.90
   5   0  -6  126.49   17.70
  -5   0   6  163.18   13.70
   4   0  -6  530.45   44.10
   4   0  -6  547.15   52.99
  -4   0   6  582.94   40.70
  -4   0   6  586.84   67.49
  -4   0   6  591.84   39.40
  -4   0   6  553.54   37.80
  -4   0   6  585.34   38.80
  -4   0   6  580.44   40.10
   3   0  -6 1605.14  114.29
  -3   0   6 1465.75  103.59
  -3   0   6 1700.73  105.59
  -3   0   6 1550.74  104.59
  -3   0   6 1697.43  117.79
  -3   0   6 1702.53  104.39
   2   0  -6  848.62   63.39
   2   0  -6  863.21   79.09
   2   0  -6  810.42   67.99
   2   0  -6  671.23   66.99
   2   0  -6  834.42   60.19
  -2   0   6  777.52   66.09
   1   0  -6  359.66   47.70
   1   0  -6  334.07   57.49
   1   0  -6  402.96   40.90
   1   0  -6  388.46   48.50
  -1   0   6  452.65   47.90
   0   0  -6 4748.92  341.37
   0   0  -6 4873.41  342.67
   0   0  -6 5097.89  345.17
   0   0  -6 5732.03  344.87
   0   0   6 6072.39  345.27
  -1   0  -6  316.07   44.20
  -1   0  -6  466.45   46.20
  -1   0  -6  348.87   46.50
   1   0   6  416.76   61.49
   1   0   6  395.46   59.49
   1   0   6  373.66   59.99
   2   0   6 2113.69  134.89
   2   0   6 1880.61  134.89
   2   0   6 1728.23  137.79
  -3   0  -6   31.70    6.90
  -3   0  -6   28.10    7.80
  -3   0  -6   51.59    9.40
  -3   0  -6   37.30    7.60
  -3   0  -6   30.30   10.80
   3   0   6    6.10   39.10
   3   0   6   23.70   22.80
   3   0   6   58.69   41.80
  -4   0  -6   76.29   12.10
  -4   0  -6   75.09   10.10
  -4   0  -6   75.99    9.00
  -4   0  -6   75.69   14.50
  -4   0  -6   69.69    9.30
  -4   0  -6   60.19   13.80
   4   0   6   24.70   53.69
   4   0   6   78.89   27.00
  -5   0  -6  316.97   24.20
  -5   0  -6  320.47   23.60
  -5   0  -6  337.37   24.60
  -5   0  -6  375.56   23.90
   5   0   6  332.37   50.99
   4  -1  -6  718.73   73.99
  -4   1   6  713.23   49.40
  -4   1   6  769.52   51.39
  -4   1   6  762.82   73.49
  -4   1   6  769.82   51.19
  -4   1   6  755.02   50.19
  -4   1   6  762.52   49.80
   3  -1  -6  232.88   48.60
   3  -1  -6  313.07   44.80
  -3   1   6  321.57   55.49
  -3   1   6  303.17   24.10
  -3   1   6  290.97   24.50
  -3   1   6  316.47   23.10
  -3   1   6  302.47   21.40
  -3   1   6  321.87   25.80
  -3   1   6  275.27   22.10
   2  -1  -6 1114.89   92.29
   2  -1  -6  960.10   79.19
   2  -1  -6 1097.49   76.79
   2  -1  -6 1036.90   82.29
  -2   1   6 1136.59   81.99
   1  -1  -6 3757.62  264.37
   1  -1  -6 4063.19  269.67
   1  -1  -6 3819.72  260.97
   1  -1  -6 4345.97  262.27
   1  -1  -6 4025.90  265.17
  -1   1   6 4159.78  263.97
   0  -1  -6  466.95   54.19
   0  -1  -6  493.05   65.39
   0  -1  -6  480.35   53.29
   0  -1  -6  482.65   51.59
   0   1   6  510.85   55.29
  -1  -1  -6 3023.20  215.48
  -1  -1  -6 3083.69  215.38
  -1  -1  -6 3341.57  217.48
  -1  -1  -6 3567.84  217.08
   1   1   6 3458.75  221.88
  -2  -1  -6  884.71   71.99
   2   1   6  855.71   85.09
   2   1   6  994.10   81.99
  -3  -1  -6  137.99   17.50
  -3  -1  -6  150.48   14.80
  -3  -1  -6  127.69   12.90
   3   1   6  148.49   43.20
   3   1   6  155.88   44.60
   3   1   6  152.68   32.70
  -4  -1  -6  340.27   30.90
  -4  -1  -6  356.46   26.60
  -4  -1  -6  326.87   24.80
  -4  -1  -6  302.67   23.70
  -4  -1  -6  320.27   24.50
   4   1   6  207.08   55.99
   4   1   6  402.86   45.40
  -5  -1  -6  240.18   20.20
  -5  -1  -6  242.68   19.20
  -5  -1  -6  289.67   26.90
   5   1   6  255.47   38.20
   4  -2  -6  715.03   55.69
  -4   2   6  844.42   52.59
  -4   2   6  838.32   53.49
   3  -2  -6   16.00   28.50
  -3   2   6   27.90    8.10
  -3   2   6   15.40    8.00
  -3   2   6   30.00    8.40
  -3   2   6   38.10   10.10
  -3   2   6   13.30   31.80
  -3   2   6   23.10   11.10
  -3   2   6   16.40   11.40
   2  -2  -6 1525.25  117.29
   2  -2  -6 1467.05  103.89
   2  -2  -6 1496.15  109.79
   2  -2  -6 1406.86  107.19
  -2   2   6 1556.54   95.99
  -2   2   6 1506.55  108.59
  -2   2   6 1584.34   96.69
  -2   2   6 1398.66   96.39
   1  -2  -6  842.02   85.19
   1  -2  -6  906.71   78.39
   1  -2  -6  871.11   69.79
   1  -2  -6  826.82   71.09
   1  -2  -6  965.10   69.59
   0  -2  -6 1580.34  116.49
   0  -2  -6 1433.06  109.69
   0  -2  -6 1590.34  112.69
   0  -2  -6 1642.84  110.19
   0   2   6 1532.45  111.99
  -1  -2  -6 1920.61  131.69
  -1  -2  -6 1796.12  133.99
  -1  -2  -6 1975.30  135.29
  -1  -2  -6 1866.61  132.59
   1   2   6 2099.09  138.49
  -2  -2  -6 1321.27   95.19
   2   2   6 1277.07  102.99
   3   2   6 1918.81  128.69
  -4  -2  -6   20.50   13.30
  -4  -2  -6   14.80   10.10
  -4  -2  -6   18.60    8.10
  -4  -2  -6   32.60   10.60
   4   2   6   38.10   25.60
  -5  -2  -6  262.97   20.80
  -5  -2  -6  284.47   20.90
  -5  -2  -6  328.17   28.20
   5   2   6  228.38   37.90
   4  -3  -6  194.38   20.70
  -4   3   6  172.68   16.20
  -4   3   6  240.48   17.50
   3  -3  -6   57.79   37.50
  -3   3   6   37.90   33.60
  -3   3   6   48.40   11.60
  -3   3   6   66.39    9.50
  -3   3   6   42.50   12.40
  -3   3   6   46.90    8.40
   2  -3  -6  458.95   47.10
   2  -3  -6  427.36   52.89
   2  -3  -6  449.06   76.79
  -2   3   6  409.76   27.60
  -2   3   6  366.86   55.79
  -2   3   6  392.06   29.50
  -2   3   6  402.96   28.30
  -2   3   6  353.66   29.10
  -2   3   6  339.67   28.00
  -2   3   6  380.76   31.50
   1  -3  -6  927.91   75.39
   1  -3  -6  955.70   93.29
   1  -3  -6 1076.39   87.29
   1  -3  -6 1047.40   78.89
   1  -3  -6 1064.99   78.69
   0  -3  -6 1391.76  109.69
   0  -3  -6 1689.33  116.29
   0  -3  -6 1638.94  108.49
   0  -3  -6 1559.24  119.59
   0  -3  -6 1587.94  110.29
  -1  -3  -6  772.92   71.69
  -1  -3  -6  875.51   65.99
  -1  -3  -6  944.21   74.59
  -1  -3  -6  878.81   77.49
   1   3   6  696.93   74.09
  -2  -3  -6 1165.48   95.19
   2   3   6 1310.37  106.59
   2   3   6 1398.66   91.49
  -3  -3  -6  463.35   40.30
   3   3   6  600.04   50.69
  -4  -3  -6  125.89   12.70
  -4  -3  -6  149.79   19.60
  -4  -3  -6  146.39   16.70
  -4  -3  -6  122.99   14.20
   4   3   6  162.98   28.80
  -5  -3  -6   26.10    8.50
  -5  -3  -6   34.70   13.40
  -5  -3  -6   25.20    8.50
   5   3   6   14.40   24.60
   3  -4  -6  114.49   37.60
  -3   4   6   85.29   12.60
   2  -4  -6  302.37   50.29
  -2   4   6  264.67   28.30
  -2   4   6  280.57   24.70
  -2   4   6  317.27   22.40
  -2   4   6  293.37   25.70
   1  -4  -6  462.85   67.19
   1  -4  -6  432.16   53.09
  -1   4   6  449.26   36.00
  -1   4   6  439.46   30.10
  -1   4   6  437.26   31.90
  -1   4   6  436.56   33.10
   0  -4  -6 1428.86  105.69
   0  -4  -6 1359.96  109.39
   0  -4  -6 1311.47   93.19
   0  -4  -6 1316.07   99.19
   0  -4  -6 1374.76   99.19
  -1  -4  -6  650.23   64.69
  -1  -4  -6  680.43   70.89
  -1  -4  -6  715.73   66.59
  -1  -4  -6  609.04   54.39
   1   4   6  582.24   65.19
  -2  -4  -6  251.17   54.39
  -2  -4  -6  283.07   53.59
  -2  -4  -6  255.67   58.49
   2   4   6  211.98   42.20
  -3  -4  -6  222.28   22.50
  -3  -4  -6  213.38   25.80
  -3  -4  -6  220.48   20.30
   3   4   6  224.88   43.80
  -4  -4  -6  202.08   24.50
  -4  -4  -6  211.98   22.50
  -4  -4  -6  188.08   19.80
   4   4   6  192.08   42.10
  -5  -4  -6  395.66   26.00
  -5  -4  -6  348.77   26.80
  -5  -4  -6  363.06   31.20
   5   4   6  325.77   44.60
  -3   5   6  245.38   20.80
   2  -5  -6  464.15   53.49
  -2   5   6  435.36   34.30
  -2   5   6  451.85   35.40
   1  -5  -6 1115.39   86.79
   1  -5  -6 1131.99   99.29
  -1   5   6 1070.99   69.69
  -1   5   6  975.90   72.09
  -1   5   6 1002.10   70.89
   0  -5  -6  153.18   34.80
   0  -5  -6  181.08   41.00
   0   5   6  195.88   17.60
   0   5   6  138.69   17.30
   0   5   6  158.78   16.70
  -1  -5  -6 1003.90   81.29
  -1  -5  -6  984.70   79.19
   1   5   6  923.61   61.59
   1   5   6  919.01   64.29
   1   5   6  905.91   61.29
   1   5   6  832.62   85.09
   1   5   6  981.40   61.39
   1   5   6  917.41   64.19
  -2  -5  -6  236.98   43.90
  -2  -5  -6  283.27   56.59
   2   5   6  167.08   19.60
   2   5   6  201.48   26.30
   2   5   6  202.48   18.90
   2   5   6  205.18   49.90
   2   5   6  180.78   22.20
  -3  -5  -6  762.22   53.29
  -3  -5  -6  697.43   51.59
   3   5   6  809.82   71.09
   3   5   6  831.52   56.09
  -4  -5  -6  162.38   21.10
  -4  -5  -6  167.58   14.80
   4   5   6  125.99   34.10
  -5  -5  -6  294.67   22.30
  -5  -5  -6  302.87   24.10
   5   5   6  320.27   42.90
  -2   6   6  271.97   24.60
  -2   6   6  311.47   27.10
   1  -6  -6  142.99   36.80
  -1   6   6  144.49   18.50
  -1   6   6  154.78   15.70
  -1   6   6  166.08   14.50
   0  -6  -6   83.49   39.90
   0  -6  -6   78.99   41.10
   0   6   6  106.09   17.30
   0   6   6   94.89   13.60
   0   6   6  106.59   12.40
   0   6   6   94.19   12.50
  -1  -6  -6  125.79   40.30
   1   6   6  147.29   20.40
   1   6   6  127.49   13.60
   1   6   6  104.09   13.10
   1   6   6  128.39   14.60
   1   6   6   93.09   45.90
  -2  -6  -6  166.88   43.50
   2   6   6  104.49   42.50
   2   6   6  125.69   20.90
   2   6   6  125.69   14.80
   2   6   6  158.58   17.90
  -3  -6  -6  451.95   32.50
  -3  -6  -6  386.96   29.30
   3   6   6  355.66   60.99
   3   6   6  370.06   39.20
  -4  -6  -6  191.98   17.50
  -4  -6  -6  201.88   21.00
   4   6   6  137.29   36.10
  -5  -6  -6   16.40    5.80
  -5  -6  -6   21.30    8.60
  -1   7   6  257.97   23.90
  -1   7   6  283.27   29.60
   0   7   6  471.65   42.70
   0   7   6  536.65   36.90
   0   7   6  523.45   37.90
  -1  -7  -6  745.33   83.59
   1   7   6  738.93   47.40
   1   7   6  629.44   45.80
   1   7   6  555.44   51.29
   1   7   6  665.13   46.30
   2   7   6  326.07   27.80
   2   7   6  326.07   27.60
   2   7   6  309.97   64.39
   2   7   6  309.67   30.50
   2   7   6  311.57   35.60
  -3  -7  -6   36.80    9.90
  -3  -7  -6   73.99   13.30
   3   7   6   56.59   22.00
   3   7   6   43.70   37.50
  -4  -7  -6   66.29   16.40
  -4  -7  -6   92.39   12.70
  -4  -7  -6   86.99    9.50
   0   8   6  124.49   18.20
   0   8   6  140.39   16.70
   0   8   6  135.39   14.40
   1   8   6  150.48   16.80
   1   8   6  143.59   21.30
   1   8   6  141.89   16.30
  -2  -8  -6  140.99   14.60
   2   8   6  151.78   18.50
   2   8   6  170.48   21.30
   2   8   6  127.99   19.20
  -3  -8  -6  172.08   14.30
   3   8   6  139.69   20.40
  -4  -8  -6  122.69   15.80
  -4  -8  -6  133.99   12.00
   4   8   6  126.49   16.30
   1   9   6   16.20    7.20
   2   9   6    9.90    7.40
   2   8  -7   61.59   10.70
   1   8  -7  126.59   16.90
   3   7  -7   56.49    6.90
   3   7  -7   68.09   11.00
  -3  -7   7   33.30   11.00
   2   7  -7  363.36   29.30
   2   7  -7  348.17   25.80
   2   7  -7  373.06   28.20
   1   7  -7  197.58   17.30
   1   7  -7  180.08   21.50
   1   7  -7  224.18   23.60
   0   7  -7  158.88   16.00
   0   7  -7  179.08   21.80
  -1   7  -7   23.40   11.40
   4   6  -7   92.49   10.30
  -4  -6   7  100.49   16.20
   3   6  -7   38.60    7.70
   3   6  -7   32.20   11.10
  -3  -6   7   32.30   13.90
   2   6  -7   31.50    8.00
   2   6  -7   22.10   13.60
   2   6  -7   24.00   11.10
  -2  -6   7   26.30   57.09
   1   6  -7  269.87   21.30
   1   6  -7  262.27   27.40
   1   6  -7  279.37   24.10
  -1  -6   7  249.68   62.69
   0   6  -7  103.99   17.30
   0   6  -7   85.49   10.70
  -1   6  -7  247.88   27.00
  -1   6  -7  259.27   21.10
  -2   6  -7  125.39   13.10
   4   5  -7  337.77   22.70
  -4  -5   7  295.97   27.70
   3   5  -7  170.28   16.10
   3   5  -7  169.08   15.70
  -3  -5   7  149.79   25.30
   2   5  -7 1366.16   83.39
   2   5  -7 1224.28   83.49
   2   5  -7 1219.68   81.69
  -2  -5   7 1250.37   84.89
   1   5  -7  711.43   47.80
   1   5  -7  685.33   45.90
   1   5  -7  662.33   49.10
  -1  -5   7  695.63   96.59
   0   5  -7  694.93   44.90
   0   5  -7  652.03   43.30
   0   5  -7  595.34   47.50
   0  -5   7  611.14   84.29
  -1   5  -7  593.44   40.20
  -1   5  -7  568.34   44.40
  -2   5  -7   87.89   11.40
  -2   5  -7   93.09   11.90
  -3   5  -7   88.19    9.90
  -5  -4   7   82.99   12.30
  -5  -4   7  120.99   12.80
  -4  -4   7   57.49   13.10
  -4  -4   7   88.39   12.10
   3   4  -7  755.52   52.49
  -3  -4   7  788.12   55.49
   2   4  -7   69.59    8.80
   2   4  -7   76.89   11.60
  -2  -4   7   44.20   54.39
  -2  -4   7   74.99   14.70
   1   4  -7  534.25   40.70
   1   4  -7  567.34   38.20
   1   4  -7  611.84   40.10
  -1  -4   7  652.43   83.69
  -1  -4   7  501.15   81.09
   0   4  -7  142.89   14.40
   0   4  -7  147.19   13.80
   0   4  -7  150.68   16.90
   0  -4   7   87.99   51.29
   0  -4   7  150.98   49.60
  -1   4  -7   95.89   15.80
  -1   4  -7   81.19    9.60
  -1   4  -7   70.19   10.20
   1  -4   7   61.29   41.40
  -2   4  -7  106.29   12.60
  -2   4  -7  120.79   11.70
  -2   4  -7   93.59   10.40
  -2   4  -7  111.39   18.30
  -2   4  -7   97.79   12.00
  -3   4  -7   62.99    9.30
  -3   4  -7   39.40    7.50
  -3   4  -7   54.99   11.10
  -5  -3   7   -4.90    8.10
  -5  -3   7    2.00    6.80
  -5  -3   7   -0.90    5.50
  -4  -3   7  809.52   53.09
  -4  -3   7  809.52   54.89
  -4  -3   7  737.63   53.19
   3   3  -7  246.78   48.10
  -3  -3   7  268.37   23.00
  -3  -3   7  283.77   28.20
   2   3  -7  211.98   48.40
   2   3  -7  200.08   19.60
  -2  -3   7  199.48   37.10
  -2  -3   7  172.48   49.40
   1   3  -7  276.77   48.50
   1   3  -7  323.47   22.80
   1   3  -7  328.07   25.60
  -1  -3   7  440.86   65.89
  -1  -3   7  270.57   46.80
  -1  -3   7  341.37   71.99
   0   3  -7 1935.21  117.19
   0   3  -7 1877.31  117.59
   0  -3   7 1701.43  134.79
   0  -3   7 1724.53  137.59
  -1   3  -7 1152.58   67.69
  -1   3  -7 1030.90   66.29
   1  -3   7  838.62   87.79
  -2   3  -7   64.29    9.60
  -2   3  -7  110.79   12.30
  -2   3  -7   74.19   10.30
  -2   3  -7   75.59   10.80
  -2   3  -7   63.99    9.40
  -2   3  -7   66.69   16.40
  -3   3  -7 2313.97  144.49
  -3   3  -7 2188.08  145.19
  -3   3  -7 2234.28  144.59
  -3   3  -7 2215.58  145.09
  -3   3  -7 2314.17  145.19
  -4   3  -7  599.24   40.60
  -4   3  -7  648.24   41.80
  -4   3  -7  575.04   40.50
  -4   3  -7  621.04   40.20
  -5  -2   7  536.35   36.60
  -5  -2   7  595.84   36.80
  -5  -2   7  493.35   35.70
   4   2  -7  244.58   29.80
  -4  -2   7  353.86   28.20
  -4  -2   7  335.77   25.90
  -4  -2   7  355.46   58.99
   3   2  -7 1008.80   71.89
   3   2  -7 1022.50   96.49
  -3  -2   7 1065.09   70.69
  -3  -2   7 1074.09   68.79
  -3  -2   7 1106.19   68.79
  -3  -2   7  964.60   82.29
   2   2  -7 1055.59   90.79
   2   2  -7  924.81   63.99
  -2  -2   7  983.20   77.09
   1   2  -7 1265.07   98.49
  -1  -2   7 1310.77   97.49
  -1  -2   7 1153.88  104.89
  -1  -2   7 1062.39   91.69
   0   2  -7  322.97   58.29
   0  -2   7  285.47   47.10
   0  -2   7  267.07   46.50
   0  -2   7  227.68   48.00
   1  -2   7  115.59   33.90
   1  -2   7   21.30   37.10
   1  -2   7   63.49   36.00
  -2   2  -7 1168.18   81.79
  -2   2  -7 1274.07   81.99
  -2   2  -7 1385.26   81.59
  -2   2  -7 1258.37   84.69
  -2   2  -7 1398.76   81.39
  -2   2  -7 1261.27   83.79
   2  -2   7 1039.10  100.49
  -3   2  -7 1872.11  124.19
  -3   2  -7 2041.00  123.59
  -3   2  -7 1869.11  123.59
  -3   2  -7 1839.92  124.09
  -3   2  -7 1991.90  124.39
  -4   2  -7  199.88   21.10
  -4   2  -7  197.78   19.00
  -4   2  -7  204.08   16.90
  -4   2  -7  182.98   17.50
   5   1  -7   76.89   11.10
  -5  -1   7  102.79   12.30
  -5  -1   7   96.79   10.40
   4   1  -7   25.80   15.10
  -4  -1   7   29.30    9.20
  -4  -1   7   19.30   10.80
  -4  -1   7   39.90   33.90
  -4  -1   7   25.00   10.80
   3   1  -7   42.20   34.10
   3   1  -7   15.20   15.20
  -3  -1   7    6.20    8.90
  -3  -1   7   19.90   11.00
  -3  -1   7    5.50    8.90
  -3  -1   7    0.80   27.10
   2   1  -7  283.57   55.19
   2   1  -7  219.68   39.90
  -2  -1   7  237.88   29.00
  -2  -1   7  173.38   36.70
   1   1  -7 1112.29   88.19
   1   1  -7 1094.69   98.69
  -1  -1   7 1045.00   98.59
  -1  -1   7 1058.29   85.39
  -1  -1   7 1141.19   89.09
   0   1  -7  123.09   32.40
   0   1  -7   81.69   32.10
   0   1  -7   96.89   32.70
   0  -1   7  168.98   35.90
   0  -1   7  143.99   43.10
   0  -1   7   94.79   39.30
   1  -1   7  152.88   40.60
   1  -1   7  150.78   39.80
   1  -1   7  220.48   42.60
  -2   1  -7  205.28   16.40
  -2   1  -7  170.98   17.00
  -2   1  -7  192.38   15.60
   2  -1   7  138.99   40.80
   2  -1   7  285.97   52.99
   2  -1   7  155.18   46.60
  -3   1  -7    9.10    9.00
  -3   1  -7   11.80   11.40
  -3   1  -7   17.50    8.10
  -3   1  -7   23.80    9.00
  -3   1  -7   -0.50   10.60
  -3   1  -7    0.30   10.00
   3  -1   7   67.09   49.90
   3  -1   7    1.70   44.10
  -4   1  -7   -6.10   14.00
  -4   1  -7    0.60    8.80
  -4   1  -7   -5.00   10.30
  -4   1  -7   -2.50   10.20
  -4   1  -7    5.20    8.30
   4  -1   7   -4.50   54.29
  -5   1  -7   52.49    7.50
   5   0  -7  116.49   15.70
  -5   0   7  108.79   12.00
   4   0  -7  297.47   28.70
  -4   0   7  197.48   17.50
  -4   0   7  217.68   38.90
  -4   0   7  237.98   22.60
  -4   0   7  228.48   19.90
  -4   0   7  211.88   21.50
  -4   0   7  235.28   19.50
   3   0  -7   16.40   15.20
  -3   0   7    8.00   30.50
  -3   0   7    5.50   10.30
  -3   0   7    8.10    8.40
  -3   0   7    7.20    5.80
  -3   0   7   10.70    9.80
   2   0  -7 1149.29   95.69
   2   0  -7 1123.29   87.39
   2   0  -7 1014.50   77.89
  -2   0   7 1127.29   83.59
   1   0  -7 2642.34  184.48
   1   0  -7 2990.00  194.08
   1   0  -7 3020.20  189.18
   1   0  -7 2671.83  189.08
  -1   0   7 2739.13  188.58
   0   0  -7 2773.72  185.98
   0   0  -7 2682.13  184.38
   0   0  -7 2813.72  188.58
   0   0   7 2874.51  188.28
   0   0   7 2709.23  187.18
  -1   0  -7  239.78   41.60
   1   0   7  272.77   58.09
   1   0   7  237.98   47.20
   1   0   7  285.47   58.19
   2   0   7 1904.51  149.29
   2   0   7 2242.28  147.39
  -3   0  -7   61.49    9.50
  -3   0  -7   67.79    8.40
  -3   0  -7   66.99   12.00
  -3   0  -7   62.89    9.30
  -3   0  -7   81.39   11.00
   3   0   7   53.29   44.50
   3   0   7  106.79   24.50
   3   0   7  112.09   47.80
  -4   0  -7  317.77   26.60
  -4   0  -7  319.87   30.00
  -4   0  -7  323.67   24.90
  -4   0  -7  323.37   28.70
  -4   0  -7  321.77   24.30
   4   0   7  391.76   44.40
  -5   0  -7  271.77   19.50
  -5   0  -7  275.37   19.90
  -5   0  -7  263.57   20.60
   4  -1  -7  196.18   24.90
  -4   1   7  112.79   18.10
  -4   1   7  153.48   14.70
  -4   1   7  129.49   18.30
  -4   1   7  126.59   14.80
  -4   1   7  160.98   36.40
  -4   1   7  125.49   13.60
   3  -1  -7 1035.90   80.39
  -3   1   7 1033.90   87.49
  -3   1   7  990.60   66.39
  -3   1   7  971.50   67.99
  -3   1   7 1044.50   67.49
  -3   1   7 1050.99   67.09
  -3   1   7 1057.39   68.49
   2  -1  -7  244.58   45.10
   2  -1  -7  204.78   34.30
   2  -1  -7  183.38   37.50
   2  -1  -7  287.77   55.89
  -2   1   7  156.18   29.30
   1  -1  -7 3424.26  223.28
   1  -1  -7 3389.86  217.98
   1  -1  -7 3048.60  216.78
   1  -1  -7 2954.30  212.48
   1  -1  -7 3429.86  214.28
  -1   1   7 3339.17  216.68
   0  -1  -7  258.87   48.70
   0  -1  -7  163.88   30.60
   0  -1  -7  148.99   34.30
   0   1   7  189.28   37.50
  -1  -1  -7 2581.34  191.48
  -1  -1  -7 2827.82  193.58
  -1  -1  -7 2942.31  194.98
   1   1   7 3229.38  198.08
   1   1   7 3014.80  199.98
  -2  -1  -7 1427.16  106.79
   2   1   7 1550.24  114.59
   2   1   7 1559.14  117.39
  -3  -1  -7  489.75   33.50
  -3  -1  -7  484.75   37.20
  -3  -1  -7  511.25   34.20
  -3  -1  -7  538.85   35.30
   3   1   7  441.46   70.59
   3   1   7  471.25   69.89
  -4  -1  -7  204.08   24.70
  -4  -1  -7  193.68   17.70
  -4  -1  -7  175.38   17.80
  -4  -1  -7  196.98   17.00
  -4  -1  -7  198.18   20.20
   4   1   7  146.29   54.49
   4   1   7  230.28   40.50
  -5  -1  -7   17.80    6.80
  -5  -1  -7   22.40    6.90
  -5  -1  -7   40.30   14.70
  -5  -1  -7   18.10    8.10
   5   1   7   24.20   22.10
   4  -2  -7  412.76   33.60
  -4   2   7  411.36   29.90
  -4   2   7  442.06   29.20
  -4   2   7  382.86   56.59
   3  -2  -7  248.28   48.20
  -3   2   7  249.28   23.20
  -3   2   7  189.98   18.80
  -3   2   7  199.78   37.80
  -3   2   7  232.78   25.20
  -3   2   7  246.58   21.20
  -3   2   7  232.48   19.10
  -3   2   7  203.98   21.80
   2  -2  -7   45.40   27.20
   2  -2  -7   76.69   28.30
   2  -2  -7   30.40   22.60
  -2   2   7   48.70    9.10
  -2   2   7   61.09   11.00
  -2   2   7   64.49    8.10
  -2   2   7   46.80   28.00
  -2   2   7   56.59    9.60
  -2   2   7   51.69    8.20
  -2   2   7   46.40    8.30
  -2   2   7   47.20   10.70
   1  -2  -7  418.46   46.90
   1  -2  -7  358.56   47.60
   1  -2  -7  369.36   67.79
   1  -2  -7  481.15   47.90
   1  -2  -7  422.96   60.29
   0  -2  -7   37.00   25.10
   0  -2  -7   71.89   27.90
   0  -2  -7   54.49   30.60
   0  -2  -7   60.19   30.90
   0  -2  -7   54.79   28.10
   0   2   7   76.09   31.80
  -1  -2  -7  431.56   50.59
  -1  -2  -7  368.36   57.09
  -1  -2  -7  390.76   54.59
  -1  -2  -7  377.06   50.19
  -1  -2  -7  386.86   44.60
   1   2   7  416.76   59.49
  -2  -2  -7   48.60   26.00
   2   2   7   28.50   21.40
  -3  -2  -7  923.71   62.69
  -3  -2  -7  836.42   60.09
   3   2   7 1029.90   69.89
  -4  -2  -7   98.29   12.50
  -4  -2  -7   99.79   15.10
  -4  -2  -7   89.59   11.80
  -4  -2  -7   73.19   10.80
   4   2   7  136.29   28.40
  -5  -2  -7  266.87   20.50
  -5  -2  -7  251.27   20.50
  -5  -2  -7  320.77   27.60
   5   2   7  254.87   38.50
   4  -3  -7  550.84   42.30
  -4   3   7  682.53   41.40
   3  -3  -7  196.58   27.70
   3  -3  -7  256.77   54.59
  -3   3   7  270.97   38.50
  -3   3   7  250.57   22.10
  -3   3   7  233.98   24.20
  -3   3   7  211.58   18.70
   2  -3  -7  561.34   62.29
   2  -3  -7  516.85   54.19
   2  -3  -7  455.15   58.99
  -2   3   7  582.34   35.50
  -2   3   7  419.66   37.70
  -2   3   7  567.94   39.00
  -2   3   7  495.65   36.80
  -2   3   7  487.55   61.39
  -2   3   7  561.44   37.30
   1  -3  -7   95.19   35.20
   1  -3  -7   50.59   35.40
   1  -3  -7  122.59   29.10
  -1   3   7  129.69   11.70
   0  -3  -7  817.42   63.19
   0  -3  -7  788.42   78.49
   0  -3  -7  855.81   75.89
   0  -3  -7  857.71   67.29
   0   3   7  681.53   75.39
  -1  -3  -7 1544.05  108.19
  -1  -3  -7 1516.05  109.59
  -1  -3  -7 1502.65  111.69
  -1  -3  -7 1472.55  108.19
  -1  -3  -7 1466.75  104.09
   1   3   7 1369.56  111.59
  -2  -3  -7  669.63   65.09
   2   3   7  732.13   75.19
   2   3   7  648.04   57.69
  -3  -3  -7 1409.16   90.59
  -3  -3  -7 1364.96   91.39
  -3  -3  -7 1362.16   89.69
   3   3   7 1398.06   98.49
  -4  -3  -7  339.07   27.70
  -4  -3  -7  384.26   28.80
  -4  -3  -7  381.76   32.90
  -4  -3  -7  388.26   30.40
   4   3   7  425.86   47.20
  -5  -3  -7  127.69   14.40
  -5  -3  -7  140.69   20.80
   5   3   7  128.09   28.10
  -3   4   7   84.19   11.70
  -3   4   7   54.19   15.60
   2  -4  -7  102.59   32.60
  -2   4   7  113.99   14.20
  -2   4   7  135.69   16.80
  -2   4   7  133.49   13.40
   1  -4  -7  274.87   47.50
   1  -4  -7  335.67   49.99
  -1   4   7  248.88   22.10
  -1   4   7  258.87   27.60
  -1   4   7  270.07   23.90
   0  -4  -7  126.89   33.60
   0  -4  -7  205.68   41.70
   0  -4  -7  161.58   37.00
   0  -4  -7  204.28   39.60
   0   4   7  133.79   15.90
   0   4   7  121.39   43.50
  -1  -4  -7  505.05   60.09
  -1  -4  -7  457.45   54.89
  -1  -4  -7  374.96   58.79
  -1  -4  -7  399.16   61.49
   1   4   7  398.56   59.29
  -2  -4  -7  174.58   50.49
  -2  -4  -7  281.27   53.69
   2   4   7  319.17   46.80
  -3  -4  -7   41.20   10.30
  -3  -4  -7   32.90   11.50
  -3  -4  -7   35.90   12.60
   3   4   7   46.10   28.50
  -4  -4  -7  675.83   46.60
  -4  -4  -7  701.83   48.90
  -4  -4  -7  645.84   48.20
   4   4   7  735.23   63.99
  -5  -4  -7   -4.10    8.00
  -5  -4  -7    8.80    8.50
  -5  -4  -7    4.60   11.80
   5   4   7   17.00   26.00
  -3   5   7  304.57   23.70
   2  -5  -7   67.79   32.10
  -2   5   7   98.19   13.80
  -2   5   7   91.89   12.50
   1  -5  -7  254.37   52.49
   1  -5  -7  183.78   45.10
  -1   5   7  231.38   25.20
  -1   5   7  308.27   22.70
  -1   5   7  200.78   28.70
   0  -5  -7  238.08   42.10
   0  -5  -7  277.47   47.00
   0  -5  -7  189.38   35.80
   0   5   7  206.38   19.20
   0   5   7  136.99   51.09
   0   5   7  162.98   23.70
   0   5   7  199.18   18.80
   0   5   7  175.38   19.50
  -1  -5  -7  393.06   59.09
  -1  -5  -7  439.56   54.29
  -1  -5  -7  490.95   62.39
   1   5   7  395.36   68.19
   1   5   7  419.36   30.30
   1   5   7  391.56   30.90
   1   5   7  400.96   35.40
   1   5   7  444.46   30.80
   1   5   7  433.56   32.90
  -2  -5  -7  311.17   60.39
   2   5   7  265.27   55.39
   2   5   7  223.38   26.60
   2   5   7  228.28   28.00
   2   5   7  255.37   21.40
   2   5   7  214.58   21.60
  -3  -5  -7  795.32   58.39
  -3  -5  -7  787.02   56.69
   3   5   7  962.00   76.29
   3   5   7  903.61   61.69
  -4  -5  -7  646.14   45.20
  -4  -5  -7  678.73   47.10
   4   5   7  680.83   65.09
  -5  -5  -7    9.40    7.40
  -5  -5  -7   19.30    9.30
   5   5   7   45.90   27.80
  -2   6   7  163.68   17.20
  -2   6   7  124.99   15.80
   1  -6  -7  690.33   66.59
  -1   6   7  693.13   46.50
  -1   6   7  613.94   48.70
   0  -6  -7   66.99   43.60
   0   6   7   84.49   12.30
   0   6   7   97.59   13.40
   0   6   7  109.99   12.50
   0   6   7  110.29   17.70
  -1  -6  -7 1553.74  122.09
  -1  -6  -7 1580.34  122.19
   1   6   7 1630.14  102.59
   1   6   7 1625.54  102.59
   1   6   7 1604.84  102.49
   1   6   7 1476.75  104.89
  -2  -6  -7  767.22   76.09
   2   6   7  704.03   47.20
   2   6   7  550.54   78.09
   2   6   7  676.73   51.29
   2   6   7  691.83   46.60
  -3  -6  -7  682.23   42.70
  -3  -6  -7  610.94   40.50
   3   6   7  528.85   69.29
   3   6   7  474.25   46.40
  -4  -6  -7   16.00    9.30
  -4  -6  -7    7.10   12.30
   4   6   7   17.60   33.50
  -5  -6  -7   51.49    6.50
  -1   7   7  379.06   27.30
  -1   7   7  302.87   30.80
   0  -7  -7  194.58   36.80
   0   7   7  220.38   21.20
   0   7   7  184.68   22.80
   0   7   7  276.27   22.30
   0   7   7  190.88   20.90
  -1  -7  -7  165.68   46.10
   1   7   7  129.09   21.70
   1   7   7  213.18   22.80
   1   7   7  176.28   19.90
  -2  -7  -7   86.69   18.40
  -2  -7  -7  113.19   41.70
   2   7   7   92.69   14.10
   2   7   7   57.59   43.60
   2   7   7   76.99   19.90
   2   7   7  103.49   15.30
   2   7   7   78.49   12.30
  -3  -7  -7   29.00   12.70
  -3  -7  -7    8.60    9.50
   3   7   7   -0.30   19.80
   3   7   7    4.00   37.30
  -4  -7  -7   10.50    7.40
  -4  -7  -7   11.00   11.00
   4   7   7    9.00   29.60
   0   8   7  100.39   13.10
   0   8   7  116.29   11.50
   0   8   7  106.69   17.40
   1   8   7  165.48   21.40
   1   8   7  182.68   20.20
   1   8   7  165.28   17.50
  -2  -8  -7  155.48   15.20
   2   8   7  171.88   18.50
   2   8   7  151.88   21.10
  -3  -8  -7  285.77   20.10
   3   8   7  243.68   23.80
  -4  -8  -7  189.58   14.30
   4   8   7  186.18   17.60
   3   7  -8   86.19    8.50
  -3  -7   8   73.99    9.50
   2   7  -8  219.78   21.70
   2   7  -8  203.48   19.50
   2   7  -8  190.18   16.80
   1   7  -8  254.37   21.30
   1   7  -8  250.07   19.80
   1   7  -8  269.47   25.50
   0   7  -8  288.27   25.20
   0   7  -8  249.18   20.30
  -4  -6   8   24.60    7.50
  -4  -6   8   12.90    8.10
   3   6  -8    8.40    9.90
   3   6  -8   22.70    7.00
  -3  -6   8    3.10   12.30
   2   6  -8  508.15   33.20
   2   6  -8  469.35   36.80
   2   6  -8  489.05   35.90
  -2  -6   8  417.36   84.29
   1   6  -8  762.32   50.09
   1   6  -8  758.32   53.59
   1   6  -8  786.72   51.59
  -1  -6   8  649.24   95.29
   0   6  -8   82.69   10.20
   0   6  -8  120.29   16.70
   0  -6   8    0.00   47.70
  -1   6  -8  209.08   23.90
  -1   6  -8  182.48   17.90
   4   5  -8   39.70    6.50
  -4  -5   8   37.30   11.00
  -4  -5   8   46.00    9.30
   3   5  -8  149.19   15.40
   3   5  -8  134.69   14.20
  -3  -5   8  153.58   23.80
   2   5  -8  465.45   34.50
   2   5  -8  391.16   33.50
   2   5  -8  454.45   30.90
  -2  -5   8  417.96   90.39
  -2  -5   8  444.86   37.50
   1   5  -8  428.06   35.00
   1   5  -8  480.45   32.30
   1   5  -8  457.45   36.00
  -1  -5   8  457.55   92.29
   0   5  -8   39.20   15.40
   0   5  -8   25.20   11.50
   0   5  -8   27.00    8.60
   0  -5   8   34.20   52.99
  -1   5  -8  134.79   17.90
  -1   5  -8  117.79   12.10
   1  -5   8   22.70   48.20
  -2   5  -8   86.19   11.00
  -2   5  -8   86.09   11.40
  -4  -4   8  232.58   22.80
  -4  -4   8  317.07   26.00
  -4  -4   8  293.77   23.50
   3   4  -8  110.59   13.10
   2   4  -8  159.58   15.10
   2   4  -8  152.78   14.80
  -2  -4   8  153.38   24.20
  -2  -4   8   86.89   56.99
   1   4  -8  513.55   35.80
   1   4  -8  495.35   33.20
   1   4  -8  452.65   36.50
  -1  -4   8  568.64   86.29
  -1  -4   8  385.16   82.39
   0   4  -8  587.44   37.10
   0   4  -8  619.34   39.00
   0   4  -8  519.85   40.90
   0  -4   8  423.16   69.49
   0  -4   8  574.54   84.29
   0  -4   8  467.85   60.89
  -1   4  -8  982.80   66.39
  -1   4  -8 1093.79   63.39
  -1   4  -8  899.51   63.39
   1  -4   8  840.22   94.89
  -2   4  -8  171.88   18.30
  -2   4  -8  191.98   25.90
  -2   4  -8  164.98   17.90
  -2   4  -8  171.38   17.20
  -2   4  -8  192.68   19.90
   2  -4   8  173.78   50.79
  -3   4  -8  197.98   15.20
  -3   4  -8  198.88   19.70
  -3   4  -8  164.98   16.60
  -5  -3   8  538.65   36.60
  -4  -3   8  233.58   21.30
  -4  -3   8  163.78   19.10
  -4  -3   8  227.18   22.80
   3   3  -8  912.31  101.59
  -3  -3   8 1089.39   68.39
  -3  -3   8 1035.70   70.49
   2   3  -8  202.78   50.99
   2   3  -8  177.88   20.80
  -2  -3   8  200.38   30.70
  -2  -3   8  245.28   25.20
   1   3  -8  118.39   44.30
   1   3  -8  128.79   12.60
   1   3  -8  124.99   13.00
  -1  -3   8  163.68   47.20
  -1  -3   8  112.39   27.40
  -1  -3   8   76.39   51.49
   0   3  -8  299.57   25.70
   0   3  -8  302.47   21.70
   0  -3   8  246.78   56.29
   0  -3   8  311.27   53.29
  -1   3  -8  128.69   14.40
  -1   3  -8  138.39   16.70
  -1   3  -8  127.99   15.20
  -1   3  -8  147.29   18.00
  -1   3  -8  151.98   14.30
   1  -3   8   82.69   46.20
  -2   3  -8    5.10    9.70
  -2   3  -8    9.40   11.00
  -2   3  -8  -31.50   16.30
  -2   3  -8    6.50    7.80
  -2   3  -8   12.40    8.00
  -2   3  -8    1.10    8.90
  -2   3  -8    4.70   18.50
   2  -3   8  -10.70   52.79
  -3   3  -8  142.89   16.40
  -3   3  -8  165.18   18.10
  -3   3  -8  157.38   15.70
  -3   3  -8  179.68   15.30
  -3   3  -8  156.58   19.20
   3  -3   8   69.39   56.59
  -4   3  -8   83.79   10.20
  -4   3  -8   60.89    7.60
  -4   3  -8   87.59   10.40
  -5  -2   8  183.38   20.60
  -5  -2   8  192.38   16.30
   4   2  -8  164.48   22.60
  -4  -2   8  126.39   34.10
  -4  -2   8  144.69   18.80
  -4  -2   8  150.98   19.90
   3   2  -8  849.02   58.59
   3   2  -8  810.72   88.79
  -3  -2   8  722.43   73.09
  -3  -2   8  841.62   57.69
  -3  -2   8  865.31   55.59
   2   2  -8  637.64   44.70
   2   2  -8  812.32   81.09
  -2  -2   8  599.24   63.69
   1   2  -8  625.44   71.09
   1   2  -8  575.94   40.80
  -1  -2   8  554.44   56.59
  -1  -2   8  729.33   72.69
  -1  -2   8  459.75   80.89
   0   2  -8 1222.58   97.59
   0  -2   8 1320.87  102.29
   0  -2   8 1067.29  100.59
   0  -2   8  970.60   89.39
  -1   2  -8  207.78   16.60
  -1   2  -8  230.58   21.60
   1  -2   8  154.88   45.20
   1  -2   8  265.07   51.29
   1  -2   8  166.28   42.40
  -2   2  -8  296.17   21.70
  -2   2  -8  288.47   22.70
  -2   2  -8  287.77   28.90
  -2   2  -8  277.77   31.60
  -2   2  -8  291.87   21.30
  -2   2  -8  292.27   23.10
  -2   2  -8  337.57   24.30
   2  -2   8  182.58   47.30
  -3   2  -8  128.99   12.60
  -3   2  -8  140.69   14.80
  -3   2  -8  125.29   13.90
  -3   2  -8  128.29   13.90
  -3   2  -8  126.29   12.50
   3  -2   8   37.80   57.59
  -4   2  -8   87.59   11.10
  -4   2  -8   79.09    9.80
  -4   2  -8   88.49   10.40
  -4   2  -8  133.69   13.60
   4   1  -8  463.35   37.40
  -4  -1   8  465.35   34.00
  -4  -1   8  461.05   33.30
  -4  -1   8  412.86   31.70
  -4  -1   8  466.45   65.69
   3   1  -8  639.74   78.69
   3   1  -8  639.94   49.30
  -3  -1   8  721.63   47.90
  -3  -1   8  639.74   69.99
  -3  -1   8  696.33   45.50
  -3  -1   8  637.24   45.50
   2   1  -8 1647.94  136.19
   2   1  -8 1847.92  130.59
  -2  -1   8 1632.34  120.19
   1   1  -8 1145.29   92.79
  -1  -1   8 1070.69   93.59
  -1  -1   8 1326.67   92.59
   0   1  -8  504.25   60.19
   0   1  -8  656.83   72.89
   0  -1   8  530.15   61.59
   0  -1   8  682.73   74.29
   0  -1   8  529.25   71.59
   1  -1   8  671.43   70.39
   1  -1   8  607.94   70.89
   1  -1   8  729.83   77.89
  -2   1  -8   26.60    8.00
  -2   1  -8   34.70    7.30
  -2   1  -8   26.40    7.50
   2  -1   8   62.89   44.10
   2  -1   8   24.00   41.80
  -3   1  -8  933.81   57.79
  -3   1  -8  906.01   59.09
  -3   1  -8  828.12   58.99
  -3   1  -8  809.02   59.99
  -3   1  -8  890.31   58.69
  -3   1  -8  915.01   58.09
  -4   1  -8   38.50   10.80
  -4   1  -8   54.29    9.10
  -4   1  -8   56.59    9.70
  -4   1  -8   53.69   14.20
  -4   1  -8   61.29   11.10
   4  -1   8   28.00   53.99
  -5   1  -8   22.60    7.20
   4   0  -8  297.17   29.70
  -4   0   8  269.17   22.30
  -4   0   8  280.37   22.30
  -4   0   8  297.27   24.50
  -4   0   8  243.38   40.60
  -4   0   8  282.77   24.20
   3   0  -8  889.01   57.89
  -3   0   8  760.82   77.19
  -3   0   8  722.93   53.39
  -3   0   8  752.72   52.69
  -3   0   8  802.52   52.89
  -3   0   8  819.22   54.49
   2   0  -8   -3.40   28.20
   2   0  -8    4.80   26.90
  -2   0   8   -7.60   25.00
   1   0  -8  346.47   51.39
   1   0  -8  493.55   65.39
   1   0  -8  441.26   53.39
  -1   0   8  450.25   49.40
  -1   0   8  476.55   51.89
   0   0  -8 2642.04  205.68
   0   0  -8 3270.07  205.88
   0   0  -8 3257.57  209.78
   0   0   8 3030.80  209.48
   0   0   8 3248.58  208.68
  -1   0  -8  126.49   28.40
  -1   0  -8   78.19   38.00
   1   0   8  132.59   41.80
   1   0   8  100.69   45.60
   1   0   8  119.79   41.50
   2   0   8  314.97   65.19
   2   0   8  334.57   64.39
  -3   0  -8  376.76   32.20
  -3   0  -8  437.96   29.10
  -3   0  -8  439.76   30.50
  -3   0  -8  399.36   28.30
  -3   0  -8  414.56   30.00
   3   0   8  321.67   69.19
   3   0   8  461.95   44.20
   3   0   8  287.27   57.39
  -4   0  -8   68.19   11.70
  -4   0  -8   58.69   11.60
  -4   0  -8   55.09    9.40
  -4   0  -8   51.69   10.20
  -4   0  -8   66.39   14.40
   4   0   8   74.39   25.80
   4   0   8   41.20   56.89
  -5   0  -8  226.88   18.40
  -5   0  -8  243.18   17.70
   4  -1  -8   36.90   13.60
  -4   1   8   38.70    8.60
  -4   1   8   16.70    7.80
  -4   1   8   10.10    9.40
  -4   1   8   12.00   32.50
   3  -1  -8 1564.74  109.59
   3  -1  -8 1583.94  119.89
  -3   1   8 1810.22  107.29
  -3   1   8 1705.93  107.89
  -3   1   8 1694.53  121.99
  -3   1   8 1665.13  107.29
  -3   1   8 1602.64  106.69
  -3   1   8 1509.35  107.29
  -3   1   8 1807.62  108.59
   2  -1  -8  469.75   71.79
   2  -1  -8  376.86   48.70
   2  -1  -8  426.16   56.49
   2  -1  -8  405.26   44.80
   2  -1  -8  448.66   37.90
  -2   1   8  504.35   34.30
  -2   1   8  518.65   56.59
  -2   1   8  458.75   31.50
  -2   1   8  496.45   35.00
  -2   1   8  492.45   32.30
   1  -1  -8  348.37   37.40
   1  -1  -8  367.76   54.29
   1  -1  -8  368.26   41.20
   1  -1  -8  431.96   62.39
   1  -1  -8  291.07   45.80
  -1   1   8  353.46   46.90
  -1   1   8  249.88   45.90
   0  -1  -8  631.64   71.99
   0  -1  -8  643.34   61.99
   0  -1  -8  583.14   55.49
   0  -1  -8  468.95   57.69
   0   1   8  675.03   63.39
  -1  -1  -8  179.88   38.10
  -1  -1  -8  143.59   29.50
  -1  -1  -8  196.28   29.70
   1   1   8  151.28   42.20
   1   1   8  137.39   40.60
   1   1   8  146.29   43.60
   2   1   8 2982.60  198.18
   2   1   8 3095.39  188.58
   2   1   8 2573.74  198.98
  -3  -1  -8  713.53   46.20
  -3  -1  -8  693.63   46.90
  -3  -1  -8  753.02   47.60
  -3  -1  -8  653.63   48.80
   3   1   8  782.72   58.59
   3   1   8  517.65   78.39
  -4  -1  -8 1142.69   74.09
  -4  -1  -8  973.60   73.29
  -4  -1  -8 1104.69   73.09
  -4  -1  -8 1130.49   75.49
  -4  -1  -8 1162.88   73.39
   4   1   8 1249.88   83.19
  -5  -1  -8  180.28   20.50
  -5  -1  -8  131.59   13.70
  -5  -1  -8  134.49   12.70
   5   1   8   84.09   29.70
  -4   2   8  428.86   31.70
  -4   2   8  443.56   53.29
  -4   2   8  425.96   30.20
   3  -2  -8 1249.77   83.19
   3  -2  -8 1217.58   94.29
  -3   2   8 1188.78   80.19
  -3   2   8 1157.98   80.29
  -3   2   8 1184.08   98.09
  -3   2   8 1270.67   79.89
  -3   2   8 1312.57   81.59
   2  -2  -8  102.09   31.00
   2  -2  -8   69.99   29.30
   2  -2  -8   61.69   25.00
   2  -2  -8   96.69   15.10
  -2   2   8   83.19   12.10
  -2   2   8   70.79   10.40
  -2   2   8   83.59    9.70
  -2   2   8   73.19   10.50
  -2   2   8   80.89    9.30
  -2   2   8   58.09   30.30
  -2   2   8   76.49   12.10
   1  -2  -8  802.42   61.89
   1  -2  -8  717.13   73.39
   1  -2  -8  728.13   61.99
   1  -2  -8  747.13   81.39
  -1   2   8  631.54   60.79
   0  -2  -8  746.03   64.89
   0  -2  -8  762.22   72.89
   0  -2  -8  636.34   61.99
   0  -2  -8  742.43   79.19
   0   2   8  821.32   70.19
  -1  -2  -8 2115.19  155.18
  -1  -2  -8 2521.35  158.38
  -1  -2  -8 2188.48  155.78
  -1  -2  -8 2447.46  160.68
   1   2   8 2261.17  162.98
  -2  -2  -8  600.44   57.99
   2   2   8  732.33   55.49
  -3  -2  -8  178.68   24.10
  -3  -2  -8  175.48   18.10
  -3  -2  -8  202.88   18.30
   3   2   8  231.58   37.50
  -4  -2  -8  402.26   29.00
  -4  -2  -8  413.76   30.10
  -4  -2  -8  379.46   33.40
  -4  -2  -8  372.06   28.90
   4   2   8  435.96   47.80
  -5  -2  -8   35.20    7.50
  -5  -2  -8   45.70    8.60
  -5  -2  -8   41.00    7.70
  -5  -2  -8   61.29   14.10
   5   2   8   33.70   23.80
  -4   3   8    4.70    7.10
   3  -3  -8  446.36   57.59
   3  -3  -8  329.37   31.80
  -3   3   8  399.06   30.70
  -3   3   8  347.37   26.60
  -3   3   8  350.26   28.80
  -3   3   8  382.96   28.70
  -3   3   8  387.26   58.19
   2  -3  -8    3.90   19.00
   2  -3  -8   51.29   31.40
   2  -3  -8   30.70   26.40
  -2   3   8   38.60    9.70
  -2   3   8   27.60   31.20
  -2   3   8   17.60   12.00
  -2   3   8    4.80    8.40
  -2   3   8   31.70   10.40
   1  -3  -8 1085.49   93.09
   1  -3  -8 1017.90  113.59
   1  -3  -8  986.10   80.49
   1  -3  -8 1050.39   79.19
  -1   3   8 1037.70   67.29
  -1   3   8 1008.80   67.99
   0  -3  -8  245.88   46.20
   0  -3  -8  323.37   55.49
   0  -3  -8  307.17   44.20
   0  -3  -8  302.07   37.00
   0  -3  -8  283.97   59.79
   0   3   8  269.87   56.89
  -1  -3  -8 1815.72  123.99
  -1  -3  -8 1733.53  125.19
  -1  -3  -8 1738.53  120.39
  -1  -3  -8 1549.05  117.79
   1   3   8 1682.63  120.29
   2   3   8  593.34   57.49
   2   3   8  756.22  100.99
  -3  -3  -8   70.99   11.00
  -3  -3  -8   71.19   13.30
  -3  -3  -8   88.29   13.10
   3   3   8   82.19   18.20
   3   3   8   64.59   26.80
  -4  -3  -8   78.59   10.60
  -4  -3  -8   77.99   14.40
  -4  -3  -8   81.59   13.10
  -4  -3  -8   69.19   11.50
   4   3   8   91.19   29.00
  -5  -3  -8   99.79   10.80
  -5  -3  -8  129.59   15.10
   5   3   8   94.69   26.30
  -3   4   8  748.73   49.90
  -3   4   8  695.13   51.29
  -3   4   8  772.02   51.69
   2  -4  -8  630.14   58.69
  -2   4   8  533.95   42.00
  -2   4   8  515.75   39.50
  -2   4   8  524.05   38.90
   1  -4  -8  732.23   83.79
   1  -4  -8  818.62   68.29
  -1   4   8  824.42   54.29
  -1   4   8  782.42   53.09
  -1   4   8  782.12   56.19
   0  -4  -8  752.72   74.39
   0  -4  -8  680.13   62.39
   0   4   8  510.05   77.89
   0   4   8  670.73   44.70
   0   4   8  691.83   46.40
  -1  -4  -8  787.52   75.19
  -1  -4  -8  724.83   75.19
  -1  -4  -8  760.52   66.79
  -1  -4  -8  760.02   70.99
   1   4   8  703.13   73.99
   2   4   8  489.05   56.09
   2   4   8  417.06   35.10
  -3  -4  -8  642.04   46.20
  -3  -4  -8  646.34   47.80
  -3  -4  -8  667.83   48.90
   3   4   8  731.63   50.09
   3   4   8  755.92   64.59
  -4  -4  -8  318.37   30.70
  -4  -4  -8  321.37   27.20
  -4  -4  -8  354.96   29.40
   4   4   8  441.56   48.80
  -5  -4  -8  427.06   30.00
  -5  -4  -8  354.76   27.30
  -5  -4  -8  427.16   26.90
   5   4   8  306.57   45.00
  -3   5   8  209.18   18.20
   2  -5  -8  217.48   45.70
  -2   5   8  225.28   20.80
  -2   5   8  229.48   23.00
  -2   5   8  169.88   26.00
   1  -5  -8  128.19   35.50
   1  -5  -8   74.39   42.10
  -1   5   8  148.29   14.30
  -1   5   8  178.18   16.80
  -1   5   8  119.39   18.60
   0  -5  -8  185.78   37.90
   0  -5  -8  320.17   50.59
   0   5   8  225.98   26.20
   0   5   8  245.88   20.70
   0   5   8  195.98   54.09
   0   5   8  236.48   21.00
   0   5   8  226.78   21.10
  -1  -5  -8   92.09   42.30
  -1  -5  -8  125.29   31.90
  -1  -5  -8   78.89   38.70
   1   5   8   73.29   16.80
   1   5   8   50.39    9.80
   1   5   8   53.19   44.50
   1   5   8   66.69   12.40
   1   5   8   49.80    9.70
  -2  -5  -8  273.47   51.19
  -2  -5  -8  204.08   43.80
   2   5   8  178.68   42.40
   2   5   8  205.78   22.10
   2   5   8  168.98   19.70
   2   5   8  178.28   19.00
  -3  -5  -8  376.36   30.20
  -3  -5  -8  410.06   33.00
   3   5   8  425.36   59.39
   3   5   8  450.85   37.10
  -4  -5  -8  442.36   33.00
  -4  -5  -8  391.16   30.60
   4   5   8  443.36   55.59
  -5  -5  -8  150.08   15.30
  -5  -5  -8  142.39   13.80
  -2   6   8   54.09    9.60
  -2   6   8   47.50   12.10
   1  -6  -8  235.08   38.70
  -1   6   8  279.77   23.20
  -1   6   8  253.87   26.50
   0  -6  -8   14.70   32.80
   0  -6  -8   11.70   41.30
   0   6   8   38.50   10.50
   0   6   8   24.70    9.80
   0   6   8   34.20   11.60
   0   6   8   33.00   15.80
  -1  -6  -8  372.66   64.59
  -1  -6  -8  453.95   63.59
   1   6   8  322.07   25.90
   1   6   8  322.87   25.50
   1   6   8  307.77   33.00
   1   6   8  221.68   55.49
   1   6   8  321.57   25.90
   1   6   8  286.57   28.30
  -2  -6  -8  831.82   77.99
  -2  -6  -8  956.40   82.69
   2   6   8  834.92   55.49
   2   6   8  735.23   87.79
   2   6   8  770.92   59.39
   2   6   8  831.52   55.79
  -3  -6  -8  438.76   30.40
   3   6   8  381.46   36.90
   3   6   8  420.16   64.09
  -4  -6  -8  170.68   20.00
  -4  -6  -8  152.18   16.00
   4   6   8  159.58   36.80
  -5  -6  -8   80.89   11.10
  -5  -6  -8   51.89    6.70
  -1   7   8   70.79   16.20
  -1   7   8   54.69   10.70
   0  -7  -8   60.19   31.20
   0   7   8   63.59   11.50
   0   7   8   57.59   12.80
   0   7   8   67.09   10.50
   0   7   8   57.49   17.60
   1   7   8  135.09   14.00
   1   7   8  127.59   14.20
   1   7   8  164.78   15.50
   1   7   8  120.29   20.30
  -2  -7  -8  785.92   48.00
  -2  -7  -8  730.23   80.59
   2   7   8  646.74   48.00
   2   7   8  580.04   50.69
   2   7   8  649.83   46.70
  -3  -7  -8   58.29   10.30
  -3  -7  -8   69.59   13.50
   3   7   8   78.69   19.20
   3   7   8   60.99   38.10
  -4  -7  -8   97.09   11.90
  -4  -7  -8   74.89    9.20
   4   7   8   61.59   33.00
   0   8   8   57.69    8.80
   0   8   8   49.40   10.40
   0   8   8   51.49   15.00
   1   8   8   28.90   17.60
   1   8   8   71.49   10.00
  -2  -8  -8    8.00    7.60
   2   8   8    8.00   16.60
   2   8   8    1.40    9.10
  -3  -8  -8   49.80    7.70
   3   8   8   38.60   10.20
   4   8   8   59.79    9.90
   2   7  -9   50.69   10.10
   2   7  -9   32.10    6.40
   2   7  -9   24.60   10.30
   1   7  -9   42.50   11.80
   1   7  -9   22.30    6.70
   0   7  -9   38.20   11.60
   0   7  -9   28.80    6.80
   3   6  -9  234.98   20.00
   3   6  -9  234.48   16.60
  -3  -6   9  173.88   20.90
  -3  -6   9  201.08   20.90
   2   6  -9   10.10   11.50
   2   6  -9   -6.40   10.70
   2   6  -9    5.90    7.40
  -2  -6   9   -0.60   11.30
   1   6  -9  531.65   36.70
   1   6  -9  558.64   40.70
   1   6  -9  559.04   38.80
  -1  -6   9  455.85   82.19
   0   6  -9  359.26   26.50
   0   6  -9  373.36   32.00
  -1   6  -9  346.87   29.50
  -1   6  -9  317.07   24.40
   4   5  -9    4.80    5.00
  -4  -5   9   11.50    9.10
  -4  -5   9   21.00    7.40
   3   5  -9   73.09   11.50
   3   5  -9   58.89    7.90
  -3  -5   9   41.50   13.60
   2   5  -9  189.08   16.20
   2   5  -9  168.98   16.00
  -2  -5   9   70.19   59.69
   1   5  -9  353.56   29.40
   1   5  -9  300.37   27.80
   1   5  -9  331.47   24.30
  -1  -5   9  256.37   65.19
   0   5  -9  273.67   27.20
   0   5  -9  275.57   21.20
   0   5  -9  274.07   24.80
   0  -5   9  186.58   57.29
  -1   5  -9   70.09   16.50
  -1   5  -9   53.09    9.90
   1  -5   9   -4.00   49.10
  -2   5  -9   15.40    8.60
  -2   5  -9   -0.10    9.30
   4   4  -9   21.20    5.70
  -4  -4   9   27.90   10.50
  -4  -4   9   41.60   12.30
  -4  -4   9   24.50    8.40
   3   4  -9  757.52   51.39
  -3  -4   9  812.32   55.19
   2   4  -9   85.19    9.60
   2   4  -9   96.19   13.10
  -2  -4   9   38.10   67.19
  -2  -4   9   95.69   15.40
   1   4  -9  400.56   28.50
   1   4  -9  384.16   31.60
   1   4  -9  414.36   31.80
  -1  -4   9  493.55   88.89
   0   4  -9  127.79   14.60
   0   4  -9  111.29   14.00
   0   4  -9  123.99   16.80
   0  -4   9  160.88   55.69
   0  -4   9  132.79   29.30
  -1   4  -9  824.82   60.19
  -1   4  -9  839.32   54.09
  -1   4  -9  774.52   54.09
  -1   4  -9  879.31   57.69
   1  -4   9  711.03   96.89
  -2   4  -9  275.57   23.30
  -2   4  -9  289.57   22.60
   2  -4   9  238.98   55.39
  -3   4  -9   46.90   10.10
  -3   4  -9   32.30    6.30
  -3   4  -9   40.60    7.70
  -4  -3   9  623.84   41.50
  -4  -3   9  525.15   40.20
  -4  -3   9  620.64   41.80
   3   3  -9  319.37   34.90
   3   3  -9  265.57   55.79
  -3  -3   9  415.86   29.00
  -3  -3   9  396.16   32.40
  -3  -3   9  387.66   29.80
   2   3  -9 1351.46   93.99
   2   3  -9 1435.56   95.79
   2   3  -9 1438.96   92.99
   2   3  -9 1464.65  126.79
  -2  -3   9 1543.65   95.59
  -2  -3   9 1431.86  105.29
   1   3  -9 1011.50  100.89
   1   3  -9  937.21   63.09
   1   3  -9  886.41   64.19
   1   3  -9  995.90   61.69
  -1  -3   9 1082.09   95.29
  -1  -3   9  940.01   76.49
  -1  -3   9  796.62  101.39
   0   3  -9 1237.88   85.29
   0   3  -9 1207.38   85.99
   0   3  -9 1462.55   85.09
   0   3  -9 1390.06   83.79
   0  -3   9 1267.87   94.59
   0  -3   9 1066.39  116.39
   0  -3   9 1397.06  115.19
  -1   3  -9  464.55   35.60
  -1   3  -9  575.34   37.40
  -1   3  -9  489.85   38.70
  -1   3  -9  515.85   41.50
  -1   3  -9  546.95   35.10
  -1   3  -9  563.94   38.00
   1  -3   9  359.26   77.89
  -2   3  -9  253.87   20.60
  -2   3  -9  254.07   22.10
  -2   3  -9  278.77   23.40
  -2   3  -9  307.67   23.60
  -2   3  -9  251.97   20.90
  -2   3  -9  232.48   33.10
  -3   3  -9  202.58   21.20
  -3   3  -9  225.48   19.40
  -3   3  -9  245.68   22.00
  -3   3  -9  225.48   18.80
  -3   3  -9  269.17   20.90
   3  -3   9  172.58   56.79
  -4   3  -9  292.77   22.00
   4   2  -9  215.58   22.60
  -4  -2   9  229.18   21.30
  -4  -2   9  168.38   17.30
  -4  -2   9  222.88   21.10
  -4  -2   9  198.68   35.90
   3   2  -9  323.87   30.50
   3   2  -9  406.36   71.49
  -3  -2   9  248.98   39.20
  -3  -2   9  349.87   29.00
  -3  -2   9  324.67   26.30
  -3  -2   9  335.77   26.70
   2   2  -9  254.07   24.70
   2   2  -9  192.38   20.00
   2   2  -9  203.38   47.30
  -2  -2   9  213.58   23.60
  -2  -2   9  190.38   19.50
  -2  -2   9  219.58   32.70
   1   2  -9  730.53   50.79
   1   2  -9  821.42   82.59
  -1  -2   9  819.12   80.79
  -1  -2   9  617.24   90.19
  -1  -2   9  774.82   67.69
   0   2  -9   17.90   10.80
   0   2  -9   20.10   38.20
   0  -2   9   25.80   48.40
   0  -2   9  -58.49   46.50
   0  -2   9   67.39   24.90
  -1   2  -9   -3.70    6.70
  -1   2  -9    6.00   11.00
  -1   2  -9    4.80   10.60
   1  -2   9    2.10   40.20
   1  -2   9   30.20   44.10
  -2   2  -9   98.09   11.10
  -2   2  -9  139.59   13.90
  -2   2  -9  105.49   12.20
  -2   2  -9  111.49   11.40
  -2   2  -9  107.39   10.90
  -2   2  -9  157.68   19.10
   2  -2   9  135.59   44.50
   2  -2   9   36.40   51.09
  -3   2  -9  171.98   15.30
  -3   2  -9  174.78   19.50
  -3   2  -9  160.68   16.60
  -3   2  -9  170.28   19.00
  -3   2  -9  156.18   16.60
   3  -2   9   61.89   60.59
  -4   2  -9    0.20    7.20
  -4   2  -9    0.70    9.80
  -4   2  -9    7.10    7.70
  -4   2  -9    2.20    8.80
   4   1  -9   87.49   14.10
  -4  -1   9   67.59   35.80
  -4  -1   9   75.49   12.20
  -4  -1   9   54.29   10.70
  -4  -1   9   45.20    8.90
   3   1  -9  683.03   77.59
   3   1  -9  688.33   45.80
  -3  -1   9  532.85   70.69
  -3  -1   9  588.74   42.90
  -3  -1   9  559.04   44.20
  -3  -1   9  514.35   41.10
   2   1  -9   12.30   13.80
   2   1  -9   -1.00   35.50
  -2  -1   9    3.30   10.30
  -2  -1   9    5.50    9.50
  -2  -1   9   -9.40    8.70
  -2  -1   9   -5.30   27.80
   1   1  -9  560.74   79.49
   1   1  -9  645.94   67.59
  -1  -1   9  587.64   58.49
   0   1  -9  148.29   37.50
   0   1  -9  128.79   35.90
   0  -1   9   72.59   44.40
   0  -1   9  150.78   37.60
   0  -1   9  164.68   26.10
   0  -1   9  164.58   47.70
   1  -1   9 1086.49   92.69
   1  -1   9  876.71   86.69
  -2   1  -9  331.97   26.00
  -2   1  -9  340.77   25.10
  -2   1  -9  324.07   32.70
  -2   1  -9  317.47   24.00
  -2   1  -9  351.36   26.30
  -2   1  -9  337.67   24.40
  -3   1  -9  189.98   16.20
  -3   1  -9  178.18   20.10
  -3   1  -9  171.08   17.80
  -3   1  -9  192.38   19.00
  -3   1  -9  166.38   19.30
  -3   1  -9  191.28   16.90
   3  -1   9  109.29   58.59
  -4   1  -9  131.39   13.70
  -4   1  -9  123.89   15.70
  -4   1  -9  125.69   12.10
  -4   1  -9  113.49   13.30
  -4   1  -9  138.09   13.60
   4  -1   9  139.39   89.89
   4   0  -9  975.30   68.59
  -4   0   9 1108.69   67.19
  -4   0   9  943.51   86.29
  -4   0   9  996.00   67.09
  -4   0   9  998.80   65.99
  -3   0   9  174.88   17.40
  -3   0   9  123.59   15.90
  -3   0   9  138.69   20.00
  -3   0   9  156.78   19.10
  -3   0   9  141.89   36.10
   2   0  -9  847.42   80.99
   2   0  -9  805.42   58.29
  -2   0   9  810.12   55.99
  -2   0   9  800.62   55.69
  -2   0   9  865.01   74.09
  -2   0   9  915.81   57.19
   1   0  -9  259.67   62.49
   1   0  -9  280.87   50.49
  -1   0   9  313.17   47.40
  -1   0   9  339.87   46.90
   0   0  -9  951.70   79.99
   0   0  -9 1039.10   87.79
   0   0   9  936.51   86.69
   0   0   9 1029.90   81.09
   0   0   9  900.21   82.79
   1   0   9  411.96   62.79
   1   0   9  496.05   68.79
   1   0   9  379.66   63.49
  -2   0  -9  460.95   33.20
  -2   0  -9  411.86   29.80
   2   0   9  435.26   67.49
   2   0   9  398.46   73.79
  -3   0  -9  290.47   24.00
  -3   0  -9  243.48   25.80
  -3   0  -9  313.57   23.70
  -3   0  -9  297.67   22.50
  -3   0  -9  288.47   21.30
   3   0   9  199.48   57.89
   3   0   9  252.57   54.49
  -4   0  -9   65.89   14.30
  -4   0  -9   46.10   11.70
  -4   0  -9   42.90    9.90
  -4   0  -9   45.40   11.00
  -4   0  -9   56.09    9.30
   4   0   9   48.10   57.49
  -5   0  -9  199.08   16.00
   4  -1  -9   11.50   12.20
  -4   1   9   22.60   31.50
  -4   1   9   11.70    9.20
  -4   1   9   20.80    7.80
   3  -1  -9 1349.77   84.59
  -3   1   9 1315.17   82.29
  -3   1   9 1201.68   81.79
  -3   1   9 1130.29   80.99
  -3   1   9 1236.48   99.59
  -3   1   9 1211.08   80.79
  -3   1   9 1249.28   80.99
   2  -1  -9  193.78   36.00
   2  -1  -9  240.38   40.70
   2  -1  -9  228.58   26.80
  -2   1   9  196.68   33.50
  -2   1   9  218.68   20.20
  -2   1   9  223.58   20.90
  -2   1   9  191.38   17.90
  -2   1   9  199.78   19.00
   1  -1  -9  923.81   81.69
   1  -1  -9  913.11   74.79
   1  -1  -9  693.53   61.89
  -1   1   9  809.32   66.19
   0  -1  -9 3468.75  225.78
   0  -1  -9 3382.86  220.78
   0   1   9 3058.09  222.08
  -1  -1  -9  954.60   82.39
  -1  -1  -9 1301.57   84.79
   1   1   9 1146.59   93.79
   1   1   9 1044.40   95.09
   2   1   9  770.22   58.09
   2   1   9  644.54   77.69
   2   1   9  548.75   76.59
  -3  -1  -9   57.39   12.50
  -3  -1  -9   52.89    8.70
  -3  -1  -9   47.40   10.20
  -3  -1  -9   64.19   11.30
   3   1   9    7.70   50.19
   3   1   9   61.79   24.90
  -4  -1  -9  146.99   15.00
  -4  -1  -9  168.08   22.70
  -4  -1  -9  156.38   15.30
  -4  -1  -9  145.39   16.40
   4   1   9  111.89   63.29
   4   1   9  152.68   29.00
  -5  -1  -9   43.60    7.50
  -5  -1  -9   47.10    7.90
  -5  -1  -9   74.09   13.30
   4  -2  -9  108.89   17.90
  -4   2   9  150.08   14.00
  -4   2   9  172.48   16.70
   3  -2  -9  662.23   63.89
   3  -2  -9  710.33   51.09
  -3   2   9  710.43   46.70
  -3   2   9  713.43   48.60
  -3   2   9  667.03   46.80
  -3   2   9  711.73   74.39
  -3   2   9  687.73   47.20
   2  -2  -9 1361.16   97.09
   2  -2  -9 1389.96   89.39
   2  -2  -9 1156.98   99.19
   2  -2  -9 1439.06  106.79
  -2   2   9 1200.48   86.79
  -2   2   9 1287.27   86.89
  -2   2   9 1354.26   88.29
  -2   2   9 1514.75   87.29
  -2   2   9 1370.36  102.39
   1  -2  -9  641.54   56.69
   1  -2  -9  652.03   74.99
   1  -2  -9  660.23   68.29
   1  -2  -9  573.94   56.89
  -1   2   9  538.05   54.59
   0  -2  -9  134.79   36.90
   0  -2  -9  129.19   27.60
   0  -2  -9  114.49   29.90
   0  -2  -9   99.59   28.50
   0  -2  -9  140.99   37.40
  -1  -2  -9  564.04   66.69
  -1  -2  -9  480.45   49.80
  -1  -2  -9  557.04   61.29
   1   2   9  520.75   64.99
   2   2   9  769.82   61.19
  -3  -2  -9  310.87   29.80
  -3  -2  -9  323.37   25.30
  -3  -2  -9  304.57   26.80
   3   2   9  365.36   43.00
  -4  -2  -9  281.17   25.70
  -4  -2  -9  366.86   25.80
  -4  -2  -9  379.66   27.40
  -4  -2  -9  370.46   30.80
  -4  -2  -9  345.97   26.40
   4   2   9  363.16   46.30
  -5  -2  -9  379.56   27.70
  -5  -2  -9  286.57   21.80
  -5  -2  -9  285.17   22.10
   5   2   9  305.87   37.30
   3  -3  -9  335.97   32.50
   3  -3  -9  388.16   49.90
  -3   3   9  409.66   31.10
  -3   3   9  397.56   56.39
  -3   3   9  402.56   28.80
  -3   3   9  360.26   28.40
   2  -3  -9  393.26   50.99
   2  -3  -9  469.15   58.49
   2  -3  -9  381.86   41.10
  -2   3   9  386.66   54.79
  -2   3   9  338.37   28.80
  -2   3   9  378.76   29.60
  -2   3   9  363.26   31.50
   1  -3  -9   54.29   37.30
   1  -3  -9   41.40   27.30
   1  -3  -9    6.80   27.20
  -1   3   9   70.79   10.40
  -1   3   9   76.79   13.00
  -1   3   9   74.99   10.60
   0  -3  -9   36.50   28.40
   0  -3  -9    9.70   32.70
   0  -3  -9   30.30   28.30
   0  -3  -9   43.50   35.80
   0   3   9   40.30   38.80
  -1  -3  -9  274.07   46.10
  -1  -3  -9  275.27   54.29
  -1  -3  -9  242.88   38.70
   1   3   9  274.77   51.39
   2   3   9  112.79   29.90
  -3  -3  -9  407.66   32.40
  -3  -3  -9  390.56   34.90
  -3  -3  -9  434.96   31.00
   3   3   9  428.26   40.70
   3   3   9  477.15   49.90
  -4  -3  -9  226.58   25.40
  -4  -3  -9  207.38   21.70
  -4  -3  -9  227.18   20.10
  -4  -3  -9  195.38   19.70
   4   3   9  257.97   42.20
  -5  -3  -9  332.27   23.00
  -5  -3  -9  334.07   27.40
   5   3   9  286.57   40.40
  -3   4   9   75.59   10.60
  -3   4   9   76.69    9.20
  -3   4   9   63.89   12.50
   2  -4  -9 1324.47   92.19
  -2   4   9 1131.39   78.29
  -2   4   9 1151.58   77.79
  -2   4   9 1163.98   79.99
   1  -4  -9   73.69   42.00
  -1   4   9  140.39   17.80
  -1   4   9  157.68   19.80
  -1   4   9  155.98   14.10
   0  -4  -9  943.31   74.49
   0  -4  -9 1029.70   86.19
   0  -4  -9  912.01   74.09
   0   4   9  780.42   61.69
   0   4   9  735.43   87.19
   0   4   9  832.52   58.89
   0   4   9  864.01   57.89
   0   4   9  932.41   57.99
   0   4   9  914.01   58.59
  -1  -4  -9  584.24   69.09
  -1  -4  -9  663.73   58.79
  -1  -4  -9  575.84   68.79
   1   4   9  593.34   69.49
   1   4   9  536.95   41.70
  -2  -4  -9  110.89   13.00
   2   4   9  108.29   18.20
   2   4   9   94.69   36.00
   2   4   9   76.99   10.70
   2   4   9   84.29   13.50
  -3  -4  -9   76.49   13.90
  -3  -4  -9   83.99   14.20
  -3  -4  -9  102.79   12.00
   3   4   9   97.69   16.20
   3   4   9   96.89   33.80
  -4  -4  -9  497.05   38.40
  -4  -4  -9  504.55   35.30
  -4  -4  -9  460.95   37.10
   4   4   9  560.94   56.39
  -5  -4  -9  373.36   29.80
  -5  -4  -9  470.45   32.30
  -5  -4  -9  470.75   29.70
   5   4   9  431.46   46.50
  -3   5   9    9.70    8.80
   2  -5  -9  522.35   60.49
  -2   5   9  608.24   46.40
  -2   5   9  700.33   44.30
  -2   5   9  650.33   43.10
   1  -5  -9  220.18   37.50
  -1   5   9  234.18   25.90
  -1   5   9  251.07   22.00
  -1   5   9  194.68   28.40
   0  -5  -9  585.74   74.69
   0  -5  -9  644.14   60.49
   0   5   9  531.35   38.50
   0   5   9  587.14   38.70
   0   5   9  428.46   80.09
   0   5   9  520.65   38.30
   0   5   9  534.55   41.10
  -1  -5  -9    6.40   39.50
  -1  -5  -9   48.10   29.30
  -1  -5  -9    2.40    8.80
   1   5   9   22.70    9.10
   1   5   9   32.80   46.70
   1   5   9   43.50   16.20
   1   5   9   31.90   12.00
   1   5   9   17.90    8.90
  -2  -5  -9  666.63   52.39
   2   5   9  807.02   78.89
   2   5   9  847.62   55.19
   2   5   9  765.82   51.19
   2   5   9  759.52   53.79
  -3  -5  -9  839.52   58.19
  -3  -5  -9  797.62   56.59
  -3  -5  -9  834.92   58.29
   3   5   9  962.00   61.29
   3   5   9  839.92   79.49
  -4  -5  -9  867.11   57.09
  -4  -5  -9  845.72   55.59
  -4  -5  -9  808.02   57.69
   4   5   9  847.02   74.39
  -5  -5  -9   42.20    7.20
  -5  -5  -9   38.10    8.10
  -2   6   9   18.50    8.30
  -2   6   9    7.80   10.60
   1  -6  -9  226.58   36.80
  -1   6   9  276.07   26.70
  -1   6   9  270.47   23.50
   0  -6  -9 1110.09   92.69
   0   6   9 1183.98   77.29
   0   6   9 1252.07   77.39
   0   6   9 1171.28   80.49
   0   6   9 1169.48   77.59
  -1  -6  -9  291.47   48.80
   1   6   9  278.17   27.30
   1   6   9  178.28   54.19
   1   6   9  282.87   23.50
   1   6   9  284.87   23.50
   1   6   9  273.57   32.00
  -2  -6  -9  314.37   62.39
   2   6   9  285.57   52.89
   2   6   9  298.37   32.30
   2   6   9  310.47   25.30
   2   6   9  306.47   25.90
  -3  -6  -9   61.49   11.20
  -3  -6  -9   69.69   14.30
   3   6   9   54.09   41.10
   3   6   9   74.19   18.80
  -4  -6  -9   57.09   10.00
  -4  -6  -9   78.59   12.70
   4   6   9   75.59   34.40
  -5  -6  -9   53.59    7.90
  -5  -6  -9   56.29    6.20
  -1   7   9   36.80    9.30
  -1   7   9   27.70   14.40
   0   7   9  415.06   30.40
   0   7   9  403.56   30.50
   0   7   9  423.36   35.90
   0   7   9  397.96   31.30
  -1  -7  -9   52.69   32.00
   1   7   9   69.29   11.40
   1   7   9   70.39   11.20
   1   7   9   56.89   17.20
  -2  -7  -9  106.99   14.70
   2   7   9  102.29   12.40
   2   7   9  102.79   13.20
   2   7   9  102.09   19.20
   2   7   9   53.39   43.70
  -3  -7  -9   77.59   13.30
  -3  -7  -9   72.09   10.20
   3   7   9   74.29   19.00
   3   7   9   54.09   38.20
  -4  -7  -9  372.56   26.40
  -4  -7  -9  390.26   28.30
   0   8   9  206.28   17.10
   0   8   9  196.08   21.80
   1   8   9   60.59    9.50
   1   8   9   54.39   15.60
  -2  -8  -9   56.49    8.10
   2   8   9   42.30    8.90
   2   8   9   41.70   14.80
  -3  -8  -9    8.60    9.20
  -3  -8  -9    0.00    6.60
   3   8   9    7.20    8.60
   1   7 -10   65.69    7.90
   1   7 -10   81.99   11.80
   0   7 -10  164.08   18.90
   3   6 -10  110.09   11.40
  -3  -6  10  127.69   12.00
   2   6 -10    5.90    9.80
   2   6 -10   17.50    6.90
  -2  -6  10    6.90   10.90
   1   6 -10  126.99   14.30
   1   6 -10  142.29   16.30
   1   6 -10  130.89   13.60
   0   6 -10   89.89   10.20
   0   6 -10  118.09   15.30
  -1   6 -10   42.40    7.70
  -1   6 -10   59.09   12.70
  -4  -5  10  218.98   18.00
  -4  -5  10  207.08   18.90
   3   5 -10  598.44   40.20
   3   5 -10  699.63   42.30
  -3  -5  10  580.54   42.20
  -3  -5  10  573.14   43.30
   2   5 -10  112.29   13.60
   2   5 -10  102.69   10.40
  -2  -5  10  103.69   13.70
   1   5 -10   33.90   11.80
   1   5 -10   26.70    8.20
   1   5 -10   41.40   13.80
  -1  -5  10   24.00   57.59
   0   5 -10  234.08   24.50
   0   5 -10  224.78   22.40
   0   5 -10  196.88   18.00
   0  -5  10  135.19   53.89
  -1   5 -10  377.86   31.80
  -1   5 -10  349.96   26.80
  -2   5 -10  397.26   28.10
  -2   5 -10  384.86   27.80
   4   4 -10  185.88   16.00
  -4  -4  10  251.27   20.20
  -4  -4  10  220.68   19.40
   3   4 -10  182.58   15.60
   3   4 -10  208.78   19.90
  -3  -4  10  172.18   23.10
  -3  -4  10  207.78   20.40
   2   4 -10 1349.36   86.19
   2   4 -10 1288.67   84.89
  -2  -4  10 1309.37   86.29
   1   4 -10  175.48   16.70
   1   4 -10  178.48   16.50
   1   4 -10  167.08   21.20
  -1  -4  10  179.78   21.70
  -1  -4  10  203.98   61.29
   0   4 -10  322.67   27.60
   0   4 -10  307.47   29.30
   0   4 -10  344.57   24.30
   0  -4  10  292.37   38.60
   0  -4  10  346.87   63.79
  -1   4 -10  500.15   43.00
  -1   4 -10  580.74   41.30
  -1   4 -10  563.84   37.00
  -1   4 -10  552.24   38.70
  -1   4 -10  512.85   37.10
   1  -4  10  417.06   88.69
  -2   4 -10  150.88   12.80
  -2   4 -10  123.79   13.60
   2  -4  10  102.19   52.69
  -3   4 -10   98.89   11.00
  -4  -3  10  111.19   16.60
  -4  -3  10   94.49   11.00
  -4  -3  10  134.49   17.60
   3   3 -10  116.29   16.50
   3   3 -10  109.59   12.80
  -3  -3  10  153.28   21.30
  -3  -3  10  158.48   17.30
  -3  -3  10  159.08   19.20
  -3  -3  10  152.68   50.09
   2   3 -10  199.28   55.49
   2   3 -10  193.18   16.40
   2   3 -10  201.58   23.60
   2   3 -10  179.58   21.10
  -2  -3  10  190.28   23.30
  -2  -3  10  257.37   22.70
  -2  -3  10  208.98   32.60
   1   3 -10  596.84   43.40
   1   3 -10  605.14   44.90
   1   3 -10  673.53   89.59
   1   3 -10  636.64   41.20
  -1  -3  10  646.14   84.39
  -1  -3  10  631.34   43.80
  -1  -3  10  582.74   62.19
   0   3 -10  -11.40   11.30
   0   3 -10    1.00   13.60
   0   3 -10   -4.40   12.40
   0   3 -10   16.80    7.10
   0  -3  10   12.70   50.09
   0  -3  10    8.10   27.60
  -1   3 -10  184.48   18.90
  -1   3 -10  151.28   19.90
  -1   3 -10  158.08   16.00
  -1   3 -10  169.78   19.00
  -1   3 -10  169.28   17.90
  -1   3 -10  183.78   20.90
   1  -3  10  178.48   56.29
  -2   3 -10   66.19   11.10
  -2   3 -10   66.79   12.00
  -2   3 -10   56.79   10.10
  -2   3 -10   78.99   19.70
  -2   3 -10   63.89    9.20
   2  -3  10   60.89   57.59
  -3   3 -10  484.15   33.70
  -3   3 -10  452.95   33.90
  -3   3 -10  561.94   35.40
  -3   3 -10  491.75   35.10
   4   2 -10  321.97   25.40
  -4  -2  10  290.07   25.10
  -4  -2  10  305.17   25.80
  -4  -2  10  317.37   56.79
   3   2 -10  131.79   16.30
  -3  -2  10   90.99   11.70
  -3  -2  10   81.09   14.00
  -3  -2  10  108.59   14.70
  -3  -2  10   89.29   33.70
   2   2 -10 1252.67  108.69
   2   2 -10  993.60   74.59
   2   2 -10 1157.98   75.99
  -2  -2  10 1146.09   91.79
  -2  -2  10 1080.69   74.19
  -2  -2  10 1196.08   76.09
  -2  -2  10 1197.38   75.09
   1   2 -10   51.69   42.60
   1   2 -10   27.40    6.80
   1   2 -10   50.39   10.60
   1   2 -10   36.30   12.10
  -1  -2  10   62.39   44.30
  -1  -2  10   47.60   26.90
  -1  -2  10   61.69   10.30
   0   2 -10  849.02   58.49
   0   2 -10  927.11   60.69
   0   2 -10  987.40   90.79
   0  -2  10  933.21   73.29
   0  -2  10  857.21   95.09
  -1   2 -10  126.69   16.40
  -1   2 -10  132.29   14.00
  -1   2 -10  113.49   13.20
  -1   2 -10  106.29   16.30
   1  -2  10   31.60   44.40
   1  -2  10   64.69   47.50
  -2   2 -10  963.20   60.19
  -2   2 -10  921.21   64.29
  -2   2 -10  894.01   60.79
  -2   2 -10  903.41   59.19
  -2   2 -10  920.41   58.79
  -2   2 -10  865.51   58.79
  -2   2 -10  936.31   59.69
   2  -2  10  674.23   97.99
  -3   2 -10  154.18   14.00
  -3   2 -10  132.29   12.70
  -3   2 -10  126.79   12.90
  -3   2 -10  137.99   14.20
  -3   2 -10  136.39   14.70
   3  -2  10   56.29   58.99
  -4   2 -10  229.08   18.40
  -4   2 -10  245.28   19.50
  -4   2 -10  256.47   20.50
  -4   2 -10  227.38   18.20
   4   1 -10  124.89   18.80
  -4  -1  10  146.19   35.50
  -4  -1  10   91.69   10.90
  -4  -1  10  138.49   17.90
  -4  -1  10  150.08   16.90
   3   1 -10  729.53   50.59
   3   1 -10  721.93   81.09
  -3  -1  10  645.14   47.50
  -3  -1  10  635.64   46.90
  -3  -1  10  734.83   48.60
  -3  -1  10  664.23   75.59
   2   1 -10  164.98   43.10
   2   1 -10  161.68   22.90
  -2  -1  10  132.69   33.00
  -2  -1  10  147.29   18.40
  -2  -1  10  162.58   20.40
  -2  -1  10  143.79   18.10
   1   1 -10  404.56   76.49
   1   1 -10  469.45   33.70
   1   1 -10  537.55   67.39
  -1  -1  10  462.75   54.59
   0   1 -10  393.06   64.69
   0   1 -10  474.55   35.60
   0  -1  10  536.85   74.69
   0  -1  10  516.95   52.99
   1  -1  10  542.35   71.99
   1  -1  10  769.52   82.49
  -2   1 -10  318.37   22.00
  -2   1 -10  299.07   22.50
  -2   1 -10  300.97   23.40
  -2   1 -10  262.57   21.60
  -2   1 -10  323.17   24.30
  -2   1 -10  295.27   29.90
   2  -1  10  211.58   55.39
   2  -1  10  195.08   49.50
  -3   1 -10  873.11   60.29
  -3   1 -10  903.41   59.69
  -3   1 -10  920.51   60.69
  -3   1 -10  929.81   59.49
  -4   1 -10  104.99   12.70
  -4   1 -10  121.79   13.60
  -4   1 -10  124.49   13.30
  -4   1 -10  131.29   13.00
   4   0 -10  557.94   41.20
  -4   0  10  662.33   63.89
  -4   0  10  608.44   40.00
  -4   0  10  514.25   38.10
  -3   0  10  337.37   61.59
  -3   0  10  312.07   27.00
  -3   0  10  303.57   24.50
  -3   0  10  335.47   27.30
   2   0 -10 1526.05  106.09
   2   0 -10 1670.33  126.19
  -2   0  10 1642.34  105.29
  -2   0  10 1756.72  117.39
  -2   0  10 1586.54  104.49
  -2   0  10 1550.54  104.69
   1   0 -10  599.04   67.09
   1   0 -10  516.35   74.89
  -1   0  10  692.73   60.09
   0   0 -10 2843.42  194.58
   0   0 -10 2939.71  199.28
   0   0  10 2742.53  204.18
   0   0  10 2634.84  196.28
   0   0  10 3146.09  188.18
   1   0  10  686.93   76.69
   1   0  10  488.45   69.59
  -2   0 -10   30.90    8.90
  -2   0 -10   43.60   14.70
  -2   0 -10   21.70    8.50
   2   0  10    8.40   50.59
   2   0  10   42.10   41.50
  -3   0 -10  565.54   37.80
  -3   0 -10  469.95   39.50
  -3   0 -10  561.14   36.40
  -3   0 -10  549.74   38.00
  -3   0 -10  552.44   37.00
   3   0  10  409.66   89.99
  -4   0 -10  141.69   14.90
  -4   0 -10  154.68   17.00
  -4   0 -10  156.98   15.40
  -4   0 -10  158.68   17.10
  -4   0 -10  142.99   15.50
   4   0  10  111.49   56.19
  -5   0 -10  116.99   11.30
   4  -1 -10  162.48   19.00
  -4   1  10  146.39   16.80
  -4   1  10  129.19   14.10
  -4   1  10  135.19   33.20
   3  -1 -10   98.99   17.70
  -3   1  10  122.89   15.70
  -3   1  10  111.39   35.20
  -3   1  10  135.59   18.60
  -3   1  10  115.39   15.30
  -3   1  10  130.89   12.80
   2  -1 -10 3123.19  194.28
   2  -1 -10 3072.59  208.08
  -2   1  10 2804.02  192.38
  -2   1  10 3135.39  193.58
  -2   1  10 3185.48  201.88
  -2   1  10 2752.22  192.98
   1  -1 -10   50.39   30.00
   1  -1 -10   58.19   29.80
  -1   1  10   34.60   25.60
   0  -1 -10 1185.18   92.99
   0  -1 -10 1237.58   98.89
   0   1  10 1119.09   93.99
   0   1  10 1165.18   85.09
  -1  -1 -10  203.78   34.60
   1   1  10  154.78   23.20
   1   1  10  212.18   57.29
   2   1  10  222.18   79.69
   2   1  10  387.96   68.59
  -3  -1 -10  822.12   53.49
  -3  -1 -10  744.53   54.99
  -3  -1 -10  813.32   52.99
  -3  -1 -10  754.22   52.29
   3   1  10  835.82   68.39
  -4  -1 -10  168.78   16.20
  -4  -1 -10  164.48   18.70
  -4  -1 -10  165.98   22.90
  -4  -1 -10  174.08   17.20
   4   1  10  185.88   36.90
  -5  -1 -10  106.09   11.80
  -5  -1 -10  134.19   17.60
   4  -2 -10  178.28   18.30
  -4   2  10  192.58   15.70
  -4   2  10  238.98   18.80
   3  -2 -10  104.99   15.40
  -3   2  10   88.19   11.40
  -3   2  10   82.89   11.10
  -3   2  10   57.59   35.40
  -3   2  10   87.39   13.00
   2  -2 -10   88.39   15.00
   2  -2 -10   45.50   26.40
   2  -2 -10   81.99   35.40
  -2   2  10   46.20   10.50
  -2   2  10   60.99   10.70
  -2   2  10   49.60   12.00
  -2   2  10   19.80   31.80
   1  -2 -10  -32.00   24.40
   1  -2 -10    9.70   22.80
   1  -2 -10    5.60   31.10
  -1   2  10    9.30   23.80
  -1   2  10    5.50    9.70
   0  -2 -10 1027.00   85.29
   0  -2 -10 1038.70   92.39
   0  -2 -10  882.51   76.49
  -1  -2 -10 1993.30  136.09
  -1  -2 -10 2060.39  131.39
   1   2  10 1603.94  127.49
   1   2  10 1750.62  136.89
  -2  -2 -10  727.63   54.99
   2   2  10  764.32   63.39
  -3  -2 -10  732.53   49.40
  -3  -2 -10  717.73   51.79
   3   2  10  752.52   61.89
  -4  -2 -10  356.66   29.80
  -4  -2 -10  301.87   24.30
  -4  -2 -10  374.66   26.30
  -4  -2 -10  341.17   25.60
   4   2  10  314.87   44.30
  -5  -2 -10   72.69   12.60
  -5  -2 -10   44.20    7.60
   3  -3 -10  438.96   35.90
  -3   3  10  488.25   56.99
  -3   3  10  477.15   33.90
  -3   3  10  516.85   36.40
  -3   3  10  494.55   34.10
   2  -3 -10  587.34   57.99
   2  -3 -10  674.73   64.09
  -2   3  10  519.45   38.00
  -2   3  10  538.05   40.60
  -2   3  10  489.35   62.69
  -2   3  10  493.95   38.30
   1  -3 -10 1383.36  104.59
   1  -3 -10 1439.46   94.59
   1  -3 -10 1168.88   94.09
  -1   3  10 1236.58   83.89
  -1   3  10 1199.78   82.09
  -1   3  10 1186.68   81.59
  -1   3  10 1263.87   82.19
   0  -3 -10 1060.89  118.39
   0  -3 -10 1064.49   92.39
   0  -3 -10 1014.10   81.19
   0  -3 -10 1007.20   81.29
   0   3  10  889.71   89.29
   0   3  10 1067.99   66.39
  -1  -3 -10  382.36   61.39
  -1  -3 -10  300.17   64.09
   1   3  10  436.36   55.89
  -2  -3 -10  879.91   59.69
   2   3  10  877.41   59.79
   2   3  10  888.01   75.19
  -3  -3 -10  452.35   36.50
  -3  -3 -10  464.45   34.30
  -3  -3 -10  499.15   33.00
   3   3  10  458.55   55.59
   3   3  10  412.16   41.90
  -4  -3 -10  160.08   17.90
  -4  -3 -10  199.58   17.60
  -4  -3 -10  178.98   23.70
   4   3  10  198.38   42.30
  -5  -3 -10  282.97   19.30
  -5  -3 -10  212.98   23.10
  -5  -3 -10  284.47   23.80
  -3   4  10  179.98   17.10
  -3   4  10  200.98   18.10
  -3   4  10  227.48   21.60
   2  -4 -10  276.77   49.50
  -2   4  10  244.28   27.40
  -2   4  10  261.97   23.80
  -2   4  10  262.37   22.60
   1  -4 -10  727.03   66.59
   1  -4 -10  670.73   79.69
  -1   4  10  724.93   49.60
  -1   4  10  690.83   52.29
  -1   4  10  752.52   49.00
  -1   4  10  723.13   48.80
   0  -4 -10  -25.90   29.80
   0  -4 -10  -26.80   40.40
   0  -4 -10   31.10   31.50
   0   4  10   48.30    8.60
   0   4  10   34.30   11.50
   0   4  10   34.90    9.80
   0   4  10   20.60   15.20
   0   4  10   32.00   10.30
   0   4  10   14.10   45.60
  -1  -4 -10  417.96   65.69
  -1  -4 -10  434.06   56.19
  -1  -4 -10  456.25   32.60
  -1  -4 -10  440.26   52.79
   1   4  10  426.36   65.79
   1   4  10  461.85   31.70
   1   4  10  476.45   34.70
   1   4  10  423.06   34.60
  -2  -4 -10 1111.79   71.59
   2   4  10 1109.49   71.69
   2   4  10 1005.70   69.79
   2   4  10 1062.29   88.59
  -3  -4 -10  177.18   17.90
  -3  -4 -10  154.38   18.30
  -3  -4 -10  151.38   23.90
   3   4  10  203.68   38.70
   3   4  10  204.38   19.30
  -4  -4 -10  474.55   31.80
  -4  -4 -10  460.55   35.10
  -4  -4 -10  417.36   33.80
   4   4  10  442.16   54.79
  -5  -4 -10   79.49    8.80
  -5  -4 -10   81.79   11.60
  -2   5  10   75.09   10.40
  -2   5  10   68.99   11.80
   1  -5 -10  101.39   33.70
  -1   5  10  112.89   12.90
  -1   5  10   87.09   17.90
  -1   5  10  138.09   14.70
   0  -5 -10  517.55   75.99
   0  -5 -10  670.23   65.69
   0   5  10  653.53   45.30
   0   5  10  641.64   42.90
   0   5  10  598.14   43.20
   0   5  10  629.74   43.40
  -1  -5 -10  229.08   46.40
  -1  -5 -10  195.38   39.80
  -1  -5 -10  202.48   21.10
   1   5  10  244.78   25.50
   1   5  10  265.57   21.20
   1   5  10  269.67   52.49
  -2  -5 -10  893.01   61.99
   2   5  10  922.11   60.69
   2   5  10  879.31   63.19
   2   5  10  870.11   88.49
   2   5  10 1012.00   63.59
  -3  -5 -10  285.37   22.90
  -3  -5 -10  280.77   26.60
  -3  -5 -10  274.87   25.60
   3   5  10  243.88   55.89
  -4  -5 -10  393.66   30.30
  -4  -5 -10  407.76   30.70
  -4  -5 -10  395.46   28.30
   4   5  10  347.67   53.69
  -5  -5 -10   28.50    6.80
  -5  -5 -10   37.00    6.40
  -2   6  10  496.35   32.90
  -2   6  10  398.46   30.90
  -1   6  10  178.98   23.20
  -1   6  10  172.98   19.30
   0  -6 -10  221.78   37.60
   0   6  10  219.18   21.10
   0   6  10  210.48   20.10
   0   6  10  199.88   27.60
   0   6  10  194.78   20.40
  -1  -6 -10    8.60   33.90
  -1  -6 -10  -51.39   39.30
   1   6  10   -9.50   48.90
   1   6  10   27.10   12.80
   1   6  10   24.00   10.20
   1   6  10   17.20   10.10
   1   6  10   33.30   17.50
   2   6  10   90.39   11.80
   2   6  10   72.69   47.50
   2   6  10   87.29   18.60
   2   6  10   83.19   12.10
   2   6  10   94.19   15.80
  -3  -6 -10  293.57   22.70
  -3  -6 -10  333.57   26.10
   3   6  10  259.87   60.39
   3   6  10  248.28   23.80
   3   6  10  264.67   29.20
  -4  -6 -10   79.09    9.80
  -4  -6 -10   60.49   12.20
   4   6  10  110.99   34.80
  -1   7  10    1.90   12.70
  -1   7  10   -3.50    8.20
   0   7  10  112.59   13.10
   0   7  10  105.09   11.60
   0   7  10  108.59   17.40
   0   7  10   96.79   11.90
  -1  -7 -10  133.79   33.10
   1   7  10  161.48   18.30
   1   7  10  176.88   18.80
   1   7  10  184.18   20.10
  -2  -7 -10  213.78   16.80
   2   7  10  188.98   24.80
   2   7  10  119.19   44.70
   2   7  10  182.78   20.50
   2   7  10  186.28   19.90
  -3  -7 -10   61.99   12.30
  -3  -7 -10   53.99    9.30
   3   7  10   30.10   37.20
   3   7  10   38.10    9.50
  -4  -7 -10   34.30    6.80
  -4  -7 -10   49.50    9.50
   0   8  10  279.77   25.10
   1   8  10  138.49   17.40
   1   8  10  127.69   15.00
  -2  -8 -10  183.78   15.40
   2   8  10  196.08   17.80
   2   8  10  180.58   19.90
  -3  -8 -10   20.60    8.60
  -3  -8 -10   21.00    6.00
  -3  -6  11  149.09   15.40
   2   6 -11  323.77   23.50
   2   6 -11  368.46   26.30
  -2  -6  11  316.37   28.70
   1   6 -11  168.98   17.30
   1   6 -11  147.59   14.40
   1   6 -11  155.08   18.70
   0   6 -11   34.40   12.50
   0   6 -11   28.60    7.40
  -1   6 -11   14.70    8.90
   3   5 -11   43.10    9.00
   3   5 -11   29.90    6.20
  -3  -5  11   19.80   12.80
  -3  -5  11   51.59    9.70
   2   5 -11  804.52   54.29
   2   5 -11  778.82   52.79
  -2  -5  11  839.32   54.99
   1   5 -11  481.55   36.60
   1   5 -11  489.95   33.80
   1   5 -11  509.65   36.40
   0   5 -11  409.06   30.60
   0   5 -11  368.26   27.90
   0   5 -11  401.36   32.20
  -1   5 -11  125.79   16.60
  -1   5 -11  103.59   11.00
  -2   5 -11  371.76   27.10
  -2   5 -11  390.76   26.70
  -4  -4  11  205.98   17.60
  -4  -4  11  205.08   17.70
   3   4 -11  580.04   40.20
  -3  -4  11  650.63   42.60
  -3  -4  11  606.94   43.40
   2   4 -11  145.99   15.20
   2   4 -11  146.79   14.60
  -2  -4  11  201.28   21.50
   1   4 -11 1163.98   71.69
   1   4 -11 1047.80   70.19
  -1  -4  11 1085.69   71.89
  -1  -4  11  933.71  108.99
  -1  -4  11 1143.79   98.59
   0   4 -11  557.54   37.20
   0   4 -11  527.15   38.40
   0   4 -11  466.05   43.60
   0   4 -11  535.35   34.90
   0  -4  11  390.86   62.49
   0  -4  11  466.15   90.09
  -1   4 -11   61.29   16.30
  -1   4 -11   62.99   17.60
  -1   4 -11   49.10    9.30
  -1   4 -11   55.09   10.40
  -1   4 -11   32.00    9.80
   1  -4  11   34.80   55.49
   1  -4  11   89.39   33.90
  -2   4 -11  363.16   27.30
  -2   4 -11  387.16   28.00
  -3   4 -11   44.80    8.20
  -4  -3  11   84.99   12.00
  -4  -3  11   69.19    9.60
  -4  -3  11   84.89   14.10
   3   3 -11  348.27   30.40
  -3  -3  11  555.04   85.59
  -3  -3  11  353.96   30.20
  -3  -3  11  402.86   29.30
   2   3 -11   46.30   48.90
   2   3 -11   22.10    7.20
   2   3 -11   37.10   10.70
   2   3 -11   33.30   13.60
  -2  -3  11   23.80   13.10
  -2  -3  11   38.40   29.60
  -2  -3  11   60.99   11.50
   1   3 -11  111.79   15.90
   1   3 -11  108.19   13.50
   1   3 -11  119.49   51.59
   1   3 -11  109.09   12.90
  -1  -3  11  115.49   13.40
  -1  -3  11  129.19   31.10
  -1  -3  11  120.99   54.69
   0   3 -11  172.58   22.50
   0   3 -11  213.58   23.30
   0   3 -11  189.78   26.10
   0   3 -11  223.88   17.60
   0  -3  11  198.18   58.39
   0  -3  11  250.87   33.90
  -1   3 -11   26.90   15.60
  -1   3 -11   34.80    8.20
  -1   3 -11   37.10    9.90
  -1   3 -11   26.50   10.90
  -1   3 -11   27.10   16.30
  -1   3 -11   24.80   11.50
   1  -3  11  -10.80   59.69
  -2   3 -11    0.70    8.80
  -2   3 -11   10.20   18.30
  -2   3 -11   -3.50    7.60
  -2   3 -11    4.40    9.80
  -2   3 -11   -8.80   10.90
   2  -3  11   31.30   56.49
  -3   3 -11   44.30    7.70
  -3   3 -11   65.29    8.30
  -3   3 -11   60.09   10.10
  -3   3 -11   74.39   10.30
   4   2 -11  141.69   18.20
  -4  -2  11  197.18   17.90
  -4  -2  11  194.58   19.40
   3   2 -11   33.20   13.60
  -3  -2  11   32.50   11.50
  -3  -2  11   44.00   34.40
  -3  -2  11   30.70   13.70
  -3  -2  11   36.20   10.40
   2   2 -11  421.66   32.10
   2   2 -11  351.96   30.20
   2   2 -11  433.76   78.09
  -2  -2  11  374.36   28.80
  -2  -2  11  351.06   60.49
  -2  -2  11  348.67   27.50
  -2  -2  11  331.27   29.70
   1   2 -11 1069.39   69.99
   1   2 -11  996.70   68.59
   1   2 -11 1125.99  102.99
  -1  -2  11 1009.60   84.39
  -1  -2  11 1018.70   68.79
   0   2 -11  229.48   27.60
   0   2 -11  290.87   26.40
   0   2 -11  293.77   51.69
   0   2 -11  329.17   25.90
   0   2 -11  279.07   20.40
   0  -2  11  271.57   24.60
   0  -2  11  351.36   77.59
   0  -2  11  147.49   60.69
  -1   2 -11   81.19   13.30
  -1   2 -11   86.09    9.10
  -1   2 -11   84.49   16.00
  -1   2 -11   68.09   10.50
  -1   2 -11   86.99   15.90
   1  -2  11   70.59   52.39
  -2   2 -11   41.40    8.80
  -2   2 -11   56.09   11.60
  -2   2 -11   50.09   12.00
  -2   2 -11   53.19    9.20
  -2   2 -11   37.90    8.70
  -2   2 -11   38.30   10.70
  -2   2 -11   31.80   18.20
   2  -2  11   76.99   59.09
  -3   2 -11  128.69   14.60
  -3   2 -11  146.09   17.50
  -3   2 -11  137.89   17.80
  -3   2 -11  160.88   15.20
   3  -2  11   58.19   55.19
  -4   2 -11  118.99   13.20
  -4   2 -11  120.69   11.50
  -4   2 -11  136.19   14.50
   4   1 -11  324.27   27.30
  -4  -1  11  323.37   27.00
  -4  -1  11  364.56   26.50
  -4  -1  11  398.36   53.19
   3   1 -11  796.02   56.49
  -3  -1  11  804.82   55.09
  -3  -1  11  864.61   80.49
  -3  -1  11  781.82   54.99
  -3  -1  11  802.32   54.19
   2   1 -11 1239.48  103.79
  -2  -1  11  990.00   69.29
  -2  -1  11 1077.69   88.89
  -2  -1  11 1088.69   69.09
  -2  -1  11  982.60   68.19
  -2  -1  11  996.50   69.49
   1   1 -11  143.79   20.80
   1   1 -11  160.28   14.20
   1   1 -11  191.78   46.50
  -1  -1  11  149.69   19.00
  -1  -1  11  120.59   31.10
  -1  -1  11  149.19   16.90
   0   1 -11 1206.48   84.29
   0   1 -11 1182.78  105.09
   0   1 -11 1218.18   83.69
   0  -1  11 1364.26  110.59
   0  -1  11 1433.16   93.19
  -1   1 -11  110.19   15.60
   1  -1  11   32.30   42.80
   1  -1  11  143.49   53.39
  -2   1 -11  155.48   28.00
  -2   1 -11  201.58   17.10
  -2   1 -11  190.58   19.90
  -2   1 -11  179.58   19.30
  -2   1 -11  179.08   16.40
  -2   1 -11  190.78   17.20
   2  -1  11  139.69   56.19
   2  -1  11  187.38   53.29
  -3   1 -11   41.70   11.60
  -3   1 -11   56.79    9.80
  -3   1 -11   49.20    9.30
  -3   1 -11   53.99   10.50
   3  -1  11   41.90   60.79
  -4   1 -11  113.79   10.60
  -4   1 -11  119.99   15.40
  -4   1 -11  111.39   10.60
  -4   1 -11   97.79   11.90
   4   0 -11  222.88   20.40
  -4   0  11  185.58   16.00
   3   0 -11   42.80   14.50
  -3   0  11    8.80   36.00
  -3   0  11   41.80   10.60
  -3   0  11    9.10   14.80
  -3   0  11   56.49   13.90
   2   0 -11 1707.03  131.49
   2   0 -11 1727.53  110.49
  -2   0  11 1536.05  108.99
  -2   0  11 1653.63  108.69
  -2   0  11 1823.22  121.99
  -2   0  11 1659.63  109.39
   1   0 -11 1112.29   92.89
   1   0 -11 1088.79   69.59
  -1   0  11  951.40   67.49
  -1   0  11 1019.90   81.79
  -1   0  11 1005.60   68.09
   0   0 -11  441.76   60.09
   0   0 -11  400.56   68.49
   0   0  11  439.06   47.90
   1   0  11  771.52   61.69
   1   0  11  749.33   85.89
  -2   0 -11  136.19   14.70
  -2   0 -11  109.09   14.20
  -2   0 -11  136.79   23.60
  -2   0 -11  133.49   16.10
   2   0  11  118.59   43.40
   2   0  11   97.59   53.39
  -3   0 -11  248.08   21.20
  -3   0 -11  214.08   21.60
  -3   0 -11  225.18   24.20
  -3   0 -11  227.98   19.80
  -3   0 -11  209.48   19.30
   3   0  11  211.08   64.19
  -4   0 -11   44.30   11.90
  -4   0 -11   37.00    8.80
  -4   0 -11   43.20   12.90
  -4   0 -11   30.90    8.70
  -4   0 -11   37.00   10.00
   4  -1 -11   59.29   10.10
  -4   1  11   61.59    9.10
  -4   1  11   41.70    7.30
   3  -1 -11  105.19   16.40
  -3   1  11  125.49   15.00
  -3   1  11  132.39   17.60
  -3   1  11  131.39   12.90
  -3   1  11  121.99   36.90
   2  -1 -11  875.21   56.89
   2  -1 -11  946.31   81.79
  -2   1  11  778.32   55.39
  -2   1  11  712.43   56.59
  -2   1  11  796.82   76.09
   1  -1 -11 1634.04  123.09
   1  -1 -11 1697.13  107.19
  -1   1  11 1606.94  106.09
  -1   1  11 1549.05  105.39
  -1   1  11 1714.13  115.39
   0  -1 -11   95.29   32.80
   0  -1 -11  109.89   32.40
   1   1  11  838.32   64.69
  -2  -1 -11   58.29   14.10
  -2  -1 -11   58.89   11.80
   2   1  11   82.99   49.60
  -3  -1 -11  968.70   60.29
  -3  -1 -11  916.41   60.59
  -3  -1 -11  894.31   63.79
  -3  -1 -11  869.41   59.59
  -3  -1 -11  898.91   62.09
  -4  -1 -11  507.25   36.80
  -4  -1 -11  496.15   35.70
  -4  -1 -11  545.05   36.10
  -4  -1 -11  547.85   39.10
  -5  -1 -11  313.67   24.30
  -5  -1 -11  397.96   26.80
   3  -2 -11  432.56   34.50
  -3   2  11  424.66   31.10
  -3   2  11  396.86   31.30
  -3   2  11  484.65   33.20
  -3   2  11  411.36   59.89
   2  -2 -11  214.88   25.20
   2  -2 -11  228.68   40.80
   2  -2 -11  233.38   53.29
  -2   2  11  157.48   21.00
  -2   2  11  183.88   18.50
  -2   2  11  153.08   15.80
  -2   2  11  118.19   35.40
   1  -2 -11  778.42   72.19
   1  -2 -11  632.54   44.70
   1  -2 -11  636.74   59.59
  -1   2  11  597.44   60.89
  -1   2  11  618.14   43.70
  -1   2  11  635.34   44.50
  -1   2  11  592.04   42.30
   0  -2 -11  305.27   57.19
   0  -2 -11  413.96   64.89
   0   2  11  279.27   44.10
   0   2  11  344.77   27.10
  -1  -2 -11  357.56   51.09
  -2  -2 -11   14.40   10.60
   2   2  11   10.20   10.60
   2   2  11    5.00   28.60
  -3  -2 -11  236.68   21.00
  -3  -2 -11  214.48   25.50
   3   2  11  240.88   44.80
  -4  -2 -11  -10.80   11.80
  -4  -2 -11    6.30    9.50
  -4  -2 -11    5.10    7.40
  -4  -2 -11    5.60    9.40
   4   2  11   15.10   28.00
  -5  -2 -11  133.29   18.10
   3  -3 -11  144.59   21.40
  -3   3  11  168.48   16.30
  -3   3  11  171.18   30.80
  -3   3  11  162.98   16.20
  -3   3  11  161.08   20.20
   2  -3 -11  477.15   52.59
  -2   3  11  432.56   32.90
  -2   3  11  447.06   35.30
  -2   3  11  471.35   33.00
   1  -3 -11 1467.45  102.79
   1  -3 -11 1498.75  112.59
  -1   3  11 1344.67   93.49
  -1   3  11 1434.16   91.79
  -1   3  11 1363.56   91.29
  -1   3  11 1402.76   91.69
   0  -3 -11   15.10   38.20
   0  -3 -11   40.00   30.20
   0   3  11   39.70    8.70
   0   3  11   58.09    9.90
   0   3  11   40.00   13.00
   0   3  11   14.40   40.30
   0   3  11   47.10   10.30
  -1  -3 -11  838.62   81.99
  -1  -3 -11  934.21   58.19
  -1  -3 -11  811.12   98.49
   1   3  11  913.61   57.59
   1   3  11  877.61   58.89
   1   3  11  810.22   78.29
  -2  -3 -11  450.45   35.90
   2   3  11  519.75   56.69
   2   3  11  405.96   34.20
   2   3  11  520.75   36.10
  -3  -3 -11  193.68   21.80
  -3  -3 -11  181.28   25.20
  -3  -3 -11  195.38   21.20
   3   3  11  253.87   47.30
   3   3  11  255.57   23.30
  -4  -3 -11  120.79   15.50
  -4  -3 -11  138.49   15.50
  -4  -3 -11  151.48   14.40
   4   3  11  128.79   33.00
  -5  -3 -11   57.69   10.80
  -3   4  11  148.39   14.40
  -3   4  11  157.38   18.30
   2  -4 -11  127.09   31.20
  -2   4  11   77.59   11.10
  -2   4  11   84.29   12.00
  -2   4  11   83.99   15.20
   1  -4 -11  605.54   62.89
   1  -4 -11  577.34   70.89
  -1   4  11  654.33   43.30
  -1   4  11  649.14   42.60
  -1   4  11  630.54   47.40
  -1   4  11  618.34   43.80
   0  -4 -11  385.16   52.89
   0  -4 -11  369.66   55.79
   0   4  11  341.17   27.40
   0   4  11  229.08   53.69
   0   4  11  376.56   26.00
   0   4  11  316.77   27.80
   0   4  11  354.66   25.60
   0   4  11  301.97   31.90
  -1  -4 -11  112.99   43.70
  -1  -4 -11  195.18   43.90
  -1  -4 -11  154.88   18.60
   1   4  11  167.48   17.10
   1   4  11  180.88   22.10
   1   4  11  169.78   46.50
  -2  -4 -11  218.48   25.30
   2   4  11  284.97   57.19
   2   4  11  250.97   20.70
   2   4  11  276.57   25.70
  -3  -4 -11  162.38   21.60
  -3  -4 -11  213.38   18.90
  -3  -4 -11  198.18   24.00
   3   4  11  225.78   25.30
   3   4  11  224.98   53.89
  -4  -4 -11  565.44   40.80
  -4  -4 -11  646.04   43.40
  -4  -4 -11  552.74   42.00
  -4  -4 -11  656.83   40.80
   4   4  11  592.84   60.59
  -5  -4 -11  660.23   44.80
  -5  -4 -11  668.43   43.20
  -2   5  11   28.80    9.50
  -2   5  11   13.70    8.40
   1  -5 -11  160.38   33.70
  -1   5  11  156.98   21.00
  -1   5  11  188.08   15.00
  -1   5  11  132.59   19.10
   0  -5 -11  259.67   50.39
   0  -5 -11  251.27   52.89
   0   5  11  308.17   27.50
   0   5  11  297.17   23.90
   0   5  11  312.27   24.10
   0   5  11  293.87   24.70
  -1  -5 -11  191.78   47.30
  -1  -5 -11  261.87   52.29
  -1  -5 -11  255.87   22.90
   1   5  11  252.27   22.30
   1   5  11  237.88   26.00
   1   5  11  198.18   52.19
   1   5  11  302.27   26.30
  -2  -5 -11    8.60   11.60
   2   5  11   19.80    9.90
   2   5  11   23.10   16.00
   2   5  11   17.40   14.00
   2   5  11   28.10   44.10
  -3  -5 -11   95.89   14.90
  -3  -5 -11  120.49   12.40
  -3  -5 -11   90.89   14.20
   3   5  11  143.09   41.40
   3   5  11  131.19   17.00
  -4  -5 -11    8.40   11.00
  -4  -5 -11   14.60   11.00
  -4  -5 -11    7.60    8.80
   4   5  11   13.80   33.40
  -5  -5 -11   49.40    6.20
   1  -6 -11   51.09    8.90
  -1   6  11   51.39   10.40
  -1   6  11   43.20   13.10
   0  -6 -11  -16.30   30.70
   0  -6 -11    5.60    9.40
   0   6  11    1.00   10.20
   0   6  11    8.70    9.00
   0   6  11   12.30   14.30
   0   6  11   15.40    8.60
  -1  -6 -11  497.35   60.09
  -1  -6 -11  567.74   39.90
   1   6  11  556.44   42.00
   1   6  11  545.05   37.90
   1   6  11  555.44   40.80
   1   6  11  381.66   75.79
   1   6  11  557.14   38.40
   2   6  11  127.69   13.90
   2   6  11   93.59   46.10
   2   6  11  145.19   18.80
   2   6  11  141.49   13.80
   2   6  11  147.39   17.40
  -3  -6 -11  429.16   28.80
  -3  -6 -11  400.86   31.10
   3   6  11  376.66   60.49
   3   6  11  384.96   30.00
  -4  -6 -11  120.49   12.90
  -4  -6 -11  117.89   13.00
   4   6  11  107.89   33.60
  -1   7  11  106.89   13.50
   0   7  11  248.78   20.00
   0   7  11  232.98   24.80
   0   7  11  213.28   19.80
   0   7  11  214.28   20.80
   1   7  11  400.16   30.10
   1   7  11  396.26   34.60
   1   7  11  424.46   30.60
  -2  -7 -11  137.29   14.70
   2   7  11  138.19   13.60
   2   7  11  191.88   14.80
   2   7  11  157.88   19.30
   2   7  11   95.99   42.30
  -3  -7 -11  110.09   13.00
  -3  -7 -11  120.79   12.70
   3   7  11   89.19   10.70
   3   7  11   89.49   36.90
  -4  -7 -11    4.00    5.50
  -4  -7 -11    4.80    7.60
   1   8  11  122.39   15.90
   1   8  11  128.69   13.90
  -2  -8 -11    4.00    6.10
   2   8  11   16.30    7.30
   2   8  11    8.90   11.60
  -3  -8 -11    3.70    5.20
  -3  -8 -11   11.40    9.70
   2   6 -12  162.28   16.20
  -2  -6  12  127.79   13.80
   1   6 -12  289.47   21.90
   1   6 -12  262.67   20.30
   1   6 -12  293.67   24.80
   0   6 -12   -4.90    6.00
   0   6 -12   -0.60   10.50
   0  -6  12   10.40    7.60
  -3  -5  12   79.99   10.50
   2   5 -12   36.80    9.90
   2   5 -12   26.80    6.70
  -2  -5  12   39.20    9.10
  -2  -5  12   24.40   11.20
   1   5 -12  583.54   38.50
   1   5 -12  536.95   36.50
   1   5 -12  510.25   38.30
   0   5 -12   19.00    7.60
   0   5 -12   12.50    9.40
   0   5 -12   31.20   13.40
  -1   5 -12   29.10    7.50
  -3  -4  12   25.60    9.90
  -3  -4  12   45.30   10.00
   2   4 -12    4.90   10.50
   2   4 -12   -2.70    6.50
  -2  -4  12   11.10    9.20
  -2  -4  12    2.70   11.20
   1   4 -12    6.10    7.20
   1   4 -12  -10.20   10.70
  -1  -4  12   16.00   54.09
  -1  -4  12    6.70   12.50
  -1  -4  12   43.10   33.60
   0   4 -12  801.52   50.89
   0   4 -12  818.92   52.39
   0   4 -12  759.92   54.79
   0   4 -12  777.72   53.29
   0  -4  12  756.22   72.69
   0  -4  12  623.24   94.19
  -1   4 -12  234.98   29.50
  -1   4 -12  255.67   25.70
  -1   4 -12  273.87   21.90
  -1   4 -12  263.27   20.20
  -1   4 -12  210.78   20.70
   1  -4  12  230.68   39.80
  -2   4 -12  169.18   16.10
  -2   4 -12  158.38   15.20
   2  -4  12   96.19   32.30
  -4  -3  12   81.59   12.10
   3   3 -12   51.09   11.90
  -3  -3  12   43.10   10.50
  -3  -3  12   23.70   10.80
   2   3 -12  223.48   21.30
   2   3 -12  207.98   24.10
  -2  -3  12  258.77   23.60
  -2  -3  12  197.28   35.20
  -2  -3  12  205.68   20.40
   1   3 -12 1218.88   80.49
   1   3 -12 1214.78   81.79
   1   3 -12 1327.47  118.69
   1   3 -12 1222.18   83.19
  -1  -3  12 1373.26   82.29
  -1  -3  12 1035.60  113.99
  -1  -3  12 1323.57   97.29
   0   3 -12  730.53   52.89
   0   3 -12  757.82   50.29
   0   3 -12  744.53   54.99
   0   3 -12  848.42   52.79
   0  -3  12  812.42   73.69
   0  -3  12  691.93   98.39
  -1   3 -12  222.18   19.80
  -1   3 -12  203.68   25.20
  -1   3 -12  230.58   21.30
  -1   3 -12  234.58   22.80
  -1   3 -12  213.78   18.60
  -1   3 -12  213.98   28.60
   1  -3  12  165.98   63.69
   1  -3  12  223.38   35.20
  -2   3 -12   27.30    7.80
  -2   3 -12   30.10   10.10
  -2   3 -12   27.20    8.70
  -2   3 -12   42.00   17.90
  -2   3 -12   31.80   10.70
   2  -3  12   70.09   55.39
  -3   3 -12   32.60    6.40
  -3   3 -12   51.69    8.70
  -3   3 -12   37.60    9.30
   4   2 -12  135.19   15.40
  -4  -2  12  160.38   15.40
   3   2 -12   15.10   12.40
  -3  -2  12   16.90   34.10
  -3  -2  12    7.80   13.20
  -3  -2  12   18.20    9.80
  -3  -2  12    8.90   10.30
   2   2 -12 1314.47  119.59
   2   2 -12 1405.26   89.09
  -2  -2  12 1370.36  103.79
  -2  -2  12 1239.08   88.09
  -2  -2  12 1345.57   87.79
  -2  -2  12 1368.76   86.99
   1   2 -12  388.96   77.19
   1   2 -12  337.67   30.70
   1   2 -12  317.67   27.70
  -1  -2  12  371.46   26.60
  -1  -2  12  326.47   28.00
  -1  -2  12  341.37   59.89
   0   2 -12  492.95   40.00
   0   2 -12  494.85   38.10
   0  -2  12  506.35   37.30
   0  -2  12  609.24   60.99
   0  -2  12  485.35   85.89
  -1   2 -12  910.01   57.59
  -1   2 -12  806.42   58.29
  -1   2 -12  798.12   55.69
  -1   2 -12  851.91   59.99
  -1   2 -12  869.71   56.29
  -1   2 -12  864.31   55.39
   1  -2  12  935.81   74.69
   1  -2  12  812.42   55.79
   1  -2  12  708.73  103.29
  -2   2 -12   11.30    8.30
  -2   2 -12   18.40   11.50
  -2   2 -12    4.20    9.90
  -2   2 -12    9.00    8.40
  -2   2 -12   17.10   10.80
  -2   2 -12    5.10   17.80
   2  -2  12   51.49   60.79
  -3   2 -12   41.00    8.70
  -3   2 -12   48.00    8.30
  -3   2 -12   52.09   10.70
  -3   2 -12   63.29   10.50
  -4   2 -12  146.69   14.00
   4   1 -12  179.98   17.40
  -4  -1  12  173.58   17.20
   3   1 -12  443.06   36.00
  -3  -1  12  460.45   33.60
  -3  -1  12  441.76   33.90
  -3  -1  12  580.94   66.79
  -3  -1  12  456.15   35.30
   2   1 -12   89.29   47.30
   2   1 -12   74.19   14.90
  -2  -1  12   72.99    9.80
  -2  -1  12   69.59   12.20
  -2  -1  12   70.49   11.80
  -2  -1  12   58.99   33.10
  -2  -1  12   48.20   14.30
   1   1 -12 1529.55  112.99
   1   1 -12 1790.92  139.59
   1   1 -12 1740.93  114.29
  -1  -1  12 1825.92  113.29
  -1  -1  12 1773.42  112.69
  -1  -1  12 1856.91  125.89
   0   1 -12  507.85   35.60
   0   1 -12  492.95   37.30
   0   1 -12  518.25   72.39
   0  -1  12  544.75   56.89
   0  -1  12  458.85   35.20
   0  -1  12  434.86   33.50
   0  -1  12  355.76   77.49
  -1   1 -12 2540.55  157.28
  -1   1 -12 2389.36  158.28
   1  -1  12 2572.04  163.78
   1  -1  12 2394.56  156.38
   1  -1  12 2287.37  180.78
  -2   1 -12   47.30   10.30
  -2   1 -12   63.39    9.40
  -2   1 -12   55.19   12.30
  -2   1 -12   49.99    9.80
  -2   1 -12   51.19    9.00
  -2   1 -12   58.69   16.90
   2  -1  12   46.90   59.39
  -3   1 -12   89.49   12.40
  -3   1 -12   81.99   10.50
  -3   1 -12   84.69   11.60
  -3   1 -12   85.49   10.40
   3  -1  12  142.09   60.89
  -4   1 -12   10.10    8.40
  -4   1 -12   23.90    8.80
  -4   1 -12   19.30    6.60
  -4   1 -12   21.50    6.60
   4   0 -12   18.90    9.40
  -4   0  12   39.30    8.60
   3   0 -12   29.10   13.40
  -3   0  12   26.80   10.30
  -3   0  12    0.10   34.80
   2   0 -12  128.79   42.50
   2   0 -12  102.29   16.40
  -2   0  12  126.69   12.90
  -2   0  12  134.99   18.40
  -2   0  12   82.59   33.40
   1   0 -12 1563.84  119.19
   1   0 -12 1467.05   95.69
  -1   0  12 1444.36  107.79
  -1   0  12 1434.36   93.89
  -1   0  12 1380.16   94.49
   0   0 -12   -1.70   11.10
   0   0 -12   14.40   10.70
   0   0 -12   33.60   36.00
   0   0  12    1.10    8.70
   0   0  12  -13.20   25.30
   0   0  12    4.60    9.80
  -1   0 -12 1009.00   63.99
   1   0  12  844.12   62.09
   1   0  12  967.20   97.09
   1   0  12  996.10   72.89
   1   0  12  888.21   61.29
  -2   0 -12  105.39   16.80
  -2   0 -12   79.29   11.10
  -2   0 -12   76.49   19.80
  -2   0 -12   77.59   10.60
   2   0  12  119.89   55.49
   2   0  12   97.29   47.00
  -3   0 -12  247.78   22.40
  -3   0 -12  263.37   20.90
  -3   0 -12  237.28   24.70
  -3   0 -12  240.98   21.90
  -3   0 -12  267.77   20.40
   3   0  12  190.58   60.89
  -4   0 -12  170.78   17.20
  -4   0 -12  180.88   16.00
  -4   0 -12  170.78   20.20
  -4   0 -12  196.58   16.10
   4  -1 -12   75.69   10.00
  -4   1  12   88.09   12.70
   3  -1 -12  541.95   40.40
  -3   1  12  594.24   63.89
  -3   1  12  604.14   38.80
  -3   1  12  518.25   37.50
  -3   1  12  479.45   37.10
   2  -1 -12  339.67   61.39
   2  -1 -12  280.67   29.10
  -2   1  12  288.97   23.90
  -2   1  12  262.17   39.40
  -2   1  12  288.87   24.90
   1  -1 -12  111.99   39.20
   1  -1 -12  121.59   15.20
  -1   1  12  107.79   29.70
  -1   1  12  121.09   11.00
  -1   1  12   97.99   12.40
  -1   1  12  105.59   16.20
   0  -1 -12   98.99   11.90
   0  -1 -12  149.69   35.20
   0  -1 -12  118.09   19.00
   0   1  12  113.29   25.40
   0   1  12  103.39   12.30
   0   1  12  120.39   11.30
  -1  -1 -12  332.47   30.00
  -1  -1 -12  345.37   28.10
   1   1  12  299.17   42.10
   1   1  12  408.86   26.70
   1   1  12  394.86   28.50
  -2  -1 -12  671.53   47.10
  -2  -1 -12  676.03   49.10
  -3  -1 -12  103.79   18.10
  -3  -1 -12   87.29   14.20
  -3  -1 -12  108.29   12.70
  -3  -1 -12  134.39   11.90
  -3  -1 -12  102.09   13.30
  -3  -1 -12  111.29   14.80
  -4  -1 -12  178.78   18.80
  -4  -1 -12  217.78   22.40
  -4  -1 -12  201.08   17.40
  -4  -1 -12  208.18   17.40
   3  -2 -12  213.48   23.00
  -3   2  12  200.98   36.00
  -3   2  12  280.37   22.50
  -3   2  12  215.28   18.80
  -3   2  12  247.58   19.80
   2  -2 -12  420.96   35.10
  -2   2  12  437.16   31.30
  -2   2  12  423.36   33.00
  -2   2  12  425.86   59.59
  -2   2  12  411.36   31.00
   1  -2 -12  886.01   81.69
   1  -2 -12  882.41   57.79
  -1   2  12  846.92   56.59
  -1   2  12  825.32   57.39
  -1   2  12  818.22   55.59
  -1   2  12  808.02   72.29
   0  -2 -12 3720.13  222.38
   0   2  12 3248.58  207.88
   0   2  12 2995.90  214.58
   0   2  12 3078.09  208.18
  -1  -2 -12  858.11   60.29
   1   2  12  941.51   60.69
   1   2  12  921.21   59.49
  -2  -2 -12  325.17   28.00
   2   2  12  321.67   27.90
  -3  -2 -12  219.98   20.50
  -3  -2 -12  221.88   24.90
  -4  -2 -12  302.27   24.70
  -4  -2 -12  370.66   28.20
  -4  -2 -12  281.57   23.70
  -4  -2 -12  366.66   24.50
  -5  -2 -12  156.18   16.90
  -3   3  12   57.69    8.70
  -3   3  12   56.69   11.40
  -3   3  12   57.39    8.00
  -2   3  12  148.99   16.80
  -2   3  12  173.28   20.80
  -2   3  12  143.79   14.00
  -2   3  12   99.49   38.50
   1  -3 -12  110.59   35.70
   1  -3 -12   63.29   28.30
  -1   3  12  102.09   10.60
  -1   3  12   87.39   12.90
  -1   3  12   99.39   17.30
  -1   3  12  105.79   15.30
  -1   3  12  120.99   12.80
   0  -3 -12  371.86   62.39
   0   3  12  376.96   27.20
   0   3  12  429.76   27.90
   0   3  12  332.67   31.50
   0   3  12  376.86   29.20
   0   3  12  268.97   68.19
  -1  -3 -12   37.30    9.90
  -1  -3 -12   28.90   34.10
   1   3  12   43.50   11.30
   1   3  12   12.40   39.00
   1   3  12   43.70    9.20
  -2  -3 -12  132.09   15.00
   2   3  12  140.39   15.30
   2   3  12  135.49   37.20
   2   3  12  127.59   12.20
  -3  -3 -12   84.09   14.90
  -3  -3 -12   88.49   13.40
   3   3  12   95.69   34.30
  -4  -3 -12   22.50   11.90
  -4  -3 -12   19.50    9.00
   4   3  12   20.30   30.20
  -5  -3 -12  346.67   26.20
  -2   4  12   93.19   12.00
  -2   4  12  112.79   11.60
  -2   4  12  110.59   15.70
   1  -4 -12   64.29   30.60
  -1   4  12   86.59    9.90
  -1   4  12   88.89   12.10
  -1   4  12   67.59   16.00
  -1   4  12   85.39   11.60
   0  -4 -12  304.37   50.39
   0  -4 -12  271.07   50.59
   0   4  12  302.47   23.20
   0   4  12  252.67   31.00
   0   4  12  312.27   24.20
   0   4  12  293.47   26.00
   0   4  12  291.27   25.00
  -1  -4 -12 1600.84  129.29
  -1  -4 -12 1801.12  108.89
   1   4  12 1754.42  109.39
   1   4  12 1783.92  108.39
   1   4  12 1393.86  127.59
  -2  -4 -12  159.18   15.90
  -2  -4 -12  119.79   15.70
   2   4  12  178.08   17.10
   2   4  12  189.18   43.70
   2   4  12  187.38   16.80
  -3  -4 -12  816.62   50.39
  -3  -4 -12  728.03   51.79
  -3  -4 -12  753.92   52.79
   3   4  12  721.73   71.59
   3   4  12  746.13   53.69
  -4  -4 -12  316.67   26.00
  -4  -4 -12  328.87   24.90
  -4  -4 -12  360.96   24.50
  -4  -4 -12  343.77   28.50
   4   4  12  354.56   50.59
  -5  -4 -12  379.56   27.20
  -2   5  12  576.64   38.20
  -2   5  12  533.45   37.50
   1  -5 -12  515.35   53.29
  -1   5  12  458.65   40.40
  -1   5  12  536.25   35.90
  -1   5  12  527.65   37.30
   0  -5 -12  342.97   53.99
   0  -5 -12  418.66   30.20
   0   5  12  412.56   29.80
   0   5  12  403.36   30.20
   0   5  12  415.56   29.90
   0   5  12  396.56   32.10
  -1  -5 -12  317.87   55.99
  -1  -5 -12  429.26   30.20
   1   5  12  332.07   73.29
   1   5  12  390.46   33.40
   1   5  12  396.86   32.90
   1   5  12  410.86   29.50
  -2  -5 -12  550.64   42.40
   2   5  12  540.35   73.39
   2   5  12  662.93   44.10
   2   5  12  605.44   40.90
  -3  -5 -12  113.49   14.80
  -3  -5 -12  142.29   15.00
  -3  -5 -12  126.09   15.00
   3   5  12  121.79   17.20
   3   5  12  116.89   40.70
  -4  -5 -12   85.19    9.90
  -4  -5 -12   79.79   11.50
  -4  -5 -12   89.39   12.40
   4   5  12   77.99   34.60
   1  -6 -12   65.99    9.20
  -1   6  12   90.09   10.40
  -1   6  12   77.69   13.40
   0  -6 -12   13.10    8.90
   0  -6 -12  -21.10   27.90
   0   6  12   18.70   13.80
   0   6  12   10.60    8.60
   0   6  12   14.90    8.20
   0   6  12   24.40    9.80
  -1  -6 -12  157.48   39.40
  -1  -6 -12  226.98   21.60
   1   6  12  248.48   21.20
   1   6  12  150.08   50.29
   1   6  12  216.18   26.50
   1   6  12  238.58   25.40
   1   6  12  243.68   20.50
  -2  -6 -12  159.38   20.50
  -2  -6 -12  172.38   16.00
   2   6  12  175.78   18.80
   2   6  12  166.28   15.10
   2   6  12  103.49   46.40
   2   6  12  165.78   19.40
   2   6  12  180.78   18.20
  -3  -6 -12  185.88   20.00
  -3  -6 -12  197.28   25.80
  -3  -6 -12  194.38   16.80
   3   6  12  163.78   18.60
   3   6  12  187.48   41.80
  -4  -6 -12   26.00    7.00
  -4  -6 -12   13.30    9.10
   0   7  12  177.48   20.40
   0   7  12  158.78   16.20
   0   7  12  179.08   16.10
   0   7  12  141.19   16.80
   1   7  12  192.88   22.90
   1   7  12  185.98   18.40
   1   7  12  156.28   18.20
  -2  -7 -12  108.19   10.00
   2   7  12   84.59   10.60
   2   7  12   63.29   39.80
   2   7  12   89.19   11.50
   2   7  12   86.79   15.80
  -3  -7 -12  126.19   15.50
  -3  -7 -12  119.09   12.60
   3   7  12   89.19   34.10
   3   7  12  133.49   14.30
  -4  -7 -12   12.10    6.70
  -4  -7 -12   16.80    5.00
  -1  -8 -12   77.09    8.80
   1   8  12   68.69   13.20
   1   8  12   96.99   11.30
  -2  -8 -12   42.90    6.30
   2   8  12   65.09   11.80
   2   8  12   55.99    7.20
  -3  -8 -12   55.69    7.00
  -1  -6  13  220.28   17.70
   2   5 -13   56.49    7.10
   2   5 -13   72.09   10.20
  -2  -5  13   65.89   10.50
  -2  -5  13   73.89    9.10
   1   5 -13  153.48   14.50
   1   5 -13  182.88   17.80
   0   5 -13  260.87   21.50
   0   5 -13  294.47   25.30
   0   5 -13  301.77   23.00
   0  -5  13  311.47   22.90
  -1   5 -13  213.38   16.90
  -3  -4  13   51.19    9.50
   2   4 -13   16.10    6.90
   2   4 -13   39.70   10.30
  -2  -4  13   38.70    9.10
  -2  -4  13   44.60   11.50
   1   4 -13  -10.50    6.80
   1   4 -13    0.10   16.20
   1   4 -13   -2.80   10.70
  -1  -4  13    7.20    9.60
  -1  -4  13   -1.30   11.70
  -1  -4  13   32.80   35.40
   0   4 -13  169.78   15.70
   0   4 -13  169.78   15.60
   0   4 -13  157.68   21.80
   0   4 -13  177.78   23.90
   0  -4  13  198.88   18.80
   0  -4  13  150.48   36.80
  -1   4 -13  121.59   14.50
  -1   4 -13  122.29   12.40
  -1   4 -13  127.49   14.10
  -1   4 -13  140.49   24.20
   1  -4  13  111.29   34.20
  -2   4 -13    2.80    7.90
  -2   4 -13   15.30    6.90
   3   3 -13  164.98   17.70
  -3  -3  13  156.68   17.90
  -3  -3  13  136.69   17.00
   2   3 -13   36.60   10.40
   2   3 -13   26.30   12.90
  -2  -3  13   59.89    9.50
  -2  -3  13   59.49   12.00
  -2  -3  13   76.79   32.90
   1   3 -13  210.18   23.80
   1   3 -13  173.98   16.00
  -1  -3  13  176.28   34.80
  -1  -3  13  181.68   19.60
  -1  -3  13  159.68   17.00
   0   3 -13  298.47   24.40
   0   3 -13  336.27   32.40
   0   3 -13  317.47   23.60
   0   3 -13  369.06   27.80
   0   3 -13  323.47   27.90
   0  -3  13  351.36   26.00
   0  -3  13  323.77   56.19
   0  -3  13  245.08   61.49
  -1   3 -13  714.63   47.70
  -1   3 -13  703.43   48.40
  -1   3 -13  744.93   52.99
  -1   3 -13  786.02   49.30
  -1   3 -13  729.33   48.80
   1  -3  13  522.85   96.19
   1  -3  13  702.13   69.39
  -2   3 -13  352.96   25.20
  -2   3 -13  319.27   32.70
  -2   3 -13  317.97   25.10
  -2   3 -13  328.17   24.00
   2  -3  13  279.07   38.50
  -3   3 -13  244.28   18.60
  -3   3 -13  208.78   17.60
  -4  -2  13  104.89   14.00
   3   2 -13  221.58   22.30
  -3  -2  13  194.78   20.30
  -3  -2  13  273.17   36.60
  -3  -2  13  210.28   20.60
   2   2 -13  159.28   24.40
  -2  -2  13  238.18   21.90
  -2  -2  13  203.68   19.10
  -2  -2  13  179.08   36.50
   1   2 -13 1025.00   67.49
   1   2 -13  938.11   65.69
   1   2 -13  994.00  101.49
  -1  -2  13  969.90   65.29
  -1  -2  13 1039.00   66.29
  -1  -2  13  937.51   87.19
   0   2 -13  497.35   38.50
   0   2 -13  533.35   41.00
   0  -2  13  661.83   64.49
   0  -2  13  414.76   84.69
   0  -2  13  510.45   38.10
   0  -2  13  519.75   36.70
  -1   2 -13  652.43   45.30
  -1   2 -13  636.54   43.70
  -1   2 -13  640.44   48.70
  -1   2 -13  630.74   43.10
   1  -2  13  645.14   43.30
   1  -2  13  499.45   98.09
   1  -2  13  696.13   63.29
  -2   2 -13  193.08   19.60
  -2   2 -13  206.08   17.40
  -2   2 -13  203.98   21.20
  -2   2 -13  199.28   20.70
  -2   2 -13  194.08   17.90
  -2   2 -13  225.18   29.60
   2  -2  13  227.18   64.29
  -3   2 -13   37.80    9.60
  -3   2 -13   62.19   11.40
  -3   2 -13   39.10    9.80
  -3   2 -13   39.20    7.70
  -4  -1  13  337.87   24.50
   3   1 -13  267.07   25.60
  -3  -1  13  261.67   23.00
  -3  -1  13  325.07   40.70
  -3  -1  13  238.98   21.90
   2   1 -13  193.38   25.00
  -2  -1  13  155.38   36.60
  -2  -1  13  180.98   20.50
  -2  -1  13  154.58   17.00
  -2  -1  13  141.69   19.00
   1   1 -13 1527.25   95.79
   1   1 -13 1311.77   94.09
   1   1 -13 1430.46  124.19
  -1  -1  13 1411.36   94.39
  -1  -1  13 1495.25   93.89
  -1  -1  13 1517.65  109.09
   0   1 -13  199.68   25.10
   0   1 -13  198.38   17.50
   0   1 -13  187.38   47.10
   0  -1  13  311.17   51.29
   0  -1  13  161.48   19.00
   0  -1  13  167.08   21.60
  -1   1 -13   19.30   14.60
  -1   1 -13   25.10   12.80
   1  -1  13   20.50   55.29
   1  -1  13   42.50   26.80
   1  -1  13   10.30    9.20
  -2   1 -13   14.00    9.30
  -2   1 -13   22.80   10.20
  -2   1 -13   28.20   13.00
  -2   1 -13   35.20   16.70
  -2   1 -13   17.50   11.70
   2  -1  13    1.90   62.09
  -3   1 -13   88.99   12.40
  -3   1 -13  107.29   10.80
  -3   1 -13   91.39   11.80
  -3   1 -13  111.99   10.70
   3  -1  13  140.09   56.69
  -4   1 -13   14.40    7.50
  -4   1 -13   28.40    7.70
  -4   1 -13   22.60    5.80
   3   0 -13  444.66   33.80
  -3   0  13  414.36   31.90
  -3   0  13  438.06   59.59
   2   0 -13  554.94   43.40
  -2   0  13  604.74   66.29
  -2   0  13  579.94   40.50
  -2   0  13  566.04   40.10
   1   0 -13 1127.29  105.59
   1   0 -13 1153.48   78.79
  -1   0  13 1213.28   77.39
  -1   0  13 1234.18   93.29
  -1   0  13 1150.08   76.69
   0   0 -13  143.59   42.10
   0   0 -13  116.39   13.30
   0   0 -13  124.29   20.20
   0   0  13   97.49   12.60
   0   0  13   99.49   29.40
   0   0  13  100.49   11.60
  -1   0 -13  344.77   32.50
   1   0  13  398.16   28.00
   1   0  13  462.95   47.20
   1   0  13  360.66   29.80
  -2   0 -13  285.97   21.90
  -2   0 -13  253.67   30.40
  -2   0 -13  290.77   23.20
   2   0  13  275.17   62.99
  -3   0 -13  180.38   18.10
  -3   0 -13  180.78   17.00
  -3   0 -13  176.98   25.90
  -3   0 -13  167.58   16.60
  -3   0 -13  164.68   18.80
   3   0  13  224.78   59.49
  -4   0 -13  114.69   11.90
  -4   0 -13   90.09   15.70
  -4   0 -13   87.39   10.60
  -4   0 -13   99.09    9.60
   3  -1 -13  133.59   19.80
  -3   1  13  147.79   16.20
  -3   1  13  138.49   34.50
  -3   1  13  199.38   18.90
   2  -1 -13   19.10   13.40
  -2   1  13  -24.50   33.00
  -2   1  13   -3.10   10.10
  -2   1  13   -4.60    9.40
   1  -1 -13  126.59   41.30
   1  -1 -13  125.19   22.00
  -1   1  13  109.69   16.90
  -1   1  13  153.18   18.50
  -1   1  13  145.69   15.20
  -1   1  13   75.19   31.40
   0  -1 -13  388.66   30.20
   0  -1 -13  415.66   58.59
   0  -1 -13  293.67   28.70
   0  -1 -13  368.96   27.40
   0   1  13  381.96   26.90
   0   1  13  294.27   46.70
   0   1  13  352.86   28.90
  -1  -1 -13   83.29   12.30
  -1  -1 -13   82.79   13.90
   1   1  13  106.69   10.70
   1   1  13   94.59   12.10
   1   1  13   58.69   23.40
  -2  -1 -13   11.00   11.30
  -2  -1 -13   16.70   14.30
   2   1  13   -5.70   24.20
  -3  -1 -13  139.19   13.60
  -3  -1 -13  148.69   15.40
  -3  -1 -13  124.39   14.40
  -3  -1 -13  132.19   17.00
  -3  -1 -13  147.69   20.90
  -4  -1 -13   15.10    7.80
  -4  -1 -13    6.70    8.60
  -4  -1 -13   17.90   11.50
  -4  -1 -13   15.10    7.90
   3  -2 -13   17.90    9.30
  -3   2  13   -0.30    8.20
  -3   2  13   14.50   10.00
  -3   2  13   24.50    7.20
  -3   2  13   26.00   28.10
   2  -2 -13  796.32   56.69
  -2   2  13  903.21   75.79
  -2   2  13  827.92   55.09
  -2   2  13  813.62   56.39
   1  -2 -13  379.46   59.59
   1  -2 -13  403.06   30.80
  -1   2  13  355.66   26.60
  -1   2  13  336.57   52.59
  -1   2  13  334.07   29.50
  -1   2  13  333.07   28.30
   0  -2 -13  533.55   63.19
   0  -2 -13  475.05   34.30
   0   2  13  457.15   35.00
   0   2  13  471.25   56.99
   0   2  13  486.65   33.80
  -1  -2 -13  180.78   19.30
   1   2  13  166.58   20.20
   1   2  13  187.18   17.80
  -2  -2 -13 1568.34  100.79
   2   2  13 1510.75  100.69
  -3  -2 -13  409.26   33.30
  -3  -2 -13  399.06   29.70
  -4  -2 -13  139.49   19.40
  -4  -2 -13  138.69   14.30
  -4  -2 -13  125.59   13.30
  -4  -2 -13  130.59   14.40
  -3   3  13    8.30    9.50
  -3   3  13    6.70    6.80
  -2   3  13  283.97   25.10
  -2   3  13  279.77   21.80
  -2   3  13  239.18   21.40
   1  -3 -13  140.99   37.10
  -1   3  13  113.89   11.20
  -1   3  13  105.39   15.40
  -1   3  13   95.99   12.50
  -1   3  13  118.89   13.10
   0  -3 -13  755.22   78.89
   0   3  13  832.42   52.99
   0   3  13  807.72   52.49
   0   3  13  742.23   53.69
  -1  -3 -13  604.04   39.90
  -1  -3 -13  550.74   91.59
   1   3  13  563.14   41.00
   1   3  13  557.34   38.80
   1   3  13  503.35   79.49
  -2  -3 -13 1229.88   74.49
   2   3  13 1111.79   74.49
   2   3  13 1015.90   72.89
  -3  -3 -13    7.30   13.00
   3   3  13    5.50   33.80
  -4  -3 -13  253.57   22.70
  -4  -3 -13  241.08   18.50
   4   3  13  174.88   35.00
  -2   4  13   75.99   10.00
  -2   4  13   81.59   13.90
  -2   4  13   78.59   10.40
  -1   4  13   51.89   15.20
  -1   4  13   62.09   11.20
  -1   4  13   78.19   11.00
  -1   4  13   66.79    9.00
   0  -4 -13  814.52   80.99
   0  -4 -13  871.71   56.09
   0   4  13  817.12   56.79
   0   4  13  880.01   55.99
   0   4  13  909.61   55.59
   0   4  13  723.83   59.59
  -1  -4 -13   54.99   37.00
  -1  -4 -13   61.69   10.70
   1   4  13   70.99   10.20
   1   4  13   46.80   44.90
   1   4  13   63.69   13.30
  -2  -4 -13  118.19   14.30
  -2  -4 -13  121.39   16.20
   2   4  13  104.79   12.10
   2   4  13  118.39   15.20
   2   4  13   91.29   41.90
  -3  -4 -13  236.38   21.90
  -3  -4 -13  247.28   24.70
  -3  -4 -13  266.77   25.30
   3   4  13  176.68   41.00
   3   4  13  215.98   26.00
  -4  -4 -13   16.80   11.90
  -4  -4 -13   19.90   10.80
  -4  -4 -13   28.90    8.40
   4   4  13   28.00   30.90
  -2   5  13  152.58   15.80
  -2   5  13  183.28   15.00
  -1   5  13  202.48   18.50
  -1   5  13  189.38   20.20
   0  -5 -13   60.39   36.80
   0  -5 -13  110.29   12.70
   0   5  13  138.49   15.50
   0   5  13  134.69   13.00
   0   5  13  142.49   15.90
   0   5  13  136.69   17.40
   0   5  13  135.39   15.20
  -1  -5 -13  321.77   25.20
   1   5  13  300.97   24.40
   1   5  13  273.67   28.50
  -2  -5 -13  264.87   20.30
  -2  -5 -13  286.97   24.10
   2   5  13  212.78   48.00
   2   5  13  226.18   21.60
   2   5  13  253.77   26.70
  -3  -5 -13  163.48   15.90
  -3  -5 -13  143.59   18.70
  -3  -5 -13  157.48   21.20
   3   5  13  172.18   17.80
   3   5  13  157.58   41.50
  -4  -5 -13  320.87   21.10
  -4  -5 -13  303.37   24.00
  -4  -5 -13  282.97   21.30
  -4  -5 -13  284.87   22.40
   4   5  13  242.18   45.60
   1  -6 -13  234.68   17.80
  -1   6  13  205.68   18.20
  -1   6  13  204.68   20.00
   0  -6 -13  120.89   15.60
   0   6  13  137.19   16.00
   0   6  13  146.69   12.30
   0   6  13  125.99   15.70
   0   6  13  158.88   13.40
  -1  -6 -13   20.10   10.70
   1   6  13   31.20    9.70
   1   6  13   26.90   12.40
   1   6  13    5.30   42.80
   1   6  13   19.80    8.90
   1   6  13   18.10   14.00
  -2  -6 -13  200.68   17.00
  -2  -6 -13  197.78   21.40
   2   6  13  126.79   43.80
   2   6  13  197.08   24.70
   2   6  13  235.68   20.00
   2   6  13  213.58   18.90
  -3  -6 -13   58.59   11.60
  -3  -6 -13   76.59   11.90
  -3  -6 -13   59.79    9.20
   3   6  13   72.69   37.80
   3   6  13   62.59    9.20
  -4  -6 -13   13.50    7.70
  -4  -6 -13   23.50    6.20
   0   7  13   30.30   11.60
   0   7  13   29.20    6.80
   0   7  13   19.60    7.30
   1   7  13   83.39   10.00
   1   7  13   70.39   14.10
   1   7  13   61.89    9.30
  -2  -7 -13  127.89   12.60
   2   7  13  128.39   18.00
   2   7  13   70.39   36.40
   2   7  13  128.79   14.80
   2   7  13  140.09   12.30
  -3  -7 -13   42.80    9.10
  -3  -7 -13   37.50    6.80
   3   7  13   17.50    6.60
  -2  -5  14  163.18   14.10
  -2  -5  14  153.98   16.50
   1   5 -14   29.30    5.90
   1   5 -14   29.90    8.70
  -1  -5  14   24.00    8.30
   0   5 -14   82.89    8.70
   0  -5  14  135.59   13.60
  -3  -4  14  191.58   16.50
   2   4 -14  187.78   17.70
  -2  -4  14  199.28   19.50
  -2  -4  14  187.48   17.20
   1   4 -14   34.20   14.20
   1   4 -14   14.30    7.20
   1   4 -14   35.70   10.20
  -1  -4  14  108.99   34.90
  -1  -4  14   27.00   11.80
  -1  -4  14   32.40    9.60
   0   4 -14  251.47   22.40
   0   4 -14  236.18   19.50
   0   4 -14  241.08   26.00
   0  -4  14  283.97   50.09
   0  -4  14  316.37   21.50
  -1   4 -14  473.45   32.10
  -1   4 -14  458.35   36.00
  -1   4 -14  470.65   31.10
  -1   4 -14  464.45   31.30
   1  -4  14  347.27   55.19
  -2   4 -14  185.98   15.30
   3   3 -14  113.29   15.70
  -3  -3  14  142.49   14.60
   2   3 -14    4.50    8.80
   2   3 -14    8.80   11.80
  -2  -3  14   38.70   28.40
  -2  -3  14   15.30   10.50
  -2  -3  14   11.10    8.50
   1   3 -14    2.50   13.30
   1   3 -14   -0.40   10.00
  -1  -3  14   13.00   11.50
  -1  -3  14   13.00    9.50
  -1  -3  14   14.80   31.00
   0   3 -14  236.38   27.60
   0   3 -14  221.88   23.00
   0   3 -14  207.88   20.10
   0  -3  14  281.07   21.70
   0  -3  14  269.27   37.10
  -1   3 -14   -1.90    9.00
  -1   3 -14   14.70   10.60
  -1   3 -14    1.90   10.00
  -1   3 -14   14.10    7.40
  -1   3 -14    4.40   15.30
   1  -3  14  -65.49   53.39
   1  -3  14   21.90   30.00
  -2   3 -14  301.57   24.30
  -2   3 -14  334.07   23.40
  -2   3 -14  353.26   24.20
   2  -3  14  258.37   46.00
   3   2 -14  662.63   46.90
  -3  -2  14  834.92   66.19
  -3  -2  14  711.33   46.10
  -3  -2  14  633.34   46.40
   2   2 -14  727.73   53.79
  -2  -2  14  752.92   51.19
  -2  -2  14  813.32   74.19
  -2  -2  14  814.92   52.59
   1   2 -14   85.19   11.00
  -1  -2  14   60.29   12.60
  -1  -2  14   66.79   33.10
  -1  -2  14   69.89   11.00
   0   2 -14  412.16   38.60
   0   2 -14  470.25   41.80
   0  -2  14  661.43   64.79
   0  -2  14  590.04   38.40
   0  -2  14  574.74   37.40
  -1   2 -14  126.89   13.90
  -1   2 -14  108.89   12.50
  -1   2 -14  117.29   17.90
   1  -2  14  111.69   12.30
   1  -2  14  105.19   29.80
   1  -2  14   14.70   58.29
  -2   2 -14  559.94   39.00
  -2   2 -14  521.55   37.40
  -2   2 -14  591.74   38.80
  -2   2 -14  560.04   43.90
  -2   2 -14  592.14   38.60
  -2   2 -14  539.55   39.20
   2  -2  14  616.94   56.39
   2  -2  14  404.26   87.59
  -3   2 -14   47.10    7.20
  -3   2 -14   63.99    9.40
  -3   2 -14   67.49    9.10
   3  -2  14   16.10   24.90
   3   1 -14  184.18   19.60
  -3  -1  14  157.18   33.80
  -3  -1  14  167.68   17.30
  -3  -1  14  144.39   16.20
   2   1 -14   38.50   13.10
  -2  -1  14  -20.10   32.60
  -2  -1  14   26.20   10.40
  -2  -1  14   15.70    8.00
  -2  -1  14   18.90    9.90
   1   1 -14  158.28   24.00
   1   1 -14  134.29   13.90
   1   1 -14  128.79   47.50
  -1  -1  14  172.68   17.30
  -1  -1  14  144.79   15.10
  -1  -1  14  128.89   35.10
   0   1 -14  284.17   29.10
   0   1 -14  232.38   25.50
   0  -1  14  275.57   23.50
   0  -1  14  383.66   55.59
   0  -1  14  275.27   25.80
  -1   1 -14   55.29   15.80
  -1   1 -14   63.59   13.10
   1  -1  14   51.69   10.20
   1  -1  14   -1.00   55.19
   1  -1  14   90.39   28.50
  -2   1 -14  844.42   55.09
  -2   1 -14  810.32   58.09
  -2   1 -14  866.01   53.19
  -2   1 -14  813.12   54.29
  -2   1 -14  797.82   53.89
   2  -1  14  614.24   98.99
   2  -1  14  775.72   68.99
  -3   1 -14   55.39    9.70
  -3   1 -14   52.59    8.60
  -3   1 -14   50.09   10.10
  -3   1 -14   55.89    8.00
   3  -1  14   26.10   26.50
  -4   1 -14   90.79   11.20
   3   0 -14   33.30   11.30
  -3   0  14   27.20   30.90
  -3   0  14   38.00    9.50
  -3   0  14   28.20    8.10
   2   0 -14  150.48   23.10
  -2   0  14  154.88   18.30
  -2   0  14  142.89   17.90
  -2   0  14  116.09   35.30
  -2   0  14  190.58   18.30
   1   0 -14  375.96   74.19
   1   0 -14  379.06   33.40
  -1   0  14  344.47   55.79
  -1   0  14  405.16   30.70
  -1   0  14  422.26   29.00
   0   0 -14  350.46   65.79
   0   0 -14  353.56   30.30
   0   0 -14  322.77   27.50
   0   0  14  314.67   27.30
   0   0  14  302.77   52.29
   0   0  14  337.37   25.80
  -1   0 -14   49.20   14.90
   1   0  14   55.29   10.10
   1   0  14   68.09   11.60
   1   0  14  112.49   26.70
  -2   0 -14  510.25   40.90
  -2   0 -14  503.75   35.60
   2   0  14  508.65   53.39
  -3   0 -14  258.57   21.50
  -3   0 -14  249.48   21.10
  -3   0 -14  234.08   23.70
  -3   0 -14  276.57   20.00
  -3   0 -14  281.87   20.20
   3   0  14  201.28   30.30
  -4   0 -14  499.35   33.20
  -4   0 -14  499.85   33.70
   3  -1 -14  301.47   25.40
  -3   1  14  355.86   48.40
  -3   1  14  289.37   23.10
  -3   1  14  341.97   25.60
   2  -1 -14  615.54   43.00
  -2   1  14  567.14   41.70
  -2   1  14  612.14   66.49
  -2   1  14  570.84   40.50
   1  -1 -14  467.15   70.19
   1  -1 -14  515.15   39.70
  -1   1  14  549.45   36.20
  -1   1  14  548.35   37.80
  -1   1  14  478.35   61.09
   0  -1 -14 1436.36   88.09
   0  -1 -14 1301.07  107.29
   0  -1 -14 1271.97   86.89
   0  -1 -14 1170.28   86.99
   0   1  14 1427.26   86.39
   0   1  14 1439.26   87.39
   0   1  14 1258.67   97.19
  -1  -1 -14 1129.69   73.49
  -1  -1 -14 1045.30   72.19
   1   1  14 1079.89   72.09
   1   1  14 1104.69   71.19
  -2  -1 -14 1225.08   79.29
  -2  -1 -14 1251.47   80.49
   2   1  14 1090.79   91.39
  -3  -1 -14  611.04   38.40
  -3  -1 -14  468.65   39.50
  -3  -1 -14  550.14   38.90
  -3  -1 -14  576.54   38.10
  -3  -1 -14  601.74   41.30
  -4  -1 -14  124.89   12.80
  -4  -1 -14  126.79   13.50
  -4  -1 -14  136.99   17.50
  -4  -1 -14  138.49   12.90
   3  -2 -14   95.89   14.00
  -3   2  14  114.49   12.20
  -3   2  14  149.09   16.60
   2  -2 -14    5.10   10.70
  -2   2  14    2.20    9.30
  -2   2  14   16.70   31.30
  -2   2  14   13.40   11.10
   1  -2 -14   50.39   35.50
   1  -2 -14   11.10   11.90
  -1   2  14   18.50    8.20
  -1   2  14   13.50   11.50
  -1   2  14   27.00   10.00
  -1   2  14   21.30   28.50
   0  -2 -14  349.47   55.69
   0  -2 -14  275.17   36.60
   0  -2 -14  300.27   25.20
   0   2  14  331.27   26.10
   0   2  14  354.46   24.50
   0   2  14  247.08   39.80
  -1  -2 -14  319.97   27.20
   1   2  14  341.77   28.10
   1   2  14  328.27   25.30
  -2  -2 -14  252.27   25.30
   2   2  14  270.67   26.20
  -3  -2 -14   12.60   12.10
  -3  -2 -14    3.90    9.60
  -3  -2 -14   -4.50   10.20
  -4  -2 -14   95.29   12.20
  -4  -2 -14  138.79   17.30
  -4  -2 -14   89.89    9.80
  -4  -2 -14   85.09    9.40
  -2   3  14  432.36   33.80
  -2   3  14  446.96   31.00
  -1   3  14  130.39   16.50
  -1   3  14  134.79   17.40
  -1   3  14  150.28   15.30
  -1   3  14  153.68   17.50
   0  -3 -14  251.67   24.10
   0  -3 -14  298.07   55.89
   0   3  14  318.17   23.40
   0   3  14  335.57   24.50
   0   3  14  295.37   26.00
  -1  -3 -14  128.89   18.40
   1   3  14  171.68   16.60
   1   3  14  154.28   15.60
  -2  -3 -14  540.85   37.70
   2   3  14  471.05   35.20
   2   3  14  507.75   38.40
  -3  -3 -14  115.99   15.20
  -4  -3 -14  470.05   32.70
  -4  -3 -14  494.05   35.00
  -2   4  14   21.00    8.10
  -2   4  14   20.00   11.60
  -2   4  14   28.60    7.40
  -1   4  14  263.67   21.50
  -1   4  14  227.08   27.10
  -1   4  14  251.77   28.00
  -1   4  14  276.87   19.80
   0  -4 -14  149.19   17.00
   0   4  14  146.39   15.90
   0   4  14  158.88   13.70
   0   4  14  139.79   14.70
   0   4  14  101.49   18.00
  -1  -4 -14  305.47   24.90
   1   4  14  295.97   27.70
   1   4  14  285.87   23.80
  -2  -4 -14  957.50   59.19
   2   4  14  868.11   59.99
   2   4  14  797.72   57.69
  -3  -4 -14   64.69   13.10
  -3  -4 -14   67.69   11.60
   3   4  14   70.49   36.80
   3   4  14   76.19   13.30
  -4  -4 -14  195.18   19.40
  -4  -4 -14  179.28   15.70
   1  -5 -14   86.39    9.80
  -1   5  14   85.29    9.90
  -1   5  14   76.09   11.00
   0  -5 -14   22.30    8.90
   0   5  14   19.90   13.90
   0   5  14   19.60    8.00
   0   5  14   21.10    8.40
   0   5  14   15.90    9.20
   0   5  14   27.70   11.10
  -1  -5 -14  375.36   28.20
   1   5  14  281.07   67.59
   1   5  14  370.46   26.90
   1   5  14  350.06   29.90
  -2  -5 -14  456.15   29.60
  -2  -5 -14  423.36   32.50
   2   5  14  416.86   30.60
   2   5  14  325.67   64.99
   2   5  14  465.85   34.60
  -3  -5 -14   72.69   11.80
  -3  -5 -14   97.79    9.70
  -3  -5 -14   80.19   12.70
   3   5  14   70.59   13.50
   3   5  14   56.59   37.20
  -4  -5 -14  262.17   19.80
  -4  -5 -14  202.38   17.60
  -4  -5 -14  212.58   17.00
   1  -6 -14  277.97   21.80
   0  -6 -14  240.48   20.50
   0   6  14  270.47   19.90
   0   6  14  260.37   19.10
   0   6  14  224.28   19.50
   0   6  14  219.68   22.50
  -1  -6 -14  381.26   28.10
   1   6  14  334.27   29.70
   1   6  14  396.16   27.00
   1   6  14  286.17   31.50
   1   6  14  356.96   26.30
  -2  -6 -14   84.19   10.00
  -2  -6 -14   78.29   12.20
   2   6  14  110.39   10.90
   2   6  14  106.79   10.80
   2   6  14   87.89   40.90
   2   6  14  101.39   14.40
  -3  -6 -14  197.28   15.30
  -3  -6 -14  194.98   17.80
  -3  -6 -14  206.08   18.90
   3   6  14  120.29   36.40
   3   6  14  172.38   16.50
  -4  -6 -14  131.59   12.40
   1   7  14  130.39   17.10
   1   7  14  159.58   14.70
   1   7  14  168.68   14.80
  -2  -7 -14  109.79   11.50
  -2  -7 -14  122.89   14.20
   2   7  14  131.09   13.30
   2   7  14  114.39   12.80
  -3  -7 -14    7.60    7.10
  -3  -7 -14    9.40    5.50
   3   7  14    2.60    8.20
  -1  -5  15   -4.50    6.40
  -2  -4  15  162.38   14.20
  -2  -4  15  158.58   16.40
   1   4 -15  213.18   19.90
  -1  -4  15  250.27   19.50
   0   4 -15  261.17   21.10
   0   4 -15  265.47   24.70
   0  -4  15  274.17   44.30
   0  -4  15  223.18   20.10
  -1   4 -15  217.98   17.00
  -1   4 -15  224.48   22.60
  -1   4 -15  224.88   17.30
  -3  -3  15  319.47   23.10
   2   3 -15  306.47   27.60
  -2  -3  15  373.86   27.00
  -2  -3  15  449.95   47.70
  -2  -3  15  332.87   24.90
   1   3 -15  354.06   29.20
   1   3 -15  364.16   31.90
  -1  -3  15  412.46   53.49
  -1  -3  15  427.56   30.00
  -1  -3  15  396.46   28.60
   0   3 -15  279.57   21.00
   0   3 -15  305.67   27.40
   0   3 -15  288.17   23.10
   0  -3  15  198.18   34.50
   0  -3  15  269.97   22.40
  -1   3 -15   16.90    9.70
  -1   3 -15   24.30    9.50
  -1   3 -15    6.70    8.60
  -1   3 -15   13.20   14.00
   1  -3  15   -2.60   29.40
  -2   3 -15   47.60    8.30
  -2   3 -15   33.40    7.90
   3   2 -15  178.58   17.10
  -3  -2  15  179.98   15.90
   2   2 -15  298.27   27.50
  -2  -2  15  304.77   25.20
  -2  -2  15  359.76   53.19
  -2  -2  15  308.77   23.10
   1   2 -15   67.79   13.80
   1   2 -15   46.70   10.00
  -1  -2  15   49.70   31.20
  -1  -2  15   57.39   10.20
  -1  -2  15   52.79   11.50
   0   2 -15 1316.07   90.39
   0   2 -15 1332.97   92.09
   0  -2  15 1424.26   89.99
   0  -2  15 1420.46   90.49
   0  -2  15 1444.76  104.59
  -1   2 -15   15.00   14.70
  -1   2 -15    8.70   10.70
  -1   2 -15   12.30    9.20
   1  -2  15   24.50    8.80
   1  -2  15  -40.80   52.39
   1  -2  15   23.40   28.90
  -2   2 -15   16.10    6.80
  -2   2 -15   15.00    9.00
  -2   2 -15    4.40   14.70
  -2   2 -15   16.40    9.70
  -2   2 -15   11.30    9.30
   2  -2  15   13.20   25.00
  -3   2 -15  100.39   11.60
  -3   2 -15   81.29    9.30
   3   1 -15  417.36   29.50
  -3  -1  15  379.36   27.50
  -3  -1  15  392.26   28.50
   2   1 -15  534.25   37.10
  -2  -1  15  520.95   61.19
  -2  -1  15  423.76   33.00
  -2  -1  15  480.25   34.80
   1   1 -15   59.89   14.50
   1   1 -15   44.50   10.10
  -1  -1  15   70.99   32.00
  -1  -1  15   70.29   11.60
  -1  -1  15   82.49   10.20
   0   1 -15  851.71   60.19
   0   1 -15  737.43   57.69
   0  -1  15  972.90   75.69
   0  -1  15  864.81   58.09
   0  -1  15  903.31   57.19
  -1   1 -15   -2.10   11.20
  -1   1 -15   -0.30   14.60
   1  -1  15   11.90    9.10
   1  -1  15   35.80   28.50
  -2   1 -15  182.28   18.20
  -2   1 -15  177.38   18.70
  -2   1 -15  190.98   25.30
  -2   1 -15  193.98   20.30
  -2   1 -15  186.58   16.70
   2  -1  15  110.79   63.29
   2  -1  15  193.28   29.90
  -3   1 -15   33.30    8.80
  -3   1 -15   22.70    8.30
  -3   1 -15   21.50    7.00
   3  -1  15  -26.70   21.30
   3   0 -15  161.48   17.00
  -3   0  15  143.89   16.00
  -3   0  15  135.89   14.00
   2   0 -15  153.68   20.70
  -2   0  15  107.09   12.80
  -2   0  15  109.29   12.10
  -2   0  15  115.59   33.60
  -2   0  15  109.69   16.10
   1   0 -15  136.49   23.40
  -1   0  15  188.78   17.20
  -1   0  15  197.68   20.20
  -1   0  15  158.08   33.30
   0   0 -15  132.29   13.90
   0   0 -15  167.38   23.40
   0   0  15  132.39   14.10
   0   0  15   63.39   31.90
   0   0  15  120.69   12.80
  -1   0 -15   50.39   12.70
  -1   0 -15   39.20   14.50
   1   0  15   84.79   28.20
   1   0  15   50.59    9.80
   1   0  15   56.19   11.40
  -2   0 -15   70.49   10.60
  -2   0 -15   78.79   12.10
  -2   0 -15   89.69   13.90
  -2   0 -15   72.89   15.60
   2   0  15   80.49   26.90
  -3   0 -15   90.19   12.10
  -3   0 -15  110.39   11.90
  -3   0 -15   93.89   11.30
  -3   0 -15   72.69    9.70
  -3   0 -15   90.39   10.40
  -4   0 -15   39.40    6.60
   3  -1 -15   92.79   14.00
  -3   1  15  119.39   15.00
  -3   1  15  106.49   12.00
   2  -1 -15   82.39   13.10
  -2   1  15  104.99   32.30
  -2   1  15   80.29   12.10
  -2   1  15   78.69   10.40
   1  -1 -15  753.72   49.70
   1  -1 -15  621.04   48.50
  -1   1  15  750.42   47.10
  -1   1  15  704.13   66.49
  -1   1  15  694.13   48.10
   0  -1 -15  790.42   50.39
   0  -1 -15  678.13   49.20
   0  -1 -15  634.14   48.30
   0  -1 -15  741.53   75.69
   0   1  15  720.93   47.70
   0   1  15  756.72   49.10
   0   1  15  610.64   64.59
  -1  -1 -15  845.12   52.39
  -1  -1 -15  709.83   50.69
   1   1  15  767.52   50.59
   1   1  15  585.84   62.49
   1   1  15  722.93   49.20
  -2  -1 -15   67.09   10.10
  -2  -1 -15   79.09   15.10
  -2  -1 -15   72.39   12.70
  -2  -1 -15   88.19   11.20
   2   1  15   23.90   37.70
  -3  -1 -15  257.17   25.20
  -3  -1 -15  299.97   22.50
  -3  -1 -15  312.37   22.50
  -3  -1 -15  305.57   23.70
  -3  -1 -15  331.37   26.60
  -4  -1 -15  223.58   16.40
  -4  -1 -15  231.98   19.00
  -4  -1 -15  205.28   16.70
  -3   2  15  226.38   19.30
   2  -2 -15   13.80    9.70
  -2   2  15   27.90   11.30
  -2   2  15   27.80    8.80
  -2   2  15   35.40   28.90
   1  -2 -15  499.15   37.60
   1  -2 -15  531.45   35.40
  -1   2  15  500.15   36.40
  -1   2  15  527.95   35.00
  -1   2  15  487.75   55.69
  -1   2  15  471.55   37.70
  -1   2  15  531.75   36.10
   0  -2 -15  424.56   58.39
   0  -2 -15  397.56   29.70
   0  -2 -15  400.16   40.10
   0   2  15  389.36   31.20
   0   2  15  382.46   29.10
  -1  -2 -15  144.79   19.70
   1   2  15  184.48   21.10
   1   2  15  189.48   17.60
  -2  -2 -15   57.09   12.50
   2   2  15   69.29   12.70
  -3  -2 -15  645.44   46.80
  -3  -2 -15  727.93   49.10
  -3  -2 -15  675.43   46.60
  -3  -2 -15  764.42   46.80
  -4  -2 -15  121.99   11.70
  -4  -2 -15  115.39   11.70
  -4  -2 -15  137.89   16.40
  -2   3  15  105.09   10.60
  -2   3  15  116.19   14.40
  -1   3  15  120.89   13.20
  -1   3  15  105.19   15.00
  -1   3  15  110.59   12.30
  -1   3  15   91.19   11.70
   0  -3 -15   16.10    9.40
   0   3  15   19.90   10.00
   0   3  15   27.10   10.60
   0   3  15   20.70    8.80
  -1  -3 -15  118.39   17.30
   1   3  15   80.89   13.70
   1   3  15  106.69   11.50
  -2  -3 -15   53.59   12.50
   2   3  15   76.49    9.50
   2   3  15   60.19   12.80
  -3  -3 -15  580.14   41.70
  -4  -3 -15  136.59   13.00
  -4  -3 -15  162.58   17.10
   2  -4 -15  306.37   20.10
  -2   4  15  257.07   23.10
  -2   4  15  241.78   19.70
   1  -4 -15  224.58   18.90
  -1   4  15  219.68   17.60
  -1   4  15  240.48   18.90
  -1   4  15  194.38   24.40
   0  -4 -15  423.76   30.60
   0   4  15  412.96   30.20
   0   4  15  428.76   32.40
   0   4  15  430.76   30.70
  -1  -4 -15  259.37   23.70
   1   4  15  304.57   26.40
   1   4  15  301.97   22.80
  -2  -4 -15   51.99   11.60
   2   4  15   33.40    9.20
   2   4  15   49.60   12.50
   2   4  15   55.99   58.49
  -3  -4 -15  117.19   15.50
  -3  -4 -15  140.29   19.50
   3   4  15  145.19   14.70
  -4  -4 -15   99.19   10.00
  -4  -4 -15   95.59   14.90
   1  -5 -15  319.67   23.20
  -1   5  15  314.77   22.90
   0  -5 -15  124.69   15.40
   0   5  15  125.09   12.80
   0   5  15  114.29   13.90
   0   5  15  121.49   11.80
   0   5  15  145.69   14.30
  -1  -5 -15  327.07   28.10
   1   5  15  361.86   26.60
   1   5  15  351.66   29.40
   1   5  15  417.06   27.30
  -2  -5 -15   27.60   10.60
   2   5  15   34.20    8.90
   2   5  15   26.70   39.20
   2   5  15   15.10   12.20
  -3  -5 -15  112.79   16.90
  -3  -5 -15  106.49   11.80
   3   5  15   92.49   34.50
  -4  -5 -15  132.29   14.10
   0  -6 -15    8.40    7.90
   0   6  15    9.00    6.60
  -1  -6 -15   29.50    9.40
   1   6  15   21.20    7.80
   1   6  15   32.90    7.90
   1   6  15   26.10   10.30
  -2  -6 -15   77.79    8.80
  -2  -6 -15   80.69   11.10
   2   6  15   86.29    9.50
   2   6  15   89.49   12.80
   2   6  15   52.29   34.90
   2   6  15   89.09    9.40
  -3  -6 -15    8.10    7.80
  -3  -6 -15   22.00    8.90
  -3  -6 -15   24.40    6.20
   3   6  15   16.90    6.10
  -1  -7 -15   65.09    8.80
   1   7  15   53.79    7.40
   1   7  15   51.59    6.90
  -2  -7 -15   19.90    5.60
  -2  -7 -15   14.30    7.40
   2   7  15   15.40    6.70
   2   7  15   18.20    5.60
  -1  -4  16   53.99    7.90
   0   4 -16   23.80   10.20
   0  -4  16   25.40    7.00
   2   3 -16  330.27   24.80
  -2  -3  16  354.56   24.80
  -2  -3  16  297.67   22.90
   1   3 -16  610.04   43.90
   1   3 -16  586.14   45.20
  -1  -3  16  783.52   60.69
  -1  -3  16  678.83   43.40
   0   3 -16  316.67   23.70
   0   3 -16  340.37   28.20
   0   3 -16  320.77   25.00
   0  -3  16  324.07   24.30
   0  -3  16  330.87   47.10
  -1   3 -16  199.98   22.30
  -1   3 -16  182.68   17.40
  -1   3 -16  185.68   17.00
  -1   3 -16  208.08   16.70
   1  -3  16  189.68   29.30
  -2   3 -16   43.30    7.00
   2   2 -16  229.28   21.60
  -2  -2  16  194.38   17.10
  -2  -2  16  225.58   20.10
  -2  -2  16  293.47   47.20
   1   2 -16  193.28   22.90
   1   2 -16  166.88   18.40
  -1  -2  16  200.68   18.10
  -1  -2  16  200.78   33.70
  -1  -2  16  213.18   20.80
   0   2 -16   63.19   11.00
   0   2 -16   70.29   14.40
   0  -2  16   53.79   11.80
   0  -2  16   40.00   28.70
   0  -2  16   41.60    9.80
  -1   2 -16  204.38   25.30
  -1   2 -16  226.18   21.00
  -1   2 -16  218.58   18.70
  -1   2 -16  206.88   19.40
   1  -2  16  199.98   31.50
   1  -2  16  210.48   17.70
  -2   2 -16   37.80   13.70
  -2   2 -16   32.60    9.10
  -2   2 -16   40.30    8.50
  -2   2 -16   37.60    8.30
   2  -2  16   11.70   21.40
   3   1 -16  128.29   13.90
   2   1 -16   78.19   12.50
  -2  -1  16   52.59    9.60
  -2  -1  16   76.29   29.60
  -2  -1  16   42.80    7.70
   1   1 -16   36.20   12.70
  -1  -1  16   25.50   30.60
  -1  -1  16   45.50   10.70
  -1  -1  16   46.60    8.90
   0   1 -16  352.26   29.50
   0   1 -16  391.36   33.50
   0  -1  16  406.76   28.50
   0  -1  16  402.46   54.89
   0  -1  16  388.46   30.20
  -1   1 -16  380.66   28.70
  -1   1 -16  391.96   27.10
  -1   1 -16  370.06   32.40
   1  -1  16  303.27   26.20
   1  -1  16  376.56   51.69
  -2   1 -16   78.19   11.30
  -2   1 -16   72.49    9.20
  -2   1 -16   61.19   15.00
  -2   1 -16   69.79   11.20
  -2   1 -16   82.29   10.40
   2  -1  16   72.79   26.00
  -3   1 -16  206.38   16.30
  -3   1 -16  186.98   16.40
  -3   1 -16  189.28   14.70
   3   0 -16    9.70    7.50
   2   0 -16  514.85   37.90
  -2   0  16  516.25   36.10
  -2   0  16  575.14   60.39
   1   0 -16  234.98   24.60
  -1   0  16  235.48   34.60
  -1   0  16  233.18   22.00
  -1   0  16  205.28   19.20
   0   0 -16 1024.30   77.39
   0   0 -16 1190.98   79.19
   0   0  16 1285.87   78.19
   0   0  16 1288.47   77.19
   0   0  16 1118.09   91.09
  -1   0 -16  956.20   64.09
  -1   0 -16  954.00   62.59
   1   0  16  930.21   62.19
   1   0  16  916.91   61.29
   1   0  16  909.91   74.69
  -2   0 -16  449.66   34.80
  -2   0 -16  444.96   32.30
  -2   0 -16  417.46   30.50
  -2   0 -16  446.96   30.40
   2   0  16  310.17   47.30
  -3   0 -16  165.78   16.40
  -3   0 -16  181.68   18.00
  -3   0 -16  194.98   16.30
  -3   0 -16  187.28   14.90
   2  -1 -16  155.08   18.30
  -2   1  16  170.48   31.30
  -2   1  16  148.29   15.60
  -2   1  16  155.68   15.90
  -2   1  16  173.98   18.60
   1  -1 -16   50.29   12.30
  -1   1  16   50.99   10.60
  -1   1  16   45.70    8.70
  -1   1  16   56.49   29.40
   0  -1 -16  158.18   21.40
   0   1  16  140.69   28.90
   0   1  16  151.78   19.70
   0   1  16  178.08   17.30
  -1  -1 -16  579.64   46.10
  -1  -1 -16  613.84   43.10
  -1  -1 -16  627.34   44.30
   1   1  16  625.84   41.30
   1   1  16  532.35   56.29
   1   1  16  654.43   43.00
  -2  -1 -16   15.00   11.90
  -2  -1 -16   22.00    9.90
  -2  -1 -16    8.20    8.30
  -2  -1 -16    2.80   12.70
  -3  -1 -16   26.80    6.90
  -3  -1 -16   18.40    7.40
  -3  -1 -16   17.70    8.50
  -3  -1 -16   23.30   11.00
   2  -2 -16   34.20    8.80
   2  -2 -16   35.60    7.30
  -2   2  16   52.99   11.20
  -2   2  16   45.90    8.20
   1  -2 -16  383.16   29.30
   1  -2 -16  349.37   30.80
  -1   2  16  480.65   51.89
  -1   2  16  448.56   28.60
  -1   2  16  395.06   29.70
  -1   2  16  459.95   29.90
   0  -2 -16   91.79   11.20
   0   2  16   66.39   11.80
   0   2  16   82.49   10.40
   0   2  16   80.79   11.50
  -1  -2 -16   91.09   13.30
   1   2  16  131.49   13.60
   1   2  16  120.29   11.70
  -2  -2 -16  110.79   12.40
  -2  -2 -16  113.19   14.10
  -2  -2 -16  124.19   18.40
   2   2  16  118.69   13.70
  -3  -2 -16  187.08   17.50
  -3  -2 -16  228.08   21.30
  -3  -2 -16  211.88   17.30
  -3  -2 -16  218.58   17.30
  -4  -2 -16   24.30    8.20
   2  -3 -16   81.09   10.50
  -2   3  16   84.99   11.90
  -2   3  16   77.39    8.40
   1  -3 -16  595.84   38.40
  -1   3  16  554.94   38.60
  -1   3  16  570.04   37.50
  -1   3  16  567.14   38.30
  -1   3  16  516.15   41.10
   0  -3 -16  176.38   18.50
   0   3  16  203.38   17.50
   0   3  16  205.98   20.10
   0   3  16  189.38   19.00
  -1  -3 -16  652.73   43.40
   1   3  16  602.74   42.10
   1   3  16  601.34   44.00
  -2  -3 -16   19.80   11.10
   2   3  16   12.70   11.60
   2   3  16    6.90    7.70
  -3  -3 -16  415.16   31.80
  -3  -3 -16  422.96   29.20
  -4  -3 -16   21.90    8.20
   1  -4 -16  110.39   13.40
  -1   4  16   99.19   11.20
  -1   4  16  105.09   10.40
   0  -4 -16  278.57   21.60
   0   4  16  269.97   20.70
   0   4  16  248.38   20.60
   0   4  16  264.77   23.00
  -1  -4 -16   45.90   10.40
   1   4  16   57.89   11.50
   1   4  16   66.89    9.30
  -2  -4 -16    3.10   10.30
   2   4  16    5.90   11.40
   2   4  16   13.80    7.90
  -3  -4 -16  280.97   25.40
  -3  -4 -16  341.87   25.30
   3   4  16  272.77   24.70
  -4  -4 -16   59.49    8.50
   1  -5 -16  125.89   12.70
   0  -5 -16  574.94   37.60
   0   5  16  527.25   38.20
   0   5  16  547.85   36.90
  -1  -5 -16  229.18   20.30
   1   5  16  184.98   21.10
   1   5  16  214.98   18.20
   1   5  16  224.78   18.70
  -2  -5 -16  309.57   24.40
   2   5  16  288.17   22.20
   2   5  16  282.97   26.00
  -3  -5 -16   36.20    9.70
  -3  -5 -16   33.00    7.70
   3   5  16   39.20    6.80
   0  -6 -16   34.00    7.70
   0   6  16   31.90    6.10
  -1  -6 -16   22.00    8.10
   1   6  16   27.10    6.70
   1   6  16   25.10    6.80
   1   6  16   18.90    8.80
  -2  -6 -16  100.49   13.50
   2   6  16   78.19    8.30
   2   6  16   72.79    8.50
   2   6  16   63.59   10.80
   3   6  16   50.29    6.90
   1   3 -17   64.19   10.40
  -1  -3  17   57.29    9.10
  -1  -3  17   61.09    7.90
   0   3 -17   15.20    8.20
   0   3 -17    4.00    8.60
   0   3 -17    2.60    6.40
   0   3 -17    2.50    9.10
   0  -3  17    7.10    6.90
  -1   3 -17  379.86   31.50
  -1   3 -17  481.85   33.10
  -1   3 -17  486.55   30.40
   2   2 -17  257.37   20.40
  -2  -2  17  216.38   17.30
  -2  -2  17  250.07   19.90
   1   2 -17  112.39   11.00
   1   2 -17  134.79   18.30
  -1  -2  17  106.69   10.60
  -1  -2  17  115.09   28.20
  -1  -2  17   96.49   11.90
   0   2 -17   27.80    8.10
   0   2 -17   19.40   11.80
   0   2 -17   13.40    9.10
   0  -2  17   25.80   25.50
   0  -2  17   15.40    7.90
  -1   2 -17  230.08   19.80
  -1   2 -17  230.68   23.50
  -1   2 -17  235.78   18.40
  -1   2 -17  211.58   19.20
   1  -2  17  196.48   28.60
  -2   2 -17  101.99   17.40
  -2   2 -17  112.79   12.20
  -2   2 -17  108.79   12.30
   2   1 -17   57.39   10.30
  -2  -1  17   48.60    6.60
  -2  -1  17   56.69    8.60
   1   1 -17   85.59   13.00
  -1  -1  17   68.19   29.10
  -1  -1  17   69.09    9.10
  -1  -1  17   69.89   11.10
   0   1 -17   66.09   11.00
   0   1 -17   70.49   14.00
   0  -1  17   90.99    9.90
   0  -1  17   86.79   11.50
   0  -1  17   80.29   28.30
  -1   1 -17   29.00   10.00
  -1   1 -17   35.60    9.10
  -1   1 -17   22.40    8.90
  -1   1 -17   19.00   13.00
   1  -1  17   15.40   26.20
   1  -1  17   24.00    7.80
  -2   1 -17  169.68   13.70
  -2   1 -17  177.68   16.20
  -2   1 -17  185.78   15.70
  -2   1 -17  178.68   17.00
  -2   1 -17  157.28   21.20
   2  -1  17  122.59   26.10
  -3   1 -17   25.80    8.70
   2   0 -17   85.89   15.40
  -2   0  17  103.29   12.60
   1   0 -17  442.66   32.90
  -1   0  17  454.05   52.39
  -1   0  17  409.16   31.30
  -1   0  17  410.06   29.70
   0   0 -17  200.78   22.10
   0   0 -17  161.48   18.30
   0   0  17  185.98   20.20
   0   0  17  174.68   17.00
   0   0  17  166.88   30.00
  -1   0 -17  465.65   34.00
  -1   0 -17  488.75   36.50
   1   0  17  474.95   51.39
   1   0  17  465.45   32.40
   1   0  17  449.66   34.60
  -2   0 -17  320.37   29.10
  -2   0 -17  316.77   25.20
  -2   0 -17  371.56   24.40
  -2   0 -17  370.86   26.90
  -2   0 -17  331.37   25.30
  -3   0 -17   57.69    8.20
  -3   0 -17   59.39    7.80
  -3   0 -17   76.09    7.30
   2  -1 -17  273.87   21.80
  -2   1  17  260.07   19.90
  -2   1  17  267.37   20.10
   1  -1 -17    8.60   10.40
  -1   1  17    5.90    8.90
  -1   1  17   13.40   27.10
  -1   1  17    7.60    7.20
   0  -1 -17  160.38   21.40
   0   1  17  198.28   20.60
   0   1  17  198.08   17.40
   0   1  17  185.58   28.70
  -1  -1 -17   89.99   11.60
  -1  -1 -17   84.79   12.80
   1   1  17   52.39   11.60
   1   1  17   83.19   26.70
   1   1  17   46.10    9.50
  -2  -1 -17  220.28   18.40
  -2  -1 -17  214.88   23.10
  -2  -1 -17  218.88   18.80
  -2  -1 -17  237.08   21.90
  -3  -1 -17   37.90    6.90
  -3  -1 -17   36.80    7.50
  -3  -1 -17   37.50    9.50
  -2   2  17   27.60    9.30
  -2   2  17   21.40    6.60
   1  -2 -17   42.70   12.70
   1  -2 -17   62.49    8.80
  -1   2  17   60.09    9.50
  -1   2  17   68.99    8.00
  -1   2  17   64.29    9.40
   0  -2 -17   28.90    9.50
   0   2  17   17.90    7.90
   0   2  17   27.60    9.90
  -1  -2 -17   32.70   10.40
  -1  -2 -17   28.70   10.20
   1   2  17   39.70    8.40
   1   2  17   22.80   10.80
  -2  -2 -17   86.99   10.40
  -2  -2 -17   77.19   13.80
  -2  -2 -17   98.39   12.50
   2   2  17   76.89   11.90
  -3  -2 -17   77.09    9.20
  -3  -2 -17  102.19   15.20
  -3  -2 -17  102.59   10.70
  -3  -2 -17   95.79    9.20
   1  -3 -17   85.79   12.30
  -1   3  17   91.09    9.40
  -1   3  17   78.69    8.10
  -1   3  17   72.09    9.20
   0  -3 -17  118.59   15.90
   0   3  17  145.09   17.80
   0   3  17  142.89   14.30
  -1  -3 -17  460.95   33.80
   1   3  17  465.05   32.10
   1   3  17  463.95   34.20
  -2  -3 -17  170.78   18.80
   2   3  17  144.39   14.30
   2   3  17  161.38   19.40
  -3  -3 -17   82.19   11.60
  -3  -3 -17  103.09   10.70
  -3  -3 -17   89.09    8.80
   1  -4 -17  169.28   15.00
  -1   4  17  165.58   14.30
  -1   4  17  177.88   17.00
   0  -4 -17  172.78   16.20
   0   4  17  169.48   14.70
   0   4  17  148.19   17.20
  -1  -4 -17  286.57   23.70
   1   4  17  293.77   22.00
   1   4  17  294.87   24.50
  -2  -4 -17   69.19   11.10
   2   4  17   71.59   11.60
   2   4  17   66.39    8.50
  -3  -4 -17   19.30    9.30
  -3  -4 -17   40.60    8.20
  -3  -4 -17   32.60    6.00
   0  -5 -17  109.89   13.50
   0   5  17  106.59   11.20
  -1  -5 -17   50.19    9.50
   1   5  17   53.59    9.80
   1   5  17   55.79    7.90
   1   5  17   44.20    7.70
  -2  -5 -17   30.10    8.90
   2   5  17   19.60    6.80
   2   5  17   21.50   10.00
   2   5  17   13.40    7.00
  -3  -5 -17   90.99   12.90
  -3  -5 -17   74.49   10.00
   3   5  17   91.39    9.90
  -1  -6 -17  264.77   19.80
   1   6  17  248.18   18.80
   1   6  17  263.47   18.70
  -2  -6 -17  256.27   19.40
  -2  -6 -17  204.48   16.70
   2   6  17  190.68   17.00
   0   3 -18   41.70   13.70
   0  -3  18   29.10    7.20
   1   2 -18   93.69   11.30
  -1  -2  18   58.29    9.10
  -1  -2  18   72.39    8.00
   0   2 -18  146.39   17.00
   0   2 -18  178.48   14.50
   0   2 -18  157.78   19.70
   0  -2  18  187.88   14.50
  -1   2 -18  371.16   28.30
  -1   2 -18  371.76   25.10
  -1   2 -18  338.07   25.60
   2   1 -18  182.88   16.50
   1   1 -18  108.79   16.90
  -1  -1  18  120.19   14.80
  -1  -1  18   99.09    9.60
   0   1 -18  361.86   27.40
   0   1 -18  391.06   30.00
   0  -1  18  371.86   26.60
   0  -1  18  367.16   28.40
   0  -1  18  430.76   45.70
  -1   1 -18  210.08   21.60
  -1   1 -18  191.28   19.10
  -1   1 -18  222.98   17.50
   1  -1  18  230.78   37.20
   1  -1  18  192.38   16.50
  -2   1 -18  262.77   20.80
  -2   1 -18  280.37   23.70
  -2   1 -18  298.57   20.70
   2   0 -18   82.59   12.70
   1   0 -18   66.69   11.50
  -1   0  18   75.19    8.30
  -1   0  18   83.69    9.80
  -1   0  18   85.69   26.10
   0   0 -18   59.29   12.20
   0   0 -18   60.89    9.30
   0   0  18   64.29    8.50
   0   0  18   63.49   10.30
   0   0  18   53.29   25.40
  -1   0 -18   39.10   11.80
  -1   0 -18   43.90    9.60
   1   0  18   68.09   23.00
   1   0  18   23.60   13.30
   1   0  18   38.50    7.80
  -2   0 -18  315.67   22.30
  -2   0 -18  293.37   22.40
  -2   0 -18  305.87   25.40
  -2   0 -18  298.87   21.30
  -2   0 -18  291.77   23.80
   1  -1 -18  109.09   15.80
  -1   1  18  109.39   11.60
  -1   1  18  119.19   28.30
  -1   1  18  124.49   14.60
  -1   1  18  109.79   10.70
   0  -1 -18  124.09   18.80
   0   1  18  153.88   14.80
   0   1  18  230.08   36.50
   0   1  18  176.18   17.80
  -1  -1 -18  180.58   17.70
  -1  -1 -18  179.78   19.60
   1   1  18  154.28   15.40
   1   1  18  185.88   19.50
  -2  -1 -18   24.00    7.30
  -2  -1 -18   26.60    8.20
  -2  -1 -18   23.90   15.20
  -2  -1 -18   21.30    9.40
  -3  -1 -18  272.97   19.50
  -3  -1 -18  242.38   18.10
   1  -2 -18  161.58   21.20
  -1   2  18  142.09   12.50
  -1   2  18  147.59   14.50
  -1   2  18  134.19   13.80
   0  -2 -18  432.76   32.10
   0   2  18  447.06   30.70
   0   2  18  478.35   32.50
  -1  -2 -18  139.99   16.80
  -1  -2 -18  180.98   18.30
   1   2  18  178.48   15.50
   1   2  18  211.28   20.00
  -2  -2 -18  419.76   30.30
  -2  -2 -18  457.95   32.00
  -2  -2 -18  481.65   32.30
   2   2  18  410.46   33.60
  -3  -2 -18  173.38   15.20
  -3  -2 -18  151.98   12.80
   1  -3 -18    4.00    6.20
  -1   3  18   14.10    5.00
  -1   3  18    0.30    8.20
   0  -3 -18   19.00    8.40
   0   3  18   13.60    8.70
   0   3  18   15.90    6.60
  -1  -3 -18  146.49   16.20
   1   3  18  136.89   13.20
   1   3  18  116.79   12.90
  -2  -3 -18   10.00    9.20
   2   3  18    8.80    8.00
   2   3  18    8.80    9.20
  -3  -3 -18   16.10    7.90
  -3  -3 -18   15.30    9.00
   0  -4 -18  201.38   17.90
   0   4  18  218.58   15.90
   0   4  18  203.98   17.10
  -1  -4 -18  180.98   18.00
   1   4  18  191.78   15.60
   1   4  18  204.68   18.40
  -2  -4 -18  151.58   16.40
   2   4  18  167.28   17.20
   2   4  18  131.69   13.10
  -3  -4 -18   63.99    8.70
   0  -5 -18   83.99   11.60
  -1  -5 -18    2.50    7.40
   1   5  18    6.20    7.60
   1   5  18    0.90    5.90
   1   5  18    0.60    5.40
  -2  -5 -18    3.00    7.70
   2   5  18    5.00    5.30
   2   5  18   -5.90    7.90
   2   5  18    2.00    5.60
   0   2 -19  148.59   15.90
   0  -2  19  165.18   13.20
   1   1 -19   48.60    9.10
  -1  -1  19   56.49    7.70
  -1  -1  19   54.69    6.30
   0   1 -19   91.89   14.90
   0   1 -19   85.79   10.60
   0  -1  19   70.39    8.90
   0  -1  19   72.89    7.90
  -1   1 -19  454.15   32.40
  -1   1 -19  484.35   33.90
  -1   1 -19  511.75   32.10
   1  -1  19  457.55   32.60
   1   0 -19  260.47   20.80
  -1   0  19  243.28   18.00
  -1   0  19  256.27   19.90
   0   0 -19   12.30    9.40
   0   0  19   15.00    6.30
   0   0  19   -4.90    8.00
  -1   0 -19   91.19   11.10
  -1   0 -19   68.19   11.00
  -1   0 -19   84.59   10.50
   1   0  19   61.99    7.70
  -2   0 -19   78.69   13.50
  -2   0 -19   79.39    9.70
  -2   0 -19   69.09    8.20
   1  -1 -19   -3.30    7.30
  -1   1  19    4.10    5.00
  -1   1  19    5.00    6.70
   0  -1 -19   11.10    8.50
   0   1  19   11.10    6.30
   0   1  19    7.90    8.20
  -1  -1 -19   46.80   10.10
  -1  -1 -19   48.90    8.30
   1   1  19   47.30    7.00
   1   1  19   56.29    9.20
  -2  -1 -19   17.10    5.90
  -2  -1 -19    9.20    6.00
  -2  -1 -19    4.40    6.30
  -1   2  19  183.28   18.10
  -1   2  19  170.58   13.40
   0   2  19  148.89   13.30
   0   2  19  147.19   16.40
  -1  -2 -19   68.79   13.00
   1   2  19   93.89   10.40
   1   2  19   93.39    8.70
  -2  -2 -19  208.88   16.30
  -2  -2 -19  236.88   23.70
   0  -3 -19   69.89    8.90
   0   3  19   79.89    9.00
   0   3  19   85.99    9.40
  -1  -3 -19  113.39   13.90
   1   3  19  118.59   11.80
   1   3  19  120.39   15.10
  -2  -3 -19  106.79   14.00
   2   3  19   93.59   10.10
   0   4  19   45.60    6.00
  -1  -4 -19  176.58   15.70
   1   4  19  169.98   13.80
   1   4  19  185.98   16.40
   1   4  19  160.08   13.70
  -2  -4 -19   58.39    8.40
   2   4  19   62.99    8.60
   0   0 -20   31.00    9.30
   0   0  20   36.90    5.40
  -1   0 -20  189.58   14.80
  -1   0 -20  189.88   14.70
   0   1  20  112.79   11.00
   0   1  20  131.69   13.40
  -1  -1 -20  174.28   13.10
  -1  -1 -20  141.39   13.00
   1   1  20  160.58   12.90
   0   2  20   38.00    7.20
   0   2  20   37.40    5.50
   1   2  20   23.80    7.00
   1   2  20   26.60    5.30
   1   3  20  125.29   12.20
   1   3  20  109.19   10.40

_computing_structure_solution     'SHELXT 2014/4 (Sheldrick, 2014)'
;
_shelx_hkl_checksum              32003
_shelx_shelxl_version_number     2014/7
_olex2_diffrn_ambient_temperature_device 'Oxford Cryosystems'
_olex2_submission_special_instructions 'No special instructions were received'
loop_
_space_group_symop_operation_xyz
'x, y, z'
loop_
_atom_site_label
_atom_site_type_symbol
_atom_site_fract_x
_atom_site_fract_y
_atom_site_fract_z
_atom_site_U_iso_or_equiv
_atom_site_adp_type
_atom_site_occupancy
_atom_site_site_symmetry_order
_atom_site_calc_flag
_atom_site_refinement_flags_posn
_atom_site_refinement_flags_adp
_atom_site_refinement_flags_occupancy
_atom_site_disorder_assembly
_atom_site_disorder_group
S1 S -0.3149(2) -0.16180(17) 0.84288(8) 0.0243(3) Uani 1 1 d . . . . .
O1 O -0.5571(9) 0.0367(6) 0.5517(2) 0.0326(9) Uani 1 1 d . . . . .
H1 H -0.6140 0.0399 0.6001 0.049 Uiso 1 1 calc GR . . . .
O2 O -0.1576(9) -0.1878(6) 0.6700(2) 0.0282(9) Uani 1 1 d . . . . .
O3 O -0.0366(8) -0.5001(6) 0.5433(2) 0.0291(9) Uani 1 1 d . . . . .
H3 H -0.0500 -0.5006 0.4948 0.044 Uiso 1 1 calc GR . . . .
O4 O -0.3980(9) -0.5813(6) 0.6619(2) 0.0328(9) Uani 1 1 d . . . . .
H4 H -0.4399 -0.6141 0.7098 0.049 Uiso 1 1 calc GR . . . .
O5 O -0.8950(8) -0.3744(6) 1.0345(2) 0.0257(8) Uani 1 1 d . . . . .
N1 N -0.5150(10) -0.2115(7) 0.9232(3) 0.0255(10) Uani 1 1 d . . . . .
N2 N -0.6125(9) -0.5578(7) 0.8155(3) 0.0239(10) Uani 1 1 d . . . . .
N3 N -0.8727(9) -0.5635(7) 0.9426(3) 0.0231(9) Uani 1 1 d . . . . .
H3A H -0.9831 -0.6183 0.9753 0.028 Uiso 1 1 calc R . . . .
N4 N -0.8853(10) -0.7578(7) 0.8539(3) 0.0251(10) Uani 1 1 d . . . . .
H4A H -0.8380 -0.8007 0.8076 0.030 Uiso 1 1 calc R . . . .
H4B H -0.9992 -0.8023 0.8899 0.030 Uiso 1 1 calc R . . . .
C1 C -0.2499(12) -0.0120(9) 0.5426(3) 0.0303(12) Uani 1 1 d . . . . .
H1A H -0.1849 0.0801 0.5637 0.036 Uiso 1 1 calc R . . . .
H1C H -0.1834 -0.0113 0.4854 0.036 Uiso 1 1 calc R . . . .
C2 C -0.1167(11) -0.1998(9) 0.5855(3) 0.0257(11) Uani 1 1 d . . . . .
H2 H 0.0951 -0.2411 0.5689 0.031 Uiso 1 1 calc R . . . .
C3 C -0.2534(11) -0.3447(8) 0.5714(3) 0.0253(11) Uani 1 1 d . . . . .
H3B H -0.4036 -0.2913 0.5326 0.030 Uiso 1 1 calc R . . . .
C4 C -0.3932(12) -0.3976(8) 0.6528(3) 0.0256(11) Uani 1 1 d . . . . .
H4C H -0.5958 -0.3149 0.6592 0.031 Uiso 1 1 calc R . . . .
C5 C -0.2083(11) -0.3539(8) 0.7094(3) 0.0240(11) Uani 1 1 d . . . . .
H5 H -0.0205 -0.4537 0.7131 0.029 Uiso 1 1 calc R . . . .
C6 C -0.3507(11) -0.3246(8) 0.7902(3) 0.0252(11) Uani 1 1 d . . . . .
C7 C -0.5267(10) -0.4183(8) 0.8376(3) 0.0199(11) Uani 1 1 d . . . . .
C8 C -0.6104(10) -0.3472(8) 0.9110(3) 0.0217(11) Uani 1 1 d . . . . .
C9 C -0.8036(11) -0.4235(8) 0.9692(3) 0.0235(11) Uani 1 1 d . . . . .
C10 C -0.7843(11) -0.6257(8) 0.8694(3) 0.0226(11) Uani 1 1 d . . . . .
S1' S 0.6645(2) -0.53538(16) 0.15186(7) 0.0241(3) Uani 1 1 d . . . . .
O2' O 0.2115(10) -0.4094(6) 0.2833(2) 0.0381(10) Uani 1 1 d . . . . .
O3' O 0.5242(8) -0.5657(6) 0.4713(2) 0.0265(8) Uani 1 1 d . . . . .
H3' H 0.3787 -0.4958 0.4943 0.040 Uiso 1 1 calc GR . . . .
O4' O 0.2134(8) -0.7568(6) 0.4137(2) 0.0276(8) Uani 1 1 d . . . . .
H4' H 0.2943 -0.8189 0.4537 0.041 Uiso 1 1 calc GR . . . .
O5' O 0.7429(8) -0.9059(6) -0.0349(2) 0.0272(8) Uani 1 1 d . . . . .
O1' O 0.021(3) -0.0574(13) 0.3228(6) 0.031(3) Uani 0.56(2) 1 d . U P A 1
H1' H 0.0688 0.0185 0.2873 0.047 Uiso 0.56(2) 1 calc GR . P A 1
O1B O 0.144(4) -0.0335(15) 0.3384(7) 0.029(3) Uani 0.44(2) 1 d . U P A 2
H1B H 0.0816 -0.0359 0.2951 0.044 Uiso 0.44(2) 1 calc GR . P A 2
N1' N 0.7424(9) -0.6531(7) 0.0748(3) 0.0254(10) Uani 1 1 d . . . . .
N2' N 0.2719(9) -0.9101(7) 0.1827(3) 0.0233(9) Uani 1 1 d . . . . .
N3' N 0.4230(10) -1.0064(7) 0.0540(3) 0.0234(9) Uani 1 1 d . . . . .
H3'A H 0.4030 -1.0763 0.0202 0.028 Uiso 1 1 calc R . . . .
N4' N 0.1112(10) -1.1297(7) 0.1408(3) 0.0256(10) Uani 1 1 d . . . . .
H4'A H 0.0054 -1.1383 0.1860 0.031 Uiso 1 1 calc R . . . .
H4'B H 0.1123 -1.1978 0.1038 0.031 Uiso 1 1 calc R . . . .
C2' C 0.2458(13) -0.3738(9) 0.3605(3) 0.0305(12) Uani 1 1 d . U . . .
H2'A H 0.0641 -0.3597 0.3965 0.037 Uiso 0.44(2) 1 calc R . P A 2
H2' H 0.0654 -0.3753 0.3952 0.037 Uiso 0.56(2) 1 calc R . P A 1
C3' C 0.4934(11) -0.5414(8) 0.3901(3) 0.0252(11) Uani 1 1 d . . . . .
H3'B H 0.6789 -0.5286 0.3612 0.030 Uiso 1 1 calc R . . . .
C4' C 0.4213(11) -0.6981(8) 0.3588(3) 0.0236(11) Uani 1 1 d . . . . .
H4'C H 0.5987 -0.8022 0.3483 0.028 Uiso 1 1 calc R . . . .
C5' C 0.2765(12) -0.6036(9) 0.2814(3) 0.0271(12) Uani 1 1 d . . . . .
H5' H 0.0896 -0.6328 0.2832 0.033 Uiso 1 1 calc R . . . .
C6' C 0.4478(11) -0.6543(8) 0.2044(3) 0.0245(11) Uani 1 1 d . . . . .
C7' C 0.4310(10) -0.7847(8) 0.1611(3) 0.0209(11) Uani 1 1 d . . . . .
C8' C 0.5996(10) -0.7787(8) 0.0886(3) 0.0225(11) Uani 1 1 d . . . . .
C9' C 0.6030(11) -0.8979(8) 0.0300(3) 0.0229(11) Uani 1 1 d . . . . .
C10' C 0.2710(11) -1.0124(8) 0.1283(3) 0.0231(11) Uani 1 1 d . . . . .
C1' C 0.273(4) -0.188(2) 0.3514(10) 0.032(2) Uani 0.56(2) 1 d . U P A 1
H1'A H 0.3050 -0.1590 0.4033 0.038 Uiso 0.56(2) 1 calc R . P A 1
H1'B H 0.4422 -0.1818 0.3140 0.038 Uiso 0.56(2) 1 calc R . P A 1
C1B C 0.373(5) -0.200(3) 0.3563(12) 0.032(2) Uani 0.44(2) 1 d . U P A 2
H1BA H 0.4451 -0.1988 0.4077 0.038 Uiso 0.44(2) 1 calc R . P A 2
H1BB H 0.5351 -0.2091 0.3146 0.038 Uiso 0.44(2) 1 calc R . P A 2
O1S O 0.099(5) 0.117(3) 0.6930(12) 0.038(3) Uani 0.60(4) 1 d D . P B 1
H1S H -0.034(11) 0.230(7) 0.680(5) 0.056 Uiso 1 1 d DR . . . .
H1SA H -0.01(2) 0.035(10) 0.696(9) 0.056 Uiso 0.60(4) 1 d DR . P B 1
O1SB O 0.152(6) 0.158(4) 0.6980(19) 0.038(3) Uani 0.40(4) 1 d D . P B 2
H1SB H 0.26(2) 0.244(16) 0.680(13) 0.056 Uiso 0.40(4) 1 d DR . P B 2
loop_
_atom_site_aniso_label
_atom_site_aniso_U_11
_atom_site_aniso_U_22
_atom_site_aniso_U_33
_atom_site_aniso_U_23
_atom_site_aniso_U_13
_atom_site_aniso_U_12
S1 0.0174(6) 0.0281(8) 0.0266(6) -0.0027(5) 0.0022(4) -0.0075(5)
O1 0.023(2) 0.036(3) 0.035(2) -0.0012(17) 0.0055(16) -0.0077(18)
O2 0.0277(19) 0.032(2) 0.0264(19) -0.0023(16) 0.0018(15) -0.0124(17)
O3 0.0202(19) 0.035(2) 0.033(2) -0.0095(16) 0.0049(15) -0.0093(17)
O4 0.032(2) 0.038(3) 0.0318(19) -0.0058(17) 0.0068(16) -0.0183(19)
O5 0.0195(18) 0.030(2) 0.0267(18) -0.0023(15) 0.0024(14) -0.0084(16)
N1 0.019(2) 0.026(3) 0.028(2) -0.0006(18) 0.0008(17) -0.0046(19)
N2 0.015(2) 0.027(3) 0.029(2) -0.0045(18) 0.0033(17) -0.0071(19)
N3 0.015(2) 0.028(3) 0.026(2) -0.0018(17) 0.0020(16) -0.0082(18)
N4 0.021(2) 0.026(3) 0.029(2) -0.0047(19) 0.0033(18) -0.008(2)
C1 0.023(3) 0.033(3) 0.032(3) 0.003(2) 0.003(2) -0.011(2)
C2 0.017(2) 0.031(3) 0.028(3) -0.002(2) 0.001(2) -0.006(2)
C3 0.014(2) 0.033(3) 0.027(3) -0.003(2) 0.0003(19) -0.006(2)
C4 0.014(2) 0.030(3) 0.032(3) -0.003(2) 0.003(2) -0.008(2)
C5 0.017(2) 0.024(3) 0.028(3) -0.003(2) 0.0014(19) -0.004(2)
C6 0.012(2) 0.031(3) 0.031(3) 0.002(2) -0.0024(19) -0.005(2)
C7 0.008(2) 0.026(3) 0.024(2) 0.002(2) -0.0005(18) -0.006(2)
C8 0.011(2) 0.025(3) 0.026(2) 0.003(2) 0.0010(19) -0.004(2)
C9 0.016(2) 0.031(3) 0.023(2) 0.002(2) -0.0011(19) -0.009(2)
C10 0.009(2) 0.027(3) 0.028(2) -0.001(2) 0.0014(19) -0.001(2)
S1' 0.0175(6) 0.0274(8) 0.0265(6) -0.0046(5) 0.0019(4) -0.0059(5)
O2' 0.044(2) 0.030(2) 0.028(2) -0.0012(16) -0.0013(17) 0.007(2)
O3' 0.0195(18) 0.031(2) 0.0282(19) -0.0058(15) 0.0015(14) -0.0068(15)
O4' 0.0215(19) 0.034(2) 0.0269(18) -0.0002(15) 0.0017(14) -0.0108(17)
O5' 0.0221(19) 0.031(2) 0.0287(19) -0.0049(16) 0.0051(15) -0.0097(17)
O1' 0.025(5) 0.029(4) 0.034(4) 0.002(3) 0.004(3) -0.004(3)
O1B 0.027(6) 0.027(4) 0.030(5) 0.000(3) 0.003(4) -0.005(4)
N1' 0.020(2) 0.029(3) 0.024(2) 0.0005(18) 0.0010(17) -0.0043(19)
N2' 0.015(2) 0.024(3) 0.028(2) -0.0015(18) 0.0022(17) -0.0049(18)
N3' 0.022(2) 0.022(2) 0.027(2) -0.0024(17) 0.0020(17) -0.0081(18)
N4' 0.022(2) 0.027(3) 0.027(2) -0.0022(18) 0.0040(18) -0.010(2)
C2' 0.030(3) 0.029(3) 0.025(3) -0.0008(19) 0.004(2) -0.002(2)
C3' 0.016(2) 0.027(3) 0.030(3) 0.000(2) 0.0050(19) -0.007(2)
C4' 0.016(2) 0.026(3) 0.025(2) -0.001(2) 0.0030(19) -0.004(2)
C5' 0.017(2) 0.033(3) 0.027(3) -0.006(2) 0.003(2) -0.003(2)
C6' 0.014(2) 0.029(3) 0.027(3) 0.000(2) -0.0030(19) -0.003(2)
C7' 0.012(2) 0.027(3) 0.023(2) -0.001(2) -0.0021(18) -0.003(2)
C8' 0.012(2) 0.026(3) 0.027(3) 0.001(2) -0.0005(19) -0.004(2)
C9' 0.012(2) 0.025(3) 0.029(3) -0.001(2) 0.0006(19) -0.004(2)
C10' 0.014(2) 0.023(3) 0.027(2) 0.003(2) -0.0019(19) -0.001(2)
C1' 0.028(5) 0.029(3) 0.032(3) -0.001(2) 0.002(4) -0.003(3)
C1B 0.028(5) 0.029(3) 0.032(3) -0.001(2) 0.002(4) -0.003(3)
O1S 0.032(7) 0.036(8) 0.044(4) -0.005(5) 0.005(4) -0.013(4)
O1SB 0.032(7) 0.036(8) 0.044(4) -0.005(5) 0.005(4) -0.013(4)
loop_
_atom_type_symbol
_atom_type_description
_atom_type_scat_dispersion_real
_atom_type_scat_dispersion_imag
_atom_type_scat_source
C C 0.0181 0.0091 'International Tables Vol C Tables 4.2.6.8 and 6.1.1.4'
H H 0.0000 0.0000 'International Tables Vol C Tables 4.2.6.8 and 6.1.1.4'
N N 0.0311 0.0180 'International Tables Vol C Tables 4.2.6.8 and 6.1.1.4'
O O 0.0492 0.0322 'International Tables Vol C Tables 4.2.6.8 and 6.1.1.4'
S S 0.3331 0.5567 'International Tables Vol C Tables 4.2.6.8 and 6.1.1.4'
loop_
_geom_angle_atom_site_label_1
_geom_angle_atom_site_label_2
_geom_angle_atom_site_label_3
_geom_angle
N1 S1 C6 96.4(3)
C1 O1 H1 109.5
C5 O2 C2 108.2(4)
C3 O3 H3 109.5
C4 O4 H4 109.5
C8 N1 S1 108.2(4)
C10 N2 C7 115.3(5)
C9 N3 H3A 117.1
C9 N3 C10 125.8(5)
C10 N3 H3A 117.1
H4A N4 H4B 120.0
C10 N4 H4A 120.0
C10 N4 H4B 120.0
O1 C1 H1A 109.4
O1 C1 H1C 109.4
O1 C1 C2 111.2(5)
H1A C1 H1C 108.0
C2 C1 H1A 109.4
C2 C1 H1C 109.4
O2 C2 C1 108.7(5)
O2 C2 H2 109.2
O2 C2 C3 106.5(4)
C1 C2 H2 109.2
C1 C2 C3 113.8(5)
C3 C2 H2 109.2
O3 C3 C2 110.4(4)
O3 C3 H3B 110.3
O3 C3 C4 110.9(5)
C2 C3 H3B 110.3
C2 C3 C4 104.4(4)
C4 C3 H3B 110.3
O4 C4 C3 111.5(5)
O4 C4 H4C 109.2
O4 C4 C5 115.4(5)
C3 C4 H4C 109.2
C3 C4 C5 102.2(4)
C5 C4 H4C 109.2
O2 C5 C4 102.8(4)
O2 C5 H5 109.7
O2 C5 C6 110.1(5)
C4 C5 H5 109.7
C6 C5 C4 114.6(5)
C6 C5 H5 109.7
C5 C6 S1 123.2(4)
C7 C6 S1 107.6(4)
C7 C6 C5 129.1(6)
N2 C7 C6 125.4(5)
N2 C7 C8 124.7(5)
C6 C7 C8 110.0(5)
N1 C8 C7 117.8(5)
N1 C8 C9 123.2(5)
C7 C8 C9 118.9(5)
O5 C9 N3 121.8(5)
O5 C9 C8 125.9(6)
N3 C9 C8 112.2(5)
N2 C10 N3 123.1(5)
N2 C10 N4 120.4(5)
N4 C10 N3 116.5(5)
N1' S1' C6' 96.0(3)
C2' O2' C5' 109.8(4)
C3' O3' H3' 109.5
C4' O4' H4' 109.5
C1' O1' H1' 109.5
C1B O1B H1B 109.5
C8' N1' S1' 107.6(4)
C10' N2' C7' 115.7(5)
C9' N3' H3'A 117.9
C9' N3' C10' 124.1(5)
C10' N3' H3'A 117.9
H4'A N4' H4'B 120.0
C10' N4' H4'A 120.0
C10' N4' H4'B 120.0
O2' C2' H2'A 112.1
O2' C2' H2' 108.3
O2' C2' C3' 103.8(5)
O2' C2' C1' 106.4(8)
O2' C2' C1B 111.7(8)
C3' C2' H2'A 112.1
C3' C2' H2' 108.3
C3' C2' C1B 104.4(9)
C1' C2' H2' 108.3
C1' C2' C3' 121.1(9)
C1B C2' H2'A 112.1
O3' C3' C2' 115.7(4)
O3' C3' H3'B 108.1
O3' C3' C4' 115.2(4)
C2' C3' H3'B 108.1
C4' C3' C2' 101.3(4)
C4' C3' H3'B 108.1
O4' C4' C3' 109.2(4)
O4' C4' H4'C 111.8
O4' C4' C5' 108.6(4)
C3' C4' H4'C 111.8
C3' C4' C5' 103.2(5)
C5' C4' H4'C 111.8
O2' C5' C4' 106.4(4)
O2' C5' H5' 108.0
O2' C5' C6' 109.2(5)
C4' C5' H5' 108.0
C6' C5' C4' 116.8(5)
C6' C5' H5' 108.0
C5' C6' S1' 123.9(5)
C7' C6' S1' 108.9(4)
C7' C6' C5' 126.8(5)
N2' C7' C8' 122.6(5)
C6' C7' N2' 127.0(5)
C6' C7' C8' 110.4(5)
N1' C8' C7' 117.0(5)
N1' C8' C9' 122.2(5)
C7' C8' C9' 120.7(5)
O5' C9' N3' 121.0(5)
O5' C9' C8' 126.5(5)
N3' C9' C8' 112.6(4)
N2' C10' N3' 124.1(5)
N2' C10' N4' 120.8(5)
N4' C10' N3' 115.0(5)
O1' C1' C2' 111.1(12)
O1' C1' H1'A 109.4
O1' C1' H1'B 109.4
C2' C1' H1'A 109.4
C2' C1' H1'B 109.4
H1'A C1' H1'B 108.0
O1B C1B C2' 108.6(13)
O1B C1B H1BA 110.0
O1B C1B H1BB 110.0
C2' C1B H1BA 110.0
C2' C1B H1BB 110.0
H1BA C1B H1BB 108.4
H1S O1S H1SA 103(4)
H1S O1SB H1SB 99(4)
loop_
_geom_bond_atom_site_label_1
_geom_bond_atom_site_label_2
_geom_bond_distance
S1 N1 1.651(5)
S1 C6 1.711(6)
O1 H1 0.8400
O1 C1 1.422(7)
O2 C2 1.446(7)
O2 C5 1.431(7)
O3 H3 0.8400
O3 C3 1.431(7)
O4 H4 0.8400
O4 C4 1.408(8)
O5 C9 1.219(7)
N1 C8 1.320(8)
N2 C7 1.383(7)
N2 C10 1.326(7)
N3 H3A 0.8800
N3 C9 1.376(8)
N3 C10 1.379(7)
N4 H4A 0.8800
N4 H4B 0.8800
N4 C10 1.331(8)
C1 H1A 0.9900
C1 H1C 0.9900
C1 C2 1.508(9)
C2 H2 1.0000
C2 C3 1.526(8)
C3 H3B 1.0000
C3 C4 1.528(8)
C4 H4C 1.0000
C4 C5 1.539(8)
C5 H5 1.0000
C5 C6 1.483(8)
C6 C7 1.395(8)
C7 C8 1.409(7)
C8 C9 1.469(7)
S1' N1' 1.651(5)
S1' C6' 1.696(6)
O2' C2' 1.428(7)
O2' C5' 1.435(8)
O3' H3' 0.8400
O3' C3' 1.394(7)
O4' H4' 0.8400
O4' C4' 1.425(6)
O5' C9' 1.228(7)
O1' H1' 0.8400
O1' C1' 1.414(17)
O1B H1B 0.8400
O1B C1B 1.43(2)
N1' C8' 1.336(8)
N2' C7' 1.399(7)
N2' C10' 1.307(8)
N3' H3'A 0.8800
N3' C9' 1.378(7)
N3' C10' 1.391(7)
N4' H4'A 0.8800
N4' H4'B 0.8800
N4' C10' 1.344(8)
C2' H2'A 1.0000
C2' H2' 1.0000
C2' C3' 1.541(9)
C2' C1' 1.460(17)
C2' C1B 1.63(2)
C3' H3'B 1.0000
C3' C4' 1.540(8)
C4' H4'C 1.0000
C4' C5' 1.551(8)
C5' H5' 1.0000
C5' C6' 1.504(7)
C6' C7' 1.361(8)
C7' C8' 1.403(7)
C8' C9' 1.451(8)
C1' H1'A 0.9900
C1' H1'B 0.9900
C1B H1BA 0.9900
C1B H1BB 0.9900
O1S H1S 0.93(3)
O1S H1SA 0.94(3)
O1SB H1S 0.96(3)
O1SB H1SB 0.94(3)
loop_
_geom_hbond_atom_site_label_D
_geom_hbond_atom_site_label_H
_geom_hbond_atom_site_label_A
_geom_hbond_distance_DH
_geom_hbond_distance_HA
_geom_hbond_distance_DA
_geom_hbond_angle_DHA
_geom_hbond_site_symmetry_A
O1 H1 O1S 0.84 2.01 2.80(2) 155.2 1_455
O1 H1 O1SB 0.84 2.07 2.85(3) 155.5 1_455
O4 H4 N2 0.84 1.95 2.713(6) 151.3 .
N3 H3A N1' 0.88 2.07 2.894(6) 156.3 1_356
N4 H4A O1SB 0.88 1.96 2.81(3) 162.4 1_445
N4 H4B O5' 0.88 1.94 2.824(6) 177.0 1_356
O3' H3' O3 0.84 2.10 2.783(5) 138.0 .
O4' H4' O1 0.84 1.95 2.791(6) 174.1 1_645
O1' H1' N2' 0.84 2.02 2.798(10) 153.6 1_565
N3' H3'A N1 0.88 2.02 2.861(7) 159.0 1_644
N4' H4'B O5 0.88 1.94 2.818(6) 171.7 1_644
O1S H1S O4 0.93(3) 1.94(3) 2.833(18) 161(7) 1_565
O1SB H1S O4 0.96(3) 1.94(3) 2.89(3) 166(7) 1_565
