#------------------------------------------------------------------------------
#$Date: 2019-11-25 06:40:48 +0200 (Mon, 25 Nov 2019) $
#$Revision: 240260 $
#$URL: file:///home/coder/svn-repositories/cod/cif/4/12/95/4129563.cif $
#------------------------------------------------------------------------------
#
# This file is available in the Crystallography Open Database (COD),
# http://www.crystallography.net/
#
# All data on this site have been placed in the public domain by the
# contributors.
#
data_4129563
loop_
_publ_author_name
'Tian, Di'
'Winter, Stephen M.'
'Mailman, Aaron'
'Wong, Joanne W. L.'
'Yong, Wenjun'
'Yamaguchi, Hiroshi'
'Jia, Yating'
'Tse, John S.'
'Desgreniers, Serge'
'Secco, Richard A.'
'Julian, Stephen R.'
'Jin, Changqing'
'Mito, Masaki'
'Ohishi, Yasuo'
'Oakley, Richard T.'
_publ_section_title
;
 The metallic state in neutral radical conductors: dimensionality,
 pressure and multiple orbital effects.
;
_journal_issue                   44
_journal_name_full               'Journal of the American Chemical Society'
_journal_page_first              14136
_journal_page_last               14148
_journal_paper_doi               10.1021/jacs.5b08254
_journal_volume                  137
_journal_year                    2015
_chemical_formula_moiety         'C6 F N2 O S4'
_chemical_formula_sum            'C6 F N2 O S4'
_chemical_formula_weight         263.32
_chemical_name_common            FBBO
_space_group_IT_number           36
_space_group_name_Hall           'C 2c -2'
_space_group_name_H-M_alt        'C m c 21'
_symmetry_cell_setting           orthorhombic
_symmetry_space_group_name_H-M   'C m c 21'
_audit_creation_date             2015-03-11T14:45
_audit_creation_method           'from EXP file using GSAS2CIF'
_audit_update_record
' 2015-03-11T14:45  Initial CIF as created by GSAS2CIF'
_cell_angle_alpha                90.0
_cell_angle_beta                 90.0
_cell_angle_gamma                90.0
_cell_formula_units_Z            4
_cell_length_a                   5.79339(7)
_cell_length_b                   7.6413(6)
_cell_length_c                   15.345(4)
_cell_measurement_temperature    293(2)
_cell_volume                     679.31(19)
_computing_structure_refinement  GSAS
_diffrn_ambient_temperature      293(2)
_diffrn_measurement_device_type  'SPring-8 BL10XU'
_diffrn_radiation_polarisn_ratio 0.95
_diffrn_radiation_probe          x-ray
_diffrn_radiation_wavelength     0.41244
_diffrn_source                   synchrotron
_exptl_absorpt_correction_T_max  1.00000
_exptl_absorpt_correction_T_min  1.00000
_exptl_absorpt_process_details
;   GSAS Absorption/surface roughness correction: function number 0
 No correction is applied.
;
_pd_block_id                     'SPring-8 PXRD for 2 (R = F) at 4.3 GPa'
_pd_calc_method                  'Rietveld Refinement'
_pd_instr_location               ' ?'
_pd_meas_2theta_range_inc        0.01
_pd_meas_2theta_range_max        28.23
_pd_meas_2theta_range_min        1.0
_pd_meas_number_of_points        2724
_pd_phase_name
'from C:/GSAS/MyWork/FBBO/FBBO_009b2_flat_fix.cif'
_pd_proc_2theta_range_inc        0.01
_pd_proc_2theta_range_max        28.22913
_pd_proc_2theta_range_min        0.99913
_pd_proc_info_datetime           2015-03-11T14:45:56
_pd_proc_info_excluded_regions   ' ?'
_pd_proc_ls_background_function
;   GSAS Background function number 1 with  8 terms.
 Shifted Chebyshev function of 1st kind
      1:    18263.5     2:    8780.49     3:   -1107.48     4:   -185.958    
      5:   -31.4429     6:   -7.40939     7:   -100.359     8:   -88.3740    
;
_pd_proc_ls_peak_cutoff          0.00100
_pd_proc_ls_profile_function
;
 CW Profile function number 2 with  18 terms
 Profile coefficients for Simpson's rule integration of pseudovoigt function
 C.J. Howard (1982). J. Appl. Cryst.,15,615-620.
 P. Thompson, D.E. Cox & J.B. Hastings (1987). J. Appl. Cryst.,20,79-83.
 #1(GU)   = 1755.900 #2(GV)   = -206.950 #3(GW)   =    8.269
 #4(LX)   =    1.313 #5(LY)   =    3.436 #6(trns) =    4.450
 #7(asym) =  -0.0562 #8(shft) =  -0.6137 #9(GP)   =    0.000
 #10(stec)=   299.16 #11(ptec)=     0.00 #12(sfec)=     0.00
 #13(L11) =    0.000 #14(L22) =    0.006 #15(L33) =    0.000
 #16(L12) =    0.006 #17(L13) =    0.004 #18(L23) =   -0.029
 Peak tails are ignored  where the intensity is below 0.0010 times the peak
   Aniso. broadening axis   0.0   0.0   1.0
;
_pd_proc_ls_prof_R_factor        0.0044
_pd_proc_ls_prof_wR_expected     0.0072
_pd_proc_ls_prof_wR_factor       0.0063
_pd_proc_number_of_points        2724
_pd_spec_mounting                ' ?'
_refine_ls_goodness_of_fit_all   0.89
_refine_ls_matrix_type           full
_refine_ls_number_parameters     36
_refine_ls_number_restraints     0
_refine_ls_R_Fsqd_factor         0.19760
_refine_ls_shift/su_max          0.03
_refine_ls_shift/su_mean         0.01
_reflns_d_resolution_high        1.319
_reflns_d_resolution_low         4.617
_reflns_limit_h_max              4
_reflns_limit_h_min              0
_reflns_limit_k_max              6
_reflns_limit_k_min              0
_reflns_limit_l_max              12
_reflns_limit_l_min              0
_reflns_number_total             97
_cod_data_source_file            ja5b08254_si_004.cif
_cod_data_source_block           2(R=F)_at_4.3GPa
_cod_depositor_comments
;
The following automatic conversions were performed:

data item '_geom_angle_publ_flag' value 'N' was changed to 'n' in
accordance with the
/home/saulius/struct/COD-crude-data/automatic-downloads/DataCite-retrospective/ACS/depositions/lib/dictionaries/cif_core.dic
dictionary named 'cif_core.dic' version 2.4.2 last updated on
2011-04-26 (24 times).

data item '_geom_bond_publ_flag' value 'N' was changed to 'n' in
accordance with the
/home/saulius/struct/COD-crude-data/automatic-downloads/DataCite-retrospective/ACS/depositions/lib/dictionaries/cif_core.dic
dictionary named 'cif_core.dic' version 2.4.2 last updated on
2011-04-26 (40 times).

Automatic conversion script
Id: cif_fix_values 6909 2019-04-08 15:41:33Z antanas 
;
_cod_original_cell_volume        679.29(16)
_cod_database_code               4129563
_gsas_exptl_extinct_corr_t_min   1.00000
_gsas_exptl_extinct_corr_t_max   1.00000
loop_
_symmetry_equiv_pos_site_id
_symmetry_equiv_pos_as_xyz
1 +x,+y,+z
2 -x,+y,+z
3 +x,-y,+z+1/2
4 -x,-y,+z+1/2
101 +x+1/2,+y+1/2,+z
102 -x+1/2,+y+1/2,+z
103 +x+1/2,-y+1/2,+z+1/2
104 -x+1/2,-y+1/2,+z+1/2
loop_
_atom_site_type_symbol
_atom_site_label
_atom_site_fract_x
_atom_site_fract_y
_atom_site_fract_z
_atom_site_occupancy
_atom_site_thermal_displace_type
_atom_site_U_iso_or_equiv
_atom_site_symmetry_multiplicity
S S1 0.0 1.1415 0.94916 1.0 Uiso 0.00032 4
S S4 0.0 0.48368 0.59044 1.0 Uiso 0.00032 4
F F1 0.0 0.51339 0.90231 1.0 Uiso 0.00032 4
O O1 0.0 1.04389 0.66443 1.0 Uiso 0.00032 4
N N1 0.0 1.11847 0.84349 1.0 Uiso 0.00032 4
N N2 0.0 0.69294 0.6097 1.0 Uiso 0.00032 4
C C6 0.0 0.95782 0.81371 1.0 Uiso 0.00032 4
C C3 0.0 0.60405 0.75723 1.0 Uiso 0.00032 4
C C4 0.0 0.64642 0.84472 1.0 Uiso 0.00032 4
C C2 0.0 0.73683 0.69336 1.0 Uiso 0.00032 4
C C5 0.0 0.8162 0.87459 1.0 Uiso 0.00032 4
S S2 0.0 0.87537 0.98409 1.0 Uiso 0.00032 4
S S3 0.0 0.38972 0.71932 1.0 Uiso 0.00032 4
C C1 0.0 0.92672 0.7177 1.0 Uiso 0.00032 4
loop_
_atom_type_symbol
_atom_type_number_in_cell
_atom_type_scat_dispersion_real
_atom_type_scat_dispersion_imag
_atom_type_scat_Cromer_Mann_a1
_atom_type_scat_Cromer_Mann_a2
_atom_type_scat_Cromer_Mann_a3
_atom_type_scat_Cromer_Mann_a4
_atom_type_scat_Cromer_Mann_b1
_atom_type_scat_Cromer_Mann_b2
_atom_type_scat_Cromer_Mann_b3
_atom_type_scat_Cromer_Mann_b4
_atom_type_scat_Cromer_Mann_c
_atom_type_scat_source
S 16.0 0.000 0.000 6.90530 1.46790 5.20340 22.2151 1.43790 0.25360 1.58630
56.1720 0.86690 International_Tables_Vol_C
F 4.0 0.000 0.000 3.53920 10.2825 2.64120 4.29440 1.51700 0.26150 1.02430
26.1476 0.27760 International_Tables_Vol_C
O 4.0 0.000 0.000 3.04850 13.2771 2.28680 5.70110 1.54630 0.32390 0.86700
32.9089 0.25080 International_Tables_Vol_C
N 8.0 0.000 0.000 12.2126 0.00570 3.13220 9.89330 2.01250 28.9975 1.16630
0.58260 -11.529 International_Tables_Vol_C
C 24.0 0.000 0.000 2.31000 20.8439 1.02000 10.2075 1.58860 0.56870 0.86500
51.6512 0.21560 International_Tables_Vol_C
loop_
_geom_angle_atom_site_label_1
_geom_angle_atom_site_label_2
_geom_angle_atom_site_label_3
_geom_angle
_geom_angle_site_symmetry_1
_geom_angle_site_symmetry_3
_geom_angle_publ_flag
N1 S1 S2 98.572(6) 1_555 1_555 n
N2 S4 S3 99.481(8) 1_555 1_555 n
S1 N1 C6 116.6122(35) 1_555 1_555 n
S4 N2 C2 115.1128(10) 1_555 1_555 n
N1 C6 C5 118.779(13) 1_555 1_555 n
N1 C6 C1 119.5813(27) 1_555 1_555 n
C5 C6 C1 121.640(10) 1_555 1_555 n
C4 C3 C2 120.450(11) 1_555 1_555 n
C4 C3 S3 123.1134(14) 1_555 1_555 n
C2 C3 S3 116.437(13) 1_555 1_555 n
F1 C4 C3 117.444(11) 1_555 1_555 n
F1 C4 C5 119.539(13) 1_555 1_555 n
C3 C4 C5 123.0169(14) 1_555 1_555 n
N2 C2 C3 119.367(12) 1_555 1_555 n
N2 C2 C1 119.0759 1_555 1_555 n
C3 C2 C1 121.557(12) 1_555 1_555 n
C6 C5 C4 119.738(13) 1_555 1_555 n
C6 C5 S2 115.743(12) 1_555 1_555 n
C4 C5 S2 124.5191(10) 1_555 1_555 n
S1 S2 C5 90.295(8) 1_555 1_555 n
S4 S3 C3 89.602(10) 1_555 1_555 n
O1 C1 C6 123.233(10) 1_555 1_555 n
O1 C1 C2 123.169(12) 1_555 1_555 n
C6 C1 C2 113.5980(13) 1_555 1_555 n
loop_
_geom_bond_atom_site_label_1
_geom_bond_atom_site_label_2
_geom_bond_distance
_geom_bond_site_symmetry_2
_geom_bond_publ_flag
S1 N1 1.6310(4) 1_555 n
S1 C6 2.5080(5) 1_555 n
S1 S2 2.10303(15) 1_555 n
S4 N2 1.62610(12) 1_555 n
S4 C2 2.49722(29) 1_555 n
S4 S3 2.1040(5) 1_555 n
F1 C3 2.3315(6) 1_555 n
F1 C4 1.34695(16) 1_555 n
F1 C5 2.35264(17) 1_555 n
O1 C1 1.21236(15) 1_555 n
N1 S1 1.6310(4) 1_555 n
N1 C6 1.30987(10) 1_555 n
N2 S4 1.62610(12) 1_555 n
N2 C2 1.32685(33) 1_555 n
C6 S1 2.5080(5) 1_555 n
C6 N1 1.30987(10) 1_555 n
C6 C5 1.42962(17) 1_555 n
C6 C1 1.4923(4) 1_555 n
C3 F1 2.3315(6) 1_555 n
C3 C4 1.38102(34) 1_555 n
C3 C2 1.41068(19) 1_555 n
C3 S3 1.73801(13) 1_555 n
C4 F1 1.34695(16) 1_555 n
C4 C3 1.38102(34) 1_555 n
C4 C5 1.37593(10) 1_555 n
C2 S4 2.49722(29) 1_555 n
C2 N2 1.32685(33) 1_555 n
C2 C3 1.41068(19) 1_555 n
C2 C1 1.49831(11) 1_555 n
C5 F1 2.35264(17) 1_555 n
C5 C6 1.42962(17) 1_555 n
C5 C4 1.37593(10) 1_555 n
C5 S2 1.7400(4) 1_555 n
S2 S1 2.10303(15) 1_555 n
S2 C5 1.7400(4) 1_555 n
S3 S4 2.1040(5) 1_555 n
S3 C3 1.73801(13) 1_555 n
C1 O1 1.21236(15) 1_555 n
C1 C6 1.4923(4) 1_555 n
C1 C2 1.49831(11) 1_555 n
loop_
_pd_meas_counts_total
_pd_proc_ls_weight
_pd_proc_intensity_bkg_calc
_pd_calc_intensity_total
0.0 0.0 16124.88086 .
0.0 0.0 16002.54199 .
0.0 0.0 15881.42480 .
0.0 0.0 15761.51660 .
0.0 0.0 15642.80859 .
0.0 0.0 15525.29688 .
0.0 0.0 15408.97168 .
0.0 0.0 15293.82031 .
0.0 0.0 15179.84082 .
0.0 0.0 15067.02344 .
0.0 0.0 14955.36035 .
0.0 0.0 14844.84375 .
0.0 0.0 14735.46484 .
0.0 0.0 14627.21582 .
0.0 0.0 14520.08984 .
0.0 0.0 14414.07715 .
0.0 0.0 14309.17285 .
0.0 0.0 14205.36914 .
0.0 0.0 14102.65332 .
0.0 0.0 14001.02344 .
0.0 0.0 13900.46973 .
0.0 0.0 13800.98633 .
0.0 0.0 13702.56250 .
0.0 0.0 13605.19629 .
0.0 0.0 13508.87402 .
0.0 0.0 13413.59277 .
0.0 0.0 13319.33984 .
0.0 0.0 13226.11523 .
0.0 0.0 13133.90723 .
0.0 0.0 13042.70898 .
0.0 0.0 12952.51563 .
0.0 0.0 12863.31348 .
0.0 0.0 12775.10352 .
0.0 0.0 12687.87500 .
0.0 0.0 12601.62207 .
0.0 0.0 12516.33594 .
0.0 0.0 12432.01270 .
0.0 0.0 12348.64063 .
0.0 0.0 12266.21777 .
0.0 0.0 12184.73438 .
0.0 0.0 12104.18457 .
0.0 0.0 12024.55859 .
0.0 0.0 11945.85547 .
0.0 0.0 11868.06738 .
0.0 0.0 11791.18164 .
0.0 0.0 11715.19629 .
0.0 0.0 11640.10840 .
0.0 0.0 11565.90430 .
0.0 0.0 11492.58105 .
0.0 0.0 11420.13086 .
0.0 0.0 11348.54785 .
0.0 0.0 11277.82715 .
0.0 0.0 11207.96094 .
0.0 0.0 11138.94336 .
0.0 0.0 11070.76758 .
0.0 0.0 11003.42578 .
0.0 0.0 10936.91406 .
0.0 0.0 10871.22559 .
0.0 0.0 10806.35547 .
0.0 0.0 10742.29590 .
0.0 0.0 10679.04004 .
0.0 0.0 10616.58301 .
0.0 0.0 10554.92090 .
0.0 0.0 10494.04297 .
0.0 0.0 10433.94629 .
0.0 0.0 10374.62598 .
0.0 0.0 10316.07324 .
0.0 0.0 10258.28418 .
0.0 0.0 10201.25195 .
0.0 0.0 10144.96973 .
0.0 0.0 10089.43555 .
0.0 0.0 10034.63965 .
0.0 0.0 9980.57910 .
0.0 0.0 9927.24609 .
0.0 0.0 9874.63672 .
0.0 0.0 9822.74414 .
0.0 0.0 9771.56348 .
0.0 0.0 9721.08887 .
2741.0 0.0 9671.31543 .
2744.0 0.0 9622.23633 .
2775.0 0.0 9573.84766 .
2798.0 0.0 9526.14355 .
2822.0 0.0 9479.11719 .
2856.0 0.0 9432.76367 .
2886.0 0.0 9387.08008 .
2903.0 0.0 9342.05859 .
2940.0 0.0 9297.69434 .
2976.0 0.0 9253.98438 .
3011.0 0.0 9210.91895 .
3058.0 0.0 9168.49707 .
3093.0 0.0 9126.71191 .
3125.0 0.0 9085.55762 .
3155.0 0.0 9045.03027 .
3196.0 0.0 9005.12598 .
3248.0 0.0 8965.83594 .
3280.0 0.0 8927.16016 .
3303.0 0.0 8889.08789 .
3328.0 0.0 8851.61914 .
3376.0 0.0 8814.74707 .
3421.0 0.0 8778.46680 .
3456.0 0.0 8742.77246 .
3490.0 0.0 8707.66113 .
3533.0 0.0 8673.12793 .
3567.0 0.0 8639.16602 .
3618.0 0.0 8605.77148 .
3657.0 0.0 8572.94141 .
3699.0 0.0 8540.66992 .
3737.0 0.0 8508.95117 .
3763.0 0.0 8477.78320 .
3799.0 0.0 8447.15820 .
3846.0 0.0 8417.07324 .
3879.0 0.0 8387.52441 .
3923.0 0.0 8358.50684 .
3969.0 0.0 8330.01367 .
4015.0 0.0 8302.04297 .
4054.0 0.0 8274.59180 .
4084.0 0.0 8247.65234 .
4123.0 0.0 8221.22266 .
4155.0 0.0 8195.29785 .
4182.0 0.0 8169.87012 .
4217.0 0.0 8144.94141 .
4259.0 0.0 8120.50293 .
4307.0 0.0 8096.55127 .
4352.0 0.0 8073.08350 .
4387.0 0.0 8050.09375 .
4426.0 0.0 8027.57910 .
4465.0 0.0 8005.53418 .
4504.0 0.0 7983.95654 .
4556.0 0.0 7962.84082 .
4610.0 0.0 7942.18359 .
4660.0 0.0 7921.98096 .
4708.0 0.0 7902.22803 .
4743.0 0.0 7882.92139 .
4770.0 0.0 7864.05518 .
4824.0 0.0 7845.62891 .
4882.0 0.0 7827.63721 .
4921.0 0.0 7810.07520 .
4960.0 0.0 7792.94043 .
4981.0 0.0 7776.22754 .
5016.0 0.0 7759.93457 .
5059.0 0.0 7744.05615 .
5091.0 0.0 7728.58936 .
5153.0 0.0 7713.52930 .
5193.0 0.0 7698.87402 .
5236.0 0.0 7684.61865 .
5270.0 0.0 7670.75977 .
5308.0 0.0 7657.29443 .
5352.0 0.0 7644.21729 .
5395.0 0.0 7631.52686 .
5425.0 0.0 7619.21631 .
5462.0 0.0 7607.28613 .
5499.0 0.0 7595.73047 .
5541.0 0.0 7584.54639 .
5570.0 0.0 7573.73047 .
5613.0 0.0 7563.27930 .
5636.0 0.0 7553.18848 .
5667.0 0.0 7543.45410 .
5696.0 0.0 7534.07568 .
5727.0 0.0 7525.04736 .
5752.0 0.0 7516.36768 .
5798.0 0.0 7508.03125 .
5821.0 0.0 7500.03564 .
5855.0 0.0 7492.37793 .
5877.0 0.0 7485.05420 .
5927.0 0.0 7478.06152 .
5958.0 0.0 7471.39600 .
5969.0 0.0 7465.05664 .
5999.0 0.0 7459.03809 .
6031.0 0.0 7453.33789 .
6042.0 0.0 7447.95313 .
6076.0 0.0 7442.88037 .
6088.0 0.0 7438.11621 .
6125.0 0.0 7433.65869 .
6149.0 0.0 7429.50293 .
6152.0 0.0 7425.64697 .
6158.0 0.0 7422.08936 .
6160.0 0.0 7418.82471 .
6181.0 0.0 7415.85107 .
6221.0 0.0 7413.16553 .
6250.0 0.0 7410.76465 .
6260.0 0.0 7408.64502 .
6290.0 0.0 7406.80566 .
6331.0 0.0 7405.24316 .
6345.0 0.0 7403.95361 .
6358.0 0.0 7402.93506 .
6386.0 0.0 7402.18408 .
6394.0 0.0 7401.69824 .
6417.0 0.0 7401.47363 .
6440.0 0.0 7401.51074 .
6461.0 0.0 7401.80273 .
6487.0 0.0 7402.34961 .
6498.0 0.0 7403.14844 .
6516.0 0.0 7404.19580 .
6554.0 0.0 7405.48975 .
6574.0 0.0 7407.02686 .
6601.0 0.0 7408.80518 .
6624.0 0.0 7410.82031 .
6641.0 0.0 7413.07227 .
6657.0 0.0 7415.55762 .
6656.0 0.0 7418.27393 .
6675.0 0.0 7421.21826 .
6697.0 0.0 7424.38818 .
6719.0 0.0 7427.78125 .
6770.0 0.0 7431.39355 .
6805.0 0.0 7435.22559 .
6857.0 0.0 7439.27344 .
6933.0 0.0 7443.53467 .
6997.0 0.0 7448.00732 .
7024.0 0.0 7452.68799 .
7007.0 0.0 7457.57520 .
6960.0 0.0 7462.66553 .
6930.0 0.0 7467.95850 .
6907.0 0.0 7473.45068 .
6944.0 0.0 7479.13965 .
6964.0 0.0 7485.02393 .
6998.0 0.0 7491.10059 .
7004.0 0.0 7497.36768 .
7010.0 0.0 7503.82275 .
7025.0 0.0 7510.46387 .
7032.0 0.0 7517.28711 .
7063.0 0.0 7524.29346 .
7073.0 0.0 7531.47949 .
7094.0 0.0 7538.84229 .
7124.0 0.0 7546.38037 .
7129.0 0.0 7554.09180 .
7162.0 0.0 7561.97412 .
7188.0 0.0 7570.02393 .
7190.0 0.0 7578.24170 .
7208.0 0.0 7586.62451 .
7228.0 0.0 7595.17041 .
7244.0 0.0 7603.87646 .
7276.0 0.0 7612.74170 .
7300.0 0.0 7621.76367 .
7323.0 0.0 7630.93945 .
7330.0 0.0 7640.26953 .
7339.0 0.0 7649.75049 .
7366.0 0.0 7659.38037 .
7391.0 0.0 7669.15771 .
7415.0 0.0 7679.08008 .
7444.0 0.0 7689.14648 .
7454.0 0.0 7699.35400 .
7458.0 0.0 7709.70166 .
7475.0 0.0 7720.18604 .
7508.0 0.0 7730.80762 .
7528.0 0.0 7741.56396 .
7542.0 0.0 7752.45264 .
7566.0 0.0 7763.47266 .
7584.0 0.0 7774.62109 .
7602.0 0.0 7785.89746 .
7612.0 0.0 7797.29785 .
7624.0 0.0 7808.82373 .
7652.0 0.0 7820.47217 .
7667.0 0.0 7832.24072 .
7692.0 0.0 7844.12842 .
7705.0 0.0 7856.13330 .
7723.0 0.0 7868.25439 .
7731.0 0.0 7880.48779 .
7745.0 0.0 7892.83496 .
7765.0 0.0 7905.29297 .
7786.0 0.0 7917.86035 .
7796.0 0.0 7930.53564 .
7814.0 0.0 7943.31738 .
7837.0 0.0 7956.20313 .
7855.0 0.0 7969.19238 .
7887.0 0.0 7982.28320 .
7894.0 0.0 7995.47412 .
7910.0 0.0 8008.76270 .
7943.0 0.0 8022.14941 .
7937.0 0.0 8035.63184 .
7949.0 0.0 8049.20898 .
7978.0 0.0 8062.87842 .
8001.0 0.0 8076.63965 .
8024.0 0.0 8090.49072 .
8044.0 0.0 8104.42969 .
8060.0 0.0 8118.45654 .
8079.0 0.0 8132.56982 .
8095.0 0.0 8146.76709 .
8122.0 0.0 8161.04785 .
8124.0 0.0 8175.41064 .
8146.0 0.0 8189.85400 .
8169.0 0.0 8204.37500 .
8197.0 0.0 8218.97559 .
8221.0 0.0 8233.65332 .
8219.0 0.0 8248.40527 .
8237.0 0.0 8263.23242 .
8262.0 0.0 8278.13184 .
8264.0 0.0 8293.10352 .
8282.0 0.0 8308.14355 .
8315.0 0.0 8323.25586 .
8334.0 0.0 8338.43359 .
8365.0 0.0 8353.67969 .
8367.0 0.0 8368.99121 .
8376.0 0.0 8384.36816 .
8402.0 0.0 8399.80762 .
8417.0 0.0 8415.30957 .
8434.0 0.0 8430.87207 .
8454.0 0.0 8446.49316 .
8456.0 0.0 8462.17578 .
8478.0 0.0 8477.91504 .
8491.0 0.0 8493.71094 .
8523.0 0.0 8509.56250 .
8546.0 0.0001170 8525.46973 8525.77832
8564.0 0.0001168 8541.42871 8541.73633
8595.0 0.0001163 8557.44043 8557.74805
8598.0 0.0001163 8573.50488 8573.81055
8626.0 0.0001159 8589.61816 8589.92383
8643.0 0.0001157 8605.78125 8606.08594
8650.0 0.0001156 8621.99316 8622.29785
8684.0 0.0001152 8638.25195 8638.55664
8679.0 0.0001152 8654.55762 8654.86230
8689.0 0.0001151 8670.90820 8671.21289
8719.0 0.0001147 8687.30371 8687.60840
8730.0 0.0001145 8703.74219 8704.04688
8757.0 0.0001142 8720.22461 8720.52930
8779.0 0.0001139 8736.74707 8737.05273
8801.0 0.0001136 8753.31055 8753.61719
8817.0 0.0001134 8769.91406 8770.22070
8842.0 0.0001131 8786.55664 8786.86328
8855.0 0.0001129 8803.23730 8803.54492
8861.0 0.0001129 8819.95508 8820.26367
8877.0 0.0001127 8836.70801 8837.01660
8916.0 0.0001122 8853.49805 8853.80762
8924.0 0.0001121 8870.32129 8870.63281
8940.0 0.0001119 8887.17969 8887.49121
8971.0 0.0001115 8904.06934 8904.38281
8985.0 0.0001113 8920.99219 8921.30566
9003.0 0.0001111 8937.94629 8938.26172
9021.0 0.0001109 8954.92969 8955.24609
9032.0 0.0001107 8971.94336 8972.26172
9066.0 0.0001103 8988.98535 8989.30469
9073.0 0.0001102 9006.05566 9006.37598
9078.0 0.0001102 9023.15332 9023.47559
9116.0 0.0001097 9040.27734 9040.60156
9132.0 0.0001095 9057.42676 9057.75293
9165.0 0.0001091 9074.60254 9074.93066
9175.0 0.0001090 9091.80078 9092.13086
9179.0 0.0001089 9109.02441 9109.35645
9193.0 0.0001088 9126.26953 9126.60352
9221.0 0.0001084 9143.53711 9143.87305
9247.0 0.0001081 9160.82520 9161.16309
9246.0 0.0001082 9178.13574 9178.47559
9272.0 0.0001079 9195.46484 9195.80762
9283.0 0.0001077 9212.81348 9213.16504
9301.0 0.0001075 9230.18066 9230.53516
9324.0 0.0001073 9247.56641 9247.92383
9337.0 0.0001071 9264.96973 9265.32910
9347.0 0.0001070 9282.38965 9282.75293
9371.0 0.0001067 9299.82422 9300.19043
9390.0 0.0001065 9317.27539 9317.64453
9413.0 0.0001062 9334.74121 9335.11328
9447.0 0.0001059 9352.22168 9352.59668
9461.0 0.0001057 9369.71582 9370.09570
9469.0 0.0001056 9387.22168 9387.60449
9476.0 0.0001055 9404.74121 9405.12695
9503.0 0.0001052 9422.27148 9422.66211
9525.0 0.0001050 9439.81348 9440.20703
9542.0 0.0001048 9457.36621 9457.76270
9552.0 0.0001047 9474.92871 9475.33105
9556.0 0.0001046 9492.50098 9492.90625
9584.0 0.0001043 9510.08301 9510.49316
9593.0 0.0001042 9527.67188 9528.08594
9603.0 0.0001041 9545.26953 9545.68848
9634.0 0.0001038 9562.87402 9563.29785
9669.0 0.0001034 9580.48730 9580.91602
9686.0 0.0001032 9598.10449 9598.53613
9716.0 0.0001029 9615.72949 9616.61914
9741.0 0.0001027 9633.35840 9634.26563
9757.0 0.0001025 9650.99316 9651.91992
9774.0 0.0001023 9668.63184 9669.57715
9780.0 0.0001022 9686.27441 9687.24121
9800.0 0.0001020 9703.91992 9704.90723
9810.0 0.0001019 9721.56934 9722.58008
9818.0 0.0001019 9739.22070 9740.25488
9832.0 0.0001017 9756.87500 9757.93359
9843.0 0.0001016 9774.53027 9775.61426
9876.0 0.0001013 9792.18652 9793.26074
9897.0 0.0001010 9809.84473 9810.94727
9918.0 0.0001008 9827.50195 9828.63477
9940.0 0.0001006 9845.15918 9846.32227
9958.0 0.0001004 9862.81641 9864.01172
9969.0 0.0001003 9880.47266 9881.70215
9985.0 0.0001002 9898.12695 9899.39258
9973.0 0.0001003 9915.78125 9917.08594
9993.0 0.0001001 9933.43164 9934.77539
10015.0 0.0000999 9951.08008 9952.46680
10035.0 0.0000997 9968.72559 9970.15723
10074.0 0.0000993 9986.36914 9987.84766
10086.0 0.0000991 10004.00781 10005.53613
10103.0 0.0000990 10021.64355 10023.22559
10122.0 0.0000988 10039.27344 10040.91211
10118.0 0.0000988 10056.90039 10058.60059
10143.0 0.0000986 10074.52148 10076.28516
10171.0 0.0000983 10092.13770 10093.97168
10183.0 0.0000982 10109.74805 10111.65625
10189.0 0.0000981 10127.35254 10129.33984
10197.0 0.0000981 10144.95117 10147.02539
10217.0 0.0000979 10162.54297 10164.71094
10246.0 0.0000976 10180.12793 10182.39941
10279.0 0.0000973 10197.70605 10200.09082
10311.0 0.0000970 10215.27539 10217.78320
10338.0 0.0000967 10232.83887 10235.48340
10344.0 0.0000967 10250.39355 10253.19141
10375.0 0.0000964 10267.93945 10270.91113
10393.0 0.0000962 10285.47754 10288.64746
10419.0 0.0000960 10303.00586 10306.41113
10423.0 0.0000959 10320.52637 10324.22656
10439.0 0.0000958 10338.03613 10342.13672
10457.0 0.0000956 10355.53613 10364.24707
10474.0 0.0000955 10373.02734 10382.73340
10482.0 0.0000954 10390.50879 10401.65527
10482.0 0.0000954 10407.97852 10421.05176
10502.0 0.0000952 10425.43848 10440.71484
10536.0 0.0000949 10442.88672 10460.00684
10555.0 0.0000947 10460.32520 10478.02832
10570.0 0.0000946 10477.75195 10494.71680
10586.0 0.0000945 10495.16699 10510.95215
10591.0 0.0000944 10512.57031 10527.44824
10608.0 0.0000943 10529.96289 10544.47461
10632.0 0.0000941 10547.34180 10562.03613
10642.0 0.0000940 10564.70898 10580.04297
10663.0 0.0000938 10582.06348 10598.40625
10683.0 0.0000936 10599.40625 10617.08887
10692.0 0.0000935 10616.73535 10636.10840
10708.0 0.0000934 10634.05176 10655.53613
10728.0 0.0000932 10651.35449 10675.49414
10750.0 0.0000930 10668.64453 10696.18164
10786.0 0.0000927 10685.92090 10717.92773
10813.0 0.0000925 10703.18359 10741.39453
10856.0 0.0000921 10720.43262 10768.17871
10888.0 0.0000918 10737.66602 10802.19824
10937.0 0.0000914 10754.88672 10851.84766
11034.0 0.0000906 10772.09375 10930.87500
11148.0 0.0000897 10789.28516 11053.72070
11274.0 0.0000887 10806.46191 11222.48926
11408.0 0.0000877 10823.62500 11407.11523
11476.0 0.0000871 10840.77246 11526.85156
11465.0 0.0000872 10857.90527 11501.05371
11392.0 0.0000878 10875.02246 11367.25293
11304.0 0.0000885 10892.12500 11220.06641
11212.0 0.0000892 10909.21191 11110.80957
11135.0 0.0000898 10926.28418 11048.81055
11112.0 0.0000900 10943.34082 11023.01660
11096.0 0.0000901 10960.38086 11018.33984
11100.0 0.0000901 10977.40527 11023.94043
11110.0 0.0000900 10994.41504 11034.19629
11114.0 0.0000900 11011.40820 11046.71582
11128.0 0.0000899 11028.38574 11060.53613
11141.0 0.0000898 11045.34570 11075.21484
11158.0 0.0000896 11062.29102 11092.41992
11180.0 0.0000894 11079.21973 11108.22852
11179.0 0.0000895 11096.13281 11124.39453
11194.0 0.0000893 11113.02832 11140.83887
11201.0 0.0000893 11129.90723 11157.51660
11230.0 0.0000890 11146.77051 11174.37891
11250.0 0.0000889 11163.61719 11191.40527
11281.0 0.0000886 11180.44727 11208.57422
11297.0 0.0000885 11197.25977 11225.87109
11323.0 0.0000883 11214.05664 11243.29199
11336.0 0.0000882 11230.83594 11260.83008
11344.0 0.0000882 11247.59863 11278.48145
11358.0 0.0000880 11264.34473 11296.24902
11387.0 0.0000878 11281.07324 11314.13867
11420.0 0.0000876 11297.78516 11332.15234
11409.0 0.0000877 11314.48047 11350.30078
11420.0 0.0000876 11331.15820 11368.59668
11448.0 0.0000874 11347.81934 11387.04883
11468.0 0.0000872 11364.46191 11405.67773
11498.0 0.0000870 11381.08984 11424.50293
11509.0 0.0000869 11397.69922 11443.54785
11519.0 0.0000868 11414.29102 11462.83496
11536.0 0.0000867 11430.86621 11482.40625
11562.0 0.0000865 11447.42480 11502.30176
11596.0 0.0000862 11463.96582 11522.56250
11609.0 0.0000861 11480.48926 11543.25000
11627.0 0.0000860 11496.99512 11565.51367
11647.0 0.0000859 11513.48535 11587.28906
11658.0 0.0000858 11529.95801 11609.74707
11664.0 0.0000857 11546.41211 11633.01660
11704.0 0.0000854 11562.85059 11657.25488
11708.0 0.0000854 11579.27051 11682.65723
11728.0 0.0000853 11595.67383 11709.47754
11754.0 0.0000851 11612.06055 11738.03711
11782.0 0.0000849 11628.42969 11768.74902
11809.0 0.0000847 11644.78125 11802.16113
11807.0 0.0000847 11661.11719 11839.00391
11830.0 0.0000845 11677.43457 11880.27051
11878.0 0.0000842 11693.73633 11927.35938
11927.0 0.0000838 11710.01953 11982.36328
12013.0 0.0000832 11726.28613 12048.70605
12079.0 0.0000828 11742.53613 12132.60938
12204.0 0.0000819 11758.76953 12245.99512
12374.0 0.0000808 11774.98535 12411.15234
12652.0 0.0000790 11791.18457 12665.52637
13095.0 0.0000764 11807.36621 13061.91895
13767.0 0.0000726 11823.53223 13657.29199
14674.0 0.0000681 11839.68164 14484.70020
15732.0 0.0000636 11855.81348 15499.84766
16626.0 0.0000601 11871.92871 16481.38086
16932.0 0.0000591 11888.02832 16973.14063
16591.0 0.0000603 11904.11035 16643.79102
15723.0 0.0000636 11920.17676 15746.92383
14652.0 0.0000683 11936.22656 14756.66113
13781.0 0.0000726 11952.25879 13933.77734
13185.0 0.0000758 11968.27637 13343.53027
12798.0 0.0000781 11984.27637 12961.18457
12565.0 0.0000796 12000.26074 12731.59961
12440.0 0.0000804 12016.22852 12600.54785
12372.0 0.0000808 12032.18164 12528.38965
12324.0 0.0000811 12048.11719 12491.29004
12319.0 0.0000812 12064.03809 12476.87500
12341.0 0.0000810 12079.94141 12479.60254
12369.0 0.0000808 12095.83008 12498.31348
12434.0 0.0000804 12111.70215 12536.83594
12604.0 0.0000793 12127.56055 12608.75488
12885.0 0.0000776 12143.40137 12745.91602
13192.0 0.0000758 12159.22754 13002.92773
13479.0 0.0000742 12175.03711 13439.90527
13838.0 0.0000723 12190.83301 14070.11133
14412.0 0.0000694 12206.61230 14773.64844
15056.0 0.0000664 12222.37695 15204.90918
15240.0 0.0000656 12238.12695 15012.31152
14777.0 0.0000677 12253.86133 14372.87793
13928.0 0.0000718 12269.58105 13696.53809
13193.0 0.0000758 12285.28613 13188.14258
12805.0 0.0000781 12300.97559 12875.77246
12649.0 0.0000791 12316.65039 12709.55176
12576.0 0.0000795 12332.31250 12626.79199
12542.0 0.0000797 12347.95801 12585.06934
12547.0 0.0000797 12363.58984 12562.68750
12539.0 0.0000798 12379.20703 12550.41992
12543.0 0.0000797 12394.81055 12544.41406
12545.0 0.0000797 12410.39941 12542.81836
12542.0 0.0000797 12425.97461 12544.65723
12572.0 0.0000795 12441.53516 12549.87598
12603.0 0.0000793 12457.08301 12560.70898
12601.0 0.0000794 12472.61621 12583.52246
12637.0 0.0000791 12488.13672 12625.28223
12677.0 0.0000789 12503.64258 12679.31934
12704.0 0.0000787 12519.13574 12715.55859
12727.0 0.0000786 12534.61523 12707.45508
12727.0 0.0000786 12550.08203 12674.46094
12747.0 0.0000784 12565.53516 12649.28418
12741.0 0.0000785 12580.97559 12642.58301
12740.0 0.0000785 12596.40234 12648.32031
12745.0 0.0000785 12611.81738 12659.02734
12722.0 0.0000786 12627.21875 12671.24609
12721.0 0.0000786 12642.60840 12684.00879
12759.0 0.0000784 12657.98438 12697.08008
12767.0 0.0000783 12673.34863 12710.39160
12802.0 0.0000781 12688.70117 12723.89355
12808.0 0.0000781 12704.04199 12737.55664
12824.0 0.0000780 12719.37012 12751.35742
12845.0 0.0000779 12734.68555 12765.27246
12864.0 0.0000777 12749.99023 12779.73438
12869.0 0.0000777 12765.28223 12793.86621
12887.0 0.0000776 12780.56348 12808.07910
12911.0 0.0000775 12795.83203 12822.39648
12918.0 0.0000774 12811.09082 12836.74707
12937.0 0.0000773 12826.33789 12851.15332
12951.0 0.0000772 12841.57324 12865.61230
12976.0 0.0000771 12856.79785 12880.11816
12963.0 0.0000771 12872.01172 12894.66992
12988.0 0.0000770 12887.21484 12909.26172
13023.0 0.0000768 12902.40723 12923.89063
13045.0 0.0000767 12917.58887 12938.55762
13051.0 0.0000766 12932.76074 12953.25488
13073.0 0.0000765 12947.92090 12967.98242
13084.0 0.0000764 12963.07324 12982.74609
13111.0 0.0000763 12978.21387 12997.53711
13129.0 0.0000762 12993.34473 13012.36035
13149.0 0.0000761 13008.46484 13027.21484
13152.0 0.0000760 13023.57715 13042.10547
13151.0 0.0000760 13038.67871 13057.03418
13154.0 0.0000760 13053.77148 13072.00098
13174.0 0.0000759 13068.85352 13087.01367
13196.0 0.0000758 13083.92773 13102.10156
13232.0 0.0000756 13098.99316 13117.23633
13256.0 0.0000754 13114.04883 13132.48730
13267.0 0.0000754 13129.09570 13147.80078
13281.0 0.0000753 13144.13281 13163.24219
13306.0 0.0000752 13159.16309 13178.85938
13392.0 0.0000747 13174.18359 13194.70508
13487.0 0.0000741 13189.19629 13212.39746
13532.0 0.0000739 13204.20020 13229.06055
13476.0 0.0000742 13219.19629 13246.42090
13445.0 0.0000744 13234.18457 13265.03125
13436.0 0.0000744 13249.16504 13286.91406
13457.0 0.0000743 13264.13770 13319.56348
13458.0 0.0000743 13279.10254 13383.31445
13495.0 0.0000741 13294.05957 13509.81348
13561.0 0.0000737 13309.00977 13707.80859
13646.0 0.0000733 13323.95215 13907.23730
13721.0 0.0000729 13338.88770 13961.26172
13729.0 0.0000728 13353.81641 13828.47754
13678.0 0.0000731 13368.73828 13645.61914
13618.0 0.0000734 13383.65234 13519.56836
13592.0 0.0000736 13398.56055 13465.52832
13587.0 0.0000736 13413.46191 13454.31543
13581.0 0.0000736 13428.35742 13459.75586
13592.0 0.0000736 13443.24609 13470.29883
13590.0 0.0000736 13458.12891 13482.53418
13582.0 0.0000736 13473.00586 13495.57324
13604.0 0.0000735 13487.87598 13509.10840
13633.0 0.0000734 13502.74121 13522.98438
13651.0 0.0000733 13517.59961 13537.10254
13668.0 0.0000732 13532.45313 13551.39551
13691.0 0.0000730 13547.30078 13565.82227
13705.0 0.0000730 13562.14355 13580.35254
13712.0 0.0000729 13576.98145 13595.14355
13720.0 0.0000729 13591.81348 13609.82129
13718.0 0.0000729 13606.64063 13624.54883
13754.0 0.0000727 13621.46289 13639.32324
13777.0 0.0000726 13636.28027 13654.13477
13787.0 0.0000725 13651.09375 13668.97949
13797.0 0.0000725 13665.90137 13683.85352
13805.0 0.0000724 13680.70605 13698.75586
13812.0 0.0000724 13695.50488 13713.68164
13822.0 0.0000723 13710.30176 13728.63477
13839.0 0.0000723 13725.09277 13743.60645
13868.0 0.0000721 13739.87988 13758.60254
13870.0 0.0000721 13754.66309 13773.56250
13881.0 0.0000720 13769.44336 13788.60254
13920.0 0.0000718 13784.21973 13803.66113
13947.0 0.0000717 13798.99219 13819.28320
13964.0 0.0000716 13813.76172 13834.39355
13978.0 0.0000715 13828.52832 13849.53125
13980.0 0.0000715 13843.29199 13864.74121
14003.0 0.0000714 13858.05078 13879.92871
14014.0 0.0000714 13872.80859 13895.14746
14038.0 0.0000712 13887.56152 13910.39746
14066.0 0.0000711 13902.31348 13925.68066
14093.0 0.0000710 13917.06250 13941.00000
14106.0 0.0000709 13931.80859 13956.35547
14125.0 0.0000708 13946.55176 13971.75195
14135.0 0.0000707 13961.29395 13987.19629
14146.0 0.0000707 13976.03320 14002.68457
14161.0 0.0000706 13990.77051 14018.23145
14166.0 0.0000706 14005.50586 14033.83398
14180.0 0.0000705 14020.23926 14049.49902
14193.0 0.0000705 14034.97070 14065.23340
14213.0 0.0000704 14049.70117 14081.04590
14235.0 0.0000702 14064.42969 14096.94727
14231.0 0.0000703 14079.15625 14112.94238
14256.0 0.0000701 14093.88184 14129.04297
14273.0 0.0000701 14108.60645 14145.26563
14291.0 0.0000700 14123.32910 14161.62207
14310.0 0.0000699 14138.05176 14178.12891
14330.0 0.0000698 14152.77246 14194.81152
14337.0 0.0000697 14167.49316 14211.69336
14358.0 0.0000696 14182.21289 14228.80176
14376.0 0.0000696 14196.93164 14246.17090
14390.0 0.0000695 14211.65039 14263.85059
14413.0 0.0000694 14226.36816 14281.89258
14418.0 0.0000694 14241.08594 14300.35547
14466.0 0.0000691 14255.80273 14319.32715
14484.0 0.0000690 14270.51953 14338.91211
14493.0 0.0000690 14285.23633 14359.24023
14515.0 0.0000689 14299.95313 14380.48730
14528.0 0.0000688 14314.66992 14402.87207
14522.0 0.0000689 14329.38770 14426.68652
14536.0 0.0000688 14344.10449 14452.36914
14566.0 0.0000687 14358.82227 14480.49707
14603.0 0.0000685 14373.54004 14511.94727
14635.0 0.0000683 14388.25977 14548.23242
14648.0 0.0000683 14402.97852 14610.59961
14681.0 0.0000681 14417.69824 14668.21875
14714.0 0.0000680 14432.41895 14748.82422
14743.0 0.0000678 14447.14160 14868.59277
14833.0 0.0000674 14461.86328 15049.18945
14969.0 0.0000668 14476.58789 15311.82910
15253.0 0.0000656 14491.31152 15664.29395
15774.0 0.0000634 14506.03809 16076.63281
16454.0 0.0000608 14520.76465 16439.55469
16863.0 0.0000593 14535.49414 16566.95313
16733.0 0.0000598 14550.22363 16379.91699
16237.0 0.0000616 14564.95508 16021.95020
15651.0 0.0000639 14579.68848 15663.32324
15267.0 0.0000655 14594.42285 15381.56836
15079.0 0.0000663 14609.16016 15190.18262
15012.0 0.0000666 14623.89746 15075.00195
14992.0 0.0000667 14638.63867 15013.78223
14979.0 0.0000668 14653.37988 14986.57813
14979.0 0.0000668 14668.12402 14979.67285
14980.0 0.0000668 14682.87012 14985.20898
15005.0 0.0000666 14697.61914 14999.24707
15026.0 0.0000666 14712.36914 15019.99805
15032.0 0.0000665 14727.12207 15046.78809
15054.0 0.0000664 14741.87695 15079.53516
15069.0 0.0000664 14756.63574 15118.54883
15099.0 0.0000662 14771.39453 15164.45215
15116.0 0.0000662 14786.15820 15218.13379
15150.0 0.0000660 14800.92285 15280.71289
15203.0 0.0000658 14815.69141 15353.51367
15263.0 0.0000655 14830.46191 15437.94434
15312.0 0.0000653 14845.23535 15535.39063
15391.0 0.0000650 14860.01172 15646.85840
15498.0 0.0000645 14874.79102 15772.45605
15643.0 0.0000639 14889.57324 15910.44824
15887.0 0.0000629 14904.35840 16056.00879
16183.0 0.0000618 14919.14648 16199.99609
16479.0 0.0000607 14933.93848 16328.85059
16695.0 0.0000599 14948.73340 16427.20703
16734.0 0.0000598 14963.53223 16483.47266
16638.0 0.0000601 14978.33203 16495.81641
16443.0 0.0000608 14993.13672 16474.00000
16247.0 0.0000615 15007.94531 16435.66016
16142.0 0.0000620 15022.75684 16400.50977
16147.0 0.0000619 15037.57129 16386.74219
16258.0 0.0000615 15052.38965 16411.63281
16494.0 0.0000606 15067.21191 16498.82227
16919.0 0.0000591 15082.03809 16706.32813
17686.0 0.0000565 15096.86621 17216.40820
19141.0 0.0000522 15111.69922 18526.27930
21928.0 0.0000456 15126.53613 21594.52539
27207.0 0.0000368 15141.37695 27435.27734
35583.0 0.0000281 15156.22070 35788.74219
43018.0 0.0000232 15171.06934 43545.22266
45125.0 0.0000222 15185.92188 45088.54688
39844.0 0.0000251 15200.77832 38932.37109
30312.0 0.0000330 15215.63672 30233.19141
22707.0 0.0000440 15230.50098 23298.85742
18924.0 0.0000528 15245.37012 19273.62695
17322.0 0.0000577 15260.24219 17413.71484
16622.0 0.0000602 15275.11816 16643.60938
16272.0 0.0000615 15289.99805 16298.51953
16060.0 0.0000623 15304.88379 16106.55371
15944.0 0.0000627 15319.77246 15979.92676
15870.0 0.0000630 15334.66602 15890.04199
15820.0 0.0000632 15349.56250 15824.52637
15789.0 0.0000633 15364.46387 15776.26172
15757.0 0.0000635 15379.37012 15740.61133
15764.0 0.0000634 15394.28027 15714.39355
15744.0 0.0000635 15409.19434 15695.38672
15736.0 0.0000635 15424.11328 15681.98535
15732.0 0.0000636 15439.03711 15673.01465
15732.0 0.0000636 15453.96484 15667.58984
15741.0 0.0000635 15468.89551 15665.05176
15750.0 0.0000635 15483.83203 15664.88086
15734.0 0.0000636 15498.77344 15666.67676
15739.0 0.0000635 15513.71973 15670.12598
15750.0 0.0000635 15528.66797 15674.96875
15753.0 0.0000635 15543.62305 15681.00879
15771.0 0.0000634 15558.58203 15688.07910
15791.0 0.0000633 15573.54590 15696.04688
15784.0 0.0000634 15588.51270 15704.80176
15803.0 0.0000633 15603.48535 15714.25098
15812.0 0.0000632 15618.46289 15724.32422
15825.0 0.0000632 15633.44531 15734.95801
15845.0 0.0000631 15648.43066 15745.95703
15862.0 0.0000630 15663.42090 15757.58398
15860.0 0.0000631 15678.41699 15769.64941
15871.0 0.0000630 15693.41699 15782.14453
15879.0 0.0000630 15708.42188 15795.04688
15898.0 0.0000629 15723.42969 15808.35449
15894.0 0.0000629 15738.44336 15822.07129
15906.0 0.0000629 15753.46191 15836.21387
15930.0 0.0000628 15768.48535 15850.81152
15957.0 0.0000627 15783.51074 15865.89648
15954.0 0.0000627 15798.54297 15881.54883
15973.0 0.0000626 15813.58008 15897.85547
15984.0 0.0000626 15828.62109 15914.95313
16004.0 0.0000625 15843.66504 15933.04492
16025.0 0.0000624 15858.71582 15952.39160
16043.0 0.0000623 15873.77051 15973.34570
16047.0 0.0000623 15888.83008 15996.35645
16054.0 0.0000623 15903.89258 16021.96777
16070.0 0.0000622 15918.96094 16050.78223
16073.0 0.0000622 15934.03418 16083.43164
16094.0 0.0000621 15949.11133 16120.41504
16114.0 0.0000621 15964.19141 16161.90527
16155.0 0.0000619 15979.27734 16207.25391
16205.0 0.0000617 15994.36816 16254.29492
16273.0 0.0000615 16009.46387 16298.56641
16348.0 0.0000612 16024.56152 16333.50293
16388.0 0.0000610 16039.66504 16352.91699
16386.0 0.0000610 16054.77344 16355.01465
16349.0 0.0000612 16069.88574 16343.89355
16310.0 0.0000613 16085.00195 16326.54785
16279.0 0.0000614 16100.12207 16308.93066
16264.0 0.0000615 16115.24707 16294.43750
16262.0 0.0000615 16130.37598 16284.38770
16263.0 0.0000615 16145.50977 16278.90918
16277.0 0.0000614 16160.64648 16277.59570
16282.0 0.0000614 16175.78809 16279.82910
16311.0 0.0000613 16190.93457 16284.97168
16336.0 0.0000612 16206.08398 16292.42383
16351.0 0.0000612 16221.23730 16301.67773
16378.0 0.0000611 16236.39551 16312.32129
16390.0 0.0000610 16251.55762 16324.03809
16404.0 0.0000610 16266.72363 16336.60059
16416.0 0.0000609 16281.89160 16349.83203
16413.0 0.0000609 16297.06641 16363.62402
16439.0 0.0000608 16312.24316 16377.88867
16454.0 0.0000608 16327.42480 16392.57422
16464.0 0.0000607 16342.60938 16407.63086
16474.0 0.0000607 16357.79785 16423.05664
16488.0 0.0000607 16372.99023 16438.82227
16492.0 0.0000606 16388.18750 16455.61719
16518.0 0.0000605 16403.38477 16472.07227
16533.0 0.0000605 16418.58789 16488.88086
16549.0 0.0000604 16433.79492 16506.06055
16577.0 0.0000603 16449.00586 16523.65234
16574.0 0.0000603 16464.22070 16541.68359
16602.0 0.0000602 16479.43555 16560.63281
16627.0 0.0000601 16494.65625 16579.69141
16639.0 0.0000601 16509.88086 16599.45898
16646.0 0.0000601 16525.10742 16619.82813
16658.0 0.0000600 16540.33594 16640.98438
16669.0 0.0000600 16555.56836 16663.03320
16669.0 0.0000600 16570.80664 16686.11328
16679.0 0.0000600 16586.04492 16710.36133
16686.0 0.0000599 16601.28516 16735.93359
16708.0 0.0000599 16616.53125 16763.01172
16731.0 0.0000598 16631.77930 16792.28906
16754.0 0.0000597 16647.03125 16822.91992
16786.0 0.0000596 16662.28320 16855.58594
16825.0 0.0000594 16677.53906 16890.41602
16862.0 0.0000593 16692.79883 16927.36719
16902.0 0.0000592 16708.06055 16966.58398
16944.0 0.0000590 16723.32227 17007.64844
16973.0 0.0000589 16738.58984 17050.13672
17058.0 0.0000586 16753.85742 17092.69141
17171.0 0.0000582 16769.12891 17134.00391
17299.0 0.0000578 16784.40234 17176.58984
17438.0 0.0000573 16799.67773 17209.52344
17516.0 0.0000571 16814.95508 17235.19922
17545.0 0.0000570 16830.23438 17252.36133
17507.0 0.0000571 16845.51758 17260.75391
17401.0 0.0000575 16860.79883 17261.25781
17332.0 0.0000577 16876.08398 17255.58594
17337.0 0.0000577 16891.37305 17245.82617
17386.0 0.0000575 16906.66211 17234.04297
17468.0 0.0000572 16921.95117 17221.91602
17621.0 0.0000568 16937.24414 17210.65820
17689.0 0.0000565 16952.53711 17201.09570
17749.0 0.0000563 16967.83203 17193.53711
17326.0 0.0000577 16983.12891 17188.17969
17208.0 0.0000581 16998.42578 17184.85547
17179.0 0.0000582 17013.72656 17183.80078
17169.0 0.0000582 17029.02539 17184.67188
17164.0 0.0000583 17044.32617 17187.29688
17171.0 0.0000582 17059.62891 17191.48047
17173.0 0.0000582 17074.93164 17197.06055
17197.0 0.0000581 17090.23633 17203.86133
17209.0 0.0000581 17105.53906 17212.06641
17216.0 0.0000581 17120.84570 17220.86523
17215.0 0.0000581 17136.15234 17230.46484
17239.0 0.0000580 17151.45898 17240.77734
17257.0 0.0000579 17166.76367 17251.69727
17274.0 0.0000579 17182.07227 17263.15430
17292.0 0.0000578 17197.38086 17275.07422
17297.0 0.0000578 17212.68750 17287.40820
17322.0 0.0000577 17227.99609 17300.10938
17328.0 0.0000577 17243.30273 17313.12109
17336.0 0.0000577 17258.61133 17326.87695
17359.0 0.0000576 17273.91992 17340.45313
17373.0 0.0000576 17289.22656 17354.25391
17394.0 0.0000575 17304.53320 17368.26563
17398.0 0.0000575 17319.83984 17382.48438
17394.0 0.0000575 17335.14648 17396.89258
17403.0 0.0000575 17350.45313 17411.51172
17413.0 0.0000574 17365.75586 17426.24023
17428.0 0.0000574 17381.06055 17441.13086
17464.0 0.0000573 17396.36523 17456.16602
17485.0 0.0000572 17411.66797 17471.34766
17495.0 0.0000572 17426.96680 17486.67578
17527.0 0.0000571 17442.26758 17502.15430
17521.0 0.0000571 17457.56836 17517.78320
17533.0 0.0000570 17472.86523 17533.56836
17569.0 0.0000569 17488.16016 17549.51563
17587.0 0.0000569 17503.45508 17565.64063
17589.0 0.0000569 17518.75000 17581.95703
17614.0 0.0000568 17534.04102 17598.49609
17640.0 0.0000567 17549.33008 17615.26563
17642.0 0.0000567 17564.61719 17632.37891
17628.0 0.0000567 17579.90430 17649.79688
17656.0 0.0000566 17595.18750 17667.46680
17652.0 0.0000567 17610.47070 17685.53516
17695.0 0.0000565 17625.74805 17704.02930
17706.0 0.0000565 17641.02539 17723.02148
17720.0 0.0000564 17656.30078 17742.53711
17738.0 0.0000564 17671.57422 17762.63477
17760.0 0.0000563 17686.84180 17783.29883
17768.0 0.0000563 17702.10742 17804.53516
17799.0 0.0000562 17717.37305 17826.22266
17835.0 0.0000561 17732.63281 17848.14648
17882.0 0.0000559 17747.89063 17869.96680
17914.0 0.0000558 17763.14453 17891.19336
17944.0 0.0000557 17778.39648 17911.31250
17980.0 0.0000556 17793.64453 17929.96680
18001.0 0.0000556 17808.88867 17947.00000
17983.0 0.0000556 17824.12891 17962.68945
17973.0 0.0000556 17839.36719 17977.42188
17961.0 0.0000557 17854.59961 17991.81055
17950.0 0.0000557 17869.82813 18006.33594
17968.0 0.0000557 17885.05469 18021.41211
17994.0 0.0000556 17900.27539 18037.28320
18022.0 0.0000555 17915.49414 18054.10352
18060.0 0.0000554 17930.70508 18071.96680
18092.0 0.0000553 17945.91406 18091.00000
18127.0 0.0000552 17961.11914 18111.23633
18138.0 0.0000551 17976.31836 18132.77148
18126.0 0.0000552 17991.51367 18155.71875
18123.0 0.0000552 18006.70117 18180.22656
18163.0 0.0000551 18021.88672 18206.55078
18174.0 0.0000550 18037.06836 18235.02734
18199.0 0.0000549 18052.24219 18266.33594
18249.0 0.0000548 18067.41016 18301.80078
18292.0 0.0000547 18082.57422 18343.98242
18341.0 0.0000545 18097.73438 18397.19141
18430.0 0.0000543 18112.88672 18467.22656
18513.0 0.0000540 18128.03320 18559.26758
18618.0 0.0000537 18143.17578 18673.99219
18731.0 0.0000534 18158.31055 18802.51758
18850.0 0.0000531 18173.44141 18921.72070
18969.0 0.0000527 18188.56250 18998.62500
19053.0 0.0000525 18203.67969 19020.94141
19113.0 0.0000523 18218.79102 19016.55859
19150.0 0.0000522 18233.89648 19022.28711
19213.0 0.0000520 18248.99219 19064.38086
19311.0 0.0000518 18264.08398 19160.17969
19448.0 0.0000514 18279.16797 19320.15430
19630.0 0.0000509 18294.24609 19544.98828
19824.0 0.0000504 18309.31641 19818.12109
19998.0 0.0000500 18324.37891 20094.84180
20129.0 0.0000497 18339.43555 20295.38281
20175.0 0.0000496 18354.48438 20338.82813
20157.0 0.0000496 18369.52539 20212.19531
20058.0 0.0000499 18384.55859 19975.77539
19868.0 0.0000503 18399.58398 19711.79102
19662.0 0.0000509 18414.60352 19477.90234
19455.0 0.0000514 18429.61328 19296.46484
19278.0 0.0000519 18444.61523 19167.24023
19137.0 0.0000523 18459.60938 19080.85156
19008.0 0.0000526 18474.59570 19026.29297
18942.0 0.0000528 18489.57422 18993.87500
18900.0 0.0000529 18504.54102 18975.85547
18852.0 0.0000530 18519.50195 18966.65234
18813.0 0.0000532 18534.45508 18963.26953
18814.0 0.0000532 18549.39648 18964.95117
18818.0 0.0000531 18564.33008 18971.95703
18826.0 0.0000531 18579.25586 18984.59961
18835.0 0.0000531 18594.17188 19003.12891
18848.0 0.0000531 18609.07813 19027.80469
18869.0 0.0000530 18623.97461 19059.05078
18890.0 0.0000529 18638.86328 19097.59961
18926.0 0.0000528 18653.74219 19144.72070
18983.0 0.0000527 18668.61133 19202.47266
19050.0 0.0000525 18683.46875 19274.25000
19146.0 0.0000522 18698.31836 19365.34180
19279.0 0.0000519 18713.15625 19483.58789
19467.0 0.0000514 18727.98633 19639.96484
19747.0 0.0000506 18742.80469 19848.76172
20168.0 0.0000496 18757.61133 20126.84180
20768.0 0.0000482 18772.40820 20491.77734
21494.0 0.0000465 18787.19727 20958.45313
22281.0 0.0000449 18801.97266 21533.56445
22981.0 0.0000435 18816.73828 22206.43750
23509.0 0.0000425 18831.49219 22932.80273
23791.0 0.0000420 18846.23633 23612.84766
23897.0 0.0000418 18860.96875 24088.05469
23841.0 0.0000419 18875.68945 24200.41406
23606.0 0.0000424 18890.39844 23912.83594
23175.0 0.0000431 18905.09766 23340.44336
22559.0 0.0000443 18919.78516 22654.68555
21888.0 0.0000457 18934.45898 21985.76563
21267.0 0.0000470 18949.12305 21401.23828
20725.0 0.0000483 18963.77539 20924.46875
20336.0 0.0000492 18978.41406 20554.16016
20051.0 0.0000499 18993.04102 20276.16211
19852.0 0.0000504 19007.65625 20070.60742
19692.0 0.0000508 19022.25977 19917.44336
19565.0 0.0000511 19036.84961 19800.64063
19480.0 0.0000513 19051.42578 19709.65820
19440.0 0.0000514 19065.99219 19638.05469
19404.0 0.0000515 19080.54492 19581.70508
19374.0 0.0000516 19095.08398 19537.56641
19361.0 0.0000517 19109.61133 19503.32617
19355.0 0.0000517 19124.12305 19477.17188
19340.0 0.0000517 19138.62305 19457.65430
19363.0 0.0000516 19153.11133 19443.60938
19374.0 0.0000516 19167.58398 19434.04492
19375.0 0.0000516 19182.04297 19428.18750
19378.0 0.0000516 19196.49023 19425.35156
19378.0 0.0000516 19210.92383 19425.01367
19390.0 0.0000516 19225.34180 19426.75977
19397.0 0.0000516 19239.74609 19430.25781
19397.0 0.0000516 19254.13672 19435.23633
19386.0 0.0000516 19268.51367 19441.51758
19416.0 0.0000515 19282.87695 19448.93750
19436.0 0.0000515 19297.22461 19457.37109
19444.0 0.0000514 19311.55859 19466.75391
19477.0 0.0000513 19325.87695 19476.98828
19490.0 0.0000513 19340.18359 19488.02344
19493.0 0.0000513 19354.47070 19499.83398
19535.0 0.0000512 19368.74609 19512.41016
19548.0 0.0000512 19383.00781 19525.77734
19546.0 0.0000512 19397.25195 19539.90039
19582.0 0.0000511 19411.48242 19554.86523
19575.0 0.0000511 19425.69727 19570.83398
19578.0 0.0000511 19439.89648 19587.71875
19615.0 0.0000510 19454.08008 19605.78906
19641.0 0.0000509 19468.24805 19625.25000
19650.0 0.0000509 19482.40039 19646.40039
19679.0 0.0000508 19496.53711 19669.56836
19704.0 0.0000508 19510.66016 19695.23242
19719.0 0.0000507 19524.76563 19724.07617
19755.0 0.0000506 19538.85352 19756.52539
19766.0 0.0000506 19552.92773 19793.00000
19811.0 0.0000505 19566.98438 19834.36133
19868.0 0.0000503 19581.02539 19881.18164
19911.0 0.0000502 19595.04883 19933.74609
19995.0 0.0000500 19609.05664 19991.96875
20093.0 0.0000498 19623.04883 20054.31641
20154.0 0.0000496 19637.02344 20118.77930
20188.0 0.0000495 19650.98047 20182.65430
20236.0 0.0000494 19664.92188 20244.32227
20253.0 0.0000494 19678.84570 20304.61523
20269.0 0.0000493 19692.75391 20366.61523
20307.0 0.0000492 19706.64258 20433.77930
20356.0 0.0000491 19720.51563 20507.81250
20429.0 0.0000490 19734.37109 20587.14453
20521.0 0.0000487 19748.20898 20666.66992
20604.0 0.0000485 19762.02930 20736.03711
20675.0 0.0000484 19775.83203 20784.07813
20753.0 0.0000482 19789.61914 20801.02734
20756.0 0.0000482 19803.38672 20783.29883
20702.0 0.0000483 19817.13672 20735.33789
20652.0 0.0000484 19830.86719 20667.09766
20587.0 0.0000486 19844.58203 20589.75977
20493.0 0.0000488 19858.27930 20512.30664
20418.0 0.0000490 19871.95703 20440.44922
20365.0 0.0000491 19885.61719 20377.15625
20317.0 0.0000492 19899.25781 20323.46484
20293.0 0.0000493 19912.88086 20279.30469
20289.0 0.0000493 19926.48633 20243.99023
20270.0 0.0000493 19940.07227 20216.65625
20294.0 0.0000493 19953.64063 20196.07031
20347.0 0.0000491 19967.18945 20181.29102
20479.0 0.0000488 19980.72070 20171.31445
20639.0 0.0000485 19994.23047 20165.81641
20532.0 0.0000487 20007.72461 20162.96094
20442.0 0.0000489 20021.19727 20162.67578
20428.0 0.0000490 20034.65234 20164.44531
20395.0 0.0000490 20048.08789 20168.03906
20367.0 0.0000491 20061.50391 20172.74805
20365.0 0.0000491 20074.90039 20178.56055
20357.0 0.0000491 20088.27930 20185.27734
20340.0 0.0000492 20101.63672 20192.71289
20355.0 0.0000491 20114.97656 20200.76758
20356.0 0.0000491 20128.29492 20209.34766
20350.0 0.0000491 20141.59570 20218.37109
20372.0 0.0000491 20154.87695 20227.79492
20383.0 0.0000491 20168.13477 20237.54883
20375.0 0.0000491 20181.37695 20247.59961
20396.0 0.0000490 20194.59766 20257.89844
20417.0 0.0000490 20207.79883 20268.42383
20446.0 0.0000489 20220.97852 20279.15430
20485.0 0.0000488 20234.14063 20290.05469
20501.0 0.0000488 20247.28125 20301.09961
20507.0 0.0000488 20260.40234 20312.33203
20528.0 0.0000487 20273.50195 20323.64844
20533.0 0.0000487 20286.58203 20335.07617
20534.0 0.0000487 20299.64258 20346.61719
20558.0 0.0000486 20312.68164 20358.23047
20579.0 0.0000486 20325.70117 20369.96289
20577.0 0.0000486 20338.69922 20381.77148
20576.0 0.0000486 20351.67773 20393.64648
20603.0 0.0000485 20364.63477 20405.59375
20613.0 0.0000485 20377.57031 20417.88867
20609.0 0.0000485 20390.48633 20430.02734
20610.0 0.0000485 20403.38281 20442.27734
20611.0 0.0000485 20416.25781 20454.65234
20630.0 0.0000485 20429.11133 20467.17578
20638.0 0.0000485 20441.94336 20479.87305
20639.0 0.0000485 20454.75586 20492.77930
20639.0 0.0000485 20467.54688 20505.94727
20647.0 0.0000484 20480.31641 20519.40039
20653.0 0.0000484 20493.06445 20533.18750
20682.0 0.0000484 20505.79297 20547.35938
20710.0 0.0000483 20518.50000 20561.94336
20697.0 0.0000483 20531.18555 20576.97266
20691.0 0.0000483 20543.84766 20592.42188
20725.0 0.0000483 20556.49219 20608.22070
20741.0 0.0000482 20569.11328 20624.19531
20758.0 0.0000482 20581.71289 20640.11133
20770.0 0.0000481 20594.29102 20655.58203
20792.0 0.0000481 20606.84961 20670.20703
20810.0 0.0000481 20619.38477 20683.70117
20851.0 0.0000480 20631.90039 20695.99805
20871.0 0.0000479 20644.39258 20707.28516
20885.0 0.0000479 20656.86328 20717.98242
20926.0 0.0000478 20669.31250 20728.56836
20967.0 0.0000477 20681.74219 20739.25391
20986.0 0.0000477 20694.14648 20750.20508
21033.0 0.0000475 20706.53125 20761.26563
21045.0 0.0000475 20718.89453 20772.26367
21021.0 0.0000476 20731.23633 20782.96875
21003.0 0.0000476 20743.55664 20793.28516
20983.0 0.0000477 20755.85352 20803.26367
20955.0 0.0000477 20768.13086 20813.07422
20959.0 0.0000477 20780.38477 20822.92773
20944.0 0.0000477 20792.61719 20833.06445
20933.0 0.0000478 20804.82617 20843.58594
20940.0 0.0000478 20817.01563 20854.59180
20939.0 0.0000478 20829.18359 20866.08203
20920.0 0.0000478 20841.32813 20878.05273
20911.0 0.0000478 20853.44922 20890.45508
20921.0 0.0000478 20865.55078 20903.24219
20931.0 0.0000478 20877.63086 20916.37305
20934.0 0.0000478 20889.68750 20929.80664
20955.0 0.0000477 20901.72266 20943.48438
20965.0 0.0000477 20913.73438 20957.40430
20980.0 0.0000477 20925.72656 20971.54297
20997.0 0.0000476 20937.69531 20985.88086
20992.0 0.0000476 20949.64258 21000.41211
20993.0 0.0000476 20961.56836 21015.12695
21008.0 0.0000476 20973.47070 21030.02734
21025.0 0.0000476 20985.35156 21045.13281
21026.0 0.0000476 20997.21094 21060.44141
21041.0 0.0000475 21009.04688 21075.97461
21068.0 0.0000475 21020.86328 21091.73828
21059.0 0.0000475 21032.65625 21107.78125
21062.0 0.0000475 21044.42578 21124.12305
21094.0 0.0000474 21056.17383 21140.81250
21100.0 0.0000474 21067.90234 21157.86523
21128.0 0.0000473 21079.60742 21175.45508
21145.0 0.0000473 21091.28906 21193.50195
21169.0 0.0000472 21102.94922 21212.28906
21210.0 0.0000471 21114.58789 21232.17383
21282.0 0.0000470 21126.20508 21253.91406
21380.0 0.0000468 21137.80078 21278.86523
21494.0 0.0000465 21149.37305 21309.19141
21589.0 0.0000463 21160.92383 21347.83398
21599.0 0.0000463 21172.45313 21397.71680
21571.0 0.0000464 21183.95898 21460.42383
21525.0 0.0000465 21195.44336 21534.29492
21499.0 0.0000465 21206.90820 21612.85352
21474.0 0.0000466 21218.34961 21684.10156
21502.0 0.0000465 21229.76758 21732.28711
21571.0 0.0000464 21241.16602 21746.46289
21654.0 0.0000462 21252.54102 21730.54883
21754.0 0.0000460 21263.89453 21699.43555
21865.0 0.0000457 21275.22656 21667.61328
21931.0 0.0000456 21286.53711 21644.25977
21946.0 0.0000456 21297.82617 21632.89648
21882.0 0.0000457 21309.09375 21632.46094
21781.0 0.0000459 21320.33789 21638.78711
21683.0 0.0000461 21331.56055 21646.28711
21631.0 0.0000462 21342.76367 21650.21289
21602.0 0.0000463 21353.94336 21647.41211
21604.0 0.0000463 21365.10352 21639.37305
21587.0 0.0000463 21376.24023 21628.93945
21547.0 0.0000464 21387.35547 21618.69531
21515.0 0.0000465 21398.44922 21610.36328
21497.0 0.0000465 21409.52344 21604.88867
21484.0 0.0000465 21420.57422 21602.74805
21483.0 0.0000465 21431.60352 21604.23047
21476.0 0.0000466 21442.61328 21609.56055
21466.0 0.0000466 21453.60156 21618.96875
21463.0 0.0000466 21464.56836 21632.56836
21481.0 0.0000466 21475.51172 21650.03125
21496.0 0.0000465 21486.43555 21670.32227
21501.0 0.0000465 21497.33984 21691.51172
21528.0 0.0000465 21508.22070 21711.04297
21540.0 0.0000464 21519.08203 21726.83398
21546.0 0.0000464 21529.92188 21739.12695
21579.0 0.0000463 21540.74023 21750.65234
21595.0 0.0000463 21551.53906 21764.61523
21621.0 0.0000463 21562.31445 21783.41211
21657.0 0.0000462 21573.07227 21808.21680
21710.0 0.0000461 21583.80859 21838.95703
21743.0 0.0000460 21594.52344 21874.44922
21801.0 0.0000459 21605.21680 21912.50195
21887.0 0.0000457 21615.89063 21950.16016
21943.0 0.0000456 21626.54492 21983.80859
21990.0 0.0000455 21637.17969 22009.46289
22051.0 0.0000453 21647.79102 22023.44531
22098.0 0.0000453 21658.38281 22024.05664
22138.0 0.0000452 21668.95508 22012.95508
22146.0 0.0000452 21679.50781 21994.40039
22102.0 0.0000452 21690.04102 21973.03906
22034.0 0.0000454 21700.55078 21952.37891
21940.0 0.0000456 21711.04297 21934.53711
21898.0 0.0000457 21721.51563 21920.53711
21873.0 0.0000457 21731.96875 21910.74414
21860.0 0.0000457 21742.40039 21905.15234
21856.0 0.0000458 21752.81250 21903.61914
21840.0 0.0000458 21763.20703 21905.73828
21848.0 0.0000458 21773.58008 21911.36719
21869.0 0.0000457 21783.93359 21920.30859
21864.0 0.0000457 21794.26758 21932.50000
21867.0 0.0000457 21804.58398 21947.95898
21890.0 0.0000457 21814.87891 21966.74805
21908.0 0.0000456 21825.15625 21988.91602
21919.0 0.0000456 21835.41406 22014.42773
21933.0 0.0000456 21845.65234 22043.03906
21985.0 0.0000455 21855.87305 22074.18945
22057.0 0.0000453 21866.07227 22106.64648
22121.0 0.0000452 21876.25586 22138.37500
22205.0 0.0000450 21886.41797 22166.44531
22245.0 0.0000450 21896.56445 22187.44336
22301.0 0.0000448 21906.68945 22198.68555
22321.0 0.0000448 21916.79688 22199.47852
22286.0 0.0000449 21926.88672 22191.49609
22232.0 0.0000450 21936.95898 22177.86914
22191.0 0.0000451 21947.01172 22161.86328
22156.0 0.0000451 21957.04688 22145.98633
22113.0 0.0000452 21967.06445 22131.79297
22090.0 0.0000453 21977.06250 22120.95117
22082.0 0.0000453 21987.04492 22112.14844
22060.0 0.0000453 21997.00781 22106.21094
22059.0 0.0000453 22006.95313 22102.99414
22050.0 0.0000454 22016.88281 22102.20898
22044.0 0.0000454 22026.79297 22103.54688
22050.0 0.0000454 22036.68750 22106.69141
22074.0 0.0000453 22046.56250 22111.31445
22085.0 0.0000453 22056.42383 22117.14258
22093.0 0.0000453 22066.26563 22123.91016
22115.0 0.0000452 22076.08984 22131.33008
22111.0 0.0000452 22085.89844 22139.16016
22124.0 0.0000452 22095.69141 22147.09375
22140.0 0.0000452 22105.46680 22155.02344
22168.0 0.0000451 22115.22461 22162.34570
22156.0 0.0000451 22124.96680 22168.98242
22157.0 0.0000451 22134.69336 22175.15625
22187.0 0.0000451 22144.40430 22180.95703
22202.0 0.0000450 22154.09766 22186.58398
22222.0 0.0000450 22163.77539 22192.24805
22225.0 0.0000450 22173.43750 22198.08398
22229.0 0.0000450 22183.08398 22204.22266
22238.0 0.0000450 22192.71484 22210.72266
22257.0 0.0000449 22202.33008 22217.66211
22279.0 0.0000449 22211.92969 22225.03711
22290.0 0.0000449 22221.51367 22232.91016
22327.0 0.0000448 22231.08398 22241.34375
22352.0 0.0000447 22240.63867 22250.23438
22355.0 0.0000447 22250.17773 22259.63867
22360.0 0.0000447 22259.70313 22269.53516
22351.0 0.0000447 22269.21289 22279.89453
22333.0 0.0000448 22278.70703 22290.70508
22339.0 0.0000448 22288.18750 22301.95508
22358.0 0.0000447 22297.65625 22313.51367
22368.0 0.0000447 22307.10742 22325.37891
22363.0 0.0000447 22316.54492 22337.49609
22386.0 0.0000447 22325.97070 22349.85156
22413.0 0.0000446 22335.38086 22362.38672
22422.0 0.0000446 22344.77734 22375.08594
22449.0 0.0000445 22354.16016 22387.91602
22454.0 0.0000445 22363.53125 22400.89844
22450.0 0.0000445 22372.88672 22414.00391
22459.0 0.0000445 22382.23047 22427.24609
22485.0 0.0000445 22391.56055 22440.64648
22486.0 0.0000445 22400.87695 22453.78320
22487.0 0.0000445 22410.18164 22467.54492
22507.0 0.0000444 22419.47461 22481.56250
22521.0 0.0000444 22428.75391 22495.96875
22526.0 0.0000444 22438.01953 22509.94531
22546.0 0.0000444 22447.27539 22524.87500
22578.0 0.0000443 22456.51758 22540.24219
22596.0 0.0000443 22465.74805 22556.08398
22596.0 0.0000443 22474.96484 22572.49023
22605.0 0.0000442 22484.17188 22589.52539
22619.0 0.0000442 22493.36719 22607.32422
22628.0 0.0000442 22502.55273 22625.93750
22664.0 0.0000441 22511.72461 22645.62109
22707.0 0.0000440 22520.88477 22666.46289
22746.0 0.0000440 22530.03516 22688.63281
22786.0 0.0000439 22539.17383 22712.30078
22816.0 0.0000438 22548.30273 22737.64453
22837.0 0.0000438 22557.41992 22764.87695
22853.0 0.0000438 22566.52734 22794.20508
22880.0 0.0000437 22575.62500 22825.72656
22903.0 0.0000437 22584.71094 22859.70898
22924.0 0.0000436 22593.78711 22896.31836
22962.0 0.0000436 22602.85352 22936.27148
22966.0 0.0000435 22611.91211 22978.61719
22960.0 0.0000436 22620.95898 23023.91992
22953.0 0.0000436 22629.99609 23071.93945
22963.0 0.0000435 22639.02539 23122.09570
22988.0 0.0000435 22648.04492 23173.19336
23039.0 0.0000434 22657.05469 23223.32813
23099.0 0.0000433 22666.05469 23269.73242
23194.0 0.0000431 22675.04688 23309.00195
23346.0 0.0000428 22684.03125 23337.68555
23576.0 0.0000424 22693.00586 23353.16992
23790.0 0.0000420 22701.97266 23354.55664
23887.0 0.0000419 22710.93164 23343.03516
23852.0 0.0000419 22719.88281 23321.50391
23655.0 0.0000423 22728.82617 23293.61133
23439.0 0.0000427 22737.75977 23262.96289
23260.0 0.0000430 22746.68750 23232.49805
23140.0 0.0000432 22755.60742 23204.28711
23063.0 0.0000434 22764.51953 23179.68945
23015.0 0.0000434 22773.42383 23159.46484
23009.0 0.0000435 22782.32227 23144.39648
23010.0 0.0000435 22791.21484 23133.61523
22997.0 0.0000435 22800.09961 23127.49805
22999.0 0.0000435 22808.97656 23125.74023
23020.0 0.0000434 22817.84961 23127.99805
23040.0 0.0000434 22826.71484 23133.84961
23061.0 0.0000434 22835.57422 23142.69727
23087.0 0.0000433 22844.42773 23153.84375
23099.0 0.0000433 22853.27539 23166.48047
23120.0 0.0000433 22862.11719 23179.62305
23174.0 0.0000432 22870.95313 23192.18750
23213.0 0.0000431 22879.78516 23203.11133
23232.0 0.0000430 22888.60938 23211.49805
23244.0 0.0000430 22897.43164 23216.63281
23253.0 0.0000430 22906.24805 23218.51563
23234.0 0.0000430 22915.05859 23217.34180
23208.0 0.0000431 22923.86328 23213.36133
23214.0 0.0000431 22932.66602 23207.61523
23199.0 0.0000431 22941.46484 23200.92188
23188.0 0.0000431 22950.25781 23194.00195
23196.0 0.0000431 22959.04688 23187.41992
23188.0 0.0000431 22967.83203 23181.58203
23188.0 0.0000431 22976.61523 23176.74414
23181.0 0.0000431 22985.39258 23173.03320
23185.0 0.0000431 22994.16602 23170.66992
23184.0 0.0000431 23002.93945 23169.34766
23173.0 0.0000432 23011.70703 23169.18164
23192.0 0.0000431 23020.47266 23170.10938
23205.0 0.0000431 23029.23438 23172.05664
23226.0 0.0000431 23037.99414 23174.95117
23243.0 0.0000430 23046.75195 23178.69336
23249.0 0.0000430 23055.50781 23183.36914
23255.0 0.0000430 23064.25977 23188.61328
23245.0 0.0000430 23073.00977 23194.49414
23255.0 0.0000430 23081.75977 23200.95508
23284.0 0.0000429 23090.50586 23207.95313
23298.0 0.0000429 23099.25195 23215.42383
23302.0 0.0000429 23107.99414 23223.32813
23321.0 0.0000429 23116.73633 23231.62891
23311.0 0.0000429 23125.47852 23240.31641
23316.0 0.0000429 23134.21875 23249.36328
23336.0 0.0000429 23142.95703 23258.75781
23341.0 0.0000428 23151.69531 23268.47070
23345.0 0.0000428 23160.43359 23278.75195
23345.0 0.0000428 23169.16992 23289.13867
23367.0 0.0000428 23177.90625 23299.86914
23386.0 0.0000428 23186.64258 23311.26758
23388.0 0.0000428 23195.37891 23322.74414
23404.0 0.0000427 23204.11719 23334.55273
23427.0 0.0000427 23212.85156 23346.76953
23435.0 0.0000427 23221.58984 23359.41016
23441.0 0.0000427 23230.32813 23372.49805
23445.0 0.0000427 23239.06641 23386.06445
23441.0 0.0000427 23247.80273 23400.12109
23441.0 0.0000427 23256.54297 23414.83203
23463.0 0.0000426 23265.28516 23429.99609
23481.0 0.0000426 23274.02539 23445.76172
23505.0 0.0000425 23282.76953 23462.13672
23522.0 0.0000425 23291.51367 23479.13281
23527.0 0.0000425 23300.25977 23496.75195
23519.0 0.0000425 23309.00781 23514.97266
23529.0 0.0000425 23317.75781 23533.74609
23562.0 0.0000424 23326.50781 23552.99609
23563.0 0.0000424 23335.26172 23572.65430
23595.0 0.0000424 23344.01758 23592.62109
23623.0 0.0000423 23352.77539 23612.84766
23656.0 0.0000423 23361.53516 23633.37305
23680.0 0.0000422 23370.29883 23654.09961
23696.0 0.0000422 23379.06445 23675.20508
23695.0 0.0000422 23387.83398 23696.87891
23705.0 0.0000422 23396.60547 23719.30859
23701.0 0.0000422 23405.37891 23742.67969
23722.0 0.0000422 23414.15820 23767.15625
23740.0 0.0000421 23422.93750 23792.88477
23749.0 0.0000421 23431.72266 23819.98242
23767.0 0.0000421 23440.50977 23848.55078
23800.0 0.0000420 23449.30273 23878.71875
23828.0 0.0000420 23458.09766 23910.69141
23849.0 0.0000419 23466.89648 23944.89648
23904.0 0.0000418 23475.69922 23982.25195
23981.0 0.0000417 23484.50586 24024.09180
24066.0 0.0000416 23493.31836 24072.54688
24166.0 0.0000414 23502.13477 24130.37695
24280.0 0.0000412 23510.95313 24200.66602
24390.0 0.0000410 23519.77930 24286.00000
24490.0 0.0000408 23528.60742 24387.32617
24587.0 0.0000407 23537.44141 24502.63281
24633.0 0.0000406 23546.27930 24625.96875
24656.0 0.0000406 23555.12305 24746.86328
24660.0 0.0000406 23563.97266 24850.62695
24738.0 0.0000404 23572.82617 24920.53906
24884.0 0.0000402 23581.68359 24944.00781
25104.0 0.0000398 23590.54883 24920.12305
25113.0 0.0000398 23599.41797 24860.40820
24919.0 0.0000401 23608.29297 24781.47656
24745.0 0.0000404 23617.17188 24698.09961
24617.0 0.0000406 23626.05859 24620.11328
24537.0 0.0000408 23634.95117 24551.89453
24469.0 0.0000409 23643.84766 24493.25977
24409.0 0.0000410 23652.75195 24441.48047
24352.0 0.0000411 23661.66016 24393.86914
24303.0 0.0000411 23670.57617 24349.19141
24248.0 0.0000412 23679.49805 24307.48438
24206.0 0.0000413 23688.42383 24269.29102
24178.0 0.0000414 23697.35742 24235.19336
24152.0 0.0000414 23706.29883 24205.64844
24140.0 0.0000414 23715.24414 24180.96094
24123.0 0.0000415 23724.19922 24161.28125
24104.0 0.0000415 23733.15625 24146.56055
24100.0 0.0000415 23742.12305 24136.66406
24100.0 0.0000415 23751.09570 24131.36133
24106.0 0.0000415 23760.07422 24130.39648
24103.0 0.0000415 23769.06055 24133.59180
24111.0 0.0000415 23778.05273 24140.72266
24121.0 0.0000415 23787.05273 24151.58789
24139.0 0.0000414 23796.05859 24165.98047
24149.0 0.0000414 23805.07031 24183.54102
24159.0 0.0000414 23814.09180 24203.76367
24180.0 0.0000414 23823.11914 24225.72656
24200.0 0.0000413 23832.15234 24248.40430
24214.0 0.0000413 23841.19336 24269.91211
24220.0 0.0000413 23850.24219 24288.12109
24250.0 0.0000412 23859.29688 24300.76953
24267.0 0.0000412 23868.35938 24306.67383
24282.0 0.0000412 23877.42969 24305.67188
24309.0 0.0000411 23886.50586 24298.97656
24323.0 0.0000411 23895.58984 24288.63477
24333.0 0.0000411 23904.68164 24276.67578
24321.0 0.0000411 23913.77930 24264.75000
24314.0 0.0000411 23922.88477 24254.01563
24321.0 0.0000411 23931.99805 24245.20508
24329.0 0.0000411 23941.11914 24238.81055
24329.0 0.0000411 23950.24609 24235.11719
24332.0 0.0000411 23959.38086 24234.37891
24321.0 0.0000411 23968.52344 24236.87695
24314.0 0.0000411 23977.67188 24243.00977
24335.0 0.0000411 23986.82813 24253.26953
24369.0 0.0000410 23995.99219 24268.20703
24390.0 0.0000410 24005.16211 24288.46289
24382.0 0.0000410 24014.33984 24314.25977
24399.0 0.0000410 24023.52539 24345.36133
24414.0 0.0000410 24032.71680 24380.85742
24419.0 0.0000410 24041.91797 24419.03906
24442.0 0.0000409 24051.12500 24457.40820
24489.0 0.0000408 24060.33789 24492.97852
24519.0 0.0000408 24069.55859 24523.22852
24553.0 0.0000407 24078.78516 24547.30469
24583.0 0.0000407 24088.01953 24566.49414
24594.0 0.0000407 24097.26172 24583.26758
24610.0 0.0000406 24106.50977 24599.73242
24619.0 0.0000406 24115.76563 24616.75195
24644.0 0.0000406 24125.02734 24633.81055
24655.0 0.0000406 24134.29492 24649.32031
24712.0 0.0000405 24143.57031 24661.69922
24734.0 0.0000404 24152.85156 24669.93555
24763.0 0.0000404 24162.13867 24676.06445
24756.0 0.0000404 24171.43359 24681.58984
24751.0 0.0000404 24180.73438 24688.51367
24745.0 0.0000404 24190.04102 24698.51172
24725.0 0.0000404 24199.35352 24712.85547
24715.0 0.0000405 24208.67383 24732.42383
24719.0 0.0000405 24218.00000 24757.87500
24739.0 0.0000404 24227.33008 24789.65820
24749.0 0.0000404 24236.66602 24828.12891
24783.0 0.0000404 24246.00781 24873.42188
24823.0 0.0000403 24255.35742 24925.63477
24895.0 0.0000402 24264.70898 24984.60938
24969.0 0.0000400 24274.06836 25049.89258
25056.0 0.0000399 24283.43164 25120.71094
25148.0 0.0000398 24292.80078 25195.75391
25251.0 0.0000396 24302.17383 25273.09961
25376.0 0.0000394 24311.55273 25351.27734
25488.0 0.0000392 24320.93555 25423.96094
25601.0 0.0000391 24330.32227 25487.48633
25671.0 0.0000390 24339.71484 25536.10742
25711.0 0.0000389 24349.11133 25564.32422
25678.0 0.0000389 24358.51172 25568.50391
25631.0 0.0000390 24367.91602 25548.41211
25555.0 0.0000391 24377.32227 25507.44727
25475.0 0.0000393 24386.73438 25451.36523
25377.0 0.0000394 24396.14844 25386.48438
25309.0 0.0000395 24405.56641 25318.37109
25215.0 0.0000397 24414.98828 25251.19531
25109.0 0.0000398 24424.41211 25187.80078
25061.0 0.0000399 24433.83789 25130.02539
25014.0 0.0000400 24443.26758 25078.87500
24968.0 0.0000401 24452.69727 25034.79297
24940.0 0.0000401 24462.13086 24997.77930
24927.0 0.0000401 24471.56641 24967.61719
24913.0 0.0000401 24481.00195 24943.89063
24888.0 0.0000402 24490.44141 24926.10547
24872.0 0.0000402 24499.87891 24913.75391
24872.0 0.0000402 24509.31836 24906.37695
24872.0 0.0000402 24518.75977 24903.59375
24867.0 0.0000402 24528.20117 24905.05273
24866.0 0.0000402 24537.64063 24910.51953
24871.0 0.0000402 24547.08203 24919.75391
24882.0 0.0000402 24556.52344 24932.53125
24894.0 0.0000402 24565.96289 24948.57422
24905.0 0.0000402 24575.40234 24967.51953
24926.0 0.0000401 24584.83984 24988.95508
24945.0 0.0000401 24594.27734 25012.49414
24991.0 0.0000400 24603.71289 25037.82422
25015.0 0.0000400 24613.14453 25064.96484
25053.0 0.0000399 24622.57617 25094.33203
25086.0 0.0000399 24632.00391 25126.83984
25130.0 0.0000398 24641.42969 25163.88281
25195.0 0.0000397 24650.85156 25207.14648
25251.0 0.0000396 24660.26953 25258.18945
25298.0 0.0000395 24669.68359 25317.51172
25363.0 0.0000394 24679.09375 25383.46289
25434.0 0.0000393 24688.49805 25451.62305
25473.0 0.0000393 24697.90039 25515.87109
25510.0 0.0000392 24707.29492 25569.76758
25554.0 0.0000391 24716.68555 25608.07617
25611.0 0.0000390 24726.07031 25627.72070
25627.0 0.0000390 24735.44727 25628.21680
25616.0 0.0000390 24744.81836 25611.36133
25611.0 0.0000390 24754.17969 25580.49414
25587.0 0.0000391 24763.53711 25539.65039
25549.0 0.0000391 24772.88477 25492.79688
25501.0 0.0000392 24782.22656 25443.48242
25459.0 0.0000393 24791.55664 25394.60156
25414.0 0.0000393 24800.87891 25348.43164
25380.0 0.0000394 24810.19336 25306.64258
25362.0 0.0000394 24819.49609 25270.55664
25330.0 0.0000395 24828.78711 25241.35352
25328.0 0.0000395 24838.06836 25220.19141
25347.0 0.0000395 24847.33984 25208.58203
25364.0 0.0000394 24856.59766 25208.62891
25393.0 0.0000394 24865.84375 25223.28516
25429.0 0.0000393 24875.07813 25256.65430
25460.0 0.0000393 24884.29883 25313.73633
25502.0 0.0000392 24893.50586 25399.98438
25531.0 0.0000392 24902.69922 25520.05664
25571.0 0.0000391 24911.87695 25675.83789
25644.0 0.0000390 24921.03906 25864.44727
25750.0 0.0000388 24930.18750 26076.35742
25929.0 0.0000386 24939.31836 26294.87305
26167.0 0.0000382 24948.43359 26497.01953
26466.0 0.0000378 24957.53125 26656.06445
26806.0 0.0000373 24966.61133 26746.08789
27065.0 0.0000369 24975.67383 26749.64648
27158.0 0.0000368 24984.71289 26665.92578
26986.0 0.0000371 24993.73828 26511.78906
26597.0 0.0000376 25002.74023 26314.22070
26179.0 0.0000382 25011.72266 26101.23438
25856.0 0.0000387 25020.68555 25896.42188
25656.0 0.0000390 25029.62500 25716.43750
25546.0 0.0000391 25038.54297 25570.37305
25473.0 0.0000393 25047.43750 25460.54883
25443.0 0.0000393 25056.30664 25384.22656
25426.0 0.0000393 25065.15430 25335.75586
25404.0 0.0000394 25073.97656 25308.54102
25375.0 0.0000394 25082.77344 25296.45898
25351.0 0.0000394 25091.54297 25294.53516
25353.0 0.0000394 25100.28711 25299.12305
25343.0 0.0000395 25109.00195 25307.78125
25350.0 0.0000394 25117.69141 25318.96484
25343.0 0.0000395 25126.34961 25331.72070
25352.0 0.0000394 25134.97852 25345.45703
25360.0 0.0000394 25143.57813 25359.80078
25367.0 0.0000394 25152.14648 25374.53320
25367.0 0.0000394 25160.68359 25389.30078
25370.0 0.0000394 25169.18750 25403.97461
25386.0 0.0000394 25177.66016 25418.47070
25407.0 0.0000394 25186.09570 25432.57617
25402.0 0.0000394 25194.50000 25446.25781
25411.0 0.0000394 25202.86523 25459.54492
25439.0 0.0000393 25211.19727 25472.28125
25455.0 0.0000393 25219.49023 25484.51367
25468.0 0.0000393 25227.74805 25496.19922
25475.0 0.0000393 25235.96680 25507.19727
25474.0 0.0000393 25244.14453 25517.34180
25477.0 0.0000393 25252.28320 25526.42383
25485.0 0.0000392 25260.38086 25534.27734
25490.0 0.0000392 25268.43555 25540.78125
25489.0 0.0000392 25276.44922 25545.90625
25486.0 0.0000392 25284.41797 25549.73438
25490.0 0.0000392 25292.34375 25552.37305
25489.0 0.0000392 25300.22461 25553.97461
25495.0 0.0000392 25308.05859 25554.69727
25512.0 0.0000392 25315.84570 25554.73633
25508.0 0.0000392 25323.58398 25554.27734
25508.0 0.0000392 25331.27344 25553.50586
25507.0 0.0000392 25338.91211 25552.63281
25514.0 0.0000392 25346.50195 25551.82813
25515.0 0.0000392 25354.03906 25551.21680
25534.0 0.0000392 25361.52539 25550.94141
25522.0 0.0000392 25368.95703 25551.08398
25524.0 0.0000392 25376.33398 25551.70703
25518.0 0.0000392 25383.65430 25552.82227
25512.0 0.0000392 25390.91992 25554.45898
25528.0 0.0000392 25398.12500 25556.60938
25541.0 0.0000392 25405.27344 25559.28516
25548.0 0.0000391 25412.36328 25562.46289
25567.0 0.0000391 25419.39063 25566.12695
25582.0 0.0000391 25426.35742 25570.29102
25584.0 0.0000391 25433.26172 25574.98438
25580.0 0.0000391 25440.10156 25580.11133
25581.0 0.0000391 25446.87500 25585.70508
25614.0 0.0000390 25453.58398 25591.80469
25637.0 0.0000390 25460.22461 25598.42383
25654.0 0.0000390 25466.79883 25605.58398
25640.0 0.0000390 25473.30273 25613.31641
25644.0 0.0000390 25479.73633 25621.66797
25648.0 0.0000390 25486.09766 25630.67773
25645.0 0.0000390 25492.38672 25640.41602
25644.0 0.0000390 25498.60156 25650.93164
25644.0 0.0000390 25504.74219 25662.29492
25649.0 0.0000390 25510.80469 25674.53516
25662.0 0.0000390 25516.78906 25687.74219
25685.0 0.0000389 25522.69727 25701.93359
25677.0 0.0000389 25528.52344 25717.16602
25684.0 0.0000389 25534.26953 25733.42773
25703.0 0.0000389 25539.93164 25750.71094
25712.0 0.0000389 25545.51172 25768.94922
25734.0 0.0000389 25551.00391 25788.01367
25758.0 0.0000388 25556.41211 25807.66016
25763.0 0.0000388 25561.73047 25827.62305
25767.0 0.0000388 25566.96094 25847.40430
25783.0 0.0000388 25572.10156 25866.45313
25815.0 0.0000387 25577.15039 25884.09766
25844.0 0.0000387 25582.10547 25899.66406
25883.0 0.0000386 25586.96680 25912.51563
25904.0 0.0000386 25591.73242 25922.27148
25927.0 0.0000386 25596.39844 25928.77930
25968.0 0.0000385 25600.96875 25932.22266
26006.0 0.0000385 25605.43750 25933.02539
26018.0 0.0000384 25609.80469 25931.74023
26019.0 0.0000384 25614.07031 25929.05078
26008.0 0.0000384 25618.23047 25925.54297
25967.0 0.0000385 25622.28516 25921.82617
25926.0 0.0000386 25626.23242 25918.33984
25915.0 0.0000386 25630.07031 25915.53711
25922.0 0.0000386 25633.79688 25913.69727
25918.0 0.0000386 25637.41406 25913.07813
25922.0 0.0000386 25640.91602 25913.89648
25926.0 0.0000386 25644.30273 25916.25000
25950.0 0.0000385 25647.57422 25920.26953
25984.0 0.0000385 25650.72852 25926.04492
26045.0 0.0000384 25653.75977 25933.61523
26072.0 0.0000384 25656.67188 25943.09180
26018.0 0.0000384 25659.46094 25954.53516
25980.0 0.0000385 25662.12500 25968.05078
25958.0 0.0000385 25664.66211 25983.75391
25959.0 0.0000385 25667.07227 26001.74219
25958.0 0.0000385 25669.35352 26022.02344
25960.0 0.0000385 25671.50195 26044.51953
25966.0 0.0000385 25673.51758 26068.90430
25994.0 0.0000385 25675.40039 26094.57031
26019.0 0.0000384 25677.14453 26120.55664
26054.0 0.0000384 25678.75000 26145.60156
26084.0 0.0000383 25680.21680 26168.13281
26131.0 0.0000383 25681.54297 26186.46094
26180.0 0.0000382 25682.72266 26199.04492
26244.0 0.0000381 25683.75977 26204.77344
26299.0 0.0000380 25684.64844 26203.33203
26317.0 0.0000380 25685.38672 26195.44141
26300.0 0.0000380 25685.97656 26182.61328
26267.0 0.0000381 25686.41211 26166.68945
26214.0 0.0000381 25686.69336 26149.51172
26176.0 0.0000382 25686.81836 26132.63672
26138.0 0.0000383 25686.78320 26117.24219
26101.0 0.0000383 25686.58789 26104.11328
26084.0 0.0000383 25686.23242 26093.70313
26076.0 0.0000383 25685.71094 26086.11523
26081.0 0.0000383 25685.02344 26081.26563
26077.0 0.0000383 25684.16797 26078.97656
26067.0 0.0000384 25683.14063 26078.99805
26066.0 0.0000384 25681.94141 26081.12891
26069.0 0.0000384 25680.56836 26085.13867
26081.0 0.0000383 25679.01953 26090.86328
26084.0 0.0000383 25677.29102 26098.19336
26082.0 0.0000383 25675.38086 26106.99219
26105.0 0.0000383 25673.28906 26117.21875
26127.0 0.0000383 25671.01367 26128.79883
26137.0 0.0000383 25668.54883 26141.66016
26148.0 0.0000382 25665.89648 26155.69336
26144.0 0.0000382 25663.05078 26170.77344
26152.0 0.0000382 25660.01172 26186.75586
26180.0 0.0000382 25656.77734 26203.43555
26188.0 0.0000382 25653.34570 26220.46680
26212.0 0.0000382 25649.71289 26237.41211
26234.0 0.0000381 25645.87695 26253.64258
26247.0 0.0000381 25641.83789 26268.48242
26270.0 0.0000381 25637.58984 26281.21094
26304.0 0.0000380 25633.13281 26291.24414
26331.0 0.0000380 25628.46484 26298.26953
26328.0 0.0000380 25623.58203 26302.30664
26317.0 0.0000380 25618.48047 26303.62109
26301.0 0.0000380 25613.16211 26302.71484
26287.0 0.0000380 25607.62109 26300.11523
26266.0 0.0000381 25601.85938 26296.40234
26263.0 0.0000381 25595.86914 26291.95313
26263.0 0.0000381 25589.64844 26287.09375
26258.0 0.0000381 25583.19922 26281.95117
26245.0 0.0000381 25576.51367 26276.54102
26233.0 0.0000381 25569.59375 26270.75195
26234.0 0.0000381 25562.43359 26264.33008
26242.0 0.0000381 25555.03320 26256.98242
26252.0 0.0000381 25547.39063 26248.28320
26269.0 0.0000381 25539.50000 26237.81250
26276.0 0.0000381 25531.35938 26225.10742
26267.0 0.0000381 25522.96680 26209.69727
26287.0 . . .
26310.0 . . .
26314.0 . . .
26323.0 . . .
26344.0 . . .
26364.0 . . .
26386.0 . . .
26434.0 . . .
26493.0 . . .
26531.0 . . .
26548.0 . . .
26554.0 . . .
26531.0 . . .
26505.0 . . .
26471.0 . . .
26452.0 . . .
26431.0 . . .
26421.0 . . .
26413.0 . . .
26391.0 . . .
26375.0 . . .
26366.0 . . .
26356.0 . . .
26352.0 . . .
26361.0 . . .
26364.0 . . .
26370.0 . . .
26376.0 . . .
26379.0 . . .
26389.0 . . .
26385.0 . . .
26386.0 . . .
26375.0 . . .
26369.0 . . .
26383.0 . . .
26367.0 . . .
26374.0 . . .
26373.0 . . .
26381.0 . . .
26409.0 . . .
26406.0 . . .
26411.0 . . .
26419.0 . . .
26429.0 . . .
26449.0 . . .
26451.0 . . .
26461.0 . . .
26480.0 . . .
26512.0 . . .
26542.0 . . .
26564.0 . . .
26580.0 . . .
26593.0 . . .
26598.0 . . .
26604.0 . . .
26602.0 . . .
26622.0 . . .
26608.0 . . .
26597.0 . . .
26578.0 . . .
26560.0 . . .
26551.0 . . .
26552.0 . . .
26568.0 . . .
26591.0 . . .
26612.0 . . .
26630.0 . . .
26646.0 . . .
26636.0 . . .
26615.0 . . .
26589.0 . . .
26592.0 . . .
26577.0 . . .
26577.0 . . .
26573.0 . . .
26584.0 . . .
26571.0 . . .
26578.0 . . .
26592.0 . . .
26600.0 . . .
26608.0 . . .
26631.0 . . .
26628.0 . . .
26643.0 . . .
26652.0 . . .
26647.0 . . .
26652.0 . . .
26646.0 . . .
26659.0 . . .
26675.0 . . .
26691.0 . . .
26702.0 . . .
26705.0 . . .
26729.0 . . .
26724.0 . . .
26716.0 . . .
26707.0 . . .
26684.0 . . .
26656.0 . . .
26649.0 . . .
26633.0 . . .
26623.0 . . .
26620.0 . . .
26611.0 . . .
26622.0 . . .
26620.0 . . .
26635.0 . . .
26641.0 . . .
26647.0 . . .
26627.0 . . .
26631.0 . . .
26635.0 . . .
26633.0 . . .
26646.0 . . .
26662.0 . . .
26668.0 . . .
26673.0 . . .
26677.0 . . .
26707.0 . . .
26732.0 . . .
26741.0 . . .
26748.0 . . .
26779.0 . . .
26826.0 . . .
26854.0 . . .
26870.0 . . .
26871.0 . . .
26860.0 . . .
26829.0 . . .
26810.0 . . .
26794.0 . . .
26769.0 . . .
26785.0 . . .
26808.0 . . .
26824.0 . . .
26821.0 . . .
26821.0 . . .
26813.0 . . .
26776.0 . . .
26751.0 . . .
26734.0 . . .
26730.0 . . .
26736.0 . . .
26720.0 . . .
26699.0 . . .
26675.0 . . .
26645.0 . . .
26635.0 . . .
26631.0 . . .
26621.0 . . .
26606.0 . . .
26593.0 . . .
26587.0 . . .
26603.0 . . .
26596.0 . . .
26589.0 . . .
26597.0 . . .
26587.0 . . .
26585.0 . . .
26568.0 . . .
26565.0 . . .
26558.0 . . .
26557.0 . . .
26562.0 . . .
26567.0 . . .
26572.0 . . .
26566.0 . . .
26584.0 . . .
26595.0 . . .
26597.0 . . .
26588.0 . . .
26578.0 . . .
26560.0 . . .
26556.0 . . .
26531.0 . . .
26532.0 . . .
26540.0 . . .
26537.0 . . .
26553.0 . . .
26555.0 . . .
26565.0 . . .
26590.0 . . .
26615.0 . . .
26640.0 . . .
26663.0 . . .
26675.0 . . .
26668.0 . . .
26668.0 . . .
26658.0 . . .
26635.0 . . .
26600.0 . . .
26559.0 . . .
26502.0 . . .
26451.0 . . .
26394.0 . . .
26321.0 . . .
26246.0 . . .
26179.0 . . .
26111.0 . . .
26052.0 . . .
25958.0 . . .
25862.0 . . .
25740.0 . . .
25700.0 . . .
25843.0 . . .
25904.0 . . .
25948.0 . . .
25985.0 . . .
25999.0 . . .
25989.0 . . .
25975.0 . . .
25963.0 . . .
25963.0 . . .
25959.0 . . .
25963.0 . . .
25938.0 . . .
25926.0 . . .
25932.0 . . .
25921.0 . . .
25918.0 . . .
25917.0 . . .
25915.0 . . .
25900.0 . . .
25886.0 . . .
25878.0 . . .
25880.0 . . .
25882.0 . . .
25870.0 . . .
25866.0 . . .
25876.0 . . .
25876.0 . . .
25864.0 . . .
25864.0 . . .
25853.0 . . .
25848.0 . . .
25853.0 . . .
25847.0 . . .
25828.0 . . .
25813.0 . . .
25800.0 . . .
25812.0 . . .
25818.0 . . .
25802.0 . . .
25782.0 . . .
25777.0 . . .
25777.0 . . .
25773.0 . . .
25768.0 . . .
25769.0 . . .
25767.0 . . .
25760.0 . . .
25764.0 . . .
25772.0 . . .
25784.0 . . .
25789.0 . . .
25791.0 . . .
25789.0 . . .
25778.0 . . .
25766.0 . . .
25765.0 . . .
25764.0 . . .
25743.0 . . .
25718.0 . . .
25708.0 . . .
25701.0 . . .
25668.0 . . .
25643.0 . . .
25603.0 . . .
25585.0 . . .
25575.0 . . .
25555.0 . . .
25552.0 . . .
25527.0 . . .
25508.0 . . .
25500.0 . . .
25486.0 . . .
25472.0 . . .
25466.0 . . .
25462.0 . . .
25460.0 . . .
25452.0 . . .
25452.0 . . .
25438.0 . . .
25395.0 . . .
25370.0 . . .
25358.0 . . .
25348.0 . . .
25323.0 . . .
25327.0 . . .
25318.0 . . .
25290.0 . . .
25285.0 . . .
25265.0 . . .
25259.0 . . .
25241.0 . . .
25214.0 . . .
25192.0 . . .
25180.0 . . .
25163.0 . . .
25148.0 . . .
25129.0 . . .
25091.0 . . .
25068.0 . . .
25048.0 . . .
25010.0 . . .
24983.0 . . .
24955.0 . . .
24941.0 . . .
24928.0 . . .
24925.0 . . .
24910.0 . . .
24874.0 . . .
24862.0 . . .
24837.0 . . .
24824.0 . . .
24811.0 . . .
24793.0 . . .
24782.0 . . .
24776.0 . . .
24763.0 . . .
24751.0 . . .
24771.0 . . .
24757.0 . . .
24762.0 . . .
24752.0 . . .
24734.0 . . .
24730.0 . . .
24717.0 . . .
24712.0 . . .
24701.0 . . .
24683.0 . . .
24666.0 . . .
24638.0 . . .
24618.0 . . .
24585.0 . . .
24530.0 . . .
24517.0 . . .
24500.0 . . .
24479.0 . . .
24463.0 . . .
24438.0 . . .
24414.0 . . .
24397.0 . . .
24379.0 . . .
24369.0 . . .
24368.0 . . .
24354.0 . . .
24347.0 . . .
24332.0 . . .
24311.0 . . .
24272.0 . . .
24249.0 . . .
24237.0 . . .
24216.0 . . .
24194.0 . . .
24153.0 . . .
24121.0 . . .
24099.0 . . .
24065.0 . . .
24033.0 . . .
24009.0 . . .
23969.0 . . .
23949.0 . . .
23929.0 . . .
23904.0 . . .
23871.0 . . .
23836.0 . . .
23810.0 . . .
23772.0 . . .
23754.0 . . .
23768.0 . . .
23731.0 . . .
23693.0 . . .
23658.0 . . .
23636.0 . . .
23622.0 . . .
23609.0 . . .
23575.0 . . .
23552.0 . . .
23530.0 . . .
23508.0 . . .
23491.0 . . .
23469.0 . . .
23445.0 . . .
23425.0 . . .
23404.0 . . .
23378.0 . . .
23336.0 . . .
23305.0 . . .
23277.0 . . .
23262.0 . . .
23233.0 . . .
23216.0 . . .
23186.0 . . .
23165.0 . . .
23143.0 . . .
23128.0 . . .
23105.0 . . .
23084.0 . . .
23049.0 . . .
23005.0 . . .
22993.0 . . .
22972.0 . . .
22929.0 . . .
22908.0 . . .
22891.0 . . .
22867.0 . . .
22836.0 . . .
22815.0 . . .
22821.0 . . .
22802.0 . . .
22771.0 . . .
22771.0 . . .
22737.0 . . .
22723.0 . . .
22735.0 . . .
22701.0 . . .
22659.0 . . .
22616.0 . . .
22598.0 . . .
22585.0 . . .
22572.0 . . .
22551.0 . . .
22539.0 . . .
22531.0 . . .
22519.0 . . .
22500.0 . . .
22480.0 . . .
22459.0 . . .
22444.0 . . .
22420.0 . . .
22400.0 . . .
22390.0 . . .
22391.0 . . .
22393.0 . . .
22385.0 . . .
22373.0 . . .
22364.0 . . .
22329.0 . . .
22311.0 . . .
22296.0 . . .
22280.0 . . .
22269.0 . . .
22258.0 . . .
22241.0 . . .
22225.0 . . .
22202.0 . . .
22172.0 . . .
22156.0 . . .
22138.0 . . .
22110.0 . . .
22077.0 . . .
22069.0 . . .
22066.0 . . .
22015.0 . . .
21985.0 . . .
21963.0 . . .
21970.0 . . .
21961.0 . . .
21921.0 . . .
21883.0 . . .
21848.0 . . .
21813.0 . . .
21783.0 . . .
21740.0 . . .
21700.0 . . .
21682.0 . . .
21666.0 . . .
21640.0 . . .
21630.0 . . .
21593.0 . . .
21577.0 . . .
21579.0 . . .
21556.0 . . .
21535.0 . . .
21492.0 . . .
21466.0 . . .
21450.0 . . .
21407.0 . . .
21405.0 . . .
21354.0 . . .
21302.0 . . .
21290.0 . . .
21247.0 . . .
21214.0 . . .
21186.0 . . .
21157.0 . . .
21135.0 . . .
21091.0 . . .
21052.0 . . .
21038.0 . . .
21001.0 . . .
20982.0 . . .
20934.0 . . .
20903.0 . . .
20885.0 . . .
20863.0 . . .
20855.0 . . .
20833.0 . . .
20813.0 . . .
20806.0 . . .
20743.0 . . .
20719.0 . . .
20707.0 . . .
20683.0 . . .
20665.0 . . .
20636.0 . . .
20599.0 . . .
20585.0 . . .
20566.0 . . .
20540.0 . . .
20470.0 . . .
20434.0 . . .
20388.0 . . .
20363.0 . . .
20342.0 . . .
20311.0 . . .
20319.0 . . .
20279.0 . . .
20252.0 . . .
20256.0 . . .
20205.0 . . .
20159.0 . . .
20127.0 . . .
20098.0 . . .
20085.0 . . .
20018.0 . . .
19991.0 . . .
19985.0 . . .
19947.0 . . .
19943.0 . . .
19898.0 . . .
19850.0 . . .
19836.0 . . .
19827.0 . . .
19817.0 . . .
19765.0 . . .
19737.0 . . .
19713.0 . . .
19699.0 . . .
19692.0 . . .
19632.0 . . .
19595.0 . . .
19570.0 . . .
19557.0 . . .
19550.0 . . .
19495.0 . . .
19483.0 . . .
19455.0 . . .
19454.0 . . .
19417.0 . . .
19367.0 . . .
19329.0 . . .
19298.0 . . .
19282.0 . . .
19247.0 . . .
19185.0 . . .
19176.0 . . .
19150.0 . . .
19146.0 . . .
19109.0 . . .
19064.0 . . .
19023.0 . . .
18985.0 . . .
18976.0 . . .
18928.0 . . .
18906.0 . . .
18905.0 . . .
18890.0 . . .
18872.0 . . .
18792.0 . . .
18771.0 . . .
18765.0 . . .
18756.0 . . .
18725.0 . . .
18676.0 . . .
18648.0 . . .
18634.0 . . .
18645.0 . . .
18599.0 . . .
18535.0 . . .
18504.0 . . .
18482.0 . . .
18498.0 . . .
18427.0 . . .
18407.0 . . .
18378.0 . . .
18373.0 . . .
18348.0 . . .
18289.0 . . .
18267.0 . . .
18235.0 . . .
18255.0 . . .
18224.0 . . .
18159.0 . . .
18143.0 . . .
18118.0 . . .
18118.0 . . .
18058.0 . . .
18027.0 . . .
17988.0 . . .
17981.0 . . .
17987.0 . . .
17941.0 . . .
17904.0 . . .
17889.0 . . .
17911.0 . . .
17879.0 . . .
17815.0 . . .
17787.0 . . .
17770.0 . . .
17770.0 . . .
17698.0 . . .
17656.0 . . .
17622.0 . . .
17612.0 . . .
17587.0 . . .
17523.0 . . .
17515.0 . . .
17491.0 . . .
17490.0 . . .
17432.0 . . .
17374.0 . . .
17360.0 . . .
17368.0 . . .
17360.0 . . .
17279.0 . . .
17222.0 . . .
17212.0 . . .
17222.0 . . .
17159.0 . . .
17106.0 . . .
17089.0 . . .
17065.0 . . .
17057.0 . . .
16977.0 . . .
16956.0 . . .
16938.0 . . .
16953.0 . . .
16924.0 . . .
16830.0 . . .
16797.0 . . .
16796.0 . . .
16819.0 . . .
16744.0 . . .
16706.0 . . .
16683.0 . . .
16703.0 . . .
16644.0 . . .
16601.0 . . .
16611.0 . . .
16600.0 . . .
16581.0 . . .
16489.0 . . .
16437.0 . . .
16398.0 . . .
16400.0 . . .
16343.0 . . .
16315.0 . . .
16303.0 . . .
16326.0 . . .
16318.0 . . .
16228.0 . . .
16235.0 . . .
16227.0 . . .
16201.0 . . .
16104.0 . . .
16065.0 . . .
16055.0 . . .
16062.0 . . .
16019.0 . . .
15949.0 . . .
15921.0 . . .
15902.0 . . .
15881.0 . . .
15803.0 . . .
15789.0 . . .
15790.0 . . .
15796.0 . . .
15706.0 . . .
15627.0 . . .
15606.0 . . .
15645.0 . . .
15608.0 . . .
15527.0 . . .
15498.0 . . .
15509.0 . . .
15495.0 . . .
15399.0 . . .
15363.0 . . .
15362.0 . . .
15393.0 . . .
15312.0 . . .
15252.0 . . .
15244.0 . . .
15271.0 . . .
15221.0 . . .
15127.0 . . .
15101.0 . . .
15122.0 . . .
15110.0 . . .
15036.0 . . .
14991.0 . . .
14957.0 . . .
14973.0 . . .
14892.0 . . .
14825.0 . . .
14845.0 . . .
14874.0 . . .
14772.0 . . .
14693.0 . . .
14713.0 . . .
14741.0 . . .
14664.0 . . .
14594.0 . . .
14605.0 . . .
14618.0 . . .
14586.0 . . .
14467.0 . . .
14463.0 . . .
14490.0 . . .
14464.0 . . .
14361.0 . . .
14311.0 . . .
14326.0 . . .
14336.0 . . .
14239.0 . . .
14189.0 . . .
14180.0 . . .
14191.0 . . .
14110.0 . . .
14075.0 . . .
14091.0 . . .
14128.0 . . .
14032.0 . . .
13923.0 . . .
13911.0 . . .
13900.0 . . .
13843.0 . . .
13765.0 . . .
13735.0 . . .
13746.0 . . .
13697.0 . . .
13614.0 . . .
13592.0 . . .
13623.0 . . .
13602.0 . . .
13486.0 . . .
13472.0 . . .
13490.0 . . .
13467.0 . . .
13389.0 . . .
13346.0 . . .
13338.0 . . .
13311.0 . . .
13180.0 . . .
13134.0 . . .
13156.0 . . .
13172.0 . . .
13084.0 . . .
12991.0 . . .
12987.0 . . .
13005.0 . . .
12921.0 . . .
12869.0 . . .
12874.0 . . .
12894.0 . . .
12801.0 . . .
12714.0 . . .
12687.0 . . .
12726.0 . . .
12660.0 . . .
12563.0 . . .
12540.0 . . .
12578.0 . . .
12503.0 . . .
12418.0 . . .
12413.0 . . .
12444.0 . . .
12356.0 . . .
12261.0 . . .
12216.0 . . .
12264.0 . . .
12193.0 . . .
12096.0 . . .
12077.0 . . .
12103.0 . . .
12051.0 . . .
11987.0 . . .
11955.0 . . .
11925.0 . . .
11834.0 . . .
11766.0 . . .
11763.0 . . .
11790.0 . . .
11728.0 . . .
11638.0 . . .
11588.0 . . .
11607.0 . . .
11491.0 . . .
11426.0 . . .
11399.0 . . .
11396.0 . . .
11279.0 . . .
11249.0 . . .
11254.0 . . .
11246.0 . . .
11126.0 . . .
11089.0 . . .
11099.0 . . .
11067.0 . . .
10912.0 . . .
10857.0 . . .
10865.0 . . .
10848.0 . . .
10698.0 . . .
10644.0 . . .
10681.0 . . .
10677.0 . . .
10532.0 . . .
10477.0 . . .
10501.0 . . .
10468.0 . . .
10327.0 . . .
10295.0 . . .
10324.0 . . .
10220.0 . . .
10113.0 . . .
10061.0 . . .
10122.0 . . .
10020.0 . . .
9943.0 . . .
9933.0 . . .
9932.0 . . .
9775.0 . . .
9754.0 . . .
9775.0 . . .
9783.0 . . .
9666.0 . . .
9639.0 . . .
9660.0 . . .
9652.0 . . .
9515.0 . . .
9549.0 . . .
9666.0 . . .
9593.0 . . .
9473.0 . . .
9465.0 . . .
9511.0 . . .
9405.0 . . .
9327.0 . . .
9359.0 . . .
9417.0 . . .
9258.0 . . .
9233.0 . . .
9289.0 . . .
9287.0 . . .
9149.0 . . .
9161.0 . . .
9216.0 . . .
9140.0 . . .
9049.0 . . .
9056.0 . . .
9098.0 . . .
8963.0 . . .
8911.0 . . .
8963.0 . . .
9017.0 . . .
8858.0 . . .
8837.0 . . .
8855.0 . . .
8796.0 . . .
8641.0 . . .
8685.0 . . .
8839.0 . . .
8735.0 . . .
8574.0 . . .
8567.0 . . .
8634.0 . . .
8509.0 . . .
8484.0 . . .
8574.0 . . .
8580.0 . . .
8383.0 . . .
8395.0 . . .
8495.0 . . .
8368.0 . . .
8273.0 . . .
8356.0 . . .
8420.0 . . .
8219.0 . . .
8201.0 . . .
8293.0 . . .
8256.0 . . .
8100.0 . . .
8130.0 . . .
8168.0 . . .
8024.0 . . .
8027.0 . . .
8070.0 . . .
8070.0 . . .
7936.0 . . .
7943.0 . . .
7984.0 . . .
7878.0 . . .
7840.0 . . .
7915.0 . . .
7917.0 . . .
7747.0 . . .
7752.0 . . .
7752.0 . . .
7713.0 . . .
7635.0 . . .
7665.0 . . .
7684.0 . . .
7586.0 . . .
7573.0 . . .
7618.0 . . .
7599.0 . . .
7463.0 . . .
7447.0 . . .
7467.0 . . .
7415.0 . . .
7353.0 . . .
7345.0 . . .
7376.0 . . .
7310.0 . . .
7306.0 . . .
7292.0 . . .
7280.0 . . .
7200.0 . . .
7180.0 . . .
7188.0 . . .
7124.0 . . .
7102.0 . . .
7053.0 . . .
7042.0 . . .
6994.0 . . .
6957.0 . . .
6950.0 . . .
6951.0 . . .
6926.0 . . .
6894.0 . . .
6864.0 . . .
6826.0 . . .
6762.0 . . .
6761.0 . . .
6794.0 . . .
6712.0 . . .
6691.0 . . .
6664.0 . . .
6632.0 . . .
6608.0 . . .
6553.0 . . .
6571.0 . . .
6498.0 . . .
6495.0 . . .
6511.0 . . .
6477.0 . . .
6428.0 . . .
6347.0 . . .
6313.0 . . .
6292.0 . . .
6243.0 . . .
6213.0 . . .
6204.0 . . .
6178.0 . . .
6172.0 . . .
6124.0 . . .
6092.0 . . .
6090.0 . . .
5996.0 . . .
5982.0 . . .
5990.0 . . .
5931.0 . . .
5931.0 . . .
5887.0 . . .
5826.0 . . .
5819.0 . . .
5767.0 . . .
5765.0 . . .
5734.0 . . .
5691.0 . . .
5675.0 . . .
5648.0 . . .
5603.0 . . .
5564.0 . . .
5514.0 . . .
5500.0 . . .
5395.0 . . .
5322.0 . . .
5328.0 . . .
5244.0 . . .
5260.0 . . .
5249.0 . . .
5178.0 . . .
5155.0 . . .
5078.0 . . .
5002.0 . . .
5050.0 . . .
4919.0 . . .
4918.0 . . .
4926.0 . . .
4767.0 . . .
4715.0 . . .
4657.0 . . .
4555.0 . . .
4540.0 . . .
4476.0 . . .
4413.0 . . .
4347.0 . . .
4111.0 . . .
4115.0 . . .
4114.0 . . .
3824.0 . . .
3656.0 . . .
3354.0 . . .
3012.0 . . .
2929.0 . . .
2416.0 . . .
1978.0 . . .
1975.0 . . .
3630.0 . . .
4284.0 . . .
loop_
_refln_index_h
_refln_index_k
_refln_index_l
_refln_observed_status
_refln_F_squared_meas
_refln_F_squared_calc
_refln_phase_calc
_refln_d_spacing
_gsas_i100_meas
0 0 4 o 18959.736 6847.436 -95.26 3.83625 5.02
1 1 0 o 141.287 15.797 180.00 4.61655 0.32
1 1 1 o 635.918 338.627 -164.91 4.42082 5.12
0 0 6 o 540.622 409.520 -173.63 2.55750 0.06
1 1 2 o 6273.291 5851.423 -57.95 3.95569 28.07
0 2 0 o 7916.458 7373.403 0.00 3.82065 12.16
1 1 3 o 93.324 25.611 163.68 3.42710 0.13
1 1 4 o 5193.522 4609.507 -46.12 2.95050 17.72
0 2 1 o 206.729 166.194 87.15 3.70746 0.42
1 1 5 o 4120.511 3107.050 -47.05 2.55578 8.87
0 2 2 o 1025.218 782.274 111.17 3.42007 2.31
0 0 8 o 24912.533 18195.367 -91.47 1.91813 1.65
1 1 6 o 20790.059 21065.965 -23.99 2.23715 0.44
2 0 2 o 76.693 65.515 -113.45 2.70999 0.64
0 2 3 o 8473.528 7563.688 -39.10 3.06100 11.21
0 2 4 o 1075.068 943.515 144.09 2.70711 2.26
1 1 7 o 0.000 1340.479 -54.10 1.98023 0.00
2 0 4 o 4663.810 4629.052 -93.39 2.31170 9.54
0 2 5 o 1060.023 1068.249 170.05 2.39267 0.78
2 0 6 o 0.000 393.984 -167.53 1.91719 0.00
2 0 0 o 144085.14 142893.48 0.00 2.89670 100.00
0 2 6 o 0.000 1768.595 173.82 2.12529 0.00
1 1 8 o 0.000 783.554 148.69 1.77132 0.00
0 2 7 o 11428.192 9905.542 -78.02 1.90140 4.70
1 1 9 o 0.000 3346.496 -105.64 1.59941 0.00
0 0 10 o 1360.721 1281.057 -17.59 1.53450 0.06
0 2 8 o 192.759 150.126 175.70 1.71422 0.27
2 2 3 o 6415.701 5168.184 -38.70 2.10396 13.64
2 0 8 o 15696.210 14844.701 -91.71 1.59928 15.91
2 2 2 o 458.098 540.800 107.35 2.21041 0.92
1 3 1 o 4826.187 4776.186 -43.69 2.30523 4.89
1 3 3 o 989.162 901.536 63.33 2.12165 2.43
1 3 2 o 18013.984 18255.543 155.52 2.23095 40.94
2 2 1 o 97.455 115.746 98.49 2.28259 0.13
2 2 4 o 2626.485 755.777 146.13 1.97784 2.94
1 1 10 o 0.000 4480.977 -158.04 1.45617 0.00
2 2 5 o 686.232 708.742 172.90 1.84474 0.23
0 2 9 o 796.474 746.522 -64.45 1.55700 1.71
1 3 0 o 5383.372 5480.929 180.00 2.33169 1.72
2 2 0 o 4936.884 4947.801 0.00 2.30827 2.82
1 3 4 o 1864.243 523.617 44.73 1.99252 2.49
0 2 10 o 1425.443 1464.456 -9.82 1.42394 3.62
1 3 5 o 1986.556 2249.934 -104.11 1.85662 1.20
1 3 6 o 4293.301 3260.523 43.03 1.72307 1.40
2 0 10 o 0.000 1105.090 -18.08 1.35599 0.00
2 2 6 o 1768.441 1426.725 173.42 1.71355 0.62
2 2 7 o 8468.984 8219.954 -78.10 1.58955 5.76
1 1 11 o 0.000 1861.325 -166.24 1.33537 0.00
1 3 7 o 133.947 129.096 79.61 1.59714 0.00
1 3 8 o 0.000 997.606 88.16 1.48131 0.00
2 2 8 o 114.103 112.132 -171.22 1.47525 0.10
3 1 3 o 41.949 15.149 154.21 1.75818 0.01
2 2 9 o 624.943 621.277 -65.92 1.37144 0.49
3 1 5 o 2027.888 1966.516 -48.07 1.59832 2.44
3 1 2 o 3164.224 3035.098 -55.01 1.81889 2.84
3 1 4 o 2916.481 2683.008 -45.44 1.68257 4.18
0 4 2 o 3602.396 3806.567 94.39 1.85373 1.85
0 4 4 o 16474.926 14019.589 150.59 1.71004 9.31
0 4 3 o 500.609 306.985 -108.56 1.78959 0.35
0 4 1 o 1199.446 1125.945 153.13 1.89569 0.67
3 1 1 o 20.033 25.271 -133.95 1.85848 0.15
3 1 7 o 748.315 781.097 -56.91 1.42368 1.55
3 1 6 o 12803.628 12703.117 -25.67 1.51071 12.62
1 3 9 o 0.000 3680.469 -117.13 1.37630 0.00
0 4 5 o 2304.275 2103.364 -138.95 1.62180 0.71
0 4 6 o 2434.842 2324.658 162.90 1.53050 0.81
0 4 0 o 4285.718 4206.699 180.00 1.91033 1.65
3 1 8 o 526.129 528.029 141.10 1.33981 1.99
3 1 0 o 9.155 45.707 180.00 1.87227 0.06
0 4 7 o 714.045 682.101 -94.65 1.44020 0.35
0 4 8 o 6052.219 6034.337 105.71 1.35355 3.19
2 4 4 o 12400.684 12162.935 149.35 1.47258 16.58
2 4 2 o 3099.632 3062.367 95.31 1.56138 2.36
2 4 6 o 0.000 1987.376 162.81 1.35322 0.00
2 4 3 o 271.207 269.990 -110.01 1.52247 0.25
2 4 5 o 1529.372 1703.133 -140.18 1.41510 0.97
3 3 5 o 1561.519 1561.821 -98.19 1.37561 1.30
3 3 3 o 462.590 459.372 67.50 1.47361 0.42
2 4 1 o 877.719 896.728 154.53 1.58621 1.55
3 3 4 o 299.895 310.197 44.60 1.42823 0.30
3 3 6 o 2545.769 2559.421 47.83 1.31856 1.27
3 3 2 o 11139.768 11101.370 157.82 1.50880 7.48
2 4 0 o 3570.274 3529.660 180.00 1.59475 4.52
3 3 1 o 3103.221 2958.818 -42.60 1.53117 1.66
4 0 4 o 2566.542 2567.809 -83.85 1.35499 5.38
1 5 4 o 1729.606 1781.088 -23.81 1.37895 3.02
4 0 2 o 0.000 57.187 -13.34 1.42321 0.00
1 5 2 o 6757.645 6470.518 -176.74 1.45104 3.35
1 5 5 o 3817.651 3869.843 126.13 1.33141 6.64
1 5 3 o 290.520 330.173 27.31 1.41965 0.39
3 3 0 o 4077.915 3878.432 180.00 1.53885 1.04
1 5 1 o 0.000 1093.771 -118.37 1.47091 0.00
1 5 0 o 0.000 2982.661 180.00 1.47771 0.00
4 2 2 o 0.000 420.543 100.36 1.33369 0.00
4 0 0 o 59997.21 58093.47 0.00 1.44835 10.46
4 2 1 o 0.000 115.443 127.79 1.34906 0.00
4 2 0 o 2530.745 2502.122 0.00 1.35430 0.66
