#------------------------------------------------------------------------------
#$Date: 2019-11-25 06:40:17 +0200 (Mon, 25 Nov 2019) $
#$Revision: 240258 $
#$URL: file:///home/coder/svn-repositories/cod/cif/4/12/95/4129561.cif $
#------------------------------------------------------------------------------
#
# This file is available in the Crystallography Open Database (COD),
# http://www.crystallography.net/
#
# All data on this site have been placed in the public domain by the
# contributors.
#
data_4129561
loop_
_publ_author_name
'Tian, Di'
'Winter, Stephen M.'
'Mailman, Aaron'
'Wong, Joanne W. L.'
'Yong, Wenjun'
'Yamaguchi, Hiroshi'
'Jia, Yating'
'Tse, John S.'
'Desgreniers, Serge'
'Secco, Richard A.'
'Julian, Stephen R.'
'Jin, Changqing'
'Mito, Masaki'
'Ohishi, Yasuo'
'Oakley, Richard T.'
_publ_section_title
;
 The metallic state in neutral radical conductors: dimensionality,
 pressure and multiple orbital effects.
;
_journal_issue                   44
_journal_name_full               'Journal of the American Chemical Society'
_journal_page_first              14136
_journal_page_last               14148
_journal_paper_doi               10.1021/jacs.5b08254
_journal_volume                  137
_journal_year                    2015
_chemical_formula_moiety         'C6 F N2 O S4'
_chemical_formula_sum            'C6 F N2 O S4'
_chemical_formula_weight         263.32
_chemical_name_common            FBBO
_space_group_IT_number           36
_space_group_name_Hall           'C 2c -2'
_space_group_name_H-M_alt        'C m c 21'
_symmetry_cell_setting           orthorhombic
_symmetry_space_group_name_H-M   'C m c 21'
_audit_creation_date             2015-03-11T14:28
_audit_creation_method           'from EXP file using GSAS2CIF'
_audit_update_record
' 2015-03-11T14:28  Initial CIF as created by GSAS2CIF'
_cell_angle_alpha                90.0
_cell_angle_beta                 90.0
_cell_angle_gamma                90.0
_cell_formula_units_Z            4
_cell_length_a                   6.20057(7)
_cell_length_b                   7.8636(5)
_cell_length_c                   15.7606(20)
_cell_measurement_temperature    293(2)
_cell_volume                     768.47(11)
_computing_structure_refinement  GSAS
_diffrn_ambient_temperature      293(2)
_diffrn_measurement_device_type  'SPring-8 BL10XU'
_diffrn_radiation_polarisn_ratio 0.95
_diffrn_radiation_probe          x-ray
_diffrn_radiation_wavelength     0.41244
_diffrn_source                   synchrotron
_exptl_absorpt_correction_T_max  1.00000
_exptl_absorpt_correction_T_min  1.00000
_exptl_absorpt_process_details
;   GSAS Absorption/surface roughness correction: function number 0
 No correction is applied.
;
_pd_block_id                     'SPring-8 PXRD for 2 (R = F) at 1.0 GPa'
_pd_calc_method                  'Rietveld Refinement'
_pd_instr_location               ' ?'
_pd_meas_2theta_range_inc        0.01
_pd_meas_2theta_range_max        28.23
_pd_meas_2theta_range_min        1.0
_pd_meas_number_of_points        2724
_pd_phase_name
'from C:/GSAS/MyWork/FBBO/003/FBBO_RT_003b_flat_shift.cif'
_pd_proc_2theta_range_inc        0.01
_pd_proc_2theta_range_max        28.22955
_pd_proc_2theta_range_min        0.99954
_pd_proc_info_datetime           2015-03-11T14:28:49
_pd_proc_info_excluded_regions   ' ?'
_pd_proc_ls_background_function
;   GSAS Background function number 1 with  8 terms.
 Shifted Chebyshev function of 1st kind
      1:    20221.8     2:    9733.70     3:   -1095.36     4:   -136.407    
      5:  -0.379375     6:   -1.47776     7:   -74.0659     8:   -36.8474    
;
_pd_proc_ls_peak_cutoff          0.00100
_pd_proc_ls_profile_function
;
 CW Profile function number 2 with  18 terms
 Profile coefficients for Simpson's rule integration of pseudovoigt function
 C.J. Howard (1982). J. Appl. Cryst.,15,615-620.
 P. Thompson, D.E. Cox & J.B. Hastings (1987). J. Appl. Cryst.,20,79-83.
 #1(GU)   = 1160.600 #2(GV)   = -133.174 #3(GW)   =    5.971
 #4(LX)   =    0.000 #5(LY)   =   18.840 #6(trns) =   -0.268
 #7(asym) =  -0.0397 #8(shft) =  -0.0594 #9(GP)   =    0.000
 #10(stec)=    26.04 #11(ptec)=     1.03 #12(sfec)=     0.00
 #13(L11) =    0.002 #14(L22) =    0.000 #15(L33) =    0.001
 #16(L12) =   -0.002 #17(L13) =    0.002 #18(L23) =   -0.001
 Peak tails are ignored  where the intensity is below 0.0010 times the peak
   Aniso. broadening axis   0.0   0.0   1.0
;
_pd_proc_ls_prof_R_factor        0.0046
_pd_proc_ls_prof_wR_expected     0.0069
_pd_proc_ls_prof_wR_factor       0.0064
_pd_proc_number_of_points        2724
_pd_spec_mounting                ' ?'
_refine_ls_goodness_of_fit_all   0.93
_refine_ls_matrix_type           full
_refine_ls_number_parameters     36
_refine_ls_number_restraints     0
_refine_ls_R_Fsqd_factor         0.13293
_refine_ls_shift/su_max          0.01
_refine_ls_shift/su_mean         0.00
_reflns_d_resolution_high        1.320
_reflns_d_resolution_low         4.869
_reflns_limit_h_max              4
_reflns_limit_h_min              0
_reflns_limit_k_max              6
_reflns_limit_k_min              0
_reflns_limit_l_max              12
_reflns_limit_l_min              0
_reflns_number_total             104
_cod_data_source_file            ja5b08254_si_001.cif
_cod_data_source_block           2(R=F)_at_1.0_GPa
_cod_depositor_comments
;
The following automatic conversions were performed:

data item '_geom_angle_publ_flag' value 'N' was changed to 'n' in
accordance with the
/home/saulius/struct/COD-crude-data/automatic-downloads/DataCite-retrospective/ACS/depositions/lib/dictionaries/cif_core.dic
dictionary named 'cif_core.dic' version 2.4.2 last updated on
2011-04-26 (24 times).

data item '_geom_bond_publ_flag' value 'N' was changed to 'n' in
accordance with the
/home/saulius/struct/COD-crude-data/automatic-downloads/DataCite-retrospective/ACS/depositions/lib/dictionaries/cif_core.dic
dictionary named 'cif_core.dic' version 2.4.2 last updated on
2011-04-26 (40 times).

Automatic conversion script
Id: cif_fix_values 6909 2019-04-08 15:41:33Z antanas 
;
_cod_original_cell_volume        768.47(8)
_cod_database_code               4129561
_gsas_exptl_extinct_corr_t_min   1.00000
_gsas_exptl_extinct_corr_t_max   1.00000
loop_
_symmetry_equiv_pos_site_id
_symmetry_equiv_pos_as_xyz
1 +x,+y,+z
2 -x,+y,+z
3 +x,-y,+z+1/2
4 -x,-y,+z+1/2
101 +x+1/2,+y+1/2,+z
102 -x+1/2,+y+1/2,+z
103 +x+1/2,-y+1/2,+z+1/2
104 -x+1/2,-y+1/2,+z+1/2
loop_
_atom_site_type_symbol
_atom_site_label
_atom_site_fract_x
_atom_site_fract_y
_atom_site_fract_z
_atom_site_occupancy
_atom_site_thermal_displace_type
_atom_site_U_iso_or_equiv
_atom_site_symmetry_multiplicity
S S1 0.0 1.12789 0.90196 1.0 Uiso 0.00032 4
S S4 0.0 0.50347 0.54644 1.0 Uiso 0.00032 4
F F1 0.0 0.52025 0.85034 1.0 Uiso 0.00032 4
O O1 0.0 1.04418 0.62383 1.0 Uiso 0.00032 4
N N1 0.0 1.10962 0.79887 1.0 Uiso 0.00032 4
N N2 0.0 0.70576 0.56719 1.0 Uiso 0.00032 4
C C6 0.0 0.9549 0.76834 1.0 Uiso 0.00032 4
C C3 0.0 0.61382 0.70997 1.0 Uiso 0.00032 4
C C4 0.0 0.65155 0.79556 1.0 Uiso 0.00032 4
C C2 0.0 0.74512 0.64906 1.0 Uiso 0.00032 4
C C5 0.0 0.81513 0.82625 1.0 Uiso 0.00032 4
S S2 0.0 0.86831 0.93342 1.0 Uiso 0.00032 4
S S3 0.0 0.40732 0.67101 1.0 Uiso 0.00032 4
C C1 0.0 0.92843 0.67457 1.0 Uiso 0.00032 4
loop_
_atom_type_symbol
_atom_type_number_in_cell
_atom_type_scat_dispersion_real
_atom_type_scat_dispersion_imag
_atom_type_scat_Cromer_Mann_a1
_atom_type_scat_Cromer_Mann_a2
_atom_type_scat_Cromer_Mann_a3
_atom_type_scat_Cromer_Mann_a4
_atom_type_scat_Cromer_Mann_b1
_atom_type_scat_Cromer_Mann_b2
_atom_type_scat_Cromer_Mann_b3
_atom_type_scat_Cromer_Mann_b4
_atom_type_scat_Cromer_Mann_c
_atom_type_scat_source
S 16.0 0.000 0.000 6.90530 1.46790 5.20340 22.2151 1.43790 0.25360 1.58630
56.1720 0.86690 International_Tables_Vol_C
F 4.0 0.000 0.000 3.53920 10.2825 2.64120 4.29440 1.51700 0.26150 1.02430
26.1476 0.27760 International_Tables_Vol_C
O 4.0 0.000 0.000 3.04850 13.2771 2.28680 5.70110 1.54630 0.32390 0.86700
32.9089 0.25080 International_Tables_Vol_C
N 8.0 0.000 0.000 12.2126 0.00570 3.13220 9.89330 2.01250 28.9975 1.16630
0.58260 -11.529 International_Tables_Vol_C
C 24.0 0.000 0.000 2.31000 20.8439 1.02000 10.2075 1.58860 0.56870 0.86500
51.6512 0.21560 International_Tables_Vol_C
loop_
_geom_angle_atom_site_label_1
_geom_angle_atom_site_label_2
_geom_angle_atom_site_label_3
_geom_angle
_geom_angle_site_symmetry_1
_geom_angle_site_symmetry_3
_geom_angle_publ_flag
N1 S1 S2 98.5999(26) 1_555 1_555 n
N2 S4 S3 99.445(4) 1_555 1_555 n
S1 N1 C6 116.6314(21) 1_555 1_555 n
S4 N2 C2 115.10610(20) 1_555 1_555 n
N1 C6 C5 118.715(7) 1_555 1_555 n
N1 C6 C1 119.5952(17) 1_555 1_555 n
C5 C6 C1 121.689(5) 1_555 1_555 n
C4 C3 C2 120.511(6) 1_555 1_555 n
C4 C3 S3 123.1179(10) 1_555 1_555 n
C2 C3 S3 116.371(7) 1_555 1_555 n
F1 C4 C3 117.498(6) 1_555 1_555 n
F1 C4 C5 119.490(7) 1_555 1_555 n
C3 C4 C5 123.0119(10) 1_555 1_555 n
N2 C2 C3 119.427(6) 1_555 1_555 n
N2 C2 C1 119.07350(30) 1_555 1_555 n
C3 C2 C1 121.499(6) 1_555 1_555 n
C6 C5 C4 119.686(7) 1_555 1_555 n
C6 C5 S2 115.801(6) 1_555 1_555 n
C4 C5 S2 124.5135(8) 1_555 1_555 n
S1 S2 C5 90.253(4) 1_555 1_555 n
S4 S3 C3 89.651(5) 1_555 1_555 n
O1 C1 C6 123.285(5) 1_555 1_555 n
O1 C1 C2 123.113(6) 1_555 1_555 n
C6 C1 C2 113.6018(10) 1_555 1_555 n
loop_
_geom_bond_atom_site_label_1
_geom_bond_atom_site_label_2
_geom_bond_distance
_geom_bond_site_symmetry_2
_geom_bond_publ_flag
S1 N1 1.63110(21) 1_555 n
S1 C6 2.50708(23) 1_555 n
S1 S2 2.10059(14) 1_555 n
S4 N2 1.62400(11) 1_555 n
S4 C2 2.49534(17) 1_555 n
S4 S3 2.10385(24) 1_555 n
F1 C3 2.33147(27) 1_555 n
F1 C4 1.34590(9) 1_555 n
F1 C5 2.34970(16) 1_555 n
O1 C1 1.21161(8) 1_555 n
N1 S1 1.63110(21) 1_555 n
N1 C6 1.30835(8) 1_555 n
N2 S4 1.62400(11) 1_555 n
N2 C2 1.32692(16) 1_555 n
C6 S1 2.50708(23) 1_555 n
C6 N1 1.30835(8) 1_555 n
C6 C5 1.42865(9) 1_555 n
C6 C1 1.49246(19) 1_555 n
C3 F1 2.33147(27) 1_555 n
C3 C4 1.38119(17) 1_555 n
C3 C2 1.40982(10) 1_555 n
C3 S3 1.73605(11) 1_555 n
C4 F1 1.34590(9) 1_555 n
C4 C3 1.38119(17) 1_555 n
C4 C5 1.37426(8) 1_555 n
C2 S4 2.49534(17) 1_555 n
C2 N2 1.32692(16) 1_555 n
C2 C3 1.40982(10) 1_555 n
C2 C1 1.49650(10) 1_555 n
C5 F1 2.34970(16) 1_555 n
C5 C6 1.42865(9) 1_555 n
C5 C4 1.37426(8) 1_555 n
C5 S2 1.74006(21) 1_555 n
S2 S1 2.10059(14) 1_555 n
S2 C5 1.74006(21) 1_555 n
S3 S4 2.10385(24) 1_555 n
S3 C3 1.73605(11) 1_555 n
C1 O1 1.21161(8) 1_555 n
C1 C6 1.49246(19) 1_555 n
C1 C2 1.49650(10) 1_555 n
loop_
_pd_meas_counts_total
_pd_proc_ls_weight
_pd_proc_intensity_bkg_calc
_pd_calc_intensity_total
0.0 0.0 5762.72119 .
0.0 0.0 5752.38574 .
0.0 0.0 5742.37158 .
0.0 0.0 5732.67334 .
0.0 0.0 5723.29150 .
0.0 0.0 5714.22266 .
0.0 0.0 5705.46436 .
0.0 0.0 5697.01318 .
0.0 0.0 5688.86768 .
0.0 0.0 5681.02490 .
0.0 0.0 5673.48242 .
0.0 0.0 5666.23682 .
0.0 0.0 5659.28809 .
0.0 0.0 5652.63232 .
0.0 0.0 5646.26758 .
0.0 0.0 5640.19092 .
0.0 0.0 5634.40039 .
0.0 0.0 5628.89355 .
0.0 0.0 5623.66650 .
0.0 0.0 5618.72021 .
0.0 0.0 5614.05029 .
0.0 0.0 5609.65527 .
0.0 0.0 5605.53174 .
0.0 0.0 5601.67871 .
0.0 0.0 5598.09326 .
0.0 0.0 5594.77295 .
0.0 0.0 5591.71436 .
0.0 0.0 5588.91797 .
0.0 0.0 5586.38037 .
0.0 0.0 5584.09961 .
0.0 0.0 5582.07373 .
0.0 0.0 5580.29883 .
0.0 0.0 5578.77490 .
0.0 0.0 5577.49805 .
0.0 0.0 5576.46680 .
0.0 0.0 5575.67969 .
0.0 0.0 5575.13525 .
0.0 0.0 5574.82910 .
0.0 0.0 5574.76123 .
0.0 0.0 5574.92822 .
0.0 0.0 5575.32910 .
0.0 0.0 5575.95947 .
0.0 0.0 5576.82031 .
0.0 0.0 5577.90918 .
0.0 0.0 5579.22266 .
0.0 0.0 5580.75928 .
0.0 0.0 5582.51807 .
0.0 0.0 5584.49561 .
0.0 0.0 5586.69043 .
0.0 0.0 5589.09961 .
0.0 0.0 5591.72314 .
0.0 0.0 5594.55908 .
0.0 0.0 5597.60449 .
0.0 0.0 5600.85742 .
0.0 0.0 5604.31689 .
0.0 0.0 5607.97949 .
0.0 0.0 5611.84375 .
0.0 0.0 5615.90918 .
0.0 0.0 5620.17334 .
0.0 0.0 5624.63428 .
0.0 0.0 5629.29004 .
0.0 0.0 5634.13867 .
0.0 0.0 5639.17920 .
0.0 0.0 5644.40869 .
0.0 0.0 5649.82471 .
0.0 0.0 5655.42822 .
0.0 0.0 5661.21582 .
0.0 0.0 5667.18604 .
0.0 0.0 5673.33740 .
0.0 0.0 5679.66699 .
0.0 0.0 5686.17480 .
0.0 0.0 5692.85791 .
0.0 0.0 5699.71387 .
0.0 0.0 5706.74365 .
0.0 0.0 5713.94385 .
0.0 0.0 5721.31299 .
0.0 0.0 5728.85010 .
0.0 0.0 5736.55273 .
3160.0 0.0 5744.41943 .
3185.0 0.0 5752.44727 .
3213.0 0.0 5760.63770 .
3245.0 0.0 5768.98730 .
3292.0 0.0 5777.49512 .
3339.0 0.0 5786.15869 .
3387.0 0.0 5794.97705 .
3407.0 0.0 5803.94922 .
3440.0 0.0 5813.07227 .
3480.0 0.0 5822.34619 .
3516.0 0.0 5831.76660 .
3562.0 0.0 5841.33594 .
3584.0 0.0 5851.05078 .
3640.0 0.0 5860.90967 .
3677.0 0.0 5870.91113 .
3726.0 0.0 5881.05420 .
3773.0 0.0 5891.33643 .
3801.0 0.0 5901.75781 .
3840.0 0.0 5912.31396 .
3879.0 0.0 5923.00684 .
3911.0 0.0 5933.83447 .
3958.0 0.0 5944.79395 .
4001.0 0.0 5955.88525 .
4045.0 0.0 5967.10645 .
4084.0 0.0 5978.45557 .
4106.0 0.0 5989.93115 .
4155.0 0.0 6001.53320 .
4197.0 0.0 6013.25977 .
4250.0 0.0 6025.10986 .
4281.0 0.0 6037.08154 .
4333.0 0.0 6049.17383 .
4374.0 0.0 6061.38477 .
4419.0 0.0 6073.71240 .
4465.0 0.0 6086.15820 .
4513.0 0.0 6098.71875 .
4550.0 0.0 6111.39355 .
4592.0 0.0 6124.18066 .
4626.0 0.0 6137.08008 .
4663.0 0.0 6150.08936 .
4710.0 0.0 6163.20752 .
4752.0 0.0 6176.43311 .
4805.0 0.0 6189.76416 .
4844.0 0.0 6203.20215 .
4891.0 0.0 6216.74365 .
4929.0 0.0 6230.38867 .
4968.0 0.0 6244.13525 .
5012.0 0.0 6257.98242 .
5063.0 0.0 6271.92871 .
5124.0 0.0 6285.97217 .
5170.0 0.0 6300.11377 .
5195.0 0.0 6314.35156 .
5241.0 0.0 6328.68408 .
5285.0 0.0 6343.11035 .
5336.0 0.0 6357.62939 .
5397.0 0.0 6372.23975 .
5425.0 0.0 6386.93896 .
5465.0 0.0 6401.72852 .
5512.0 0.0 6416.60645 .
5574.0 0.0 6431.57178 .
5622.0 0.0 6446.62305 .
5675.0 0.0 6461.75928 .
5728.0 0.0 6476.97900 .
5752.0 0.0 6492.28223 .
5795.0 0.0 6507.66699 .
5839.0 0.0 6523.13135 .
5873.0 0.0 6538.67676 .
5934.0 0.0 6554.30078 .
5966.0 0.0 6570.00244 .
6003.0 0.0 6585.78125 .
6041.0 0.0 6601.63574 .
6090.0 0.0 6617.56494 .
6143.0 0.0 6633.56689 .
6189.0 0.0 6649.64258 .
6237.0 0.0 6665.79053 .
6267.0 0.0 6682.00928 .
6301.0 0.0 6698.29785 .
6345.0 0.0 6714.65625 .
6371.0 0.0 6731.08203 .
6403.0 0.0 6747.57373 .
6468.0 0.0 6764.13330 .
6502.0 0.0 6780.75781 .
6519.0 0.0 6797.44727 .
6553.0 0.0 6814.20020 .
6569.0 0.0 6831.01563 .
6610.0 0.0 6847.89307 .
6636.0 0.0 6864.83154 .
6683.0 0.0 6881.83008 .
6726.0 0.0 6898.88623 .
6744.0 0.0 6916.00244 .
6759.0 0.0 6933.17627 .
6774.0 0.0 6950.40674 .
6791.0 0.0 6967.69238 .
6819.0 0.0 6985.03418 .
6848.0 0.0 7002.42920 .
6886.0 0.0 7019.87842 .
6917.0 0.0 7037.37842 .
6943.0 0.0 7054.93164 .
6963.0 0.0 7072.53564 .
6971.0 0.0 7090.19043 .
7003.0 0.0 7107.89404 .
7038.0 0.0 7125.64697 .
7059.0 0.0 7143.44727 .
7085.0 0.0 7161.29395 .
7121.0 0.0 7179.18799 .
7153.0 0.0 7197.12793 .
7159.0 0.0 7215.11279 .
7158.0 0.0 7233.14160 .
7185.0 0.0 7251.21387 .
7207.0 0.0 7269.32910 .
7221.0 0.0 7287.48486 .
7252.0 0.0 7305.68506 .
7279.0 0.0 7323.92285 .
7298.0 0.0 7342.20215 .
7334.0 0.0 7360.52051 .
7350.0 0.0 7378.87744 .
7393.0 0.0 7397.27246 .
7403.0 0.0 7415.70459 .
7444.0 0.0 7434.17334 .
7504.0 0.0 7452.67627 .
7635.0 0.0 7471.21582 .
7820.0 0.0 7489.79053 .
7970.0 0.0 7508.39893 .
8030.0 0.0 7527.04053 .
7961.0 0.0 7545.71484 .
7794.0 0.0 7564.42139 .
7696.0 0.0 7583.15820 .
7656.0 0.0 7601.92676 .
7653.0 0.0 7620.72559 .
7670.0 0.0 7639.55420 .
7682.0 0.0 7658.41211 .
7702.0 0.0 7677.29834 .
7716.0 0.0 7696.21240 .
7752.0 0.0 7715.15234 .
7765.0 0.0 7734.12012 .
7775.0 0.0 7753.11426 .
7803.0 0.0 7772.13428 .
7822.0 0.0 7791.17871 .
7842.0 0.0 7810.24805 .
7857.0 0.0 7829.34131 .
7861.0 0.0 7848.45801 .
7886.0 0.0 7867.59766 .
7910.0 0.0 7886.75781 .
7937.0 0.0 7905.94141 .
7975.0 0.0 7925.14600 .
7994.0 0.0 7944.37158 .
8010.0 0.0 7963.61768 .
8031.0 0.0 7982.88330 .
8035.0 0.0 8002.16846 .
8054.0 0.0 8021.47070 .
8074.0 0.0 8040.79248 .
8104.0 0.0 8060.13232 .
8107.0 0.0 8079.48926 .
8125.0 0.0 8098.86279 .
8135.0 0.0 8118.25293 .
8179.0 0.0 8137.65918 .
8204.0 0.0 8157.07910 .
8249.0 0.0 8176.51563 .
8275.0 0.0 8195.96680 .
8274.0 0.0 8215.43164 .
8283.0 0.0 8234.91113 .
8294.0 0.0 8254.40234 .
8336.0 0.0 8273.90723 .
8341.0 0.0 8293.42480 .
8361.0 0.0 8312.95313 .
8371.0 0.0 8332.49219 .
8419.0 0.0 8352.04395 .
8428.0 0.0 8371.60645 .
8448.0 0.0 8391.17871 .
8474.0 0.0 8410.76172 .
8495.0 0.0 8430.35352 .
8505.0 0.0 8449.95410 .
8526.0 0.0 8469.56250 .
8552.0 0.0 8489.18066 .
8556.0 0.0 8508.80664 .
8599.0 0.0 8528.43945 .
8609.0 0.0 8548.08105 .
8621.0 0.0 8567.72852 .
8647.0 0.0 8587.38184 .
8666.0 0.0 8607.04102 .
8705.0 0.0 8626.70703 .
8729.0 0.0 8646.37793 .
8760.0 0.0 8666.05371 .
8745.0 0.0 8685.73535 .
8745.0 0.0 8705.42090 .
8779.0 0.0 8725.11035 .
8802.0 0.0 8744.80371 .
8819.0 0.0 8764.50000 .
8845.0 0.0 8784.19922 .
8872.0 0.0 8803.90039 .
8889.0 0.0 8823.60547 .
8912.0 0.0 8843.31250 .
8926.0 0.0 8863.02148 .
8942.0 0.0 8882.73145 .
8939.0 0.0 8902.44336 .
8966.0 0.0 8922.15625 .
8984.0 0.0 8941.86719 .
9007.0 0.0 8961.58105 .
9039.0 0.0 8981.29492 .
9054.0 0.0 9001.00781 .
9087.0 0.0 9020.72070 .
9125.0 0.0 9040.43359 .
9146.0 0.0 9060.14453 .
9151.0 0.0 9079.85254 .
9142.0 0.0 9099.56152 .
9179.0 0.0 9119.26758 .
9199.0 0.0 9138.97266 .
9224.0 0.0 9158.67383 .
9263.0 0.0 9178.37402 .
9279.0 0.0 9198.07031 .
9305.0 0.0 9217.76270 .
9305.0 0.0 9237.45508 .
9330.0 0.0 9257.14063 .
9349.0 0.0 9276.82324 .
9353.0 0.0 9296.50293 .
9383.0 0.0 9316.17773 .
9407.0 0.0 9335.84863 .
9404.0 0.0 9355.51465 .
9444.0 0.0 9375.17578 .
9453.0 0.0 9394.83008 .
9475.0 0.0 9414.48145 .
9493.0 0.0 9434.12598 .
9509.0 0.0 9453.76563 .
9546.0 0.0 9473.39941 .
9573.0 0.0001045 9493.02734 9493.02734
9588.0 0.0001043 9512.64844 9512.64844
9609.0 0.0001041 9532.26270 9532.26270
9630.0 0.0001038 9551.87109 9551.87109
9648.0 0.0001036 9571.47266 9571.47266
9669.0 0.0001034 9591.06641 9591.06641
9680.0 0.0001033 9610.65430 9610.65430
9716.0 0.0001029 9630.23340 9630.23340
9722.0 0.0001029 9649.80664 9649.80664
9745.0 0.0001026 9669.37012 9669.37012
9759.0 0.0001025 9688.92676 9688.92676
9775.0 0.0001023 9708.47559 9708.47559
9809.0 0.0001019 9728.01660 9728.01660
9835.0 0.0001017 9747.54785 9747.54785
9841.0 0.0001016 9767.07227 9767.07227
9866.0 0.0001014 9786.58594 9786.58594
9879.0 0.0001012 9806.09277 9806.09277
9897.0 0.0001010 9825.58984 9825.58984
9926.0 0.0001007 9845.07813 9845.07813
9940.0 0.0001006 9864.55664 9864.55664
9959.0 0.0001004 9884.02637 9884.02637
9969.0 0.0001003 9903.48535 9903.48535
9987.0 0.0001001 9922.93652 9922.93652
10020.0 0.0000998 9942.37598 9942.37598
10031.0 0.0000997 9961.80664 9961.80664
10053.0 0.0000995 9981.22852 9981.22852
10066.0 0.0000993 10000.63867 10000.63867
10074.0 0.0000993 10020.03906 10020.03906
10096.0 0.0000990 10039.42773 10039.42773
10105.0 0.0000990 10058.80664 10058.80664
10160.0 0.0000984 10078.17578 10078.17578
10183.0 0.0000982 10097.53320 10097.53320
10214.0 0.0000979 10116.87988 10116.87988
10235.0 0.0000977 10136.21582 10136.21582
10242.0 0.0000976 10155.54004 10155.54004
10251.0 0.0000976 10174.85547 10174.85547
10278.0 0.0000973 10194.15723 10194.15723
10300.0 0.0000971 10213.44824 10213.44824
10297.0 0.0000971 10232.72754 10232.72754
10313.0 0.0000970 10251.99609 10251.99609
10339.0 0.0000967 10271.25195 10271.25195
10359.0 0.0000965 10290.49707 10290.49707
10377.0 0.0000964 10309.72949 10309.72949
10378.0 0.0000964 10328.95020 10328.95020
10400.0 0.0000962 10348.15918 10348.15918
10433.0 0.0000958 10367.35645 10367.35645
10462.0 0.0000956 10386.54102 10386.54102
10488.0 0.0000953 10405.71387 10405.71387
10522.0 0.0000950 10424.87305 10424.87305
10539.0 0.0000949 10444.02148 10444.02148
10556.0 0.0000947 10463.15723 10463.15723
10593.0 0.0000944 10482.28027 10482.28027
10592.0 0.0000944 10501.39063 10501.39063
10600.0 0.0000943 10520.48828 10520.48828
10625.0 0.0000941 10539.57324 10540.52344
10637.0 0.0000940 10558.64551 10559.63184
10669.0 0.0000937 10577.70508 10578.73047
10685.0 0.0000936 10596.75098 10597.81738
10701.0 0.0000934 10615.78516 10616.89453
10726.0 0.0000932 10634.80566 10635.96289
10732.0 0.0000932 10653.81348 10655.01953
10743.0 0.0000931 10672.80762 10674.06641
10780.0 0.0000928 10691.78906 10693.10352
10789.0 0.0000927 10710.75684 10712.13086
10819.0 0.0000924 10729.71289 10731.15039
10847.0 0.0000922 10748.65332 10750.15918
10872.0 0.0000920 10767.58301 10769.16211
10879.0 0.0000919 10786.49805 10788.15625
10888.0 0.0000918 10805.39941 10807.14258
10925.0 0.0000915 10824.28809 10826.12305
10947.0 0.0000913 10843.16309 10845.09766
10959.0 0.0000912 10862.02441 10864.06641
10970.0 0.0000912 10880.87305 10883.03125
10989.0 0.0000910 10899.70703 10901.99316
10993.0 0.0000910 10918.52832 10920.95215
11009.0 0.0000908 10937.33594 10939.91211
11038.0 0.0000906 10956.12988 10958.87305
11075.0 0.0000903 10974.91016 10977.83594
11076.0 0.0000903 10993.67578 10996.80469
11089.0 0.0000902 11012.42871 11015.78320
11120.0 0.0000899 11031.16797 11034.78320
11133.0 0.0000898 11049.89453 11053.83203
11162.0 0.0000896 11068.60547 11072.97754
11196.0 0.0000893 11087.30371 11092.25000
11196.0 0.0000893 11105.98730 11111.56641
11235.0 0.0000890 11124.65918 11130.75000
11240.0 0.0000890 11143.31543 11149.74023
11259.0 0.0000888 11161.95898 11168.70996
11290.0 0.0000886 11180.58789 11187.82813
11298.0 0.0000885 11199.20410 11207.14355
11311.0 0.0000884 11217.80566 11226.63574
11331.0 0.0000883 11236.39453 11246.30371
11359.0 0.0000880 11254.96777 11266.17480
11386.0 0.0000878 11273.52930 11286.30664
11395.0 0.0000878 11292.07617 11306.77637
11429.0 0.0000875 11310.60938 11327.69629
11453.0 0.0000873 11329.12891 11349.22949
11471.0 0.0000872 11347.63477 11371.60840
11512.0 0.0000869 11366.12598 11395.19043
11545.0 0.0000866 11384.60449 11420.57129
11566.0 0.0000865 11403.06934 11448.99902
11605.0 0.0000862 11421.51953 11484.25098
11673.0 0.0000857 11439.95703 11539.15234
11812.0 0.0000847 11458.38086 11649.65430
12050.0 0.0000830 11476.79102 11883.97266
12464.0 0.0000802 11495.18652 12305.58691
12971.0 0.0000771 11513.56934 12868.34961
13279.0 0.0000753 11531.93750 13314.16211
13221.0 0.0000756 11550.29395 13285.03906
12842.0 0.0000779 11568.63574 12829.55859
12353.0 0.0000810 11586.96387 12316.14063
12046.0 0.0000830 11605.27832 11964.63574
11894.0 0.0000841 11623.58008 11793.72461
11845.0 0.0000844 11641.86719 11733.35645
11830.0 0.0000845 11660.14160 11720.17285
11836.0 0.0000845 11678.40234 11723.31836
11829.0 0.0000845 11696.65039 11732.29492
11842.0 0.0000844 11714.88477 11752.08496
11856.0 0.0000843 11733.10547 11765.79297
11886.0 0.0000841 11751.31250 11780.65039
11913.0 0.0000839 11769.50684 11796.33008
11931.0 0.0000838 11787.68848 11812.61328
11933.0 0.0000838 11805.85645 11829.35156
11936.0 0.0000838 11824.01074 11846.43750
11963.0 0.0000836 11842.15234 11863.79980
11976.0 0.0000835 11860.28125 11881.38574
12001.0 0.0000833 11878.39648 11899.15625
12011.0 0.0000833 11896.49902 11917.08105
12028.0 0.0000831 11914.58789 11935.14063
12050.0 0.0000830 11932.66504 11953.32031
12067.0 0.0000829 11950.72852 11971.60938
12087.0 0.0000827 11968.77930 11990.00098
12119.0 0.0000825 11986.81641 12008.48926
12143.0 0.0000824 12004.84180 12027.07813
12174.0 0.0000821 12022.85352 12045.76172
12182.0 0.0000821 12040.85449 12064.55078
12176.0 0.0000821 12058.84082 12083.44434
12189.0 0.0000820 12076.81543 12102.45215
12209.0 0.0000819 12094.77734 12121.58496
12237.0 0.0000817 12112.72754 12140.85449
12266.0 0.0000815 12130.66406 12160.27441
12275.0 0.0000815 12148.58887 12179.86426
12289.0 0.0000814 12166.50000 12199.64551
12324.0 0.0000811 12184.40039 12219.64844
12354.0 0.0000809 12202.28809 12239.90234
12380.0 0.0000808 12220.16406 12260.44824
12385.0 0.0000807 12238.02637 12281.33203
12412.0 0.0000806 12255.87793 12302.61328
12436.0 0.0000804 12273.71680 12324.36621
12463.0 0.0000802 12291.54492 12346.67871
12489.0 0.0000801 12309.36035 12369.66309
12497.0 0.0000800 12327.16309 12393.45898
12514.0 0.0000799 12344.95508 12418.24902
12556.0 0.0000796 12362.73438 12444.26660
12565.0 0.0000796 12380.50293 12471.81348
12576.0 0.0000795 12398.25879 12501.29688
12607.0 0.0000793 12416.00391 12533.26270
12636.0 0.0000791 12433.73730 12568.46094
12683.0 0.0000788 12451.45898 12607.94141
12715.0 0.0000786 12469.16895 12653.21387
12739.0 0.0000785 12486.86816 12706.53027
12788.0 0.0000782 12504.55469 12770.56836
12867.0 0.0000777 12522.23242 12856.66895
12994.0 0.0000770 12539.89648 12976.03320
13186.0 0.0000758 12557.55078 13176.42871
13522.0 0.0000740 12575.19336 13566.28809
14215.0 0.0000703 12592.82617 14341.51563
15602.0 0.0000641 12610.44727 15722.66992
17793.0 0.0000562 12628.05762 17741.24609
19969.0 0.0000501 12645.65625 19907.83594
20860.0 0.0000479 12663.24512 20965.38672
20105.0 0.0000497 12680.82324 19969.39258
17958.0 0.0000557 12698.39063 17845.68750
15710.0 0.0000637 12715.94629 15857.36719
14306.0 0.0000699 12733.49316 14503.76953
13645.0 0.0000733 12751.03027 13758.42285
13368.0 0.0000748 12768.55469 13401.69824
13229.0 0.0000756 12786.07031 13236.77734
13134.0 0.0000761 12803.57422 13154.12891
13120.0 0.0000762 12821.06934 13107.72852
13111.0 0.0000763 12838.55469 13080.42969
13130.0 0.0000762 12856.02930 13065.25293
13137.0 0.0000761 12873.49316 13058.63379
13120.0 0.0000762 12890.94824 13058.43066
13127.0 0.0000762 12908.39258 13063.27637
13143.0 0.0000761 12925.82910 13072.32129
13147.0 0.0000761 12943.25391 13085.08496
13169.0 0.0000759 12960.66992 13101.40332
13188.0 0.0000758 12978.07520 13121.41602
13208.0 0.0000757 12995.47266 13145.65723
13250.0 0.0000755 13012.86035 13175.29785
13266.0 0.0000754 13030.23828 13212.83203
13303.0 0.0000752 13047.60645 13262.96094
13350.0 0.0000749 13064.96582 13334.83691
13422.0 0.0000745 13082.31641 13444.30762
13561.0 0.0000737 13099.65820 13620.03125
13830.0 0.0000723 13116.99023 13922.71387
14392.0 0.0000695 13134.31348 14474.03027
15346.0 0.0000652 13151.62793 15409.10352
16555.0 0.0000604 13168.93457 16631.60352
17477.0 0.0000572 13186.23145 17571.37500
17438.0 0.0000573 13203.51953 17443.12109
16459.0 0.0000608 13220.79980 16301.03809
15131.0 0.0000661 13238.07031 15027.58398
14229.0 0.0000703 13255.33301 14168.08789
13828.0 0.0000723 13272.58691 13747.92285
13664.0 0.0000732 13289.83398 13579.92188
13600.0 0.0000735 13307.07129 13514.81543
13575.0 0.0000737 13324.30176 13486.90430
13558.0 0.0000738 13341.52246 13474.47656
13566.0 0.0000737 13358.73633 13470.34863
13586.0 0.0000736 13375.94141 13471.49707
13604.0 0.0000735 13393.13965 13476.35547
13617.0 0.0000734 13410.32910 13484.11230
13628.0 0.0000734 13427.51172 13494.74219
13637.0 0.0000733 13444.68555 13509.41602
13653.0 0.0000732 13461.85352 13530.44727
13675.0 0.0000731 13479.01270 13559.05566
13701.0 0.0000730 13496.16504 13591.41211
13733.0 0.0000728 13513.30859 13614.50098
13756.0 0.0000727 13530.44629 13619.21387
13758.0 0.0000727 13547.57617 13614.78906
13765.0 0.0000726 13564.69922 13613.31543
13768.0 0.0000726 13581.81445 13618.79785
13783.0 0.0000726 13598.92383 13629.75293
13811.0 0.0000724 13616.02637 13643.50293
13816.0 0.0000724 13633.12109 13658.38672
13828.0 0.0000723 13650.20898 13673.74316
13839.0 0.0000723 13667.29004 13689.36035
13858.0 0.0000722 13684.36426 13705.16113
13872.0 0.0000721 13701.43262 13721.10938
13885.0 0.0000720 13718.49414 13737.17676
13922.0 0.0000718 13735.54883 13753.34180
13928.0 0.0000718 13752.59766 13769.59375
13927.0 0.0000718 13769.63965 13785.92090
13955.0 0.0000717 13786.67578 13802.31348
13964.0 0.0000716 13803.70508 13818.76270
13971.0 0.0000716 13820.72949 13835.26758
13992.0 0.0000715 13837.74609 13851.82031
14012.0 0.0000714 13854.75879 13868.42090
14031.0 0.0000713 13871.76367 13885.06543
14048.0 0.0000712 13888.76367 13901.75195
14052.0 0.0000712 13905.75684 13918.48340
14087.0 0.0000710 13922.74609 13935.25977
14100.0 0.0000709 13939.72852 13952.08105
14112.0 0.0000709 13956.70508 13968.95313
14144.0 0.0000707 13973.67676 13985.88574
14154.0 0.0000707 13990.64258 14002.87891
14164.0 0.0000706 14007.60352 14019.95020
14177.0 0.0000705 14024.55859 14037.11328
14191.0 0.0000705 14041.50879 14054.39355
14225.0 0.0000703 14058.45313 14071.82520
14246.0 0.0000702 14075.39453 14089.46484
14254.0 0.0000702 14092.32813 14107.41113
14280.0 0.0000700 14109.25781 14125.88770
14299.0 0.0000699 14126.18262 14145.38867
14325.0 0.0000698 14143.10254 14166.90137
14337.0 0.0000697 14160.01758 14192.01074
14377.0 0.0000696 14176.92871 14222.44824
14432.0 0.0000693 14193.83398 14258.79297
14455.0 0.0000692 14210.73438 14298.22461
14463.0 0.0000691 14227.63086 14331.49023
14498.0 0.0000690 14244.52344 14347.18555
14490.0 0.0000690 14261.41113 14348.31934
14482.0 0.0000691 14278.29395 14347.85059
14490.0 0.0000690 14295.17285 14354.43848
14489.0 0.0000690 14312.04785 14373.82910
14553.0 0.0000687 14328.91797 14414.52344
14629.0 0.0000684 14345.78516 14489.48145
14717.0 0.0000679 14362.64648 14607.31152
14822.0 0.0000675 14379.50488 14752.03125
14889.0 0.0000672 14396.36035 14860.68164
14896.0 0.0000671 14413.21094 14852.69629
14845.0 0.0000674 14430.05664 14752.14648
14775.0 0.0000677 14446.90039 14644.65430
14737.0 0.0000679 14463.74023 14573.45215
14721.0 0.0000679 14480.57520 14541.57813
14725.0 0.0000679 14497.40723 14535.35254
14769.0 0.0000677 14514.23535 14541.45313
14774.0 0.0000677 14531.06055 14552.54395
14796.0 0.0000676 14547.88281 14567.42676
14795.0 0.0000676 14564.70117 14582.98242
14791.0 0.0000676 14581.51563 14597.88672
14794.0 0.0000676 14598.32813 14613.23438
14800.0 0.0000676 14615.13574 14628.89746
14804.0 0.0000675 14631.94238 14644.79395
14825.0 0.0000675 14648.74414 14660.86816
14842.0 0.0000674 14665.54395 14677.07813
14859.0 0.0000673 14682.33984 14693.39551
14877.0 0.0000672 14699.13379 14709.80078
14903.0 0.0000671 14715.92383 14723.36133
14928.0 0.0000670 14732.71191 14739.94727
14961.0 0.0000668 14749.49609 14756.57910
14959.0 0.0000668 14766.27930 14773.25098
14971.0 0.0000668 14783.05859 14789.95605
14984.0 0.0000667 14799.83594 14806.69141
14992.0 0.0000667 14816.61035 14823.45215
15018.0 0.0000666 14833.38281 14840.23730
15015.0 0.0000666 14850.15234 14857.04297
15054.0 0.0000664 14866.91992 14873.86914
15074.0 0.0000663 14883.68457 14890.71484
15082.0 0.0000663 14900.44629 14907.57813
15091.0 0.0000663 14917.20801 14924.46289
15098.0 0.0000662 14933.96484 14941.35938
15130.0 0.0000661 14950.72070 14958.27734
15158.0 0.0000660 14967.47461 14975.21191
15150.0 0.0000660 14984.22656 14992.16699
15164.0 0.0000659 15000.97559 15009.13965
15184.0 0.0000659 15017.72363 15026.13477
15202.0 0.0000658 15034.46875 15058.87988
15250.0 0.0000656 15051.21289 15076.52930
15272.0 0.0000655 15067.95410 15094.23926
15287.0 0.0000654 15084.69531 15112.01758
15305.0 0.0000653 15101.43359 15129.86426
15313.0 0.0000653 15118.16992 15147.78809
15327.0 0.0000652 15134.90430 15165.79785
15344.0 0.0000652 15151.63867 15183.90137
15357.0 0.0000651 15168.37012 15202.10645
15399.0 0.0000649 15185.10059 15220.42383
15428.0 0.0000648 15201.82813 15238.86328
15433.0 0.0000648 15218.55566 15257.44141
15452.0 0.0000647 15235.28223 15276.17383
15473.0 0.0000646 15252.00684 15295.07422
15496.0 0.0000645 15268.72852 15314.16211
15519.0 0.0000644 15285.45117 15333.46680
15543.0 0.0000643 15302.17188 15353.01074
15570.0 0.0000642 15318.89063 15372.82813
15583.0 0.0000642 15335.60840 15392.95508
15605.0 0.0000641 15352.32520 15413.43652
15625.0 0.0000640 15369.04102 15434.32715
15646.0 0.0000639 15385.75488 15455.68848
15676.0 0.0000638 15402.46875 15477.60352
15682.0 0.0000638 15419.18066 15499.80078
15672.0 0.0000638 15435.89258 15523.14063
15708.0 0.0000637 15452.60254 15547.39258
15733.0 0.0000636 15469.31250 15572.75293
15744.0 0.0000635 15486.02051 15599.46289
15763.0 0.0000634 15502.72754 15627.84863
15765.0 0.0000634 15519.43457 15658.34375
15788.0 0.0000633 15536.14063 15691.54102
15840.0 0.0000631 15552.84570 15728.28027
15862.0 0.0000630 15569.54980 15769.83008
15910.0 0.0000629 15586.25293 15818.39844
15958.0 0.0000627 15602.95703 15878.66309
16001.0 0.0000625 15619.65820 15961.82520
16078.0 0.0000622 15636.36035 16093.21973
16223.0 0.0000616 15653.06055 16319.28125
16493.0 0.0000606 15669.76172 16699.61719
17082.0 0.0000585 15686.46094 17268.28320
17910.0 0.0000558 15703.16016 17962.51172
18557.0 0.0000539 15719.85938 18529.59570
18619.0 0.0000537 15736.55762 18593.86523
18221.0 0.0000549 15753.25488 18168.23047
17565.0 0.0000569 15769.95215 17640.57227
17165.0 0.0000583 15786.64941 17271.63867
17187.0 0.0000582 15803.34473 17149.99023
17606.0 0.0000568 15820.04102 17332.68945
18521.0 0.0000540 15836.73633 18059.14844
20502.0 0.0000488 15853.43262 20032.89063
24627.0 0.0000406 15870.12695 24410.89453
31541.0 0.0000317 15886.82129 31805.41406
40165.0 0.0000249 15903.51563 40393.19141
44683.0 0.0000224 15920.20996 44816.74609
41266.0 0.0000242 15936.90332 40825.03125
32633.0 0.0000306 15953.59668 32361.62109
24470.0 0.0000409 15970.29004 24925.70508
20301.0 0.0000493 15986.98340 20525.78906
18633.0 0.0000537 16003.67578 18641.07227
18105.0 0.0000552 16020.36816 18108.21484
18181.0 0.0000550 16037.06055 18150.23438
18474.0 0.0000541 16053.75293 18388.82227
18552.0 0.0000539 16070.44434 18553.38672
18362.0 0.0000545 16087.13770 18418.15039
17918.0 0.0000558 16103.82910 18015.04883
17384.0 0.0000575 16120.52051 17552.05078
17007.0 0.0000588 16137.21289 17162.93359
16778.0 0.0000596 16153.90430 16884.23828
16663.0 0.0000600 16170.59570 16704.90820
16612.0 0.0000602 16187.28613 16597.45117
16573.0 0.0000603 16203.97852 16534.66016
16541.0 0.0000605 16220.66895 16497.55664
16547.0 0.0000604 16237.36133 16475.08203
16534.0 0.0000605 16254.05176 16461.50195
16527.0 0.0000605 16270.74316 16453.88867
16524.0 0.0000605 16287.43359 16450.60156
16536.0 0.0000605 16304.12598 16450.60938
16563.0 0.0000604 16320.81641 16453.19727
16568.0 0.0000604 16337.50781 16457.85547
16575.0 0.0000603 16354.19824 16464.16406
16598.0 0.0000602 16370.88965 16471.84180
16598.0 0.0000602 16387.58008 16480.65234
16596.0 0.0000603 16404.27148 16490.40820
16618.0 0.0000602 16420.96289 16500.96680
16628.0 0.0000601 16437.65430 16512.20898
16640.0 0.0000601 16454.34375 16524.03320
16644.0 0.0000601 16471.03516 16536.37305
16668.0 0.0000600 16487.72656 16549.16016
16698.0 0.0000599 16504.41797 16562.33398
16696.0 0.0000599 16521.10742 16575.85156
16697.0 0.0000599 16537.79883 16589.68555
16724.0 0.0000598 16554.49023 16603.80273
16739.0 0.0000597 16571.18164 16618.17773
16749.0 0.0000597 16587.87109 16632.79297
16754.0 0.0000597 16604.56250 16648.12305
16772.0 0.0000596 16621.25391 16663.20313
16791.0 0.0000596 16637.94531 16678.50391
16830.0 0.0000594 16654.63477 16694.03320
16834.0 0.0000594 16671.32617 16709.81445
16862.0 0.0000593 16688.01758 16725.88281
16886.0 0.0000592 16704.70898 16742.29102
16905.0 0.0000592 16721.39844 16759.15234
16921.0 0.0000591 16738.08789 16776.71680
16918.0 0.0000591 16754.77930 16795.56836
16932.0 0.0000591 16771.47070 16817.00000
16962.0 0.0000590 16788.15820 16843.44141
16977.0 0.0000589 16804.84961 16878.29492
17004.0 0.0000588 16821.53906 16924.36328
17053.0 0.0000586 16838.23047 16980.65039
17099.0 0.0000585 16854.91797 17037.47461
17143.0 0.0000583 16871.60938 17072.94922
17143.0 0.0000583 16888.29883 17071.13477
17107.0 0.0000585 16904.98828 17045.05664
17094.0 0.0000585 16921.67578 17020.50977
17085.0 0.0000585 16938.36523 17005.94922
17086.0 0.0000585 16955.05273 17002.65039
17103.0 0.0000585 16971.74219 17007.90039
17099.0 0.0000585 16988.42969 17018.27734
17120.0 0.0000584 17005.11719 17031.28906
17143.0 0.0000583 17021.80469 17045.58789
17145.0 0.0000583 17038.49219 17060.55859
17161.0 0.0000583 17055.17969 17075.93750
17183.0 0.0000582 17071.86523 17091.61133
17201.0 0.0000581 17088.55078 17107.50391
17226.0 0.0000581 17105.23633 17123.58594
17241.0 0.0000580 17121.92188 17139.82617
17246.0 0.0000580 17138.60547 17156.21875
17255.0 0.0000580 17155.29102 17172.75977
17258.0 0.0000579 17171.97461 17189.46094
17271.0 0.0000579 17188.65820 17206.35156
17281.0 0.0000579 17205.33984 17223.47852
17300.0 0.0000578 17222.02344 17240.93945
17323.0 0.0000577 17238.70508 17258.93555
17352.0 0.0000576 17255.38672 17277.93750
17361.0 0.0000576 17272.06641 17298.84766
17399.0 0.0000575 17288.74609 17323.17773
17405.0 0.0000575 17305.42578 17352.80664
17416.0 0.0000574 17322.10547 17389.08398
17485.0 0.0000572 17338.78125 17431.13281
17540.0 0.0000570 17355.45898 17473.23242
17574.0 0.0000569 17372.13477 17502.77734
17580.0 0.0000569 17388.81055 17509.94141
17550.0 0.0000570 17405.48633 17502.06641
17519.0 0.0000571 17422.15820 17492.46875
17521.0 0.0000571 17438.83203 17488.08984
17513.0 0.0000571 17455.50391 17490.41602
17540.0 0.0000570 17472.17578 17498.35352
17562.0 0.0000569 17488.84375 17510.01563
17591.0 0.0000568 17505.51367 17523.80859
17614.0 0.0000568 17522.18164 17538.71484
17613.0 0.0000568 17538.84961 17554.20703
17599.0 0.0000568 17555.51367 17570.04297
17624.0 0.0000567 17572.17969 17586.10742
17642.0 0.0000567 17588.84180 17596.59570
17669.0 0.0000566 17605.50586 17613.08398
17702.0 0.0000565 17622.16406 17629.66992
17710.0 0.0000565 17638.82617 17646.35742
17729.0 0.0000564 17655.48438 17663.12500
17727.0 0.0000564 17672.14063 17679.97461
17731.0 0.0000564 17688.79688 17696.90234
17748.0 0.0000563 17705.45117 17713.90820
17772.0 0.0000563 17722.10352 17731.00195
17791.0 0.0000562 17738.75586 17748.30078
17814.0 0.0000561 17755.40430 17765.59375
17829.0 0.0000561 17772.05273 17783.00781
17842.0 0.0000560 17788.70117 17800.56445
17870.0 0.0000560 17805.34570 17818.28906
17886.0 0.0000559 17821.99023 17836.21680
17893.0 0.0000559 17838.62891 17854.38477
17906.0 0.0000558 17855.26953 17872.86523
17912.0 0.0000558 17871.90820 17891.73438
17935.0 0.0000558 17888.54492 17911.72266
17968.0 0.0000557 17905.17773 17931.75977
17995.0 0.0000556 17921.81055 17952.69727
18008.0 0.0000555 17938.44141 17974.95117
18027.0 0.0000555 17955.07031 17999.27930
18063.0 0.0000554 17971.69531 18027.11133
18089.0 0.0000553 17988.32031 18060.98438
18149.0 0.0000551 18004.94336 18104.90234
18218.0 0.0000549 18021.56445 18164.11914
18301.0 0.0000546 18038.17969 18243.87305
18452.0 0.0000542 18054.79688 18346.56445
18666.0 0.0000536 18071.41016 18467.53125
18869.0 0.0000530 18088.02148 18585.89258
18929.0 0.0000528 18104.62891 18659.61719
18882.0 0.0000530 18121.23438 18653.31445
18704.0 0.0000535 18137.83984 18583.35938
18533.0 0.0000540 18154.43945 18495.37695
18408.0 0.0000543 18171.03711 18419.62500
18346.0 0.0000545 18187.63281 18366.29297
18338.0 0.0000545 18204.22656 18334.51758
18334.0 0.0000545 18220.81836 18318.70703
18338.0 0.0000545 18237.40625 18312.99219
18339.0 0.0000545 18253.99023 18313.61914
18343.0 0.0000545 18270.57227 18318.50195
18350.0 0.0000545 18287.15039 18326.36523
18349.0 0.0000545 18303.72852 18336.36914
18374.0 0.0000544 18320.29883 18347.94141
18391.0 0.0000544 18336.86914 18360.68359
18397.0 0.0000544 18353.43750 18374.27344
18396.0 0.0000544 18370.00000 18388.47656
18421.0 0.0000543 18386.56055 18405.00000
18438.0 0.0000542 18403.11719 18420.02734
18460.0 0.0000542 18419.67188 18435.31055
18455.0 0.0000542 18436.22266 18450.80469
18489.0 0.0000541 18452.76758 18466.45898
18508.0 0.0000540 18469.31250 18482.25000
18527.0 0.0000540 18485.85156 18498.15625
18555.0 0.0000539 18502.38867 18514.15820
18568.0 0.0000539 18518.92188 18530.95703
18593.0 0.0000538 18535.45117 18547.13477
18613.0 0.0000537 18551.97656 18563.25977
18621.0 0.0000537 18568.49805 18579.55859
18655.0 0.0000536 18585.01367 18595.90039
18711.0 0.0000534 18601.52930 18612.29297
18785.0 0.0000532 18618.03906 18628.71875
18977.0 0.0000527 18634.54492 18645.18555
19110.0 0.0000523 18651.04688 18662.38086
19177.0 0.0000521 18667.54297 18678.93359
19034.0 0.0000525 18684.03711 18695.53125
18960.0 0.0000527 18700.52734 18712.15820
18893.0 0.0000529 18717.01172 18728.83984
18862.0 0.0000530 18733.49023 18745.53125
18849.0 0.0000531 18749.96680 18762.26172
18845.0 0.0000531 18766.43945 18779.02930
18866.0 0.0000530 18782.90625 18795.83398
18884.0 0.0000530 18799.36719 18812.68164
18886.0 0.0000529 18815.82617 18829.58008
18904.0 0.0000529 18832.27930 18846.52148
18902.0 0.0000529 18848.72852 18864.52930
18906.0 0.0000529 18865.16992 18881.62500
18925.0 0.0000528 18881.60938 18898.80273
18944.0 0.0000528 18898.04297 18916.06250
18981.0 0.0000527 18914.47266 18933.41602
19004.0 0.0000526 18930.89453 18950.87891
19013.0 0.0000526 18947.31445 18968.47070
19036.0 0.0000525 18963.72852 18986.21094
19046.0 0.0000525 18980.13672 19004.27148
19047.0 0.0000525 18996.53906 19022.40625
19074.0 0.0000524 19012.93555 19040.80273
19091.0 0.0000524 19029.32813 19059.53125
19105.0 0.0000523 19045.71484 19078.66211
19110.0 0.0000523 19062.09766 19098.34570
19132.0 0.0000523 19078.47070 19118.80859
19149.0 0.0000522 19094.84180 19140.48633
19181.0 0.0000521 19111.20508 19167.16016
19197.0 0.0000521 19127.56445 19193.98242
19223.0 0.0000520 19143.91602 19225.46680
19249.0 0.0000520 19160.26367 19263.18945
19291.0 0.0000518 19176.60352 19308.02539
19364.0 0.0000516 19192.93945 19359.00000
19425.0 0.0000515 19209.26563 19411.43945
19459.0 0.0000514 19225.58984 19456.07617
19482.0 0.0000513 19241.90625 19486.31641
19507.0 0.0000513 19258.21680 19510.28125
19525.0 0.0000512 19274.51758 19546.84961
19607.0 0.0000510 19290.81641 19617.45313
19749.0 0.0000506 19307.10742 19748.73438
19988.0 0.0000500 19323.39063 19975.12109
20356.0 0.0000491 19339.66797 20322.90820
20769.0 0.0000481 19355.93945 20764.52344
21099.0 0.0000474 19372.20313 21168.41797
21237.0 0.0000471 19388.46094 21321.94141
21104.0 0.0000474 19404.71094 21118.57227
20761.0 0.0000482 19420.95508 20717.11719
20435.0 0.0000489 19437.19141 20346.25391
20237.0 0.0000494 19453.42188 20142.90039
20171.0 0.0000496 19469.64453 20149.85352
20269.0 0.0000493 19485.85938 20335.03516
20441.0 0.0000489 19502.06836 20595.64648
20592.0 0.0000486 19518.26953 20761.60547
20623.0 0.0000485 19534.46289 20691.45117
20484.0 0.0000488 19550.64844 20441.63086
20271.0 0.0000493 19566.82813 20170.76953
20101.0 0.0000497 19583.00000 19974.60938
19997.0 0.0000500 19599.16211 19875.34180
19971.0 0.0000501 19615.31836 19861.00000
19983.0 0.0000500 19631.46680 19922.99023
20072.0 0.0000498 19647.60742 20068.01563
20272.0 0.0000493 19663.74023 20299.39258
20539.0 0.0000487 19679.86328 20583.53711
20810.0 0.0000481 19695.98047 20822.21484
20956.0 0.0000477 19712.08984 20874.79297
20910.0 0.0000478 19728.18945 20710.16602
20696.0 0.0000483 19744.28125 20453.33008
20458.0 0.0000489 19760.36523 20222.85938
20259.0 0.0000494 19776.44141 20068.31055
20131.0 0.0000497 19792.50977 19987.81836
20056.0 0.0000499 19808.56641 19957.18164
19992.0 0.0000500 19824.61719 19952.86914
19975.0 0.0000501 19840.66016 19960.59375
19978.0 0.0000501 19856.69336 19973.88867
19974.0 0.0000501 19872.71875 19990.32813
19993.0 0.0000500 19888.73242 20009.09180
20032.0 0.0000499 19904.74023 20029.93164
20022.0 0.0000499 19920.73828 20052.81445
20016.0 0.0000500 19936.72656 20077.89063
20033.0 0.0000499 19952.70703 20105.41797
20069.0 0.0000498 19968.67773 20136.23242
20098.0 0.0000498 19984.63867 20170.36719
20121.0 0.0000497 20000.59180 20209.49219
20153.0 0.0000496 20016.53516 20255.95313
20187.0 0.0000495 20032.46875 20313.71680
20248.0 0.0000494 20048.39453 20388.71875
20300.0 0.0000493 20064.30859 20488.13086
20398.0 0.0000490 20080.21289 20620.31250
20531.0 0.0000487 20096.10938 20791.74805
20685.0 0.0000483 20111.99609 21008.12891
20902.0 0.0000478 20127.87305 21283.87891
21263.0 0.0000470 20143.73828 21668.50977
21910.0 0.0000456 20159.59570 22246.59375
23016.0 0.0000434 20175.44336 23096.30469
24443.0 0.0000409 20191.28125 24225.12695
25736.0 0.0000389 20207.10547 25483.34375
26704.0 0.0000374 20222.92383 26523.94922
26970.0 0.0000371 20238.73047 26895.08984
26305.0 0.0000380 20254.52734 26329.63672
25050.0 0.0000399 20270.31445 25102.80664
23632.0 0.0000423 20286.08789 23750.38281
22391.0 0.0000447 20301.85352 22616.31445
21608.0 0.0000463 20317.60938 21814.23438
21154.0 0.0000473 20333.35352 21314.97656
20893.0 0.0000479 20349.08594 21030.01563
20753.0 0.0000482 20364.81055 20872.42969
20671.0 0.0000484 20380.52148 20782.73828
20635.0 0.0000485 20396.22461 20728.25195
20605.0 0.0000485 20411.91406 20693.12109
20581.0 0.0000486 20427.59375 20669.87500
20577.0 0.0000486 20443.26367 20654.73633
20590.0 0.0000486 20458.91992 20645.50391
20590.0 0.0000486 20474.56641 20640.76953
20597.0 0.0000486 20490.20313 20639.54297
20624.0 0.0000485 20505.82617 20641.09961
20604.0 0.0000485 20521.43945 20644.90625
20628.0 0.0000485 20537.04102 20650.54883
20650.0 0.0000484 20552.63086 20657.87695
20662.0 0.0000484 20568.21094 20666.33594
20653.0 0.0000484 20583.77734 20675.89258
20674.0 0.0000484 20599.33203 20686.40039
20707.0 0.0000483 20614.87695 20697.75391
20745.0 0.0000482 20630.40820 20709.86719
20768.0 0.0000482 20645.92969 20722.69141
20762.0 0.0000482 20661.43945 20736.18945
20778.0 0.0000481 20676.93359 20750.30664
20785.0 0.0000481 20692.41992 20765.13672
20793.0 0.0000481 20707.89258 20780.67188
20800.0 0.0000481 20723.35352 20796.97266
20838.0 0.0000480 20738.80078 20814.15430
20855.0 0.0000480 20754.23828 20832.34961
20873.0 0.0000479 20769.66211 20851.89063
20892.0 0.0000479 20785.07617 20872.96094
20917.0 0.0000478 20800.47461 20896.26563
20947.0 0.0000477 20815.86133 20922.45508
20983.0 0.0000477 20831.23633 20955.39063
21027.0 0.0000476 20846.59961 21000.10547
21109.0 0.0000474 20861.94727 21065.41797
21221.0 0.0000471 20877.28516 21165.94336
21324.0 0.0000469 20892.60938 21317.94727
21494.0 0.0000465 20907.92188 21532.31641
21746.0 0.0000460 20923.21875 21802.42773
22030.0 0.0000454 20938.50586 22090.14063
22273.0 0.0000449 20953.77930 22311.00586
22367.0 0.0000447 20969.03906 22362.77344
22297.0 0.0000448 20984.28516 22233.40430
22063.0 0.0000453 20999.51953 22022.21484
21818.0 0.0000458 21014.74023 21830.00391
21633.0 0.0000462 21029.94922 21707.31641
21553.0 0.0000464 21045.14453 21661.18555
21532.0 0.0000464 21060.32422 21665.97070
21524.0 0.0000465 21075.49219 21676.22266
21535.0 0.0000464 21090.64648 21658.86719
21534.0 0.0000464 21105.78906 21619.83203
21527.0 0.0000465 21120.91406 21579.41406
21497.0 0.0000465 21136.02930 21544.47266
21484.0 0.0000465 21151.12891 21508.81836
21471.0 0.0000466 21166.21680 21467.61719
21427.0 0.0000467 21181.28906 21425.27344
21396.0 0.0000467 21196.34961 21388.59961
21362.0 0.0000468 21211.39453 21361.02148
21377.0 0.0000468 21226.42578 21343.02734
21402.0 0.0000467 21241.44336 21333.63867
21404.0 0.0000467 21256.44727 21331.21484
21438.0 0.0000466 21271.43750 21333.94922
21451.0 0.0000466 21286.41406 21340.22656
21470.0 0.0000466 21301.37500 21348.81250
21493.0 0.0000465 21316.32227 21358.87695
21505.0 0.0000465 21331.25586 21369.91406
21509.0 0.0000465 21346.17578 21381.63281
21527.0 0.0000465 21361.08008 21393.83594
21535.0 0.0000464 21375.97070 21406.80273
21546.0 0.0000464 21390.84766 21419.68945
21564.0 0.0000464 21405.70898 21432.82617
21572.0 0.0000464 21420.55664 21446.16211
21593.0 0.0000463 21435.38867 21459.66211
21611.0 0.0000463 21450.20703 21473.30469
21627.0 0.0000462 21465.01172 21487.06445
21642.0 0.0000462 21479.80078 21500.92578
21669.0 0.0000461 21494.57422 21514.86523
21688.0 0.0000461 21509.33398 21528.88477
21704.0 0.0000461 21524.08008 21542.96484
21725.0 0.0000460 21538.81055 21557.10352
21742.0 0.0000460 21553.52539 21571.28711
21748.0 0.0000460 21568.22461 21585.51758
21771.0 0.0000459 21582.91016 21599.78320
21772.0 0.0000459 21597.58203 21614.08398
21782.0 0.0000459 21612.23633 21628.42773
21794.0 0.0000459 21626.87695 21642.86133
21810.0 0.0000459 21641.50195 21657.25781
21815.0 0.0000458 21656.11328 21671.67969
21847.0 0.0000458 21670.70703 21686.13477
21869.0 0.0000457 21685.28711 21700.61523
21873.0 0.0000457 21699.85352 21715.12891
21896.0 0.0000457 21714.40234 21729.89453
21918.0 0.0000456 21728.93555 21744.48438
21939.0 0.0000456 21743.45508 21759.09961
21974.0 0.0000455 21757.95703 21773.75977
21984.0 0.0000455 21772.44531 21788.47070
21996.0 0.0000455 21786.91797 21803.24023
22034.0 0.0000454 21801.37500 21818.08008
22068.0 0.0000453 21815.81641 21833.00391
22137.0 0.0000452 21830.24219 21848.03906
22236.0 0.0000450 21844.65234 21863.21875
22384.0 0.0000447 21859.04688 21878.96289
22546.0 0.0000444 21873.42578 21894.66406
22801.0 0.0000439 21887.78906 21910.96484
22978.0 0.0000435 21902.13672 21928.02734
22827.0 0.0000438 21916.46680 21946.48828
22656.0 0.0000441 21930.78320 21963.68750
22499.0 0.0000444 21945.08398 21987.27734
22419.0 0.0000446 21959.36914 22014.36328
22394.0 0.0000447 21973.63672 22044.88867
22386.0 0.0000447 21987.88867 22077.62305
22395.0 0.0000447 22002.12500 22109.52734
22430.0 0.0000446 22016.34766 22136.08984
22442.0 0.0000446 22030.55078 22154.58203
22429.0 0.0000446 22044.73828 22168.43750
22423.0 0.0000446 22058.91211 22183.79102
22456.0 0.0000445 22073.06836 22204.57031
22471.0 0.0000445 22087.20703 22230.83398
22535.0 0.0000444 22101.33203 22258.53516
22568.0 0.0000443 22115.44141 22280.62500
22576.0 0.0000443 22129.53320 22292.93750
22577.0 0.0000443 22143.60938 22298.54297
22576.0 0.0000443 22157.66797 22305.18164
22568.0 0.0000443 22171.71094 22318.24219
22598.0 0.0000443 22185.73828 22339.62305
22630.0 0.0000442 22199.75000 22367.96484
22662.0 0.0000441 22213.74219 22398.45117
22705.0 0.0000440 22227.72070 22423.26172
22724.0 0.0000440 22241.68359 22435.24805
22691.0 0.0000441 22255.62891 22433.06250
22675.0 0.0000441 22269.55664 22422.31836
22655.0 0.0000441 22283.46875 22409.66602
22639.0 0.0000442 22297.36523 22399.38477
22651.0 0.0000441 22311.24609 22393.35352
22650.0 0.0000442 22325.10742 22391.98828
22631.0 0.0000442 22338.95508 22394.90820
22633.0 0.0000442 22352.78516 22401.39063
22634.0 0.0000442 22366.59961 22410.63086
22631.0 0.0000442 22380.39453 22421.93945
22647.0 0.0000442 22394.17578 22434.86719
22679.0 0.0000441 22407.94141 22449.22266
22685.0 0.0000441 22421.68750 22465.07813
22695.0 0.0000441 22435.41797 22482.76563
22700.0 0.0000441 22449.13281 22502.81836
22706.0 0.0000440 22462.83008 22525.88672
22731.0 0.0000440 22476.51172 22552.54883
22741.0 0.0000440 22490.17773 22583.08984
22734.0 0.0000440 22503.82422 22617.06250
22754.0 0.0000439 22517.45508 22652.84375
22767.0 0.0000439 22531.07031 22686.80273
22788.0 0.0000439 22544.66797 22713.35156
22805.0 0.0000439 22558.24805 22727.80273
22815.0 0.0000438 22571.81250 22730.61328
22807.0 0.0000438 22585.36133 22726.92969
22809.0 0.0000438 22598.89258 22722.21875
22830.0 0.0000438 22612.40625 22719.92578
22817.0 0.0000438 22625.90430 22721.75977
22815.0 0.0000438 22639.38477 22728.36523
22840.0 0.0000438 22652.84961 22739.90820
22857.0 0.0000438 22666.29492 22756.35742
22879.0 0.0000437 22679.72656 22777.75195
22908.0 0.0000437 22693.14063 22804.29297
22937.0 0.0000436 22706.53906 22836.41797
22965.0 0.0000435 22719.91797 22874.85742
22984.0 0.0000435 22733.28125 22921.08008
23005.0 0.0000435 22746.62891 22977.76953
23012.0 0.0000435 22759.95898 23046.63086
23093.0 0.0000433 22773.27148 23130.57617
23230.0 0.0000430 22786.56836 23227.56250
23384.0 0.0000428 22799.84961 23331.13086
23516.0 0.0000425 22813.11328 23427.31641
23569.0 0.0000424 22826.35938 23497.68750
23540.0 0.0000425 22839.58789 23530.25000
23442.0 0.0000427 22852.80273 23526.04883
23355.0 0.0000428 22865.99805 23495.08203
23294.0 0.0000429 22879.17969 23454.57031
23272.0 0.0000430 22892.34180 23424.91992
23288.0 0.0000429 22905.48828 23420.46484
23360.0 0.0000428 22918.61719 23445.64844
23507.0 0.0000425 22931.73047 23493.92969
23643.0 0.0000423 22944.82617 23547.65234
23668.0 0.0000423 22957.90430 23583.31445
23647.0 0.0000423 22970.96875 23585.00977
23578.0 0.0000424 22984.01367 23554.50195
23498.0 0.0000426 22997.04297 23507.64453
23418.0 0.0000427 23010.05664 23467.27930
23377.0 0.0000428 23023.05273 23452.10352
23382.0 0.0000428 23036.03320 23473.03711
23435.0 0.0000427 23048.99414 23530.43555
23553.0 0.0000425 23061.94141 23612.81055
23691.0 0.0000422 23074.87109 23694.69531
23775.0 0.0000421 23087.78516 23741.09375
23791.0 0.0000420 23100.67969 23728.47656
23732.0 0.0000421 23113.56055 23668.34375
23612.0 0.0000424 23126.42383 23592.39648
23516.0 0.0000425 23139.27148 23526.27539
23474.0 0.0000426 23152.10156 23482.75195
23470.0 0.0000426 23164.91602 23463.96289
23470.0 0.0000426 23177.71289 23465.42188
23481.0 0.0000426 23190.49414 23481.87695
23476.0 0.0000426 23203.25977 23511.65430
23500.0 0.0000426 23216.00781 23554.99023
23571.0 0.0000424 23228.74023 23609.97852
23659.0 0.0000423 23241.45508 23669.91797
23737.0 0.0000421 23254.15430 23723.08789
23781.0 0.0000421 23266.83594 23759.30664
23754.0 0.0000421 23279.50391 23781.24023
23696.0 0.0000422 23292.15430 23802.42188
23696.0 0.0000422 23304.78906 23832.16406
23725.0 0.0000421 23317.40625 23865.78516
23799.0 0.0000420 23330.00781 23884.16016
23870.0 0.0000419 23342.59375 23865.25000
23873.0 0.0000419 23355.16211 23806.68164
23785.0 0.0000420 23367.71484 23728.06641
23673.0 0.0000422 23380.25195 23650.84570
23577.0 0.0000424 23392.77344 23587.77539
23545.0 0.0000425 23405.27930 23543.53516
23545.0 0.0000425 23417.76758 23517.17578
23534.0 0.0000425 23430.24023 23504.81641
23520.0 0.0000425 23442.69727 23501.91016
23526.0 0.0000425 23455.13867 23504.73047
23539.0 0.0000425 23467.56445 23510.77930
23548.0 0.0000425 23479.97266 23518.61523
23564.0 0.0000424 23492.36523 23527.51172
23571.0 0.0000424 23504.74414 23537.09766
23567.0 0.0000424 23517.10547 23548.14453
23572.0 0.0000424 23529.45117 23558.66406
23589.0 0.0000424 23541.78125 23569.53125
23596.0 0.0000424 23554.09570 23580.74609
23608.0 0.0000424 23566.39648 23592.35742
23654.0 0.0000423 23578.67773 23604.41016
23657.0 0.0000423 23590.94727 23616.99023
23658.0 0.0000423 23603.19922 23630.13867
23659.0 0.0000423 23615.43555 23643.83984
23680.0 0.0000422 23627.65625 23657.92773
23676.0 0.0000422 23639.86328 23672.03125
23695.0 0.0000422 23652.05469 23685.54492
23704.0 0.0000422 23664.22852 23697.84961
23710.0 0.0000422 23676.38867 23708.82813
23727.0 0.0000421 23688.53320 23719.01758
23751.0 0.0000421 23700.66406 23729.06836
23775.0 0.0000421 23712.77734 23739.19922
23779.0 0.0000421 23724.87695 23750.13867
23798.0 0.0000420 23736.96094 23761.73828
23806.0 0.0000420 23749.02930 23774.03320
23829.0 0.0000420 23761.08398 23787.09961
23855.0 0.0000419 23773.12305 23801.14063
23863.0 0.0000419 23785.14648 23816.59570
23863.0 0.0000419 23797.15625 23834.19336
23875.0 0.0000419 23809.15039 23854.89648
23886.0 0.0000419 23821.13086 23879.67969
23896.0 0.0000418 23833.09375 23909.09766
23933.0 0.0000418 23845.04492 23942.77539
23961.0 0.0000417 23856.98047 23978.81836
23986.0 0.0000417 23868.90234 24013.24609
24028.0 0.0000416 23880.80664 24040.22266
24043.0 0.0000416 23892.69922 24055.77148
24055.0 0.0000416 23904.57813 24060.08398
24052.0 0.0000416 23916.44141 24060.12695
24032.0 0.0000416 23928.28906 24062.36328
24042.0 0.0000416 23940.12305 24070.72852
24066.0 0.0000416 23951.94336 24087.02930
24118.0 0.0000415 23963.75000 24110.97852
24159.0 0.0000414 23975.54102 24140.44531
24196.0 0.0000413 23987.31836 24171.75195
24240.0 0.0000413 23999.08203 24198.47266
24243.0 0.0000412 24010.83203 24215.06055
24215.0 0.0000413 24022.56836 24218.86523
24181.0 0.0000414 24034.28906 24212.22461
24172.0 0.0000414 24045.99805 24200.46484
24163.0 0.0000414 24057.69336 24187.87109
24151.0 0.0000414 24069.37305 24177.42383
24167.0 0.0000414 24081.03906 24170.47852
24159.0 0.0000414 24092.69336 24167.42188
24161.0 0.0000414 24104.33398 24168.05078
24187.0 0.0000413 24115.95898 24171.88086
24188.0 0.0000413 24127.57227 24178.32422
24193.0 0.0000413 24139.17188 24186.75000
24220.0 0.0000413 24150.75781 24196.68750
24230.0 0.0000413 24162.33203 24207.79883
24235.0 0.0000413 24173.89063 24219.84961
24255.0 0.0000412 24185.43750 24232.74414
24284.0 0.0000412 24196.97070 24246.49219
24287.0 0.0000412 24208.49219 24261.23047
24295.0 0.0000412 24220.00000 24277.25000
24311.0 0.0000411 24231.49414 24295.06055
24325.0 0.0000411 24242.97656 24315.51953
24356.0 0.0000411 24254.44531 24339.85742
24373.0 0.0000410 24265.90234 24369.85352
24404.0 0.0000410 24277.34570 24407.72266
24432.0 0.0000409 24288.77734 24455.99414
24477.0 0.0000409 24300.19727 24516.99219
24510.0 0.0000408 24311.60352 24592.07031
24549.0 0.0000407 24322.99805 24680.36328
24635.0 0.0000406 24334.37891 24777.23633
24723.0 0.0000404 24345.75000 24873.18750
24805.0 0.0000403 24357.10742 24955.25977
24872.0 0.0000402 24368.45117 25011.06055
24918.0 0.0000401 24379.78516 25033.04102
24964.0 0.0000401 24391.10742 25022.56836
24996.0 0.0000400 24402.41602 24989.29102
25000.0 0.0000400 24413.71289 24943.11523
24956.0 0.0000401 24425.00000 24889.92578
24890.0 0.0000402 24436.27344 24835.02734
24811.0 0.0000403 24447.53711 24785.60156
24741.0 0.0000404 24458.78711 24748.58594
24703.0 0.0000405 24470.02734 24729.00977
24683.0 0.0000405 24481.25586 24730.68359
24678.0 0.0000405 24492.47266 24757.43555
24683.0 0.0000405 24503.67773 24812.73633
24722.0 0.0000404 24514.87109 24901.48047
24790.0 0.0000403 24526.05469 25023.55078
24910.0 0.0000401 24537.22656 25174.22461
25078.0 0.0000399 24548.38672 25339.93750
25334.0 0.0000395 24559.53906 25495.25781
25589.0 0.0000391 24570.67773 25602.57813
25726.0 0.0000389 24581.80664 25626.05273
25704.0 0.0000389 24592.92383 25558.90625
25528.0 0.0000392 24604.03125 25429.38477
25251.0 0.0000396 24615.12891 25278.17969
25034.0 0.0000399 24626.21484 25133.91797
24924.0 0.0000401 24637.29102 25013.30664
24888.0 0.0000402 24648.35547 24921.05078
24868.0 0.0000402 24659.41211 24856.96680
24872.0 0.0000402 24670.45703 24816.37109
24882.0 0.0000402 24681.49219 24793.22266
24887.0 0.0000402 24692.51758 24781.91211
24907.0 0.0000401 24703.53320 24778.08398
24946.0 0.0000401 24714.53906 24778.79102
25007.0 0.0000400 24725.53516 24782.23438
25084.0 0.0000399 24736.51953 24787.37305
25181.0 0.0000397 24747.49609 24793.65234
25074.0 0.0000399 24758.46289 24800.74609
25087.0 0.0000399 24769.41992 24808.46680
25072.0 0.0000399 24780.36719 24816.66406
25014.0 0.0000400 24791.30664 24825.26563
24993.0 0.0000400 24802.23633 24834.19727
24983.0 0.0000400 24813.15625 24843.72656
24987.0 0.0000400 24824.06641 24853.17383
24976.0 0.0000400 24834.96875 24862.81836
24990.0 0.0000400 24845.86133 24872.64063
25013.0 0.0000400 24856.74609 24882.59961
25012.0 0.0000400 24867.62109 24892.70313
25018.0 0.0000400 24878.48828 24902.91797
25045.0 0.0000399 24889.34570 24913.24219
25045.0 0.0000399 24900.19531 24923.65820
25037.0 0.0000399 24911.03711 24934.30664
25068.0 0.0000399 24921.86914 24944.89063
25076.0 0.0000399 24932.69336 24955.56055
25090.0 0.0000399 24943.50977 24966.30859
25097.0 0.0000398 24954.31836 24977.12891
25107.0 0.0000398 24965.11719 24988.01758
25120.0 0.0000398 24975.91016 24998.99023
25118.0 0.0000398 24986.69336 25010.04102
25127.0 0.0000398 24997.47070 25021.17383
25130.0 0.0000398 25008.23828 25032.39258
25142.0 0.0000398 25018.99805 25043.70703
25152.0 0.0000398 25029.75195 25055.14648
25163.0 0.0000397 25040.49805 25066.71289
25172.0 0.0000397 25051.23633 25078.67969
25193.0 0.0000397 25061.96680 25090.66211
25206.0 0.0000397 25072.69141 25102.97266
25229.0 0.0000396 25083.40820 25115.86523
25242.0 0.0000396 25094.11719 25129.33789
25268.0 0.0000396 25104.81836 25143.76367
25285.0 0.0000395 25115.51563 25159.44727
25319.0 0.0000395 25126.20313 25176.68750
25355.0 0.0000394 25136.88477 25195.66797
25366.0 0.0000394 25147.56055 25216.38086
25403.0 0.0000394 25158.22852 25239.11914
25437.0 0.0000393 25168.89063 25261.73438
25482.0 0.0000392 25179.54688 25283.37305
25525.0 0.0000392 25190.19531 25301.93945
25538.0 0.0000392 25200.83789 25315.75195
25539.0 0.0000392 25211.47461 25324.71289
25510.0 0.0000392 25222.10547 25330.52539
25478.0 0.0000392 25232.72852 25335.55273
25468.0 0.0000393 25243.34766 25341.33203
25470.0 0.0000393 25253.95898 25349.19141
25473.0 0.0000393 25264.56641 25359.93164
25482.0 0.0000392 25275.16602 25374.14258
25511.0 0.0000392 25285.76172 25392.45117
25522.0 0.0000392 25296.35156 25415.67578
25516.0 0.0000392 25306.93555 25444.92773
25530.0 0.0000392 25317.51367 25481.74414
25541.0 0.0000392 25328.08594 25527.93164
25572.0 0.0000391 25338.65430 25584.45508
25603.0 0.0000391 25349.21680 25652.92578
25663.0 0.0000390 25359.77344 25733.68555
25753.0 0.0000388 25370.32617 25825.70508
25842.0 0.0000387 25380.87500 25926.36914
25978.0 0.0000385 25391.41797 26031.03320
26138.0 0.0000383 25401.95508 26131.87109
26239.0 0.0000381 25412.48828 26217.02930
26311.0 0.0000380 25423.01563 26273.97070
26323.0 0.0000380 25433.53906 26297.43555
26281.0 0.0000381 25444.05859 26294.59570
26200.0 0.0000382 25454.57227 26280.88672
26189.0 0.0000382 25465.08398 26271.29492
26197.0 0.0000382 25475.58984 26274.68359
26254.0 0.0000381 25486.09180 26292.17773
26347.0 0.0000380 25496.58789 26317.25977
26400.0 0.0000379 25507.08203 26337.68750
26435.0 0.0000378 25517.57227 26341.05273
26423.0 0.0000378 25528.05859 26321.71094
26385.0 0.0000379 25538.53906 26283.63867
26296.0 0.0000380 25549.01758 26231.66016
26191.0 0.0000382 25559.49219 26171.35352
26102.0 0.0000383 25569.96289 26107.27148
26031.0 0.0000384 25580.42773 26041.50586
25959.0 0.0000385 25590.89258 25979.89453
25912.0 0.0000386 25601.35156 25926.36523
25884.0 0.0000386 25611.80859 25882.94531
25882.0 0.0000386 25622.26172 25849.91211
25866.0 0.0000387 25632.71289 25826.50391
25889.0 0.0000386 25643.16016 25811.65625
25914.0 0.0000386 25653.60352 25804.38281
25925.0 0.0000386 25664.04297 25804.24609
25943.0 0.0000385 25674.48047 25811.25000
25956.0 0.0000385 25684.91602 25826.71289
25973.0 0.0000385 25695.34766 25852.98828
26007.0 0.0000385 25705.77734 25893.36914
26025.0 0.0000384 25716.20313 25951.41602
26074.0 0.0000384 25726.62695 26029.54883
26119.0 0.0000383 25737.04883 26127.26367
26176.0 0.0000382 25747.46875 26239.02344
26262.0 0.0000381 25757.88477 26352.63477
26331.0 0.0000380 25768.29883 26449.01758
26409.0 0.0000379 25778.70898 26507.04492
26462.0 0.0000378 25789.11914 26514.39648
26452.0 0.0000378 25799.52539 26475.80664
26411.0 0.0000379 25809.93164 26410.06836
26359.0 0.0000379 25820.33398 26339.35938
26329.0 0.0000380 25830.73438 26280.28906
26324.0 0.0000380 25841.13281 26240.93945
26328.0 0.0000380 25851.52930 26220.33008
26327.0 0.0000380 25861.92383 26211.00781
26338.0 0.0000380 25872.31836 26202.25391
26356.0 0.0000379 25882.70898 26186.71680
26345.0 0.0000380 25893.09766 26164.23828
26306.0 0.0000380 25903.48633 26139.30664
26266.0 0.0000381 25913.87305 26116.90430
26259.0 0.0000381 25924.25586 26100.58398
26270.0 0.0000381 25934.64063 26092.31836
26282.0 0.0000380 25945.02148 26092.62695
26304.0 0.0000380 25955.40234 26101.25391
26333.0 0.0000380 25965.78125 26117.78516
26395.0 0.0000379 25976.15820 26142.36133
26479.0 0.0000378 25986.53516 26176.15820
26587.0 0.0000376 25996.91016 26221.71875
26602.0 0.0000376 26007.28320 26283.08984
26623.0 0.0000376 26017.65625 26365.71875
26645.0 0.0000375 26028.02734 26475.21094
26684.0 0.0000375 26038.39844 26618.99219
26768.0 0.0000374 26048.76758 26799.69727
26907.0 0.0000372 26059.13477 27015.28320
27130.0 0.0000369 26069.50391 27255.04297
27384.0 0.0000365 26079.87109 27496.36523
27642.0 0.0000362 26090.23633 27703.70898
27811.0 0.0000360 26100.59961 27834.60547
27851.0 0.0000359 26110.96484 27856.93945
27765.0 0.0000360 26121.32813 27769.27930
27544.0 0.0000363 26131.68945 27602.88281
27280.0 0.0000367 26142.05078 27401.29883
27060.0 0.0000370 26152.41211 27199.11719
26905.0 0.0000372 26162.77344 27017.60156
26789.0 0.0000373 26173.13281 26865.59375
26704.0 0.0000374 26183.49219 26744.52930
26659.0 0.0000375 26193.84961 26652.83398
26626.0 0.0000376 26204.20898 26587.75977
26581.0 0.0000376 26214.56641 26545.49219
26569.0 0.0000376 26224.92383 26521.26367
26576.0 0.0000376 26235.27930 26510.08984
26581.0 0.0000376 26245.63477 26506.86328
26580.0 0.0000376 26255.99023 26506.67773
26595.0 0.0000376 26266.34570 26505.07422
26608.0 0.0000376 26276.69922 26499.88281
26617.0 0.0000376 26287.05469 26491.60547
26604.0 0.0000376 26297.40820 26481.81836
26572.0 0.0000376 26307.76172 26472.75977
26577.0 0.0000376 26318.11328 26465.90625
26573.0 0.0000376 26328.46680 26462.12109
26581.0 0.0000376 26338.81836 26461.81250
26614.0 0.0000376 26349.17188 26465.10547
26628.0 0.0000376 26359.52148 26472.01758
26644.0 0.0000375 26369.87305 26482.78711
26673.0 0.0000375 26380.22461 26498.16211
26682.0 0.0000375 26390.57422 26519.98047
26694.0 0.0000375 26400.92383 26551.78516
26705.0 0.0000374 26411.27539 26599.36914
26725.0 0.0000374 26421.62500 26671.00000
26774.0 0.0000373 26431.97266 26776.50391
26839.0 0.0000373 26442.32031 26924.98828
26943.0 0.0000371 26452.66992 27121.31055
27063.0 0.0000370 26463.01758 27361.35156
27230.0 0.0000367 26473.36523 27627.68555
27476.0 0.0000364 26483.71289 27888.01367
27799.0 0.0000360 26494.05859 28095.19922
28081.0 0.0000356 26504.40625 28197.65820
28193.0 0.0000355 26514.75195 28165.70117
28055.0 0.0000356 26525.09766 28014.53516
27743.0 0.0000360 26535.44141 27791.13867
27381.0 0.0000365 26545.78516 27546.69141
27148.0 0.0000368 26556.12891 27319.52539
27037.0 0.0000370 26566.47266 27132.45898
26962.0 0.0000371 26576.81445 26994.59180
26933.0 0.0000371 26587.15625 26904.82813
26942.0 0.0000371 26597.49805 26856.54492
26954.0 0.0000371 26607.83789 26841.82617
26943.0 0.0000371 26618.17773 26854.45313
26963.0 0.0000371 26628.51758 26891.00000
27005.0 0.0000370 26638.85547 26950.54297
27045.0 0.0000370 26649.19336 27033.40625
27085.0 0.0000369 26659.52930 27139.45898
27161.0 0.0000368 26669.86328 27266.47070
27303.0 0.0000366 26680.19922 27408.57227
27478.0 0.0000364 26690.53320 27554.78125
27656.0 0.0000362 26700.86523 27688.10547
27828.0 0.0000359 26711.19531 27787.75977
27938.0 0.0000358 26721.52539 27837.54688
27942.0 0.0000358 26731.85547 27835.61133
27867.0 0.0000359 26742.18359 27793.49414
27733.0 0.0000361 26752.50781 27725.28320
27601.0 0.0000362 26762.83398 27640.82813
27497.0 0.0000364 26773.15625 27545.64648
27417.0 0.0000365 26783.47852 27444.36523
27347.0 0.0000366 26793.79883 27343.88672
27275.0 0.0000367 26804.11719 27251.71680
27200.0 0.0000368 26814.43359 27173.27148
27143.0 0.0000368 26824.74805 27111.15234
27127.0 0.0000369 26835.06055 27065.26172
27125.0 0.0000369 26845.37109 27034.19922
27114.0 0.0000369 26855.67969 27014.91406
27121.0 0.0000369 26865.98633 27006.04297
27136.0 0.0000369 26876.29102 27004.64453
27139.0 0.0000368 26886.59375 27008.99414
27158.0 0.0000368 26896.89258 27018.11133
27189.0 0.0000368 26907.18945 27031.40430
27218.0 0.0000367 26917.48242 27049.08008
27259.0 0.0000367 26927.77539 27071.69531
27402.0 0.0000365 26938.06445 27100.18359
27506.0 0.0000364 26948.34961 27135.38672
27464.0 0.0000364 26958.63281 27179.40039
27346.0 0.0000366 26968.91211 27233.28906
27259.0 0.0000367 26979.18945 27298.33984
27265.0 0.0000367 26989.46289 27375.12891
27325.0 0.0000366 26999.73242 27463.56836
27397.0 0.0000365 27009.99805 27561.09766
27483.0 0.0000364 27020.26172 27662.22852
27592.0 0.0000362 27030.51953 27758.53906
27684.0 0.0000361 27040.77539 27839.67578
27758.0 0.0000360 27051.02344 27896.70117
27828.0 0.0000359 27061.27148 27923.36328
27902.0 0.0000358 27071.51367 27916.52344
27933.0 0.0000358 27081.75195 27877.07617
27907.0 0.0000358 27091.98242 27811.27344
27818.0 0.0000359 27102.21094 27729.23242
27685.0 0.0000361 27112.43555 27641.74609
27562.0 0.0000363 27122.65430 27557.90820
27478.0 0.0000364 27132.86523 27484.00586
27438.0 0.0000364 27143.07422 27423.37695
27413.0 0.0000365 27153.27539 27376.78125
27382.0 0.0000365 27163.47266 27343.34180
27361.0 0.0000365 27173.66406 27321.03516
27365.0 0.0000365 27183.84766 27307.69727
27382.0 0.0000365 27194.02734 27301.21484
27380.0 0.0000365 27204.19922 27299.99219
27396.0 0.0000365 27214.36523 27302.03320
27406.0 0.0000365 27224.52344 27306.39844
27414.0 0.0000365 27234.67578 27312.10547
27417.0 0.0000365 27244.82227 27318.45313
27417.0 0.0000365 27254.96094 27324.98438
27436.0 0.0000364 27265.09180 27331.62109
27425.0 0.0000365 27275.21484 27338.56641
27422.0 0.0000365 27285.32813 27346.12305
27437.0 0.0000364 27295.43555 27354.56836
27449.0 0.0000364 27305.53516 27364.14648
27457.0 0.0000364 27315.62695 27375.02148
27483.0 0.0000364 27325.70898 27387.25977
27505.0 0.0000364 27335.78320 27400.81445
27506.0 0.0000364 27345.84766 27415.50586
27491.0 0.0000364 27355.90234 27430.97266
27499.0 0.0000364 27365.94727 27446.65430
27524.0 0.0000363 27375.98242 27461.92773
27551.0 0.0000363 27386.00977 27476.28711
27558.0 0.0000363 27396.02539 27489.65625
27567.0 0.0000363 27406.03125 27502.18164
27598.0 0.0000362 27416.02734 27513.93945
27633.0 0.0000362 27426.01172 27524.62305
27649.0 0.0000362 27435.98633 27533.72656
27658.0 0.0000362 27445.94531 27540.89063
27647.0 0.0000362 27455.89648 27546.15039
27631.0 0.0000362 27465.83594 27550.08398
27622.0 0.0000362 27475.76172 27553.44531
27624.0 0.0000362 27485.67773 27557.00977
27632.0 0.0000362 27495.57813 27561.31250
27625.0 0.0000362 27505.46875 27566.73633
27631.0 0.0000362 27515.34375 27573.57422
27649.0 0.0000362 27525.20703 27581.97266
27649.0 0.0000362 27535.05469 27592.23828
27654.0 0.0000362 27544.88867 27604.76953
27672.0 0.0000361 27554.70898 27620.15039
27695.0 0.0000361 27564.51563 27639.39844
27692.0 0.0000361 27574.30664 27663.09180
27710.0 0.0000361 27584.08203 27692.45898
27731.0 0.0000361 27593.84375 27728.63477
27753.0 0.0000360 27603.58789 27771.59961
27777.0 0.0000360 27613.31641 27821.37891
27805.0 0.0000360 27623.02930 27876.66992
27851.0 0.0000359 27632.72461 27934.94531
27897.0 0.0000358 27642.40430 27992.01758
27955.0 0.0000358 27652.06445 28041.83203
28004.0 0.0000357 27661.70898 28077.12500
28045.0 0.0000357 27671.33594 28091.89648
28076.0 0.0000356 27680.94336 28084.82031
28070.0 0.0000356 27690.52930 28060.20898
28022.0 0.0000357 27700.09961 28025.22852
27965.0 0.0000358 27709.65039 27986.68750
27943.0 0.0000358 27719.18164 27949.68555
27912.0 0.0000358 27728.69336 27917.17383
27892.0 0.0000359 27738.18359 27890.92383
27882.0 0.0000359 27747.65234 27871.51563
27884.0 0.0000359 27757.10156 27858.75977
27884.0 0.0000359 27766.52930 27851.96484
27895.0 0.0000358 27775.93164 27850.19141
27899.0 0.0000358 27785.31445 27852.50586
27912.0 0.0000358 27794.67578 27858.09375
27910.0 0.0000358 27804.01172 27866.38867
27905.0 0.0000358 27813.32617 27877.06055
27911.0 0.0000358 27822.61523 27890.04297
27940.0 0.0000358 27831.88086 27905.44336
27958.0 0.0000358 27841.12109 27923.49805
27971.0 0.0000358 27850.33594 27944.38672
28007.0 0.0000357 27859.52539 27968.29492
28033.0 0.0000357 27868.68945 27995.20117
28058.0 0.0000356 27877.82813 28024.79688
28095.0 0.0000356 27886.93945 28056.43555
28156.0 0.0000355 27896.02148 28089.12109
28191.0 0.0000355 27905.07813 28121.64453
28216.0 0.0000354 27914.10742 28151.84375
28240.0 0.0000354 27923.10352 28179.40039
28247.0 0.0000354 27932.07422 28201.16602
28237.0 0.0000354 27941.01563 28214.60156
28226.0 0.0000354 27949.92578 28218.37891
28192.0 0.0000355 27958.80664 28213.31836
28141.0 0.0000355 27967.65430 28202.14453
28089.0 0.0000356 27976.47266 28188.31055
28088.0 0.0000356 27985.25977 28174.91797
28102.0 0.0000356 27994.01367 28164.41016
28118.0 0.0000356 28002.73242 28158.59375
28118.0 0.0000356 28011.41992 28158.77930
28135.0 0.0000355 28020.07227 28165.86914
28147.0 0.0000355 28028.69141 28180.35742
28155.0 0.0000355 28037.27539 28202.27539
28180.0 0.0000355 28045.82422 28231.18359
28221.0 0.0000354 28054.33789 28265.98438
28255.0 0.0000354 28062.81250 28304.79102
28296.0 0.0000353 28071.25000 28344.33203
28337.0 0.0000353 28079.65234 28379.84180
28383.0 0.0000352 28088.01563 28405.83789
28395.0 0.0000352 28096.33984 28418.24609
28392.0 0.0000352 28104.62500 28417.06445
28360.0 0.0000353 28112.87109 28405.40625
28313.0 0.0000353 28121.07617 28388.17773
28278.0 0.0000354 28129.24023 28370.03125
28265.0 0.0000354 28137.36133 28354.54688
28247.0 0.0000354 28145.44141 28344.11133
28255.0 0.0000354 28153.47852 28340.11719
28276.0 0.0000354 28161.47461 28343.01367
28299.0 0.0000353 28169.42383 28352.41602
28331.0 0.0000353 28177.33008 28367.15625
28370.0 0.0000352 28185.19141 28385.27734
28421.0 0.0000352 28193.00586 28404.12500
28486.0 0.0000351 28200.77344 28420.79102
28526.0 0.0000351 28208.49414 28432.18164
28569.0 0.0000350 28216.16602 28436.97656
28554.0 0.0000350 28223.79297 28435.68750
28513.0 0.0000351 28231.36914 28430.49609
28479.0 0.0000351 28238.89453 28424.25391
28426.0 0.0000352 28246.37109 28419.53906
28400.0 0.0000352 28253.79688 28418.14648
28395.0 0.0000352 28261.16992 28421.21289
28391.0 0.0000352 28268.49023 28429.10938
28405.0 0.0000352 28275.75781 28441.50586
28414.0 0.0000352 28282.97266 28457.40430
28418.0 0.0000352 28290.13281 28475.11719
28455.0 0.0000351 28297.23828 28492.46680
28476.0 0.0000351 28304.28711 28507.34570
28485.0 0.0000351 28311.27930 28518.40625
28479.0 0.0000351 28318.21484 28525.71875
28477.0 0.0000351 28325.09180 28530.34570
28482.0 0.0000351 28331.91016 28533.53125
28506.0 0.0000351 28338.66797 28536.09961
28536.0 0.0000350 28345.36719 28537.85547
28588.0 0.0000350 28352.00391 28538.26563
28631.0 0.0000349 28358.58008 28536.57227
28658.0 0.0000349 28365.09375 28532.36523
28692.0 0.0000349 28371.54297 28525.90234
28719.0 0.0000348 28377.92969 28517.96289
28684.0 0.0000349 28384.24805 28509.57813
28629.0 0.0000349 28390.50391 28501.47656
28569.0 0.0000350 28396.69336 28494.35156
28530.0 0.0000351 28402.81445 28488.54688
28512.0 0.0000351 28408.86719 28484.28320
28524.0 0.0000351 28414.85156 28481.59570
28517.0 0.0000351 28420.76563 28480.43359
28515.0 0.0000351 28426.60938 28480.72656
28543.0 0.0000350 28432.38086 28482.33203
28545.0 0.0000350 28438.08008 28485.12109
28531.0 0.0000350 28443.70703 28489.09375
28510.0 0.0000351 28449.25977 28493.91992
28500.0 0.0000351 28454.73828 28499.66211
28511.0 0.0000351 28460.13867 28506.33789
28538.0 0.0000350 28465.46484 28513.95313
28535.0 0.0000350 28470.71094 28522.58008
28547.0 0.0000350 28475.88086 28532.27148
28570.0 0.0000350 28480.96875 28542.29102
28587.0 0.0000350 28485.97852 28554.33984
28598.0 0.0000350 28490.90625 28567.61133
28597.0 0.0000350 28495.75195 28582.07813
28595.0 0.0000350 28500.51563 28597.68750
28596.0 0.0000350 28505.19336 28614.39844
28604.0 0.0000350 28509.78711 28632.39453
28615.0 0.0000349 28514.29492 28652.10352
28633.0 0.0000349 28518.71484 28673.84961
28649.0 0.0000349 28523.04688 28697.94141
28655.0 0.0000349 28527.29102 28724.24414
28671.0 0.0000349 28531.44531 28752.08594
28723.0 0.0000348 28535.50781 28780.09961
28792.0 0.0000347 28539.47852 28806.18750
28848.0 0.0000347 28543.35547 28827.56641
28868.0 0.0000346 28547.14063 28841.40234
28857.0 0.0000347 28550.82813 28845.72266
28822.0 0.0000347 28554.42188 28840.34766
28782.0 0.0000347 28557.91602 28826.96875
28743.0 0.0000348 28561.31445 28808.35938
28730.0 0.0000348 28564.61328 28787.37109
28730.0 0.0000348 28567.81055 28766.27344
28712.0 0.0000348 28570.90820 28746.67773
28715.0 0.0000348 28573.90234 28729.53516
28720.0 0.0000348 28576.79297 28715.37500
28724.0 0.0000348 28579.57813 28704.10156
28732.0 0.0000348 28582.25781 28695.53320
28762.0 0.0000348 28584.83203 28689.19922
28766.0 0.0000348 28587.29688 28684.50977
28766.0 0.0000348 28589.65234 28680.92969
28778.0 0.0000347 28591.89844 28678.16016
28791.0 0.0000347 28594.03320 28676.17188
28792.0 0.0000347 28596.05469 28675.13477
28794.0 0.0000347 28597.96289 28675.24023
28789.0 0.0000347 28599.75586 28676.70313
28793.0 0.0000347 28601.43164 28679.73047
28790.0 0.0000347 28602.99023 28684.61328
28795.0 0.0000347 28604.43164 28691.67188
28792.0 0.0000347 28605.75195 28701.32227
28802.0 0.0000347 28606.95313 28714.04297
28811.0 0.0000347 28608.03125 28730.22266
28830.0 0.0000347 28608.98438 28750.69922
28838.0 0.0000347 28609.81445 28775.86133
28851.0 0.0000347 28610.51758 28806.10547
28882.0 0.0000346 28611.09180 28841.59766
28905.0 0.0000346 28611.54102 28882.13672
28922.0 0.0000346 28611.85742 28927.07813
28958.0 0.0000345 28612.04492 28975.28516
28995.0 0.0000345 28612.09766 29025.00195
29041.0 0.0000344 28612.01953 29073.75977
29085.0 0.0000344 28611.80273 29118.32813
29135.0 0.0000343 28611.45313 29155.05469
29165.0 0.0000343 28610.96289 29180.48242
29186.0 . . .
29179.0 . . .
29160.0 . . .
29113.0 . . .
29076.0 . . .
29029.0 . . .
28999.0 . . .
28988.0 . . .
28989.0 . . .
29005.0 . . .
29004.0 . . .
29008.0 . . .
29031.0 . . .
29061.0 . . .
29082.0 . . .
29105.0 . . .
29105.0 . . .
29079.0 . . .
29048.0 . . .
29016.0 . . .
29010.0 . . .
29023.0 . . .
29028.0 . . .
29017.0 . . .
29022.0 . . .
29034.0 . . .
29042.0 . . .
29030.0 . . .
29035.0 . . .
29040.0 . . .
29068.0 . . .
29081.0 . . .
29091.0 . . .
29088.0 . . .
29125.0 . . .
29155.0 . . .
29161.0 . . .
29170.0 . . .
29174.0 . . .
29160.0 . . .
29153.0 . . .
29131.0 . . .
29116.0 . . .
29102.0 . . .
29101.0 . . .
29100.0 . . .
29091.0 . . .
29089.0 . . .
29087.0 . . .
29085.0 . . .
29099.0 . . .
29121.0 . . .
29128.0 . . .
29137.0 . . .
29137.0 . . .
29124.0 . . .
29130.0 . . .
29127.0 . . .
29143.0 . . .
29143.0 . . .
29163.0 . . .
29196.0 . . .
29210.0 . . .
29206.0 . . .
29244.0 . . .
29275.0 . . .
29301.0 . . .
29357.0 . . .
29402.0 . . .
29430.0 . . .
29427.0 . . .
29417.0 . . .
29401.0 . . .
29369.0 . . .
29333.0 . . .
29329.0 . . .
29335.0 . . .
29325.0 . . .
29312.0 . . .
29324.0 . . .
29339.0 . . .
29346.0 . . .
29343.0 . . .
29321.0 . . .
29319.0 . . .
29313.0 . . .
29310.0 . . .
29304.0 . . .
29308.0 . . .
29308.0 . . .
29323.0 . . .
29335.0 . . .
29371.0 . . .
29394.0 . . .
29395.0 . . .
29392.0 . . .
29403.0 . . .
29419.0 . . .
29421.0 . . .
29409.0 . . .
29428.0 . . .
29423.0 . . .
29417.0 . . .
29419.0 . . .
29416.0 . . .
29430.0 . . .
29439.0 . . .
29446.0 . . .
29471.0 . . .
29510.0 . . .
29547.0 . . .
29551.0 . . .
29550.0 . . .
29544.0 . . .
29569.0 . . .
29595.0 . . .
29674.0 . . .
29766.0 . . .
29916.0 . . .
30108.0 . . .
30369.0 . . .
30313.0 . . .
30042.0 . . .
29958.0 . . .
29898.0 . . .
29862.0 . . .
29844.0 . . .
29809.0 . . .
29731.0 . . .
29664.0 . . .
29618.0 . . .
29576.0 . . .
29529.0 . . .
29476.0 . . .
29434.0 . . .
29403.0 . . .
29382.0 . . .
29386.0 . . .
29399.0 . . .
29395.0 . . .
29386.0 . . .
29372.0 . . .
29378.0 . . .
29388.0 . . .
29403.0 . . .
29418.0 . . .
29443.0 . . .
29470.0 . . .
29503.0 . . .
29530.0 . . .
29549.0 . . .
29541.0 . . .
29531.0 . . .
29529.0 . . .
29520.0 . . .
29507.0 . . .
29503.0 . . .
29482.0 . . .
29467.0 . . .
29451.0 . . .
29435.0 . . .
29412.0 . . .
29404.0 . . .
29413.0 . . .
29390.0 . . .
29369.0 . . .
29349.0 . . .
29358.0 . . .
29362.0 . . .
29377.0 . . .
29390.0 . . .
29391.0 . . .
29378.0 . . .
29375.0 . . .
29339.0 . . .
29326.0 . . .
29312.0 . . .
29277.0 . . .
29236.0 . . .
29189.0 . . .
29176.0 . . .
29170.0 . . .
29160.0 . . .
29146.0 . . .
29133.0 . . .
29135.0 . . .
29120.0 . . .
29137.0 . . .
29159.0 . . .
29179.0 . . .
29183.0 . . .
29187.0 . . .
29171.0 . . .
29142.0 . . .
29098.0 . . .
29009.0 . . .
28927.0 . . .
28844.0 . . .
28760.0 . . .
28678.0 . . .
28545.0 . . .
28420.0 . . .
28280.0 . . .
28229.0 . . .
28365.0 . . .
28431.0 . . .
28482.0 . . .
28504.0 . . .
28526.0 . . .
28532.0 . . .
28537.0 . . .
28529.0 . . .
28536.0 . . .
28553.0 . . .
28566.0 . . .
28582.0 . . .
28597.0 . . .
28607.0 . . .
28621.0 . . .
28610.0 . . .
28617.0 . . .
28610.0 . . .
28584.0 . . .
28566.0 . . .
28552.0 . . .
28534.0 . . .
28523.0 . . .
28512.0 . . .
28484.0 . . .
28486.0 . . .
28480.0 . . .
28470.0 . . .
28466.0 . . .
28451.0 . . .
28439.0 . . .
28441.0 . . .
28453.0 . . .
28461.0 . . .
28459.0 . . .
28462.0 . . .
28469.0 . . .
28486.0 . . .
28504.0 . . .
28525.0 . . .
28519.0 . . .
28493.0 . . .
28469.0 . . .
28444.0 . . .
28399.0 . . .
28364.0 . . .
28348.0 . . .
28319.0 . . .
28305.0 . . .
28287.0 . . .
28266.0 . . .
28252.0 . . .
28262.0 . . .
28266.0 . . .
28282.0 . . .
28262.0 . . .
28248.0 . . .
28228.0 . . .
28187.0 . . .
28170.0 . . .
28172.0 . . .
28152.0 . . .
28121.0 . . .
28100.0 . . .
28099.0 . . .
28090.0 . . .
28069.0 . . .
28050.0 . . .
28048.0 . . .
28044.0 . . .
28019.0 . . .
27988.0 . . .
27987.0 . . .
27993.0 . . .
27985.0 . . .
27960.0 . . .
27944.0 . . .
27900.0 . . .
27866.0 . . .
27837.0 . . .
27808.0 . . .
27788.0 . . .
27746.0 . . .
27726.0 . . .
27724.0 . . .
27718.0 . . .
27716.0 . . .
27694.0 . . .
27672.0 . . .
27655.0 . . .
27627.0 . . .
27599.0 . . .
27596.0 . . .
27606.0 . . .
27598.0 . . .
27580.0 . . .
27577.0 . . .
27565.0 . . .
27563.0 . . .
27553.0 . . .
27551.0 . . .
27523.0 . . .
27495.0 . . .
27483.0 . . .
27442.0 . . .
27409.0 . . .
27380.0 . . .
27357.0 . . .
27335.0 . . .
27329.0 . . .
27300.0 . . .
27267.0 . . .
27257.0 . . .
27250.0 . . .
27230.0 . . .
27204.0 . . .
27200.0 . . .
27182.0 . . .
27172.0 . . .
27172.0 . . .
27150.0 . . .
27119.0 . . .
27109.0 . . .
27087.0 . . .
27077.0 . . .
27064.0 . . .
27040.0 . . .
27014.0 . . .
26991.0 . . .
26984.0 . . .
26980.0 . . .
26961.0 . . .
26940.0 . . .
26933.0 . . .
26928.0 . . .
26936.0 . . .
26934.0 . . .
26952.0 . . .
26945.0 . . .
26906.0 . . .
26862.0 . . .
26840.0 . . .
26804.0 . . .
26745.0 . . .
26695.0 . . .
26677.0 . . .
26632.0 . . .
26588.0 . . .
26579.0 . . .
26561.0 . . .
26527.0 . . .
26478.0 . . .
26441.0 . . .
26437.0 . . .
26435.0 . . .
26407.0 . . .
26365.0 . . .
26343.0 . . .
26303.0 . . .
26274.0 . . .
26252.0 . . .
26250.0 . . .
26239.0 . . .
26230.0 . . .
26213.0 . . .
26202.0 . . .
26179.0 . . .
26155.0 . . .
26132.0 . . .
26085.0 . . .
26043.0 . . .
26010.0 . . .
25984.0 . . .
25961.0 . . .
25925.0 . . .
25881.0 . . .
25850.0 . . .
25822.0 . . .
25795.0 . . .
25774.0 . . .
25754.0 . . .
25736.0 . . .
25699.0 . . .
25683.0 . . .
25681.0 . . .
25656.0 . . .
25616.0 . . .
25606.0 . . .
25594.0 . . .
25563.0 . . .
25540.0 . . .
25509.0 . . .
25470.0 . . .
25432.0 . . .
25394.0 . . .
25372.0 . . .
25367.0 . . .
25345.0 . . .
25296.0 . . .
25240.0 . . .
25234.0 . . .
25211.0 . . .
25193.0 . . .
25152.0 . . .
25122.0 . . .
25108.0 . . .
25093.0 . . .
25044.0 . . .
25006.0 . . .
24994.0 . . .
24995.0 . . .
24982.0 . . .
24946.0 . . .
24915.0 . . .
24904.0 . . .
24882.0 . . .
24850.0 . . .
24834.0 . . .
24826.0 . . .
24815.0 . . .
24788.0 . . .
24768.0 . . .
24749.0 . . .
24708.0 . . .
24697.0 . . .
24693.0 . . .
24686.0 . . .
24696.0 . . .
24683.0 . . .
24659.0 . . .
24663.0 . . .
24686.0 . . .
24685.0 . . .
24669.0 . . .
24616.0 . . .
24566.0 . . .
24542.0 . . .
24512.0 . . .
24491.0 . . .
24446.0 . . .
24428.0 . . .
24417.0 . . .
24403.0 . . .
24384.0 . . .
24351.0 . . .
24321.0 . . .
24303.0 . . .
24275.0 . . .
24249.0 . . .
24231.0 . . .
24183.0 . . .
24165.0 . . .
24155.0 . . .
24121.0 . . .
24073.0 . . .
24025.0 . . .
23984.0 . . .
23973.0 . . .
23945.0 . . .
23916.0 . . .
23912.0 . . .
23888.0 . . .
23852.0 . . .
23827.0 . . .
23814.0 . . .
23793.0 . . .
23754.0 . . .
23732.0 . . .
23693.0 . . .
23648.0 . . .
23614.0 . . .
23567.0 . . .
23546.0 . . .
23543.0 . . .
23522.0 . . .
23528.0 . . .
23538.0 . . .
23613.0 . . .
23854.0 . . .
23900.0 . . .
23682.0 . . .
23472.0 . . .
23345.0 . . .
23274.0 . . .
23237.0 . . .
23235.0 . . .
23210.0 . . .
23164.0 . . .
23134.0 . . .
23095.0 . . .
23073.0 . . .
23057.0 . . .
23012.0 . . .
22995.0 . . .
22984.0 . . .
22964.0 . . .
22954.0 . . .
22897.0 . . .
22863.0 . . .
22841.0 . . .
22824.0 . . .
22803.0 . . .
22750.0 . . .
22710.0 . . .
22650.0 . . .
22614.0 . . .
22609.0 . . .
22555.0 . . .
22514.0 . . .
22464.0 . . .
22431.0 . . .
22434.0 . . .
22391.0 . . .
22359.0 . . .
22310.0 . . .
22282.0 . . .
22294.0 . . .
22234.0 . . .
22217.0 . . .
22173.0 . . .
22132.0 . . .
22139.0 . . .
22088.0 . . .
22073.0 . . .
22062.0 . . .
22036.0 . . .
22018.0 . . .
21952.0 . . .
21925.0 . . .
21916.0 . . .
21901.0 . . .
21879.0 . . .
21836.0 . . .
21810.0 . . .
21783.0 . . .
21772.0 . . .
21745.0 . . .
21698.0 . . .
21669.0 . . .
21637.0 . . .
21622.0 . . .
21580.0 . . .
21515.0 . . .
21454.0 . . .
21403.0 . . .
21399.0 . . .
21399.0 . . .
21368.0 . . .
21330.0 . . .
21303.0 . . .
21290.0 . . .
21230.0 . . .
21161.0 . . .
21123.0 . . .
21122.0 . . .
21113.0 . . .
21042.0 . . .
20999.0 . . .
20989.0 . . .
20952.0 . . .
20942.0 . . .
20916.0 . . .
20883.0 . . .
20844.0 . . .
20826.0 . . .
20797.0 . . .
20727.0 . . .
20722.0 . . .
20700.0 . . .
20673.0 . . .
20636.0 . . .
20579.0 . . .
20562.0 . . .
20532.0 . . .
20529.0 . . .
20495.0 . . .
20449.0 . . .
20432.0 . . .
20397.0 . . .
20393.0 . . .
20343.0 . . .
20289.0 . . .
20254.0 . . .
20232.0 . . .
20212.0 . . .
20163.0 . . .
20141.0 . . .
20108.0 . . .
20095.0 . . .
20067.0 . . .
20014.0 . . .
19981.0 . . .
19963.0 . . .
19965.0 . . .
19903.0 . . .
19866.0 . . .
19837.0 . . .
19816.0 . . .
19802.0 . . .
19744.0 . . .
19701.0 . . .
19654.0 . . .
19647.0 . . .
19623.0 . . .
19570.0 . . .
19535.0 . . .
19510.0 . . .
19501.0 . . .
19444.0 . . .
19402.0 . . .
19380.0 . . .
19375.0 . . .
19341.0 . . .
19279.0 . . .
19289.0 . . .
19270.0 . . .
19272.0 . . .
19214.0 . . .
19181.0 . . .
19149.0 . . .
19127.0 . . .
19126.0 . . .
19043.0 . . .
18988.0 . . .
18963.0 . . .
18978.0 . . .
18942.0 . . .
18877.0 . . .
18853.0 . . .
18824.0 . . .
18808.0 . . .
18716.0 . . .
18670.0 . . .
18650.0 . . .
18685.0 . . .
18636.0 . . .
18556.0 . . .
18550.0 . . .
18555.0 . . .
18547.0 . . .
18472.0 . . .
18457.0 . . .
18422.0 . . .
18424.0 . . .
18355.0 . . .
18300.0 . . .
18308.0 . . .
18311.0 . . .
18315.0 . . .
18207.0 . . .
18143.0 . . .
18134.0 . . .
18176.0 . . .
18099.0 . . .
18047.0 . . .
18012.0 . . .
18008.0 . . .
17967.0 . . .
17878.0 . . .
17888.0 . . .
17897.0 . . .
17905.0 . . .
17798.0 . . .
17725.0 . . .
17680.0 . . .
17708.0 . . .
17655.0 . . .
17564.0 . . .
17529.0 . . .
17512.0 . . .
17541.0 . . .
17476.0 . . .
17421.0 . . .
17388.0 . . .
17394.0 . . .
17312.0 . . .
17257.0 . . .
17261.0 . . .
17295.0 . . .
17236.0 . . .
17134.0 . . .
17109.0 . . .
17106.0 . . .
17096.0 . . .
17007.0 . . .
16983.0 . . .
16975.0 . . .
16959.0 . . .
16866.0 . . .
16798.0 . . .
16764.0 . . .
16796.0 . . .
16726.0 . . .
16646.0 . . .
16651.0 . . .
16695.0 . . .
16663.0 . . .
16562.0 . . .
16515.0 . . .
16487.0 . . .
16508.0 . . .
16416.0 . . .
16351.0 . . .
16337.0 . . .
16365.0 . . .
16302.0 . . .
16215.0 . . .
16206.0 . . .
16224.0 . . .
16152.0 . . .
16049.0 . . .
16011.0 . . .
16035.0 . . .
16022.0 . . .
15919.0 . . .
15887.0 . . .
15910.0 . . .
15890.0 . . .
15780.0 . . .
15763.0 . . .
15796.0 . . .
15813.0 . . .
15684.0 . . .
15643.0 . . .
15631.0 . . .
15615.0 . . .
15517.0 . . .
15448.0 . . .
15468.0 . . .
15476.0 . . .
15378.0 . . .
15319.0 . . .
15315.0 . . .
15322.0 . . .
15266.0 . . .
15185.0 . . .
15170.0 . . .
15183.0 . . .
15127.0 . . .
15039.0 . . .
15015.0 . . .
15028.0 . . .
14986.0 . . .
14877.0 . . .
14857.0 . . .
14897.0 . . .
14883.0 . . .
14771.0 . . .
14711.0 . . .
14717.0 . . .
14699.0 . . .
14580.0 . . .
14530.0 . . .
14538.0 . . .
14544.0 . . .
14446.0 . . .
14377.0 . . .
14362.0 . . .
14363.0 . . .
14306.0 . . .
14241.0 . . .
14236.0 . . .
14255.0 . . .
14137.0 . . .
14044.0 . . .
14004.0 . . .
14003.0 . . .
13893.0 . . .
13857.0 . . .
13875.0 . . .
13907.0 . . .
13811.0 . . .
13730.0 . . .
13680.0 . . .
13678.0 . . .
13601.0 . . .
13503.0 . . .
13496.0 . . .
13523.0 . . .
13437.0 . . .
13369.0 . . .
13336.0 . . .
13355.0 . . .
13265.0 . . .
13140.0 . . .
13118.0 . . .
13150.0 . . .
13101.0 . . .
13010.0 . . .
12962.0 . . .
12971.0 . . .
12920.0 . . .
12834.0 . . .
12802.0 . . .
12815.0 . . .
12722.0 . . .
12662.0 . . .
12634.0 . . .
12630.0 . . .
12496.0 . . .
12455.0 . . .
12450.0 . . .
12445.0 . . .
12302.0 . . .
12268.0 . . .
12283.0 . . .
12252.0 . . .
12086.0 . . .
12040.0 . . .
12045.0 . . .
12004.0 . . .
11823.0 . . .
11807.0 . . .
11846.0 . . .
11802.0 . . .
11651.0 . . .
11619.0 . . .
11660.0 . . .
11612.0 . . .
11458.0 . . .
11423.0 . . .
11440.0 . . .
11319.0 . . .
11214.0 . . .
11164.0 . . .
11182.0 . . .
11074.0 . . .
10992.0 . . .
10971.0 . . .
10965.0 . . .
10850.0 . . .
10799.0 . . .
10848.0 . . .
10828.0 . . .
10689.0 . . .
10676.0 . . .
10735.0 . . .
10736.0 . . .
10634.0 . . .
10630.0 . . .
10676.0 . . .
10573.0 . . .
10434.0 . . .
10460.0 . . .
10537.0 . . .
10427.0 . . .
10339.0 . . .
10363.0 . . .
10405.0 . . .
10220.0 . . .
10222.0 . . .
10304.0 . . .
10284.0 . . .
10129.0 . . .
10129.0 . . .
10176.0 . . .
10103.0 . . .
10012.0 . . .
9999.0 . . .
10048.0 . . .
9937.0 . . .
9897.0 . . .
9966.0 . . .
9952.0 . . .
9788.0 . . .
9768.0 . . .
9830.0 . . .
9834.0 . . .
9673.0 . . .
9645.0 . . .
9759.0 . . .
9676.0 . . .
9535.0 . . .
9558.0 . . .
9663.0 . . .
9473.0 . . .
9441.0 . . .
9520.0 . . .
9489.0 . . .
9291.0 . . .
9340.0 . . .
9470.0 . . .
9354.0 . . .
9223.0 . . .
9269.0 . . .
9347.0 . . .
9115.0 . . .
9111.0 . . .
9213.0 . . .
9143.0 . . .
8991.0 . . .
9015.0 . . .
9061.0 . . .
8911.0 . . .
8891.0 . . .
8965.0 . . .
8975.0 . . .
8824.0 . . .
8859.0 . . .
8880.0 . . .
8781.0 . . .
8719.0 . . .
8724.0 . . .
8723.0 . . .
8613.0 . . .
8583.0 . . .
8625.0 . . .
8586.0 . . .
8481.0 . . .
8512.0 . . .
8521.0 . . .
8431.0 . . .
8386.0 . . .
8419.0 . . .
8440.0 . . .
8333.0 . . .
8317.0 . . .
8355.0 . . .
8320.0 . . .
8182.0 . . .
8196.0 . . .
8258.0 . . .
8112.0 . . .
8120.0 . . .
8087.0 . . .
8077.0 . . .
7981.0 . . .
7991.0 . . .
8036.0 . . .
7953.0 . . .
7928.0 . . .
7875.0 . . .
7890.0 . . .
7810.0 . . .
7796.0 . . .
7796.0 . . .
7743.0 . . .
7707.0 . . .
7668.0 . . .
7607.0 . . .
7560.0 . . .
7567.0 . . .
7521.0 . . .
7491.0 . . .
7386.0 . . .
7388.0 . . .
7363.0 . . .
7322.0 . . .
7353.0 . . .
7308.0 . . .
7304.0 . . .
7242.0 . . .
7233.0 . . .
7250.0 . . .
7186.0 . . .
7116.0 . . .
7045.0 . . .
6992.0 . . .
6973.0 . . .
6958.0 . . .
6910.0 . . .
6905.0 . . .
6882.0 . . .
6896.0 . . .
6815.0 . . .
6744.0 . . .
6753.0 . . .
6721.0 . . .
6673.0 . . .
6638.0 . . .
6615.0 . . .
6647.0 . . .
6629.0 . . .
6558.0 . . .
6473.0 . . .
6403.0 . . .
6406.0 . . .
6344.0 . . .
6276.0 . . .
6287.0 . . .
6275.0 . . .
6228.0 . . .
6167.0 . . .
6044.0 . . .
6090.0 . . .
6074.0 . . .
6021.0 . . .
5974.0 . . .
5832.0 . . .
5846.0 . . .
5813.0 . . .
5783.0 . . .
5765.0 . . .
5657.0 . . .
5574.0 . . .
5559.0 . . .
5465.0 . . .
5396.0 . . .
5360.0 . . .
5338.0 . . .
5351.0 . . .
5247.0 . . .
5048.0 . . .
5154.0 . . .
5050.0 . . .
4927.0 . . .
4865.0 . . .
4652.0 . . .
4594.0 . . .
4447.0 . . .
4127.0 . . .
4029.0 . . .
3733.0 . . .
3310.0 . . .
3208.0 . . .
2697.0 . . .
2301.0 . . .
2316.0 . . .
4858.0 . . .
5951.0 . . .
loop_
_refln_index_h
_refln_index_k
_refln_index_l
_refln_observed_status
_refln_F_squared_meas
_refln_F_squared_calc
_refln_phase_calc
_refln_d_spacing
_gsas_i100_meas
1 1 1 o 1908.263 1146.266 171.29 4.65205 10.16
1 1 0 o 14.218 0.812 180.00 4.86899 0.04
0 0 4 o 10824.862 8439.658 -165.17 3.94015 8.00
1 1 2 o 8227.507 7471.300 -91.72 4.14212 35.92
0 2 0 o 10744.978 9804.808 0.00 3.93180 11.33
0 2 1 o 401.862 136.684 25.78 3.81488 0.61
1 1 3 o 476.849 120.487 138.26 3.57111 1.60
0 2 2 o 2332.275 950.322 94.70 3.51820 4.21
0 2 3 o 9686.453 8155.640 -86.12 3.14784 12.87
1 1 4 o 6259.410 5374.566 -113.88 3.06290 11.67
2 0 0 o 159771.08 152729.02 0.00 3.10029 100.00
2 0 2 o 521.531 255.642 -168.26 2.88504 1.65
0 2 4 o 1210.462 565.005 96.83 2.78315 1.25
0 0 6 o 530.000 300.211 83.89 2.62677 0.17
1 1 5 o 5133.505 2981.643 -141.32 2.64603 5.48
0 2 5 o 1179.867 955.331 76.96 2.45935 0.96
2 0 4 o 6761.008 5886.283 -163.98 2.43647 4.78
1 1 6 o 19018.693 18890.139 -127.70 2.31180 16.96
2 2 0 o 7273.014 6858.948 0.00 2.43449 4.62
1 3 0 o 7713.580 7497.645 180.00 2.41434 4.25
2 2 1 o 89.486 74.741 32.98 2.40596 0.12
1 3 1 o 4144.185 3599.620 -42.98 2.38650 5.22
2 2 2 o 499.568 660.999 91.88 2.32603 0.67
1 3 2 o 14341.123 14499.657 125.97 2.30842 19.48
0 2 6 o 3466.035 2340.092 60.54 2.18417 2.02
2 2 3 o 6682.187 5773.979 -85.64 2.20885 8.15
1 3 3 o 1847.350 1649.663 38.99 2.19376 2.22
1 1 7 o 4964.403 1431.783 -171.34 2.04360 4.37
2 2 4 o 2993.061 483.193 98.65 2.07106 3.27
1 3 4 o 2689.524 739.710 -13.23 2.05860 2.49
0 0 8 o 26993.662 21695.156 134.60 1.97008 5.00
2 0 6 o 697.277 304.104 91.28 2.00414 2.29
0 2 7 o 8285.723 7428.968 156.27 1.95384 3.51
3 1 0 o 46.836 24.979 180.00 1.99896 0.01
2 2 5 o 685.962 651.465 78.44 1.92674 0.68
1 3 5 o 3705.353 3649.158 177.28 1.91670 2.33
3 1 1 o 376.234 235.409 176.27 1.98307 0.10
3 1 2 o 4075.144 3937.365 -89.11 1.93759 3.17
0 4 0 o 2589.200 2675.889 180.00 1.96590 0.68
0 4 1 o 1201.886 1178.055 120.20 1.95078 0.54
0 4 2 o 6283.087 6216.906 68.67 1.90744 2.39
1 1 8 o 1891.203 1758.725 30.48 1.82625 1.61
3 1 3 o 112.774 72.178 135.50 1.86829 0.13
0 4 3 o 1887.536 1837.476 -63.65 1.84121 0.80
0 2 8 o 555.716 468.664 86.66 1.76134 0.19
2 2 6 o 1839.840 1916.774 60.92 1.78556 1.55
3 1 4 o 3128.852 3196.218 -113.19 1.78267 2.24
1 3 6 o 3272.218 3061.844 -65.20 1.77756 1.47
0 4 4 o 17427.621 14856.861 81.79 1.75910 7.88
2 0 8 o 21064.643 17833.201 134.28 1.66276 7.30
3 1 5 o 5471.541 1908.718 -142.40 1.68813 1.54
2 2 7 o 7223.223 6241.605 156.16 1.65297 4.69
1 1 9 o 2731.080 2285.596 89.69 1.64784 2.14
1 3 7 o 671.072 568.161 -89.90 1.64662 0.29
0 4 5 o 785.591 662.678 106.51 1.66807 0.32
0 0 10 o 1704.175 1265.056 169.24 1.57606 0.20
0 2 9 o 732.763 437.053 119.23 1.59969 0.21
2 4 1 o 1054.340 946.328 121.37 1.65112 0.25
3 1 6 o 13415.850 11847.266 -129.52 1.59073 8.61
2 4 0 o 2400.765 2291.698 180.00 1.66025 0.04
2 4 2 o 5510.270 5081.335 69.43 1.62459 2.98
3 3 1 o 3317.135 2256.458 -41.35 1.61446 1.91
3 3 0 o 5658.311 5367.513 180.00 1.62300 1.60
0 4 6 o 3838.330 2697.688 48.57 1.57392 1.28
3 3 2 o 9421.387 9005.355 127.92 1.58963 5.61
2 4 3 o 1616.346 1517.182 -63.97 1.58308 0.97
2 2 8 o 467.846 433.231 92.20 1.53145 0.22
1 3 8 o 2783.135 2488.684 -32.03 1.52639 1.45
3 3 3 o 962.924 996.148 44.06 1.55068 0.57
1 1 10 o 7542.198 6538.456 33.42 1.49946 5.25
2 4 4 o 13716.975 12935.431 80.70 1.52997 7.01
4 0 0 o 59978.82 63928.36 0.00 1.55014 9.42
4 0 2 o 31.092 24.810 -98.35 1.52099 0.03
3 1 7 o 1019.440 873.061 -174.07 1.49483 1.39
0 2 10 o 3273.452 1739.115 -172.60 1.46291 0.80
0 4 7 o 976.659 481.998 156.84 1.48085 0.28
1 5 0 o 4772.782 4381.893 180.00 1.52445 1.62
3 3 4 o 495.648 458.417 -11.34 1.50067 0.28
1 5 1 o 73.640 47.684 -178.03 1.51737 0.04
1 5 2 o 7695.103 7251.191 144.50 1.49670 2.38
2 4 5 o 1034.361 533.617 102.10 1.46895 0.52
2 2 9 o 458.961 383.989 116.90 1.42160 0.16
3 3 5 o 2687.807 2643.649 -178.09 1.44296 1.41
1 5 3 o 1600.365 832.074 84.40 1.46405 0.20
1 3 9 o 4037.225 3873.975 100.14 1.41755 2.51
2 0 10 o 0.000 1095.629 169.12 1.40494 0.00
3 1 8 o 989.145 1160.907 25.63 1.40315 1.76
4 0 4 o 3340.075 3291.053 -156.60 1.44252 2.66
2 4 6 o 1985.932 2351.644 48.50 1.40343 1.18
4 2 0 o 0.000 3702.201 0.00 1.44211 0.00
1 5 4 o 3122.230 2573.637 -85.06 1.42174 0.22
4 2 2 o 0.000 476.690 83.22 1.41855 0.00
1 1 11 o 2848.563 2059.934 7.00 1.37451 1.73
4 2 1 o 0.000 24.579 79.48 1.43611 0.00
0 4 8 o 4102.772 3824.749 -41.68 1.39157 1.07
3 3 6 o 2357.820 2393.337 -60.60 1.38071 1.15
1 5 5 o 1130.575 713.887 49.03 1.37238 0.08
4 2 3 o 3809.783 3401.826 -85.59 1.39067 0.68
0 2 11 o 14294.169 13983.228 35.25 1.34618 3.11
4 2 4 o 357.270 339.495 92.32 1.35425 0.25
2 2 10 o 1965.886 1551.544 -171.80 1.32301 0.53
1 3 10 o 4118.880 3567.491 -54.47 1.31975 2.82
2 4 7 o 721.169 428.084 156.23 1.33624 0.48
4 0 6 o 0.000 334.827 103.28 1.33501 0.00
