#------------------------------------------------------------------------------
#$Date: 2019-11-25 07:10:21 +0200 (Mon, 25 Nov 2019) $
#$Revision: 240321 $
#$URL: file:///home/coder/svn-repositories/cod/cif/4/12/96/4129642.cif $
#------------------------------------------------------------------------------
#
# This file is available in the Crystallography Open Database (COD),
# http://www.crystallography.net/
#
# All data on this site have been placed in the public domain by the
# contributors.
#
data_4129642
loop_
_publ_author_name
'Wirth, Regina'
'White, Jonathan D.'
'Moghaddam, Alan D.'
'Ginzburg, Aurora L.'
'Zakharov, Lev N.'
'Haley, Michael M.'
'DeRose, Victoria J.'
_publ_section_title
;
 Azide vs Alkyne Functionalization in Pt(II) Complexes for Post-treatment
 Click Modification: Solid-State Structure, Fluorescent Labeling, and
 Cellular Fate.
;
_journal_issue                   48
_journal_name_full               'Journal of the American Chemical Society'
_journal_page_first              15169
_journal_page_last               15175
_journal_paper_doi               10.1021/jacs.5b09108
_journal_volume                  137
_journal_year                    2015
_chemical_formula_sum            'C7 H16 Cl2 N6 O Pt'
_chemical_formula_weight         466.25
_space_group_crystal_system      triclinic
_space_group_IT_number           2
_space_group_name_Hall           '-P 1'
_space_group_name_H-M_alt        'P -1'
_atom_sites_solution_hydrogens   geom
_audit_creation_method           SHELXL-2013
_cell_angle_alpha                85.465(5)
_cell_angle_beta                 86.040(5)
_cell_angle_gamma                86.498(5)
_cell_formula_units_Z            2
_cell_length_a                   7.330(2)
_cell_length_b                   7.583(2)
_cell_length_c                   11.831(3)
_cell_measurement_reflns_used    1257
_cell_measurement_temperature    173(2)
_cell_measurement_theta_max      20.58
_cell_measurement_theta_min      2.70
_cell_volume                     653.0(3)
_computing_cell_refinement       'Bruker SAINT'
_computing_data_collection       'Bruker APEX2'
_computing_data_reduction        'Bruker SAINT'
_computing_molecular_graphics    'Bruker SHELXTL'
_computing_publication_material  'Bruker SHELXTL'
_computing_structure_refinement  'SHELXL-2013 (Sheldrick 2013)'
_computing_structure_solution    'SHELXS-97 (Sheldrick 2008)'
_diffrn_ambient_temperature      173(2)
_diffrn_measured_fraction_theta_full 0.970
_diffrn_measured_fraction_theta_max 1.000
_diffrn_measurement_device_type  'Bruker APEX-II CCD'
_diffrn_measurement_method       '\f and \w scans'
_diffrn_radiation_type           MoK\a
_diffrn_radiation_wavelength     0.71073
_diffrn_reflns_av_R_equivalents  0.0774
_diffrn_reflns_av_unetI/netI     0.0821
_diffrn_reflns_Laue_measured_fraction_full 0.970
_diffrn_reflns_Laue_measured_fraction_max 1.000
_diffrn_reflns_limit_h_max       8
_diffrn_reflns_limit_h_min       -8
_diffrn_reflns_limit_k_max       9
_diffrn_reflns_limit_k_min       -9
_diffrn_reflns_limit_l_max       14
_diffrn_reflns_limit_l_min       -14
_diffrn_reflns_number            7931
_diffrn_reflns_point_group_measured_fraction_full 0.970
_diffrn_reflns_point_group_measured_fraction_max 1.000
_diffrn_reflns_theta_full        25.242
_diffrn_reflns_theta_max         24.995
_diffrn_reflns_theta_min         1.730
_diffrn_source                   'sealed tube'
_exptl_absorpt_coefficient_mu    11.147
_exptl_absorpt_correction_T_max  0.7458
_exptl_absorpt_correction_T_min  0.6173
_exptl_absorpt_correction_type   multi-scan
_exptl_absorpt_process_details   SADABS
_exptl_crystal_colour            colorless
_exptl_crystal_density_diffrn    2.371
_exptl_crystal_description       cut-block
_exptl_crystal_F_000             440
_exptl_crystal_size_max          0.070
_exptl_crystal_size_mid          0.040
_exptl_crystal_size_min          0.030
_refine_diff_density_max         1.423
_refine_diff_density_min         -1.283
_refine_diff_density_rms         0.237
_refine_ls_extinction_method     none
_refine_ls_goodness_of_fit_ref   1.011
_refine_ls_hydrogen_treatment    constr
_refine_ls_matrix_type           full
_refine_ls_number_parameters     154
_refine_ls_number_reflns         2287
_refine_ls_number_restraints     0
_refine_ls_restrained_S_all      1.011
_refine_ls_R_factor_all          0.0627
_refine_ls_R_factor_gt           0.0403
_refine_ls_shift/su_max          0.000
_refine_ls_shift/su_mean         0.000
_refine_ls_structure_factor_coef Fsqd
_refine_ls_weighting_details
'w=1/[\s^2^(Fo^2^)+(0.0232P)^2^+0.9485P] where P=(Fo^2^+2Fc^2^)/3'
_refine_ls_weighting_scheme      calc
_refine_ls_wR_factor_gt          0.0644
_refine_ls_wR_factor_ref         0.0704
_reflns_Friedel_coverage         0.000
_reflns_number_gt                1799
_reflns_number_total             2287
_reflns_threshold_expression     'I > 2\s(I)'
_cod_data_source_file            ja5b09108_si_002.cif
_cod_data_source_block           mo_vderr3_0m_a
_cod_original_cell_volume        653.1(3)
_cod_database_code               4129642
_shelx_space_group_comment
;
The symmetry employed for this shelxl refinement is uniquely defined
by the following loop, which should always be used as a source of
symmetry information in preference to the above space-group names.
They are only intended as comments.
;
_shelx_estimated_absorpt_t_min   0.509
_shelx_estimated_absorpt_t_max   0.731
_shelxl_version_number           2013-4
_shelx_res_file
;
TITL mo_vderr3_0m in P-1
CELL  0.71073   7.3304   7.5834  11.8314   85.465   86.040   86.498
ZERR    2.00   0.00200   0.00210   0.00300   0.0049   0.0049   0.0052
LATT 1
SFAC C  H  N  Cl Pt O
UNIT 14 32  12  4  2  2
OMIT -3 50
REM Solution 1  R1  0.096  Rweak  0.018,  Alpha= 0.0410  in P-1
REM Formula:  C9 N5 Cl2 Pt
L.S. 10
acta
BOND $H
FMAP 2
PLAN 20
SIZE 0.03 0.04 0.07
EQIV $1 x, y-1, z
HTAB N1 Cl2_$1
EQIV $2 -x, -y+2, -z
HTAB N1 Cl2_$2
EQIV $3 x, y+1, z
HTAB N2 O1_$3
HTAB N2 Cl1_$2
HTAB N3 Cl1_$2
EQIV $4 -x+1, -y+2, -z
HTAB C1 Cl1_$4
HTAB C1 Cl2_$4
HTAB C1 Cl2_$1
HTAB C3 Cl1_$4
EQIV $5 -x, -y+1, -z
HTAB C7 Cl1_$5
conf
htab
TEMP -100.000
WGHT    0.023200    0.948500
FVAR       0.48995
PT1   5    0.228005    1.025769    0.021182    11.00000    0.02776    0.01629 =
         0.02405   -0.00136   -0.00320   -0.00291
CL1   4    0.292035    1.003714   -0.173351    11.00000    0.03558    0.03180 =
         0.02568   -0.00073   -0.00097   -0.00548
CL2   4    0.185226    1.331223   -0.000972    11.00000    0.05432    0.01858 =
         0.03516    0.00032   -0.00691   -0.00071
O1    6    0.141836    0.379970    0.312543    11.00000    0.04085    0.02823 =
         0.04320    0.00092   -0.01012    0.00791
N1    3    0.266440    0.756016    0.041807    11.00000    0.03717    0.02448 =
         0.02310   -0.00895   -0.00368    0.00032
AFIX  23
H1A   2    0.146000    0.704758    0.038857    11.00000   -1.20000
H1D   2    0.344844    0.716407   -0.023960    11.00000   -1.20000
AFIX   0
N2    3    0.153134    1.045945    0.187038    11.00000    0.04759    0.02541 =
         0.03648    0.00022   -0.00540    0.00052
AFIX  23
H2A   2    0.177521    1.167587    0.204374    11.00000   -1.20000
H2C   2    0.018664    1.036879    0.195723    11.00000   -1.20000
AFIX   0
N3    3    0.052294    0.663450    0.255925    11.00000    0.03016    0.02242 =
         0.05238    0.00226   -0.00675    0.00542
AFIX  43
H3A   2   -0.038743    0.737212    0.235075    11.00000   -1.20000
AFIX   0
N4    3   -0.503740    0.230178    0.516773    11.00000    0.04099    0.05910 =
         0.05126    0.01594   -0.00341   -0.01168
N5    3   -0.668491    0.181164    0.528081    11.00000    0.04211    0.03786 =
         0.03887    0.00007    0.00203   -0.00967
N6    3   -0.807811    0.129440    0.545574    11.00000    0.03522    0.06314 =
         0.05242   -0.00980    0.00452   -0.01956
C1    1    0.350174    0.678954    0.147820    11.00000    0.02444    0.02556 =
         0.04556    0.00443   -0.01058    0.00030
AFIX  23
H1B   2    0.474722    0.721974    0.149423    11.00000   -1.20000
H1C   2    0.362003    0.548347    0.146701    11.00000   -1.20000
AFIX   0
C2    1    0.237363    0.727668    0.255186    11.00000    0.02723    0.02272 =
         0.03166   -0.00082   -0.00580    0.00127
AFIX  13
H2B   2    0.297212    0.661097    0.320358    11.00000   -1.20000
AFIX   0
C3    1    0.232405    0.923216    0.277754    11.00000    0.03364    0.03020 =
         0.01967   -0.00064   -0.00281   -0.00850
AFIX  23
H3B   2    0.160045    0.940160    0.350263    11.00000   -1.20000
H3C   2    0.358879    0.955862    0.287217    11.00000   -1.20000
AFIX   0
C4    1    0.019827    0.492962    0.288118    11.00000    0.03246    0.03749 =
         0.03137    0.00175   -0.00177   -0.00873
C5    1   -0.183506    0.447373    0.290883    11.00000    0.04752    0.02660 =
         0.03698   -0.00140    0.00200   -0.00806
AFIX  23
H5A   2   -0.260744    0.557654    0.277043    11.00000   -1.20000
H5B   2   -0.199821    0.369642    0.229360    11.00000   -1.20000
AFIX   0
C6    1   -0.244506    0.356332    0.402476    11.00000    0.02231    0.03285 =
         0.05816   -0.00220    0.00769   -0.00498
AFIX  23
H6A   2   -0.235633    0.436704    0.463619    11.00000   -1.20000
H6B   2   -0.163022    0.249628    0.418569    11.00000   -1.20000
AFIX   0
C7    1   -0.440729    0.302839    0.401279    11.00000    0.03755    0.02262 =
         0.04280    0.00795    0.00378   -0.00660
AFIX  23
H7A   2   -0.520861    0.407159    0.377630    11.00000   -1.20000
H7B   2   -0.447687    0.212255    0.346123    11.00000   -1.20000
AFIX   0
HKLF 4

REM  mo_vderr3_0m in P1
REM R1 =  0.0403 for    1799 Fo > 4sig(Fo)  and  0.0627 for all    2287 data
REM    154 parameters refined using      0 restraints

END

WGHT      0.0234      0.8806

REM Instructions for potential hydrogen bonds
HTAB N1 Cl2_$1
HTAB N1 Cl2_$2
HTAB N2 O1_$3
HTAB N2 Cl1_$2
HTAB N3 Cl1_$2
HTAB C1 Cl1_$4
HTAB C1 Cl2_$4
HTAB C1 Cl2_$1
HTAB C3 Cl1_$4
HTAB C7 Cl1_$5

REM Highest difference peak  1.423,  deepest hole -1.283,  1-sigma level  0.237
Q1    1   0.3486  1.0284  0.0086  11.00000  0.05    1.42
Q2    1   0.1729  1.1197 -0.0041  11.00000  0.05    1.19
Q3    1   0.3114  1.3402  0.0185  11.00000  0.05    1.09
Q4    1   0.2094  0.9358 -0.0402  11.00000  0.05    1.07
Q5    1   0.4018  0.8066 -0.1129  11.00000  0.05    0.94
Q6    1   0.1432  0.9479  0.1247  11.00000  0.05    0.92
Q7    1   0.3096  0.3946  0.3302  11.00000  0.05    0.91
Q8    1   0.3015  0.9410  0.0639  11.00000  0.05    0.90
Q9    1   0.5030  0.9415  0.2071  11.00000  0.05    0.89
Q10   1   0.1695  1.1243  0.0995  11.00000  0.05    0.84
Q11   1   0.2299  0.8162  0.1309  11.00000  0.05    0.83
Q12   1   0.3793  0.5356  0.3017  11.00000  0.05    0.83
Q13   1   0.2317  1.1219 -0.1020  11.00000  0.05    0.82
Q14   1  -0.1348  0.8731  0.3197  11.00000  0.05    0.80
Q15   1  -0.7452  0.0029  0.4825  11.00000  0.05    0.78
Q16   1   0.0831  0.9109  0.4026  11.00000  0.05    0.77
Q17   1   0.0281  1.1716  0.1359  11.00000  0.05    0.77
Q18   1   0.1335  1.1580  0.0813  11.00000  0.05    0.76
Q19   1  -0.0842  0.4992  0.4387  11.00000  0.05    0.75
Q20   1   0.0805  1.0414 -0.0562  11.00000  0.05    0.74
;
_shelx_res_checksum              80959
_shelx_hkl_file
;
  -1   0   0  404.96   32.50
  -1   0   0  358.46   30.20
  -1   0   0  308.07   25.20
  -1   0   0  342.07   23.80
   1   0   0  335.47   30.20
   1   0   0  347.97   24.50
   1   0   0  319.27   23.80
  -2   0   0 9699.23  170.38
  -2   0   0 9877.11  172.08
  -2   0   0 9999.00  140.69
   2   0   0 9437.06  165.18
   2   0   0 9752.02  142.69
  -3   0   0 1060.99   85.59
  -3   0   0 1098.99   50.39
  -3   0   0 1160.98   85.49
   3   0   0 1002.90   54.29
   3   0   0 1105.89   76.59
  -4   0   0 2623.34  122.09
  -4   0   0 2659.93   76.79
  -4   0   0 2570.64   87.69
  -4   0   0 2644.34  117.69
   4   0   0 2626.84   86.59
   4   0   0 2747.53  115.39
  -5   0   0  662.63   53.29
  -5   0   0  656.13   85.49
  -5   0   0  733.53   64.79
  -5   0   0  699.83   83.19
   5   0   0  843.82   66.59
   5   0   0  745.93   89.39
  -6   0   0  210.98   72.29
  -6   0   0  215.58   55.19
  -6   0   0  194.48   67.49
   6   0   0  257.07   77.69
   6   0   0  238.98   56.49
  -7   0   0  557.34  104.89
  -7   0   0  567.84  103.99
   7   0   0  493.75   78.09
   7   0   0  437.36   91.59
  -8   0   0  175.18   93.09
  -8   0   0  -40.20   77.69
   8   0   0  194.68   95.79
  -9   0   0  248.58  117.29
  -9   0   0  196.08   97.99
   9   0   0  237.98  108.59
   9  -1   0  178.48  105.89
  -9   1   0  124.59   96.79
  -9   1   0  259.07  107.09
   8  -1   0  -29.40   77.89
  -8   1   0    7.80   89.69
  -8   1   0   15.30   80.49
   7  -1   0  222.98   85.39
  -7   1   0  174.78   84.49
  -7   1   0  138.59   79.09
   6  -1   0  392.36   56.79
   6  -1   0  249.88   74.79
  -6   1   0  373.16   87.39
  -6   1   0  483.05   87.99
   5  -1   0  199.38   65.79
   5  -1   0  131.59   41.20
  -5   1   0  183.48   39.70
  -5   1   0   22.50   61.29
  -5   1   0  209.18   66.29
   4  -1   0 1190.18   91.79
   4  -1   0 1020.90   63.79
  -4   1   0 1068.29   96.69
  -4   1   0  984.10   87.69
  -4   1   0 1015.20   61.19
   3  -1   0  629.64   67.19
   3  -1   0  476.55   44.60
  -3   1   0  549.25   44.90
  -3   1   0  581.04   69.19
  -3   1   0  460.75   66.19
   2  -1   0 3090.79   92.19
  -2   1   0 3235.28   96.09
  -2   1   0 3277.97   81.99
  -2   1   0 3187.48   97.69
   1  -1   0   40.30   26.80
   1  -1   0   84.99   33.80
  -1   1   0   45.50   30.60
  -1   1   0   36.30   31.80
   0  -1   0 4971.50   85.19
   0  -1   0 4754.22   82.39
   0  -1   0 5159.38   86.29
   0   1   0 5031.40   79.69
   0   1   0 4887.61   81.89
   0   1   0 4866.81   90.69
  -1  -1   0  189.58   34.60
  -1  -1   0  151.68   29.30
  -1  -1   0  112.79   26.70
   1   1   0  135.79   32.70
   1   1   0  155.08   27.70
  -2  -1   0 8362.46  156.88
  -2  -1   0 8450.95  141.29
  -2  -1   0 8545.45  157.28
   2   1   0 7791.72  150.88
   2   1   0 8375.56  139.99
  -3  -1   0   82.99   47.10
  -3  -1   0   66.99   41.80
  -3  -1   0   87.49   33.80
   3   1   0   61.89   36.10
   3   1   0   86.59   48.40
  -4  -1   0 2912.81  117.19
  -4  -1   0 3047.00   95.59
  -4  -1   0 2881.01  115.49
   4   1   0 3183.88  122.19
   4   1   0 3145.79   98.79
  -5  -1   0  599.44   82.29
  -5  -1   0  619.14   61.29
  -5  -1   0  580.84   77.19
   5   1   0  674.53   87.49
   5   1   0  682.73   67.59
  -6  -1   0  788.92  107.79
  -6  -1   0  793.82  102.19
  -6  -1   0  945.41   80.49
   6   1   0  858.01   81.69
   6   1   0  642.94   92.59
  -7  -1   0  606.24  110.39
  -7  -1   0  586.74  103.19
   7   1   0  348.97   86.29
   7   1   0  526.35   81.29
  -8  -1   0  154.48   91.69
  -8  -1   0   27.90   82.19
   8   1   0  148.99   92.59
  -9  -1   0  416.26  123.79
  -9  -1   0  240.18  105.09
   9   1   0  276.47  107.79
   9  -2   0  139.49  100.59
  -9   2   0  293.37  105.49
  -9   2   0  359.76  112.59
   8  -2   0   54.89   87.49
  -8   2   0   57.09   84.79
  -8   2   0   87.29   88.89
   7  -2   0  313.27   90.99
  -7   2   0  373.16   92.79
  -7   2   0  302.47   92.69
   6  -2   0  -38.30   68.99
   6  -2   0  212.18   52.29
  -6   2   0   21.90   69.99
  -6   2   0   74.59   67.79
   5  -2   0 1070.89   73.69
   5  -2   0 1050.99  106.69
  -5   2   0 1138.99   79.19
  -5   2   0  911.81  106.29
  -5   2   0  968.30  104.29
   4  -2   0 1127.39   68.49
   4  -2   0  996.50   85.89
  -4   2   0 1237.28   77.19
  -4   2   0 1094.99   97.19
  -4   2   0 1228.98   95.89
   3  -2   0  719.93   68.49
  -3   2   0  704.93   59.69
  -3   2   0  625.84   66.99
  -3   2   0  662.83   74.99
   2  -2   0 3938.31  111.89
   2  -2   0 4034.70  108.29
  -2   2   0 3949.20  124.19
  -2   2   0 4026.40  113.19
   1  -2   0 1856.11   78.19
   1  -2   0 1986.40   83.29
  -1   2   0 1800.42   69.29
  -1   2   0 1907.51   65.29
  -1   2   0 1860.21   91.99
   0  -2   0 3225.78   94.99
   0  -2   0 3301.67   94.89
   0   2   0 3209.68   85.19
   0   2   0 3319.87   87.89
   0   2   0 3389.66  105.69
  -1  -2   0  126.39   44.30
  -1  -2   0  114.79   38.10
   1   2   0   98.29   35.90
   1   2   0   62.39   40.80
  -2  -2   0 3324.57   92.99
  -2  -2   0 3583.34  110.39
  -2  -2   0 3297.47   99.59
   2   2   0 3334.77  105.19
   2   2   0 3291.67   95.39
  -3  -2   0   39.00   44.20
  -3  -2   0    5.10   32.30
  -3  -2   0   28.60   44.40
   3   2   0  -26.90   44.80
   3   2   0   21.40   37.30
  -4  -2   0 1695.13  105.09
  -4  -2   0 1678.13  107.29
  -4  -2   0 1577.34   81.49
   4   2   0 1454.15   80.09
   4   2   0 1459.75  102.89
  -5  -2   0   30.90   43.90
  -5  -2   0  -39.20   57.49
  -5  -2   0  113.19   64.69
   5   2   0   45.70   50.59
   5   2   0   81.79   61.49
  -6  -2   0  964.20  113.49
  -6  -2   0  485.05   84.69
  -6  -2   0 1050.79   92.49
   6   2   0  736.23  103.89
   6   2   0  944.81   94.09
  -7  -2   0  117.69   87.49
  -7  -2   0  148.69   80.39
   7   2   0   89.49   75.19
   7   2   0  234.88   70.69
  -8  -2   0  312.37  107.19
  -8  -2   0  162.98   82.79
   8   2   0  142.69   96.69
  -9  -2   0  119.09  105.99
  -9  -2   0   88.59   91.09
   9   2   0  133.89  102.59
  -9   3   0  180.58  114.79
  -9   3   0  133.79  112.99
   8  -3   0   58.29   84.49
  -8   3   0  -38.10   82.19
  -8   3   0  -49.70   94.49
   7  -3   0  293.17   97.79
  -7   3   0  474.85  111.69
  -7   3   0  568.14  118.99
   6  -3   0   89.79   77.19
  -6   3   0   18.10   70.29
  -6   3   0   68.89   81.09
   5  -3   0  970.70   79.49
   5  -3   0  876.61  102.39
  -5   3   0  912.91  110.29
  -5   3   0  977.00   88.49
  -5   3   0 1019.80  115.89
   4  -3   0  526.95   76.09
  -4   3   0  423.06   74.19
  -4   3   0  348.47   67.29
  -4   3   0  333.57   61.49
   3  -3   0 1638.64  101.99
   3  -3   0 1704.63   94.69
  -3   3   0 1633.74  110.59
  -3   3   0 1775.02  103.29
   2  -3   0 2700.53  101.19
   2  -3   0 2714.23  111.29
  -2   3   0 2618.94  102.29
  -2   3   0 2583.04  120.09
   1  -3   0 1959.70   96.09
   1  -3   0 2208.18   90.09
  -1   3   0 2194.28   84.29
  -1   3   0 2069.39   79.89
  -1   3   0 2049.09   99.89
   0  -3   0 7206.18  160.18
   0  -3   0 7274.47  159.38
   0   3   0 7198.48  171.58
   0   3   0 7067.99  147.59
   0   3   0 7007.80  140.89
  -1  -3   0  700.43   69.69
  -1  -3   0  735.83   66.39
   1   3   0  679.53   72.59
   1   3   0  659.73   59.69
  -2  -3   0 5501.85  149.29
  -2  -3   0 5198.48  131.99
   2   3   0 5200.98  144.39
   2   3   0 5249.97  136.99
  -3  -3   0   24.70   49.30
  -3  -3   0    9.30   36.80
   3   3   0   26.50   46.40
   3   3   0   64.29   42.10
  -4  -3   0 2285.17  100.99
  -4  -3   0 2077.29  112.79
  -4  -3   0 2036.50  117.89
   4   3   0 2186.58  109.19
   4   3   0 2218.58  123.49
  -5  -3   0   80.09   58.69
  -5  -3   0  -39.80   51.59
  -5  -3   0   14.70   47.00
   5   3   0  170.58   68.59
   5   3   0   -1.40   54.59
  -6  -3   0  584.34   99.49
  -6  -3   0  835.32  111.29
  -6  -3   0  761.12   84.99
   6   3   0 1004.80  103.59
   6   3   0  811.02  111.79
  -7  -3   0   33.10   72.69
  -7  -3   0   43.30   82.89
   7   3   0   57.89   78.79
   7   3   0   76.49   70.49
  -8  -3   0   89.29   98.09
  -8  -3   0  268.97  101.49
   8   3   0   78.89   79.69
   8   3   0   33.90   89.59
  -9  -3   0   82.59   98.99
  -9  -3   0   51.89   93.39
   9   3   0   65.39  104.79
   8  -4   0  100.89   91.29
  -8   4   0  -15.00   84.59
  -8   4   0   24.60   85.69
   7  -4   0  310.17   94.49
  -7   4   0  294.37  102.89
  -7   4   0  153.78  102.09
   6  -4   0  150.98   83.29
  -6   4   0  -75.49   75.39
  -6   4   0   10.70   85.79
   5  -4   0  383.06   87.09
  -5   4   0  503.85   96.89
  -5   4   0  460.55   92.19
  -5   4   0  405.06   78.69
   4  -4   0  207.68   60.59
   4  -4   0  207.38   64.59
  -4   4   0  173.08   60.59
  -4   4   0  181.08   67.59
  -4   4   0  264.47   68.49
   3  -4   0 1011.80   90.99
   3  -4   0 1151.28   87.99
  -3   4   0 1074.39   92.59
  -3   4   0  965.00  100.59
   2  -4   0  494.05   72.29
   2  -4   0  439.26   68.59
  -2   4   0  420.66   59.59
  -2   4   0  550.14   84.79
  -2   4   0  511.15   64.49
   1  -4   0  921.91   80.09
   1  -4   0  858.41   78.69
  -1   4   0  790.12   72.09
  -1   4   0  925.71   70.69
  -1   4   0 1091.19   98.89
   0  -4   0 2387.46  111.09
   0  -4   0 2267.47  102.49
   0   4   0 2123.59   98.39
   0   4   0 2265.17   89.19
  -1  -4   0 1321.47   92.19
  -1  -4   0 1093.79   83.09
   1   4   0 1221.88   79.39
   1   4   0 1202.28   81.69
   1   4   0 1081.29   91.29
  -2  -4   0 3350.66  120.99
  -2  -4   0 3315.67  124.19
   2   4   0 3177.58  121.79
   2   4   0 3451.85  136.89
  -3  -4   0  603.64   73.49
  -3  -4   0  764.42   89.19
   3   4   0  641.34   77.59
   3   4   0  549.54   75.49
  -4  -4   0 3116.89  141.29
  -4  -4   0 3365.86  131.19
   4   4   0 3205.08  147.99
   4   4   0 3248.18  136.19
  -5  -4   0    4.80   62.09
  -5  -4   0  -19.80   52.59
   5   4   0   66.79   61.69
   5   4   0  -15.10   53.79
  -6  -4   0  765.42  109.59
  -6  -4   0 1220.58  109.79
   6   4   0  854.01  120.99
   6   4   0 1206.38  118.89
  -7  -4   0   99.39   86.09
  -7  -4   0   31.60   72.79
   7   4   0 -112.79   59.09
   7   4   0   15.20   77.59
  -8  -4   0  225.98  107.39
  -8  -4   0  213.18   96.19
   8   4   0  301.67   95.69
   8   4   0  246.58  106.69
  -9  -4   0  131.29   96.19
   9   4   0   53.39  110.49
   8  -5   0   74.79   97.99
  -8   5   0   22.30  102.49
  -8   5   0   28.20   97.89
   7  -5   0  153.78   97.99
  -7   5   0  223.18  106.69
  -7   5   0  262.37   98.99
   6  -5   0   80.49   76.69
  -6   5   0    0.60   86.39
  -6   5   0   96.19   87.99
   5  -5   0  592.64  100.69
  -5   5   0  312.27   96.39
  -5   5   0  586.84   90.79
  -5   5   0  463.55   88.19
   4  -5   0  179.38   71.99
   4  -5   0  276.67   83.39
  -4   5   0  202.38   67.69
  -4   5   0  280.07   88.49
  -4   5   0  146.19   66.59
   3  -5   0  714.93   88.19
   3  -5   0  749.42   88.29
  -3   5   0  679.33   94.99
  -3   5   0  607.84   81.09
   2  -5   0  731.73   86.89
   2  -5   0  848.22   94.99
  -2   5   0  870.21  110.79
  -2   5   0  938.51   84.99
  -2   5   0  903.51   90.39
   1  -5   0  460.05   71.29
   1  -5   0  454.45   76.49
  -1   5   0  602.84   75.39
  -1   5   0  587.04   86.59
  -1   5   0  504.95   63.39
   0  -5   0 1091.09   91.09
   0  -5   0 1048.00   99.39
   0   5   0 1033.80   75.59
   0   5   0  923.71   88.19
   0   5   0 1225.48  115.89
  -1  -5   0  352.16   63.59
  -1  -5   0  499.45   72.59
   1   5   0  714.33   80.59
   1   5   0  666.83   69.19
   1   5   0  435.36   75.49
  -2  -5   0 1364.56  107.19
  -2  -5   0 1533.45  112.69
   2   5   0 1374.56  115.69
   2   5   0 1377.06   95.39
  -3  -5   0  270.67   71.79
  -3  -5   0  280.27   71.19
   3   5   0  144.89   67.09
   3   5   0  270.77   70.89
  -4  -5   0  659.73   93.89
  -4  -5   0  975.20  101.19
   4   5   0  836.62  103.69
   4   5   0  857.91  108.39
  -5  -5   0  299.77   75.89
  -5  -5   0  173.58   81.09
   5   5   0  324.67   85.89
   5   5   0  325.07   90.69
  -6  -5   0  788.42  120.89
  -6  -5   0  624.34   93.69
   6   5   0  828.82  107.89
   6   5   0  570.94  111.79
  -7  -5   0  -28.30   82.39
   7   5   0   84.99   86.49
   7   5   0  -55.59   64.69
  -8  -5   0  118.19   96.99
   8   5   0   92.99   92.59
   8   5   0  370.86   94.09
   7  -6   0  390.96  116.39
  -7   6   0   57.39  102.89
  -7   6   0  190.38  103.49
   6  -6   0   10.70   90.09
  -6   6   0  138.09   87.49
  -6   6   0  166.28  103.99
   5  -6   0  494.85  104.39
   5  -6   0  560.54  104.09
  -5   6   0  408.46  112.09
  -5   6   0  562.94  107.59
  -5   6   0  661.03  110.19
   4  -6   0  -82.29   55.99
   4  -6   0   73.29   80.09
  -4   6   0  159.58   70.29
  -4   6   0  -76.59   66.59
  -4   6   0  -19.60   71.39
   3  -6   0  733.93  109.19
   3  -6   0  741.93  108.59
  -3   6   0  722.83  119.89
  -3   6   0  748.73   92.29
   2  -6   0  175.08   70.59
   2  -6   0  283.67   83.79
  -2   6   0  261.57   86.49
  -2   6   0  222.48   69.29
  -2   6   0  186.78   58.79
   1  -6   0 1651.73  118.39
   1  -6   0 1685.43  128.79
  -1   6   0 1881.71  106.29
  -1   6   0 1527.25  135.09
  -1   6   0 1692.33  108.49
   0  -6   0  885.71   97.19
   0  -6   0 1465.65  126.99
   0   6   0 1351.26   90.09
   0   6   0 1331.37  130.39
   0   6   0 1342.87  114.49
  -1  -6   0 1082.39  109.59
  -1  -6   0  858.31   94.99
   1   6   0 1094.89  106.99
   1   6   0 1106.79   87.69
   1   6   0  754.52  100.29
  -2  -6   0 1007.10  102.09
  -2  -6   0 1115.29  108.79
   2   6   0 1276.47  103.89
   2   6   0  982.20  109.69
   2   6   0 1241.08  100.79
  -3  -6   0  444.56   87.19
  -3  -6   0  496.15   82.69
   3   6   0  440.86   89.59
   3   6   0  456.95   96.99
  -4  -6   0 1044.80  116.59
  -4  -6   0  827.52  111.29
   4   6   0  786.92  107.49
   4   6   0  719.03  106.19
  -5  -6   0   41.70   71.89
  -5  -6   0   70.59   71.79
   5   6   0   89.09   87.09
   5   6   0   -8.70   65.29
  -6  -6   0  282.67   97.09
  -6  -6   0  337.27   92.39
   6   6   0  335.27  100.89
   6   6   0  361.06   93.19
  -7  -6   0   45.00   88.39
   7   6   0  -29.70   85.89
   7   6   0    2.50   87.19
  -8  -6   0  153.88  104.09
   8   6   0  165.78  104.19
   6  -7   0  149.79  102.69
  -6   7   0  -54.49   85.09
  -6   7   0  -17.30   91.59
   5  -7   0  261.17  101.49
   5  -7   0  485.55  113.19
  -5   7   0  438.66  121.29
  -5   7   0  362.86  103.59
  -5   7   0  267.97   88.89
   4  -7   0  116.39   89.79
   4  -7   0   13.90   83.99
  -4   7   0   31.80   84.39
  -4   7   0   34.40   68.99
  -4   7   0   53.29   81.99
   3  -7   0  911.51  124.59
   3  -7   0  930.41  119.89
  -3   7   0  937.01  102.89
  -3   7   0  869.91  126.19
   2  -7   0   12.70   69.39
   2  -7   0   50.19   73.99
  -2   7   0   42.40   89.89
  -2   7   0   48.20   56.99
  -2   7   0   55.99   62.79
   1  -7   0  856.31  111.49
   1  -7   0 1198.18  128.09
  -1   7   0 1279.47  146.09
  -1   7   0 1123.39  115.49
  -1   7   0 1110.19   97.39
   0  -7   0  146.99   78.69
   0  -7   0  121.99   76.39
   0   7   0  306.37   94.89
   0   7   0   37.90   64.69
  -1  -7   0 1463.85  139.39
  -1  -7   0 1318.47  126.79
   1   7   0 1487.45  124.39
  -2  -7   0  715.93  105.29
  -2  -7   0  748.93  113.09
   2   7   0  820.42  102.09
   2   7   0  836.22  121.69
  -3  -7   0  683.63  104.49
  -3  -7   0  704.93  110.39
   3   7   0  937.91  118.09
   3   7   0  910.21  130.19
  -4  -7   0  805.22  114.49
  -4  -7   0  741.53  119.99
   4   7   0  652.13  112.59
   4   7   0  646.04  112.59
  -5  -7   0   40.80   69.59
  -5  -7   0  162.38   85.89
   5   7   0  196.48   94.39
   5   7   0  123.99   97.79
  -6  -7   0  502.25  112.99
  -6  -7   0  505.65  108.39
   6   7   0  416.96  111.39
   6   7   0  581.44  119.89
  -7  -7   0   72.09   88.99
   7   7   0  149.79  111.09
   7   7   0   40.50   97.59
   5  -8   0  276.27  108.59
   5  -8   0   84.29   99.09
  -5   8   0  206.08  107.09
  -5   8   0  193.48  106.29
   4  -8   0  115.69   95.79
   4  -8   0   40.40   83.19
  -4   8   0 -108.59   68.69
  -4   8   0  -48.80   90.49
   3  -8   0  395.66  106.79
   3  -8   0  330.87  107.79
  -3   8   0  323.57  108.09
   2  -8   0 -114.99   65.49
   2  -8   0  -60.59   67.19
  -2   8   0  -36.80   73.09
  -2   8   0   15.60   91.99
   1  -8   0  689.23  117.29
   1  -8   0  948.81  130.59
  -1   8   0  872.61  116.69
  -1   8   0  921.81  139.79
   0  -8   0   28.60   75.79
   0  -8   0  163.38   87.49
   0   8   0   15.10   74.59
   0   8   0  -36.40   58.59
  -1  -8   0 1069.19  141.29
  -1  -8   0  757.12  119.29
   1   8   0  769.42  107.49
   1   8   0 1263.27  157.08
  -2  -8   0  200.98   87.29
  -2  -8   0  305.77   97.99
   2   8   0  398.56   96.29
  -3  -8   0  735.33  118.09
  -3  -8   0  599.04  108.59
   3   8   0  577.34  106.39
   3   8   0  522.85  121.19
  -4  -8   0  164.78   85.39
  -4  -8   0  334.27  103.19
   4   8   0  292.97  108.79
   4   8   0  284.87   90.19
  -5  -8   0  229.68  103.29
  -5  -8   0  150.38   94.09
   5   8   0  303.77   99.19
   5   8   0  175.18   99.89
  -6  -8   0  464.85  124.09
   6   8   0  197.18   97.49
   6   8   0  213.18  113.69
   3  -9   0  347.27  113.89
   3  -9   0  273.07  117.29
  -3   9   0  338.57  115.09
   2  -9   0   -5.10   83.89
   2  -9   0  -15.30   82.79
  -2   9   0   14.50   93.49
   1  -9   0  501.65  114.59
   1  -9   0  578.04  124.19
  -1   9   0  412.96  115.59
  -1   9   0  373.46  100.59
   0  -9   0  -10.10   81.89
   0  -9   0  156.38   99.49
   0   9   0   52.89   72.59
   0   9   0   81.79   85.79
  -1  -9   0  724.13  133.29
  -1  -9   0  653.43  117.69
   1   9   0  526.05  105.19
   1   9   0  653.13  137.19
  -2  -9   0  204.68   93.89
  -2  -9   0  292.27  107.09
   2   9   0  311.17  109.59
   2   9   0  277.37  101.59
  -3  -9   0  286.57  105.49
  -3  -9   0  206.88   97.69
   3   9   0   69.09  100.89
   3   9   0  293.17   96.09
  -4  -9   0  414.06  117.99
  -4  -9   0  329.97  103.19
   4   9   0  284.37  103.09
   4   9   0  222.68  106.09
   0 -10   0 -100.79   87.99
   0  10   0  -14.20   94.99
   0  10   0   36.40   89.19
  -1 -10   0  722.03  144.39
   1  10   0  603.84  119.89
   1  10   0  827.12  152.88
   1  10  -1  473.55  104.39
   1  10  -1  206.78  102.29
   0  10  -1   13.90   71.79
   0  10  -1   25.50   94.09
   4   9  -1  264.87  106.89
   4   9  -1  145.29  100.69
  -4  -9   1   14.00   84.49
  -4  -9   1  238.78  112.89
   3   9  -1  400.66  100.49
  -3  -9   1  483.85  122.89
  -3  -9   1  250.17  104.69
   2   9  -1  251.57  101.69
   2   9  -1   95.79   84.69
  -2  -9   1  317.07  109.09
  -2  -9   1  348.27  109.79
   1   9  -1  574.24  107.79
   1   9  -1  392.96  110.49
  -1  -9   1  793.02  137.59
  -1  -9   1  705.63  126.89
   0   9  -1  173.98   87.89
   0   9  -1   45.10   82.09
   0  -9   1  123.79   82.09
   0  -9   1   36.90   82.89
  -1   9  -1  950.00  131.69
  -1   9  -1  979.30  152.28
   1  -9   1 1021.20  149.39
   1  -9   1  797.72  134.69
  -2   9  -1   24.40   93.29
   2  -9   1    4.20   78.69
   2  -9   1  -35.20   86.09
  -3   9  -1  640.04  132.39
  -3   9  -1  564.74  113.89
   3  -9   1  585.74  133.79
   3  -9   1  743.63  139.59
   6   8  -1  274.67  121.39
   6   8  -1  275.47  110.89
  -6  -8   1  350.66  112.19
  -6  -8   1  276.07  107.19
   5   8  -1   38.30   93.29
   5   8  -1   94.09   87.69
  -5  -8   1   93.19   93.79
  -5  -8   1  109.59   86.29
   4   8  -1  200.98   97.19
   4   8  -1  100.49  103.59
  -4  -8   1  245.08   94.59
  -4  -8   1  256.67   91.29
   3   8  -1  474.25  113.69
   3   8  -1  523.55  106.79
  -3  -8   1  373.06   98.69
  -3  -8   1  480.55  102.49
   2   8  -1   51.79   70.89
  -2  -8   1  167.48   88.79
  -2  -8   1  198.38   85.69
   1   8  -1  582.14  109.89
   1   8  -1  707.03  125.39
  -1  -8   1  540.15  100.29
  -1  -8   1  836.02  128.59
   0   8  -1   88.49   88.79
   0   8  -1   87.19   68.49
   0  -8   1    6.80   70.39
   0  -8   1   53.49   83.19
  -1   8  -1  665.23  112.89
  -1   8  -1  924.01  138.99
   1  -8   1  538.25  108.69
   1  -8   1  639.84  120.69
  -2   8  -1  107.39   93.19
   2  -8   1  -68.69   75.59
   2  -8   1  132.59   89.69
  -3   8  -1  398.26  112.89
   3  -8   1  374.86  110.99
   3  -8   1  514.65  121.49
  -4   8  -1  115.49  100.89
  -4   8  -1   26.30   79.39
   4  -8   1  -50.29   79.89
   4  -8   1  -85.79   77.69
  -5   8  -1  208.08  109.89
  -5   8  -1   97.49   92.99
   5  -8   1   98.09  103.79
   5  -8   1  310.17  114.29
   7   7  -1   70.49  106.79
   7   7  -1   88.29   95.39
  -7  -7   1   98.49   90.69
   6   7  -1  258.57  107.29
   6   7  -1  324.57  106.39
  -6  -7   1  627.14  120.39
  -6  -7   1  240.98  101.99
   5   7  -1    2.30   80.79
   5   7  -1  140.09   95.49
  -5  -7   1  161.48   92.59
  -5  -7   1  -13.00   79.29
   4   7  -1  736.73  122.69
   4   7  -1  969.80  127.89
  -4  -7   1 1155.18  139.99
  -4  -7   1  941.31  119.29
   3   7  -1  408.26   99.69
   3   7  -1  405.66   94.49
  -3  -7   1  251.07   84.89
  -3  -7   1  604.44   99.49
   2   7  -1  991.00  114.49
   2   7  -1  962.50  123.69
  -2  -7   1  912.21  115.99
  -2  -7   1  877.01  110.29
   1   7  -1 1481.25  117.49
   1   7  -1 1578.84  152.98
  -1  -7   1 1404.56  127.49
   0   7  -1  421.76   87.49
   0   7  -1  363.96   93.59
   0  -7   1  399.36   93.59
   0  -7   1  223.28   77.99
  -1   7  -1 1676.43  161.08
  -1   7  -1 1825.82  144.49
   1  -7   1 1602.44  142.79
   1  -7   1 1852.51  153.08
  -2   7  -1  -77.39   64.09
  -2   7  -1  -80.39   72.89
   2  -7   1   51.09   79.69
   2  -7   1   44.00   71.99
  -3   7  -1  815.22  129.49
   3  -7   1  785.32  119.69
   3  -7   1  946.11  122.19
  -4   7  -1  -17.70   86.49
  -4   7  -1  -37.20   79.49
   4  -7   1  117.09   74.79
   4  -7   1  -56.79   70.29
  -5   7  -1  347.57  102.39
  -5   7  -1  470.35  118.59
   5  -7   1  454.55  117.29
   5  -7   1  478.25  111.69
  -6   7  -1 -106.59   88.19
   6  -7   1  186.48  102.29
   8   6  -1  196.98  105.09
   7   6  -1   51.69   98.09
   7   6  -1  -47.90   75.59
  -7  -6   1   47.60   88.29
   6   6  -1  321.17   90.99
   6   6  -1  179.68  101.09
  -6  -6   1  401.56   97.29
  -6  -6   1  309.87   98.29
   5   6  -1  -39.90   74.39
   5   6  -1   25.90   67.59
  -5  -6   1   47.50   75.39
  -5  -6   1  -27.60   71.79
   4   6  -1  750.42  100.99
   4   6  -1  789.42  116.89
  -4  -6   1  934.21  114.99
  -4  -6   1  748.73  112.39
   3   6  -1  279.17   75.49
   3   6  -1  443.26   98.19
  -3  -6   1  331.57   83.39
  -3  -6   1  248.28   74.49
   2   6  -1 1522.95  127.39
   2   6  -1 1368.86  130.39
  -2  -6   1 1250.67  116.19
  -2  -6   1 1479.85  128.89
   1   6  -1  879.01   95.39
   1   6  -1  828.92   73.99
  -1  -6   1  682.63   96.19
  -1  -6   1  779.72   93.59
   0   6  -1 1228.58  100.29
   0   6  -1 1287.47  121.49
   0   6  -1 1397.76   80.59
   0  -6   1 1153.28  103.89
   0  -6   1 1298.77  123.79
  -1   6  -1 1778.12   92.59
  -1   6  -1 1756.92  113.19
  -1   6  -1 1575.64  126.09
   1  -6   1 1832.92  133.09
  -2   6  -1  653.33   75.09
  -2   6  -1  614.74   92.49
  -2   6  -1  526.35   95.69
   2  -6   1  520.15   91.99
   2  -6   1  567.94   92.69
  -3   6  -1 1838.22  115.29
  -3   6  -1 1993.00  156.58
   3  -6   1 1603.04  128.99
   3  -6   1 1869.91  130.09
  -4   6  -1   46.60   76.89
  -4   6  -1  -53.99   73.89
  -4   6  -1   35.50   60.09
   4  -6   1  -85.59   71.59
   4  -6   1    5.40   59.59
  -5   6  -1  824.92  120.49
  -5   6  -1  768.12  117.29
  -5   6  -1  533.55  114.89
   5  -6   1  912.61  129.39
   5  -6   1 1065.19  128.39
  -6   6  -1  -41.00   69.69
  -6   6  -1   69.09   91.99
   6  -6   1   63.39   88.99
  -7   6  -1  198.88  104.69
  -7   6  -1  263.17  111.59
   7  -6   1  278.27  102.59
   8   5  -1  104.99   98.49
   8   5  -1  162.98   95.49
  -8  -5   1  153.68  101.39
   7   5  -1   13.20   77.79
   7   5  -1   29.50   90.69
  -7  -5   1   47.40   78.29
   6   5  -1  417.46   96.59
   6   5  -1  890.81  115.99
  -6  -5   1  710.83  122.19
  -6  -5   1  951.50  115.99
   5   5  -1  -58.29   70.09
   5   5  -1  -19.50   67.99
  -5  -5   1 -106.59   58.89
  -5  -5   1  -67.19   70.49
   4   5  -1  613.64   90.99
   4   5  -1  874.51  104.49
  -4  -5   1  808.62  106.79
  -4  -5   1  792.62   96.99
   3   5  -1  356.96   81.89
   3   5  -1  174.18   63.29
  -3  -5   1  243.88   64.59
  -3  -5   1  261.87   72.79
   2   5  -1  961.30  103.59
   2   5  -1 1017.30   97.29
  -2  -5   1  888.21   95.29
  -2  -5   1  953.30   98.99
   1   5  -1  633.64   56.99
   1   5  -1  658.83   89.19
   1   5  -1  544.35   72.69
  -1  -5   1  701.33   88.09
  -1  -5   1  506.35   75.09
   0   5  -1 1209.78  113.29
   0   5  -1 1106.89   87.09
   0   5  -1 1210.48   69.09
   0  -5   1 1085.09   91.99
   0  -5   1 1157.78   96.99
  -1   5  -1 1506.85   80.79
  -1   5  -1 1371.96  110.39
  -1   5  -1 1427.26  102.29
   1  -5   1 1415.26  102.29
   1  -5   1 1253.57  109.69
  -2   5  -1  678.73   78.89
  -2   5  -1  575.24   66.99
  -2   5  -1  595.54   94.89
   2  -5   1  595.94   78.69
   2  -5   1  687.53   87.39
  -3   5  -1 1129.59  113.49
  -3   5  -1 1071.29   98.19
   3  -5   1  899.71  101.29
   3  -5   1  841.72   90.29
  -4   5  -1  436.36   97.89
  -4   5  -1  310.77   80.19
  -4   5  -1  352.56   77.39
   4  -5   1  469.15   77.29
   4  -5   1  425.56   92.39
  -5   5  -1  814.32  110.49
  -5   5  -1  831.22  110.89
  -5   5  -1  740.33  120.19
   5  -5   1  702.83  104.19
   5  -5   1  796.62  104.39
  -6   5  -1   27.60   82.59
  -6   5  -1  -43.70   78.89
   6  -5   1   24.30   82.29
  -7   5  -1  339.77  103.19
  -7   5  -1  337.07  115.19
   7  -5   1  253.17  106.69
  -8   5  -1  124.09  113.49
  -8   5  -1   27.10   88.19
   8  -5   1   71.29   97.09
  -9  -4   1  326.37  120.69
   8   4  -1    1.10   91.79
   8   4  -1  213.68   87.89
  -8  -4   1  252.27  104.29
  -8  -4   1  200.18   95.79
   7   4  -1  259.07   79.99
   7   4  -1  182.48   92.69
  -7  -4   1   49.00   82.39
  -7  -4   1   26.00   80.99
   6   4  -1  599.54  100.49
   6   4  -1  589.34   92.19
  -6  -4   1  778.82  105.39
  -6  -4   1  515.25  101.59
  -6  -4   1  798.02  101.59
   5   4  -1   33.90   62.19
   5   4  -1   22.20   61.99
  -5  -4   1  -33.90   62.69
  -5  -4   1   61.89   61.39
   4   4  -1 1494.05  117.99
   4   4  -1 1549.74  109.09
  -4  -4   1 1652.33  123.19
  -4  -4   1 1642.94  112.19
   3   4  -1   10.50   57.99
   3   4  -1   86.89   50.19
  -3  -4   1  111.79   56.59
  -3  -4   1  125.59   62.49
   2   4  -1 3023.00  116.89
   2   4  -1 3230.58  126.09
  -2  -4   1 3349.06  133.39
  -2  -4   1 3128.59  120.79
   1   4  -1 1553.04  106.49
   1   4  -1 1353.16   92.09
   1   4  -1 1504.55   71.79
  -1  -4   1 1334.47   90.59
  -1  -4   1 1569.44   92.39
   0   4  -1 1826.42  113.59
   0   4  -1 2029.70   94.59
   0   4  -1 1927.21   71.49
   0  -4   1 1851.61   97.69
   0  -4   1 2124.79  106.29
  -1   4  -1 2105.69  102.79
  -1   4  -1 2165.58   83.49
  -1   4  -1 2200.08  121.09
   1  -4   1 2267.87  113.99
   1  -4   1 2192.28  109.59
  -2   4  -1 1299.57  100.79
  -2   4  -1 1373.36   81.19
   2  -4   1 1460.15   97.49
   2  -4   1 1269.37   99.49
  -3   4  -1 1115.69   95.39
  -3   4  -1 1098.59   90.39
  -3   4  -1 1188.08  110.99
   3  -4   1 1177.68  104.39
   3  -4   1 1136.99   85.59
  -4   4  -1  382.86   83.39
  -4   4  -1  391.56   78.09
  -4   4  -1  290.27   66.59
   4  -4   1  294.97   65.69
   4  -4   1  273.87   77.29
  -5   4  -1  753.62   93.69
  -5   4  -1  588.54   91.09
  -5   4  -1  537.95  101.69
   5  -4   1  367.06   85.59
  -6   4  -1  145.59   73.09
  -6   4  -1   25.90   77.59
  -6   4  -1   89.69   77.29
   6  -4   1  192.78   77.49
  -7   4  -1  215.58   91.29
  -7   4  -1  249.68   98.79
   7  -4   1  138.69   91.19
  -8   4  -1   -4.70   86.09
  -8   4  -1   13.80  100.49
   8  -4   1   -7.00   82.09
   9   3  -1  205.08  106.79
  -9  -3   1  152.08  111.19
  -9  -3   1  228.78  104.39
   8   3  -1   48.50   87.49
  -8  -3   1    6.70   81.09
  -8  -3   1  122.99   94.39
   7   3  -1   93.69   84.09
   7   3  -1  131.39   71.79
  -7  -3   1  204.78   89.89
  -7  -3   1  200.88   87.09
   6   3  -1  201.18   65.39
   6   3  -1  185.98   84.59
  -6  -3   1  212.38   81.99
  -6  -3   1  212.28   71.79
  -6  -3   1  255.87   85.89
   5   3  -1    7.10   45.90
   5   3  -1  -53.29   60.49
  -5  -3   1  137.59   59.49
  -5  -3   1   70.79   58.69
  -5  -3   1  118.19   61.59
   4   3  -1 1144.09   90.19
   4   3  -1 1284.07  107.79
  -4  -3   1 1091.39   90.59
  -4  -3   1 1098.69   89.89
  -4  -3   1 1146.39   97.19
   3   3  -1  -30.20   38.70
   3   3  -1   36.30   47.10
  -3  -3   1   41.50   40.70
  -3  -3   1  -17.30   37.60
  -3  -3   1   51.59   53.39
   2   3  -1 3512.95  110.69
   2   3  -1 3336.57  122.79
  -2  -3   1 3406.16  113.49
  -2  -3   1 3402.46  125.29
   1   3  -1   91.09   42.30
   1   3  -1  157.28   50.59
  -1  -3   1   62.59   48.70
  -1  -3   1  121.69   46.60
   0   3  -1 7540.55  130.59
   0   3  -1 7459.65  156.38
   0  -3   1 7609.74  167.18
   0  -3   1 7777.62  166.48
  -1   3  -1 1510.45   97.49
  -1   3  -1 1543.95   65.49
  -1   3  -1 1526.45   76.59
   1  -3   1 1327.47   87.79
   1  -3   1 1435.96   77.99
  -2   3  -1 4423.46  143.29
  -2   3  -1 4622.74  122.59
   2  -3   1 4652.23  126.79
   2  -3   1 4610.84  137.99
  -3   3  -1 2617.54  105.79
  -3   3  -1 2761.32  118.39
  -3   3  -1 2553.84  123.49
   3  -3   1 2498.15  112.09
   3  -3   1 2582.44  102.19
  -4   3  -1  969.90  103.19
  -4   3  -1  974.40   92.39
  -4   3  -1  929.51   86.29
   4  -3   1  946.21   95.29
   4  -3   1  870.51   77.79
  -5   3  -1 1478.65  104.49
  -5   3  -1 1574.14  130.89
  -5   3  -1 1554.54  130.39
   5  -3   1 1378.66  121.99
  -6   3  -1    9.30   69.39
  -6   3  -1   63.89   57.59
  -6   3  -1  131.19   70.99
   6  -3   1  185.18   85.59
   6  -3   1  -23.70   50.49
  -7   3  -1  550.74  106.19
  -7   3  -1  679.13  113.99
   7  -3   1  484.45   99.99
  -8   3  -1   37.90   89.99
  -8   3  -1  -28.30   80.79
   8  -3   1   46.80   81.19
  -9   3  -1   97.79  108.89
  -9   3  -1   45.40   88.89
   9   2  -1  408.86  123.69
  -9  -2   1  234.88  106.69
  -9  -2   1  112.19   99.59
   8   2  -1  106.39   89.09
  -8  -2   1  202.88  100.09
  -8  -2   1   57.19   88.49
   7   2  -1  207.08   91.99
   7   2  -1  428.26   80.19
  -7  -2   1  291.17   85.49
  -7  -2   1  413.06  104.59
   6   2  -1  384.66   72.09
   6   2  -1  426.46   93.59
  -6  -2   1  361.06   85.19
  -6  -2   1  314.57   77.69
  -6  -2   1  348.47   69.99
   5   2  -1   62.39   62.39
   5   2  -1   80.49   49.40
  -5  -2   1   96.09   63.09
  -5  -2   1  148.49   59.09
  -5  -2   1   47.30   48.30
   4   2  -1  843.42   81.39
   4   2  -1  863.21   73.09
  -4  -2   1  803.22   83.19
  -4  -2   1 1027.90   79.69
  -4  -2   1 1025.90   80.99
   3   2  -1  -39.60   32.60
   3   2  -1   37.70   49.20
  -3  -2   1  -42.00   33.00
  -3  -2   1  -38.40   47.20
  -3  -2   1   18.30   38.10
   2   2  -1 1252.97   81.79
   2   2  -1 1262.97   65.09
  -2  -2   1 1181.68   61.89
  -2  -2   1 1115.19   74.39
  -2  -2   1 1185.78   81.99
   1   2  -1   74.49   41.20
   1   2  -1  146.89   47.50
  -1  -2   1  140.89   39.70
  -1  -2   1  110.89   45.90
   0   2  -1 3600.14   70.39
   0   2  -1 3794.52   96.29
   0  -2   1 3733.43   98.69
   0  -2   1 3869.51   97.89
  -1   2  -1   74.39   32.00
  -1   2  -1   92.09   40.70
  -1   2  -1   66.89   48.50
   1  -2   1  153.08   46.20
   1  -2   1   73.49   32.90
  -2   2  -1 2414.06   98.19
  -2   2  -1 2426.46   84.99
  -2   2  -1 2490.25  102.49
   2  -2   1 2448.66   84.29
   2  -2   1 2573.64  100.69
  -3   2  -1  573.14   69.59
  -3   2  -1  598.84   62.19
  -3   2  -1  529.55   69.19
   3  -2   1  536.65   63.79
   3  -2   1  542.35   52.49
  -4   2  -1 2148.09  122.09
  -4   2  -1 2426.46  104.29
  -4   2  -1 2324.97  117.59
   4  -2   1 2203.78  108.99
  -5   2  -1  534.35   90.99
  -5   2  -1  604.14   87.89
  -5   2  -1  722.23   75.19
   5  -2   1  503.75   81.19
   5  -2   1  758.52   73.19
  -6   2  -1  429.76   91.99
  -6   2  -1  442.66   88.39
  -6   2  -1  606.34   75.19
   6  -2   1  469.95   69.79
   6  -2   1  382.06   83.69
  -7   2  -1  653.63  111.19
  -7   2  -1  692.13  109.49
   7  -2   1  700.53  110.99
  -8   2  -1   28.60   78.19
  -8   2  -1   17.10   98.39
   8  -2   1   43.10   77.79
  -9   2  -1  259.07  108.09
  -9   2  -1  348.77  113.19
   9  -2   1  224.18  102.09
   9   1  -1  200.78  106.29
  -9  -1   1  194.28   95.09
  -9  -1   1  384.56  115.99
   8   1  -1  -60.09   81.39
  -8  -1   1   91.09   88.39
  -8  -1   1   25.90   82.49
   7   1  -1  277.27   91.49
  -7  -1   1  347.67   97.39
  -7  -1   1  294.57   84.89
   6   1  -1  593.74   69.49
   6   1  -1  364.56   83.99
  -6  -1   1  483.55   94.29
  -6  -1   1  565.24   76.69
  -6  -1   1  559.84   88.69
   5   1  -1  334.67   52.19
   5   1  -1  294.57   73.59
  -5  -1   1  328.37   68.89
  -5  -1   1  366.76   61.59
  -5  -1   1  333.87   69.89
   4   1  -1 1331.67   87.69
   4   1  -1 1523.25   71.89
  -4  -1   1 1259.67   97.29
  -4  -1   1 1328.87   92.49
  -4  -1   1 1536.55   86.09
   3   1  -1  652.73   51.79
   3   1  -1  822.42   71.39
  -3  -1   1  699.73   63.09
  -3  -1   1  605.34   66.69
  -3  -1   1  690.63   63.79
   2   1  -1 3684.53   85.09
   2   1  -1 3557.24   97.19
  -2  -1   1 3606.44  103.69
  -2  -1   1 3522.15   98.39
  -2  -1   1 3440.66   90.79
   1   1  -1  -53.69   26.90
   1   1  -1   34.90   29.90
   1   1  -1   28.20   21.10
  -1  -1   1   31.50   22.30
  -1  -1   1  -29.50   27.20
  -1  -1   1  -35.60   28.10
   0   1  -1 4551.24   84.59
   0   1  -1 4352.36   85.49
   0  -1   1 4411.26   82.99
   0  -1   1 4564.74   88.09
  -1   1  -1  287.67   38.80
  -1   1  -1  297.87   39.10
  -1   1  -1  229.48   32.80
   1  -1   1  275.77   38.30
   1  -1   1  265.87   29.00
  -2   1  -1 3127.69   95.79
  -2   1  -1 3108.19   94.49
  -2   1  -1 3188.58   90.99
   2  -1   1 3051.49   91.59
   2  -1   1 3109.89   74.19
  -3   1  -1  875.11   75.59
  -3   1  -1  632.54   65.19
  -3   1  -1  762.72   59.39
   3  -1   1  790.42   60.69
   3  -1   1  676.63   64.19
  -4   1  -1 1617.84  104.09
  -4   1  -1 1639.94  101.89
  -4   1  -1 1717.03   84.49
   4  -1   1 1695.23  101.59
   4  -1   1 1530.45   78.39
  -5   1  -1  675.83   93.49
  -5   1  -1  604.24   62.09
  -5   1  -1  528.65   78.59
   5  -1   1  597.44   67.19
   5  -1   1  552.34   84.29
  -6   1  -1  648.54   65.59
  -6   1  -1  520.55   92.79
  -6   1  -1  829.82  111.29
   6  -1   1  587.74   70.59
   6  -1   1  393.76   81.49
  -7   1  -1   69.59   79.39
  -7   1  -1  154.08   92.19
   7  -1   1   78.69   70.19
   7  -1   1  118.79   55.79
  -8   1  -1  306.87  113.19
  -8   1  -1  101.19   81.39
   8  -1   1  262.57  100.49
  -9   1  -1  311.27  118.79
  -9   1  -1  122.99   93.19
   9  -1   1  138.99   97.39
   9   0  -1  412.86  117.89
  -9   0   1  525.65  124.49
  -9   0   1  229.28  100.39
   8   0  -1   59.99   78.69
  -8   0   1 -140.09   81.09
  -8   0   1   88.09   85.99
   7   0  -1  371.66   90.49
  -7   0   1  589.34  102.29
  -7   0   1  618.24  100.89
   6   0  -1  230.48   50.79
   6   0  -1  191.58   72.29
  -6   0   1  176.68   60.29
  -6   0   1  138.29   70.29
  -6   0   1   57.59   64.49
   5   0  -1  956.50   96.19
   5   0  -1  926.11   65.19
  -5   0   1  951.70   94.59
  -5   0   1  846.52   77.69
  -5   0   1  924.41  101.79
   4   0  -1 1132.19   89.89
   4   0  -1 1098.79   57.19
  -4   0   1 1141.09   75.59
  -4   0   1 1283.37   92.89
  -4   0   1 1139.29   96.99
   3   0  -1  315.47   53.29
   3   0  -1  246.58   32.30
   3   0  -1  269.87   24.00
  -3   0   1  253.87   51.59
  -3   0   1  244.48   57.39
   2   0  -1 3960.90   99.69
   2   0  -1 3648.23   68.79
   2   0  -1 3761.92   54.79
  -2   0   1 3650.13   99.29
  -2   0   1 3807.22   99.29
   1   0  -1 1041.60   26.40
   1   0  -1 1109.49   42.90
  -1   0   1 1058.19   47.10
  -1   0   1 1021.20   26.40
  -1   0   1 1136.39   49.20
   0   0  -1 5584.34   79.89
   0   0   1 5438.66   79.89
  -1   0  -1   21.60   20.40
  -1   0  -1   51.19   19.60
  -1   0  -1   21.00   24.70
  -1   0  -1   23.40   25.50
   1   0   1   73.59   26.80
   1   0   1   -0.60   19.20
  -2   0  -1 9245.77  159.38
  -2   0  -1 9226.78  167.98
  -2   0  -1 9432.76  153.08
   2   0   1 9324.27  160.58
   2   0   1 9439.06  149.88
  -3   0  -1  540.65   46.60
  -3   0  -1  536.35   57.39
  -3   0  -1  513.85   60.99
   3   0   1  540.75   61.69
   3   0   1  505.75   48.20
  -4   0  -1 2023.80  105.29
  -4   0  -1 2075.09   67.99
  -4   0  -1 1842.42   97.49
  -4   0  -1 1992.40   79.49
   4   0   1 1990.80   97.09
   4   0   1 2081.09   85.89
  -5   0  -1  683.03   53.89
  -5   0  -1  547.15   55.29
  -5   0  -1  626.24   89.89
  -5   0  -1  687.13   85.89
   5   0   1  589.34   63.29
   5   0   1  583.74   76.29
  -6   0  -1  807.42  102.29
  -6   0  -1  861.71  111.89
  -6   0  -1  886.21   73.39
   6   0   1 1174.48  115.99
   6   0   1 1025.30   85.69
  -7   0  -1  225.08   83.39
  -7   0  -1  263.57   88.49
   7   0   1  391.06   99.69
   7   0   1  394.16   73.99
  -8   0  -1  197.78   91.19
  -8   0  -1   21.90   91.59
   8   0   1   97.09   80.49
  -9   0  -1   89.89   87.29
  -9   0  -1  100.79   98.19
   9   0   1  215.08  105.99
   9  -1  -1  216.88  106.69
  -9   1   1  298.87  107.89
  -9   1   1  382.56  113.29
   8  -1  -1  -97.99   80.89
  -8   1   1  -11.80   76.09
  -8   1   1   62.19   94.29
   7  -1  -1  552.64  102.59
  -7   1   1  719.23  113.59
  -7   1   1  479.75  104.49
   6  -1  -1  184.18   74.39
  -6   1   1  202.08   72.99
  -6   1   1  192.88   76.59
   5  -1  -1  667.73   85.49
   5  -1  -1  900.41   57.49
  -5   1   1  895.41   98.29
  -5   1   1  754.12   50.19
  -5   1   1  899.71   96.99
   4  -1  -1  372.46   38.20
   4  -1  -1  368.26   64.99
  -4   1   1  351.96   37.30
  -4   1   1  293.27   61.59
  -4   1   1  345.47   69.69
   3  -1  -1  582.24   41.20
   3  -1  -1  635.84   60.89
  -3   1   1  510.65   64.99
  -3   1   1  524.45   42.40
  -3   1   1  542.45   62.59
   2  -1  -1 1345.17   67.39
  -2   1   1 1267.67   72.79
  -2   1   1 1286.57   82.69
   1  -1  -1  681.63   43.60
   1  -1  -1  617.84   49.70
   1  -1  -1  693.93   26.20
  -1   1   1  643.54   28.50
  -1   1   1  642.94   49.99
  -1   1   1  736.83   54.59
   0  -1  -1 6674.83  107.99
   0  -1  -1 6397.26  102.09
   0  -1  -1 6207.08   98.49
   0  -1  -1 6495.35   92.89
   0   1   1 6390.96  116.69
   0   1   1 6433.46   92.59
   0   1   1 6325.67  104.29
  -1  -1  -1   52.99   21.10
  -1  -1  -1   38.90   27.50
   1   1   1   35.90   26.70
   1   1   1   73.69   21.90
   1   1   1   36.90   27.00
  -2  -1  -1 7621.54  143.59
  -2  -1  -1 7279.67  115.69
  -2  -1  -1 7389.06  149.09
   2   1   1 7246.08  132.99
   2   1   1 7530.55  143.49
  -3  -1  -1  109.29   27.20
  -3  -1  -1   10.60   43.20
  -3  -1  -1   71.79   42.90
   3   1   1   53.49   36.10
   3   1   1   43.70   46.00
  -4  -1  -1 6206.18  162.08
  -4  -1  -1 6043.50  165.88
  -4  -1  -1 5962.90  117.79
   4   1   1 5898.71  142.79
   4   1   1 5763.92  158.68
  -5  -1  -1    4.50   53.29
  -5  -1  -1  168.28   56.69
  -5  -1  -1  175.08   37.40
   5   1   1  129.49   51.19
   5   1   1   28.80   52.09
  -6  -1  -1 1779.22  137.89
  -6  -1  -1 1158.68  109.39
   6   1   1 1396.56  112.99
   6   1   1 1436.06  101.19
  -7  -1  -1  228.68   83.49
  -7  -1  -1  286.97   87.69
   7   1   1  169.88   84.19
   7   1   1  420.36   78.79
  -8  -1  -1  320.47   98.69
  -8  -1  -1  176.98   90.99
   8   1   1  450.75  103.49
  -9  -1  -1  264.27  118.89
  -9  -1  -1  265.57   98.29
   9   1   1  311.57  113.29
   9  -2  -1  321.07  115.69
  -9   2   1  462.75  128.29
  -9   2   1  400.46  108.49
   8  -2  -1   60.89   82.69
  -8   2   1   26.30   85.19
  -8   2   1  -65.39   73.99
   7  -2  -1  623.24  103.89
  -7   2   1  887.51  131.29
  -7   2   1  621.84  109.89
   6  -2  -1   70.69   63.99
  -6   2   1  -86.29   57.99
  -6   2   1   -1.10   62.49
   5  -2  -1  711.93   89.79
   5  -2  -1  796.42   59.29
  -5   2   1  759.12  100.09
  -5   2   1  667.23   58.99
  -5   2   1  655.23   93.29
   4  -2  -1  673.93   52.69
   4  -2  -1  665.03   79.19
  -4   2   1  690.43   61.99
  -4   2   1  669.43   82.89
  -4   2   1  738.13   82.09
   3  -2  -1 1016.00   82.29
  -3   2   1  949.11   82.19
  -3   2   1  666.63   70.19
   2  -2  -1 1801.92   85.89
   2  -2  -1 1981.40   83.39
  -2   2   1 1765.22   87.29
  -2   2   1 1734.33   94.89
   1  -2  -1   30.40   35.30
   1  -2  -1    9.50   35.10
  -1   2   1   99.09   49.60
  -1   2   1   25.40   28.30
  -1   2   1   28.30   41.50
   0  -2  -1 4993.20  110.69
   0  -2  -1 4759.62  109.49
   0   2   1 4868.31  119.99
   0   2   1 4813.02   94.99
   0   2   1 4924.21  123.09
  -1  -2  -1   22.00   37.10
  -1  -2  -1   -1.00   29.70
   1   2   1   17.70   33.40
   1   2   1  -14.50   36.50
  -2  -2  -1 4003.30  114.09
  -2  -2  -1 3818.32   96.99
   2   2   1 3837.22  108.39
   2   2   1 3919.81  114.19
  -3  -2  -1  501.55   63.99
  -3  -2  -1  340.97   55.29
  -3  -2  -1  453.05   43.20
   3   2   1  440.16   53.69
   3   2   1  383.36   57.19
  -4  -2  -1 2464.15  113.99
  -4  -2  -1 2459.85   84.69
  -4  -2  -1 2654.53  119.19
   4   2   1 2516.95  104.59
   4   2   1 2393.96  111.99
  -5  -2  -1   72.09   59.29
  -5  -2  -1   87.29   57.99
  -5  -2  -1    7.90   36.80
   5   2   1   -5.70   60.19
   5   2   1   89.29   46.50
  -6  -2  -1 1083.49  113.19
  -6  -2  -1 1030.40  118.79
   6   2   1 1156.68  103.29
   6   2   1 1088.29  118.99
  -7  -2  -1   75.69   77.69
  -7  -2  -1   78.89   73.29
   7   2   1   12.40   62.19
   7   2   1   82.89   85.09
  -8  -2  -1  265.27   91.49
  -8  -2  -1  389.36  114.89
   8   2   1  191.58   91.49
   8   2   1  471.25   98.09
  -9  -2  -1  116.79   98.79
  -9  -2  -1  162.08   97.79
   9   2   1   35.70   97.79
   9  -3  -1  389.06  129.39
  -9   3   1  109.49  104.59
   8  -3  -1   91.99   81.99
  -8   3   1  156.58   93.49
  -8   3   1  203.38  109.19
   7  -3  -1  640.84  111.89
  -7   3   1  793.42  122.19
  -7   3   1  742.33  126.49
   6  -3  -1   55.99   74.29
  -6   3   1   34.30   72.19
  -6   3   1   81.09   72.19
   5  -3  -1 1001.10   72.29
   5  -3  -1 1071.99  104.89
  -5   3   1 1095.59   90.59
  -5   3   1 1015.10  105.09
  -5   3   1  916.11  112.69
   4  -3  -1  419.96   74.79
  -4   3   1  242.08   55.59
  -4   3   1  115.69   61.09
  -4   3   1  295.07   73.69
   3  -3  -1 1267.37   91.89
   3  -3  -1 1434.16   94.29
  -3   3   1 1272.87   92.49
  -3   3   1 1245.88  105.09
   2  -3  -1 1261.77   85.89
   2  -3  -1 1104.59   83.79
  -2   3   1 1266.77   93.79
  -2   3   1 1103.19   78.79
  -2   3   1 1357.56   67.29
   1  -3  -1 1736.73   86.39
   1  -3  -1 1828.92   83.39
  -1   3   1 1922.51   74.89
  -1   3   1 1653.73   94.99
  -1   3   1 1727.33   87.79
   0  -3  -1 3628.04  112.79
   0  -3  -1 3729.13  112.29
   0   3   1 3739.63   99.09
   0   3   1 3800.92  116.39
   0   3   1 3845.52  122.29
  -1  -3  -1 1352.36   83.99
  -1  -3  -1 1410.56   74.79
   1   3   1 1305.77   71.09
   1   3   1 1481.65   92.19
  -2  -3  -1 4675.23  125.29
  -2  -3  -1 4679.93  136.49
   2   3   1 4554.04  124.99
   2   3   1 4904.11  140.29
  -3  -3  -1  102.89   53.19
  -3  -3  -1  150.68   42.20
   3   3   1   73.49   54.59
   3   3   1  111.49   46.70
  -4  -3  -1 2193.78   90.49
  -4  -3  -1 2169.48  117.99
   4   3   1 2324.17  123.79
   4   3   1 2156.48  104.39
  -5  -3  -1   75.99   45.80
  -5  -3  -1   -0.70   54.29
  -5  -3  -1  -35.70   52.49
   5   3   1  143.99   69.09
   5   3   1   27.00   55.69
  -6  -3  -1  869.51  111.29
  -6  -3  -1  927.31  109.39
   6   3   1  733.63  102.69
   6   3   1 1052.59  103.39
  -7  -3  -1   62.09   86.09
  -7  -3  -1    1.10   69.09
   7   3   1  139.89   79.39
   7   3   1    4.60   75.09
  -8  -3  -1  304.27   97.59
  -8  -3  -1  406.26  109.49
   8   3   1  158.08   97.29
   8   3   1  398.26   98.59
  -9  -3  -1  219.78  119.09
  -9  -3  -1   10.80   81.29
   9   3   1  161.18  107.29
   8  -4  -1  -84.39   82.79
  -8   4   1  128.39   97.89
  -8   4   1  -42.00   84.89
   7  -4  -1  419.16  103.59
  -7   4   1  445.26  107.19
  -7   4   1  450.05  117.69
   6  -4  -1  -72.99   74.79
  -6   4   1   16.80   77.89
  -6   4   1   53.49   81.39
   5  -4  -1  981.40  113.49
  -5   4   1  647.84   92.49
  -5   4   1 1029.80   98.69
  -5   4   1 1058.59  126.39
   4  -4  -1   21.70   58.89
  -4   4   1   39.50   63.09
  -4   4   1   46.60   51.09
  -4   4   1    6.70   53.09
   3  -4  -1 1316.67   97.09
   3  -4  -1 1197.28  100.79
  -3   4   1 1399.06   96.29
  -3   4   1 1399.86  121.29
   2  -4  -1  993.90   85.59
   2  -4  -1  782.72   81.49
  -2   4   1  961.00   98.89
  -2   4   1  944.31   86.19
  -2   4   1  998.10   76.89
   1  -4  -1 2499.65  118.09
   1  -4  -1 2250.17  102.89
  -1   4   1 2471.85  101.59
  -1   4   1 2485.45  119.49
  -1   4   1 2497.25   96.69
   0  -4  -1 2960.80  114.69
   0  -4  -1 2881.71  116.89
   0   4   1 2806.82  122.89
   0   4   1 2717.33  107.49
   0   4   1 2680.43  103.09
  -1  -4  -1 1017.80   78.39
  -1  -4  -1 1159.88   88.79
   1   4   1 1066.19   75.09
   1   4   1 1132.69   91.49
  -2  -4  -1 3769.02  124.79
  -2  -4  -1 3812.42  131.39
   2   4   1 3575.84  122.19
   2   4   1 3656.73  139.29
  -3  -4  -1  566.74   67.99
  -3  -4  -1  741.23   81.39
   3   4   1  819.12   81.09
   3   4   1  607.64   78.69
  -4  -4  -1 2767.72  131.49
  -4  -4  -1 2893.31  118.09
   4   4   1 2941.41  143.39
   4   4   1 2747.33  123.39
  -5  -4  -1  132.49   53.59
  -5  -4  -1   78.89   67.79
   5   4   1  -49.20   59.29
   5   4   1   99.49   71.49
  -6  -4  -1 1599.64  143.69
   6   4   1 1436.06  131.49
  -7  -4  -1   91.39   77.19
   7   4   1   79.79   79.29
   7   4   1  -98.79   69.19
  -8  -4  -1  298.37  105.19
   8   4   1  302.27  107.39
   8   4   1  413.06   97.89
  -9  -4  -1 -112.49   80.19
   9   4   1  -52.49  103.59
   8  -5  -1  171.58  102.09
  -8   5   1   52.79  100.29
  -8   5   1  209.68  113.89
   7  -5  -1  139.19   92.39
  -7   5   1  230.08  103.19
  -7   5   1  170.38   92.89
   6  -5  -1  -33.20   76.49
  -6   5   1  -19.20   81.09
  -6   5   1  -86.59   75.39
   5  -5  -1  546.25  102.99
  -5   5   1  402.76   93.79
  -5   5   1  467.75  108.79
  -5   5   1  440.96   85.29
   4  -5  -1   41.10   70.79
   4  -5  -1  117.49   62.99
  -4   5   1   24.90   68.59
  -4   5   1   -8.70   53.49
   3  -5  -1  641.74   90.39
   3  -5  -1  568.64   84.29
  -3   5   1  693.63   87.09
  -3   5   1  568.54   98.69
   2  -5  -1  153.68   64.99
   2  -5  -1  330.77   74.09
  -2   5   1  196.58   80.59
  -2   5   1  258.67   58.99
  -2   5   1  329.47   63.99
   1  -5  -1  607.84   82.09
   1  -5  -1  584.84   80.89
  -1   5   1  584.74   89.29
  -1   5   1  582.84   69.29
  -1   5   1  511.05   65.99
   0  -5  -1  708.63   83.79
   0  -5  -1  787.62   86.39
   0   5   1  678.23   72.79
   0   5   1  558.64   68.19
  -1  -5  -1  690.83   80.79
  -1  -5  -1  540.65   72.59
   1   5   1  669.83   74.69
   1   5   1  799.02   99.49
   1   5   1  637.84   76.09
  -2  -5  -1 1661.33  101.19
  -2  -5  -1 1513.45  107.79
   2   5   1 1543.55  109.59
   2   5   1 1408.86  103.69
  -3  -5  -1  274.47   60.99
  -3  -5  -1  281.57   74.19
   3   5   1  214.68   61.09
   3   5   1  252.07   74.79
  -4  -5  -1 1824.32  131.79
  -4  -5  -1 1989.70  116.99
   4   5   1 1848.92  128.29
   4   5   1 1729.73  123.99
  -5  -5  -1   93.09   63.09
  -5  -5  -1   38.00   68.79
   5   5   1   40.40   75.29
   5   5   1  -11.20   59.29
  -6  -5  -1 1262.87  138.39
   6   5   1 1334.57  134.89
   6   5   1 1019.40  129.19
  -7  -5  -1   -3.00   85.59
   7   5   1  -96.49   73.89
   7   5   1  -23.50   81.69
  -8  -5  -1  392.66  112.69
   8   5   1  555.44  107.19
   8   5   1  295.97  103.99
   7  -6  -1  153.98  107.09
  -7   6   1  -27.10   94.39
  -7   6   1  137.49  110.59
   6  -6  -1  220.18   90.39
  -6   6   1  345.47  119.39
  -6   6   1  328.07  104.39
   5  -6  -1  484.85   97.89
  -5   6   1  767.32  115.29
  -5   6   1  853.61  114.69
  -5   6   1  700.73  124.39
   4  -6  -1  -27.80   73.79
   4  -6  -1   24.60   66.89
  -4   6   1  -15.40   59.49
  -4   6   1    2.30   77.39
   3  -6  -1  902.61  111.59
   3  -6  -1  908.81  108.39
  -3   6   1  888.61  101.89
  -3   6   1  810.72  114.79
   2  -6  -1  120.69   67.19
   2  -6  -1   24.70   58.49
  -2   6   1  119.69   74.89
  -2   6   1   12.40   50.69
  -2   6   1  131.99   54.49
   1  -6  -1  854.11  101.49
   1  -6  -1  931.61   99.99
  -1   6   1  711.03  102.99
  -1   6   1 1200.78  104.69
  -1   6   1 1025.00   93.49
   0  -6  -1  454.15   77.79
   0  -6  -1  488.25   78.79
   0   6   1  519.85   75.29
   0   6   1  525.25   72.59
   0   6   1  526.25   98.29
  -1  -6  -1  710.83   88.89
  -1  -6  -1  625.74   87.79
   1   6   1  637.04   94.09
   1   6   1  561.94   79.19
   1   6   1  830.82   88.19
  -2  -6  -1 1091.89  106.39
  -2  -6  -1  877.51  102.19
   2   6   1 1148.59  105.89
   2   6   1  843.32  107.99
   2   6   1  934.01   99.19
  -3  -6  -1  300.87   77.59
  -3  -6  -1  155.08   71.99
   3   6   1  268.87   71.19
   3   6   1  290.87   80.49
  -4  -6  -1  952.20  105.79
  -4  -6  -1  858.01  110.59
   4   6   1  988.00  113.69
   4   6   1  803.82  110.59
  -5  -6  -1   72.39   75.89
  -5  -6  -1  133.39   72.99
   5   6   1   10.40   82.99
   5   6   1  159.28   83.19
  -6  -6  -1  533.15  105.29
   6   6   1  595.64  111.99
   6   6   1  658.83  107.69
  -7  -6  -1   30.30   87.89
   7   6   1   35.90   88.19
   7   6   1   74.19   80.19
  -8  -6  -1  248.28  105.49
   8   6   1  103.89  100.19
   6  -7  -1   69.79   92.69
  -6   7   1   66.29  108.99
  -6   7   1  230.28  102.49
   5  -7  -1   99.69   90.49
  -5   7   1  231.48   97.29
  -5   7   1  184.68   80.89
  -5   7   1   81.39  103.29
   4  -7  -1   90.59   77.69
   4  -7  -1  197.98   86.49
  -4   7   1  138.79   77.89
  -4   7   1  221.98  103.29
   3  -7  -1  471.35  101.19
   3  -7  -1  657.93  115.59
  -3   7   1  502.65   86.59
  -3   7   1  609.34  128.99
   2  -7  -1   14.00   76.29
   2  -7  -1   43.30   68.89
  -2   7   1  139.89   71.39
  -2   7   1  -36.80   57.29
  -2   7   1   32.60   80.49
   1  -7  -1  986.80  119.99
   1  -7  -1  996.80  116.89
  -1   7   1 1104.19  102.59
  -1   7   1 1044.00  126.49
  -1   7   1 1018.70  105.89
   0  -7  -1  193.18   80.59
   0  -7  -1  111.19   73.49
   0   7   1   39.90   55.19
   0   7   1  212.48   66.29
   0   7   1   88.79   74.99
  -1  -7  -1 1080.69  119.69
  -1  -7  -1 1129.19  120.19
   1   7   1 1172.38  124.09
   1   7   1 1237.08  106.59
  -2  -7  -1  380.66   84.49
  -2  -7  -1  520.25   97.69
   2   7   1  458.55   84.39
   2   7   1  460.15  103.99
   2   7   1  484.55   92.89
  -3  -7  -1 1086.29  128.89
  -3  -7  -1  968.70  114.29
   3   7   1 1283.77  132.69
   3   7   1 1078.59  130.99
  -4  -7  -1  863.41  109.39
  -4  -7  -1  773.32  113.09
   4   7   1  939.91  118.49
   4   7   1  625.84  110.29
  -5  -7  -1  335.17  102.29
  -5  -7  -1  249.18   86.79
   5   7   1  355.46   94.89
   5   7   1  260.77  104.89
  -6  -7  -1  266.37   93.49
   6   7   1  383.86  115.39
   6   7   1  498.95  106.69
  -7  -7  -1  121.29   95.99
   7   7   1  147.39   92.79
   7   7   1 -102.09   82.09
   5  -8  -1  180.28  102.39
  -5   8   1  155.88  107.09
   4  -8  -1    6.10   91.79
   4  -8  -1 -104.79   74.49
  -4   8   1   23.20  100.19
   3  -8  -1  348.77  112.59
   3  -8  -1   42.00   89.49
  -3   8   1  286.97  106.69
   2  -8  -1   29.60   79.29
   2  -8  -1  -65.09   70.49
  -2   8   1    5.00   66.29
  -2   8   1  132.99   92.09
   1  -8  -1  249.88   86.29
   1  -8  -1  193.78   85.59
  -1   8   1  361.76  102.29
  -1   8   1  416.66   92.39
   0  -8  -1  -41.40   80.29
   0  -8  -1  -34.10   75.69
   0   8   1   59.09   91.39
   0   8   1 -100.99   59.29
  -1  -8  -1  525.15  104.79
  -1  -8  -1  667.93  116.29
   1   8   1  576.24  117.79
   1   8   1  596.34   99.29
  -2  -8  -1  247.98   93.69
  -2  -8  -1   84.49   80.49
   2   8   1  322.37   90.39
   2   8   1  208.88   91.59
  -3  -8  -1  531.25  103.59
  -3  -8  -1  422.86  101.19
   3   8   1  473.85  114.59
   3   8   1  579.44  112.79
  -4  -8  -1  305.67   96.49
  -4  -8  -1  472.65  100.09
   4   8   1  419.56  108.39
   4   8   1  409.36  117.89
  -5  -8  -1  316.17  103.99
  -5  -8  -1  356.46   99.49
   5   8   1  225.68   92.29
   5   8   1  224.28  109.69
  -6  -8  -1  525.95  121.99
   6   8   1  194.88   96.99
   6   8   1  176.88  101.69
   3  -9  -1  294.67  119.39
   3  -9  -1  159.18  101.39
  -3   9   1   92.39  100.09
   2  -9  -1   93.29  106.49
   2  -9  -1   21.50   93.19
  -2   9   1   38.10   95.09
   1  -9  -1  353.66  101.29
   1  -9  -1  304.17  101.49
  -1   9   1  359.76   94.89
  -1   9   1  314.57  117.69
   0  -9  -1   13.50   86.19
   0  -9  -1   -2.10   78.59
   0   9   1  169.98  103.69
   0   9   1   38.40   79.09
  -1  -9  -1  395.56  105.89
  -1  -9  -1  489.45  124.49
   1   9   1  545.35  102.99
   1   9   1  295.97  110.89
  -2  -9  -1  -32.80   91.59
  -2  -9  -1    3.40   79.19
   2   9   1   25.50   82.59
  -3  -9  -1  314.97  112.69
  -3  -9  -1  293.67  107.09
   3   9   1  456.15  120.09
   3   9   1  382.66  101.09
  -4  -9  -1  -19.70   87.19
  -4  -9  -1  262.37  107.69
   4   9   1   36.60   88.59
   4   9   1   10.30  104.59
  -5  -9  -1  163.88  100.39
  -5  -9  -1  224.18  111.69
   1 -10  -1  429.56  120.99
  -1  10   1  481.05  107.79
   0 -10  -1   34.60   92.29
   0  10   1 -140.49   78.19
   0  10   1   45.40   72.09
  -1 -10  -1  468.55  121.39
   1  10   1  496.15  103.99
   1  10   1  454.75  129.39
  -2 -10  -1  -73.19   88.09
   2  10   1   31.30   82.39
   4   9  -2   77.49  102.99
   4   9  -2   47.00   91.49
  -4  -9   2  300.27  114.39
  -4  -9   2  177.18  106.29
   3   9  -2   57.19   87.09
  -3  -9   2   92.09   86.09
  -3  -9   2   42.60   92.79
   2   9  -2   11.00   73.99
   2   9  -2  279.67  102.39
  -2  -9   2  141.59   93.79
  -2  -9   2  -47.20   88.79
   1   9  -2  287.47   88.39
   1   9  -2  285.97  100.99
  -1  -9   2  347.57  101.79
  -1  -9   2  152.48   98.99
   0   9  -2  143.89   88.99
   0   9  -2  144.69   88.89
   0  -9   2   72.89   81.39
   0  -9   2  203.68  100.99
  -1   9  -2  577.04  125.29
  -1   9  -2  471.95  115.79
   1  -9   2  501.75  120.49
   1  -9   2  600.14  128.29
  -2   9  -2  149.99   99.29
   2  -9   2   10.70   80.89
   2  -9   2   26.80   80.89
  -3   9  -2  605.04  131.69
  -3   9  -2  306.17  106.99
   3  -9   2  416.56  126.99
   3  -9   2  532.25  125.89
   6   8  -2  220.28  117.79
   6   8  -2   -6.90   93.39
  -6  -8   2  376.46  114.49
   5   8  -2  -42.90   98.59
   5   8  -2 -178.28   78.79
  -5  -8   2   20.20   92.09
  -5  -8   2   42.90   97.09
   4   8  -2   95.09  102.29
   4   8  -2  346.37  107.89
  -4  -8   2  424.66  113.39
  -4  -8   2  422.06  112.29
   3   8  -2  154.68   95.09
   3   8  -2  306.77   92.49
  -3  -8   2  198.18   90.59
  -3  -8   2  104.39   97.59
   2   8  -2  256.67   89.09
   2   8  -2  257.07   99.39
  -2  -8   2  221.98   84.59
  -2  -8   2  202.28   83.39
   1   8  -2  414.46   90.69
   1   8  -2  491.15  115.09
  -1  -8   2  460.35  105.69
  -1  -8   2  547.85  114.39
   0   8  -2  162.78   86.69
   0   8  -2  179.48   73.19
   0  -8   2  257.17   95.89
   0  -8   2  354.96  102.29
  -1   8  -2  863.61  137.39
  -1   8  -2  670.03  113.39
   1  -8   2  588.34  105.49
   1  -8   2  592.64  116.69
  -2   8  -2  109.99   89.79
   2  -8   2  176.18   88.09
   2  -8   2  104.89   92.09
  -3   8  -2  544.05  113.59
  -3   8  -2  388.36  106.49
   3  -8   2  568.24  117.59
   3  -8   2  625.44  126.59
  -4   8  -2 -120.09   87.69
  -4   8  -2   48.90   89.19
   4  -8   2   86.69   96.29
   4  -8   2   27.10   86.49
  -5   8  -2  232.18  109.29
  -5   8  -2  177.18  104.79
   5  -8   2  171.98  107.19
   7   7  -2    0.90   79.49
   7   7  -2  -21.10   97.29
   6   7  -2  413.26  114.89
   6   7  -2  317.17  116.49
  -6  -7   2  647.04  120.49
  -6  -7   2  250.27   95.19
   5   7  -2   82.89   91.39
   5   7  -2   -3.50   89.69
  -5  -7   2   26.90   82.89
  -5  -7   2   23.70   79.29
   4   7  -2  456.55  106.09
   4   7  -2  308.97  107.89
  -4  -7   2  531.95  112.19
  -4  -7   2  342.47   93.99
   3   7  -2  338.97   95.49
   3   7  -2  217.18   95.29
  -3  -7   2  297.77   95.49
  -3  -7   2  323.47   90.99
   2   7  -2  446.76   94.19
  -2  -7   2  704.73  105.79
  -2  -7   2  508.45  102.29
   1   7  -2  802.82  114.39
   1   7  -2  717.63  100.49
  -1  -7   2  653.03  100.59
  -1  -7   2  624.54   98.89
   0   7  -2  263.07   74.49
   0   7  -2  222.18   86.89
   0  -7   2  337.87   87.59
   0  -7   2  267.27   89.99
  -1   7  -2 1310.47  125.29
  -1   7  -2 1497.95  147.59
   1  -7   2 1716.83  147.09
   1  -7   2 1758.02  160.08
  -2   7  -2  -51.89   78.19
   2  -7   2  142.29   79.89
   2  -7   2  107.59   81.29
  -3   7  -2 1187.38  142.39
  -3   7  -2  982.70  133.39
   3  -7   2 1097.29  136.39
   3  -7   2 1068.89  129.89
  -4   7  -2   79.69   84.99
  -4   7  -2  -18.10   83.99
   4  -7   2   26.00   79.09
   4  -7   2  -51.79   71.79
  -5   7  -2  438.76  116.49
  -5   7  -2  365.76  112.19
   5  -7   2  652.73  126.19
   5  -7   2  703.23  124.19
  -6   7  -2   -9.20   89.69
   6  -7   2   71.89   96.39
   7   6  -2   34.20   96.99
   7   6  -2   42.30   89.79
  -7  -6   2   25.00   84.49
   6   6  -2  315.97  101.29
   6   6  -2  352.66  100.99
  -6  -6   2  317.37  103.19
  -6  -6   2  280.57   91.99
   5   6  -2  -45.00   78.49
   5   6  -2   33.40   70.59
  -5  -6   2  -78.29   69.89
  -5  -6   2   25.90   81.09
   4   6  -2  378.06   86.69
   4   6  -2  354.76   96.39
  -4  -6   2  519.75  102.49
  -4  -6   2  368.36   89.09
   3   6  -2   61.19   77.29
   3   6  -2  -52.49   55.39
  -3  -6   2    3.60   69.49
  -3  -6   2  167.38   77.49
   2   6  -2  975.40  115.19
   2   6  -2 1136.89  111.39
  -2  -6   2 1124.49  119.99
  -2  -6   2  966.60  106.99
   1   6  -2  310.57   73.99
   1   6  -2  284.37   78.09
  -1  -6   2  181.98   69.19
  -1  -6   2  309.17   73.19
   0   6  -2 1121.89  107.89
   0   6  -2 1035.70  113.29
   0  -6   2  934.21  103.39
   0  -6   2  949.11  106.99
  -1   6  -2  708.93  104.89
  -1   6  -2  572.34   85.59
   1  -6   2  479.15   87.19
   1  -6   2  717.53   94.39
  -2   6  -2  780.12  115.19
  -2   6  -2  783.22   74.29
   2  -6   2  730.83   96.19
   2  -6   2  582.64   93.09
  -3   6  -2 1588.64  147.39
  -3   6  -2 1354.16  131.09
  -3   6  -2 1399.56  107.09
   3  -6   2 1545.25  143.89
   3  -6   2 1338.77  128.29
  -4   6  -2  150.78   71.79
  -4   6  -2   36.20   72.19
  -4   6  -2   94.59   75.79
   4  -6   2  162.38   76.29
   4  -6   2  -17.90   77.49
  -5   6  -2 1347.47  137.69
  -5   6  -2  937.81  131.29
  -5   6  -2  846.02  126.79
   5  -6   2  968.10  135.29
   5  -6   2  999.70  122.49
  -6   6  -2  -17.60   79.49
  -6   6  -2  -37.70   83.49
  -6   6  -2  -40.80   79.19
   6  -6   2  -60.99   78.29
  -7   6  -2  386.76  117.09
  -7   6  -2  341.77  112.79
   7  -6   2  213.68  103.59
   8   5  -2  337.47  117.09
  -8  -5   2  160.48  100.49
   7   5  -2  224.98  102.09
   7   5  -2   72.99   82.89
  -7  -5   2  124.49   93.09
   6   5  -2  513.55  107.29
   6   5  -2  485.15   98.29
  -6  -5   2  306.87   98.09
  -6  -5   2  427.56   97.29
   5   5  -2   58.89   63.19
   5   5  -2  -31.00   68.69
  -5  -5   2   32.90   73.29
  -5  -5   2   30.70   73.39
   4   5  -2 1160.58  110.39
   4   5  -2 1147.99  116.29
  -4  -5   2 1028.50  113.19
  -4  -5   2 1384.76  122.69
   3   5  -2   94.89   65.49
   3   5  -2  186.98   68.19
  -3  -5   2  141.59   68.59
  -3  -5   2  -38.40   52.49
   2   5  -2  908.11  101.59
   2   5  -2  787.92   87.89
  -2  -5   2  920.11  100.29
  -2  -5   2  926.81  100.59
   1   5  -2  261.97   68.39
   1   5  -2  294.37   63.89
   1   5  -2  278.67   35.90
  -1  -5   2  277.57   64.59
  -1  -5   2  333.47   74.99
   0   5  -2 1313.57   94.59
   0   5  -2 1488.35  120.69
   0   5  -2 1334.27   61.69
   0  -5   2 1254.87  105.89
   0  -5   2 1185.38   99.69
  -1   5  -2  811.12   89.89
  -1   5  -2  744.33   96.69
  -1   5  -2  672.13   60.99
   1  -5   2  786.92   90.29
   1  -5   2  771.52   86.99
  -2   5  -2  929.91  109.39
  -2   5  -2  863.21   74.39
   2  -5   2  806.92   97.49
   2  -5   2  665.33   82.19
  -3   5  -2  886.91  109.89
  -3   5  -2  801.82   81.49
  -3   5  -2  851.31  102.29
   3  -5   2  871.41   94.99
   3  -5   2  805.72  101.69
  -4   5  -2  464.25   82.99
  -4   5  -2  204.38   84.39
  -4   5  -2  315.37   79.69
   4  -5   2  316.27   75.79
   4  -5   2  249.28   77.79
  -5   5  -2  803.52  104.59
  -5   5  -2 1132.09  125.59
  -5   5  -2  714.93  116.89
   5  -5   2 1075.29  132.09
   5  -5   2  853.01  104.59
  -6   5  -2  174.88   86.99
  -6   5  -2  113.79   77.79
  -6   5  -2   92.29   85.59
   6  -5   2    2.50   85.59
  -7   5  -2  494.95  112.99
  -7   5  -2  460.45  119.99
   7  -5   2  501.45  117.89
  -8   5  -2  -12.30   93.69
  -8   5  -2  126.09  106.09
   8   4  -2  -80.19   83.59
  -8  -4   2  263.27  106.09
  -8  -4   2  177.58   96.99
   7   4  -2  177.38   95.99
   7   4  -2  232.18   81.39
  -7  -4   2   99.29   79.69
  -7  -4   2  110.19   88.39
   6   4  -2  707.23  109.09
   6   4  -2  962.50  107.49
  -6  -4   2 1007.50  115.59
  -6  -4   2 1140.29  121.99
  -6  -4   2  603.84  102.89
   5   4  -2    9.30   57.99
   5   4  -2  -55.29   59.29
  -5  -4   2  -25.50   58.29
  -5  -4   2   52.29   67.09
  -5  -4   2   50.99   65.19
   4   4  -2 1200.28   96.19
   4   4  -2 1227.08  104.39
  -4  -4   2 1331.27  115.69
  -4  -4   2 1241.88  118.99
   3   4  -2  -11.20   48.80
   3   4  -2   27.60   53.29
  -3  -4   2   55.99   63.99
  -3  -4   2   64.29   51.99
   2   4  -2 1581.24   95.39
   2   4  -2 1805.82  103.59
  -2  -4   2 1893.81  115.49
  -2  -4   2 1677.23   99.19
   1   4  -2  527.75   66.59
   1   4  -2  602.14   76.39
   1   4  -2  458.25   41.60
  -1  -4   2  320.77   62.59
  -1  -4   2  553.44   73.79
   0   4  -2 1571.94   91.09
   0   4  -2 1521.25  104.99
   0   4  -2 1569.24   54.69
   0  -4   2 1558.14  100.89
   0  -4   2 1521.55   92.49
  -1   4  -2 1367.86   88.69
  -1   4  -2 1580.54   99.99
  -1   4  -2 1436.66   65.79
   1  -4   2 1460.95   94.99
   1  -4   2 1229.38   94.39
  -2   4  -2 1015.20   70.09
  -2   4  -2 1011.90   95.99
   2  -4   2  875.11   82.29
   2  -4   2  832.62   84.19
  -3   4  -2 1972.00  127.29
  -3   4  -2 1997.60  103.89
  -3   4  -2 1818.02  114.19
   3  -4   2 1917.41  120.89
   3  -4   2 1746.73  105.69
  -4   4  -2  519.35   82.39
  -4   4  -2  454.75   82.99
  -4   4  -2  463.55   82.99
   4  -4   2  459.65   83.49
   4  -4   2  568.64   73.39
  -5   4  -2 1209.68  119.49
  -5   4  -2  878.51  103.39
  -5   4  -2  826.52  110.39
   5  -4   2  848.62   92.39
   5  -4   2  877.61  107.89
  -6   4  -2   22.30   68.39
  -6   4  -2  110.09   82.39
  -6   4  -2  154.28   76.59
   6  -4   2  120.69   83.79
  -7   4  -2  462.95  114.09
  -7   4  -2  442.86  108.39
   7  -4   2  454.75  112.69
  -8   4  -2   -6.90   80.39
  -8   4  -2  -79.69   90.29
   8  -4   2   13.50   77.79
   9   3  -2  376.96  124.79
  -9  -3   2  412.46  120.79
  -9  -3   2  422.66  120.49
   8   3  -2  142.39  102.09
  -8  -3   2   96.69   93.39
  -8  -3   2  153.88   91.79
   7   3  -2  558.94   88.89
   7   3  -2  539.85  108.09
  -7  -3   2  419.76  101.49
  -7  -3   2  387.86   96.39
   6   3  -2  370.46   94.19
   6   3  -2  513.15   81.09
  -6  -3   2  588.94   92.59
  -6  -3   2  644.54  100.39
  -6  -3   2  434.96   90.19
   5   3  -2  671.83   77.09
   5   3  -2  664.83   95.29
  -5  -3   2  832.32  103.39
  -5  -3   2  827.72   92.59
  -5  -3   2  708.83   87.29
   4   3  -2 1501.95  110.69
   4   3  -2 1479.95   95.59
  -4  -3   2 1368.46  105.09
  -4  -3   2 1295.87  102.99
  -4  -3   2 1558.24  100.29
   3   3  -2  151.38   57.99
   3   3  -2   92.59   50.59
  -3  -3   2   67.39   49.20
  -3  -3   2   74.89   46.30
  -3  -3   2   48.10   40.30
   2   3  -2 2636.34  112.29
   2   3  -2 2955.70  104.89
  -2  -3   2 2756.02  116.39
  -2  -3   2 2511.85  108.79
   1   3  -2  132.99   50.59
   1   3  -2   67.79   43.20
  -1  -3   2  129.39   52.19
  -1  -3   2  113.49   47.70
   0   3  -2 2756.42  100.69
   0   3  -2 2741.33  108.89
   0   3  -2 2800.72   59.29
   0  -3   2 2712.83  107.09
   0  -3   2 2728.13  102.49
  -1   3  -2  972.20   74.19
  -1   3  -2  967.20   86.39
  -1   3  -2  930.21   52.99
   1  -3   2 1009.40   70.69
   1  -3   2  938.81   75.89
  -2   3  -2 2297.97  109.39
  -2   3  -2 2265.57   86.49
  -2   3  -2 2187.88  107.99
   2  -3   2 2232.38  104.09
   2  -3   2 2361.16   94.99
  -3   3  -2 1913.61  110.79
  -3   3  -2 1979.70  112.29
  -3   3  -2 2113.99  102.69
   3  -3   2 2032.00   92.19
   3  -3   2 1990.50  109.59
  -4   3  -2 1181.58  105.09
  -4   3  -2 1004.80   99.29
  -4   3  -2 1162.98  102.19
   4  -3   2 1296.97  109.19
   4  -3   2 1194.68   81.59
  -5   3  -2 1195.78  115.99
  -5   3  -2 1458.35  125.29
  -5   3  -2 1642.04  115.09
   5  -3   2 1517.65  123.39
  -6   3  -2  208.38   71.59
  -6   3  -2  217.98   87.19
  -6   3  -2  159.18   80.59
   6  -3   2  162.88   65.99
   6  -3   2  143.79   76.99
  -7   3  -2  390.66  103.19
  -7   3  -2  589.14  108.39
   7  -3   2  341.77   90.19
  -8   3  -2   95.79   89.99
  -8   3  -2   23.10   96.59
   8  -3   2   -8.30   77.89
  -9   3  -2  156.98  104.59
  -9   3  -2  297.07  110.09
   9   2  -2  103.59  102.59
  -9  -2   2  389.76  112.39
  -9  -2   2  495.65  127.29
   8   2  -2  200.98   99.79
  -8  -2   2   93.29   97.69
  -8  -2   2  125.79   97.69
   7   2  -2  414.36   96.19
  -7  -2   2  399.56   94.09
  -7  -2   2  504.15  105.29
   6   2  -2  338.87   80.49
   6   2  -2  414.36   68.39
  -6  -2   2  557.14   86.19
  -6  -2   2  258.07   75.99
  -6  -2   2  534.25   98.39
   5   2  -2  404.76   78.19
   5   2  -2  456.65   61.79
  -5  -2   2  504.75   81.79
  -5  -2   2  435.76   72.89
  -5  -2   2  342.27   79.19
   4   2  -2  796.62   86.99
   4   2  -2  687.33   64.29
  -4  -2   2  581.24   77.39
  -4  -2   2  779.62   78.99
  -4  -2   2  773.62   80.29
   3   2  -2  182.18   54.19
   3   2  -2  195.78   45.20
  -3  -2   2  255.17   54.09
  -3  -2   2  198.28   45.90
  -3  -2   2  192.18   49.60
   2   2  -2 1250.67   78.99
   2   2  -2 1250.47   73.69
  -2  -2   2 1220.98   76.39
  -2  -2   2 1326.97   78.99
  -2  -2   2 1230.98   61.59
   1   2  -2    9.90   39.30
   1   2  -2   37.20   16.80
   1   2  -2   12.00   40.40
  -1  -2   2  -10.60   40.00
  -1  -2   2   34.60   39.10
   0   2  -2 3017.80   93.99
   0   2  -2 2850.51   45.40
   0   2  -2 3061.59   93.89
   0  -2   2 2994.10   93.29
   0  -2   2 2762.22   90.69
  -1   2  -2  766.62   71.09
  -1   2  -2  663.63   58.09
  -1   2  -2  643.14   48.00
   1  -2   2  699.53   60.29
   1  -2   2  832.42   64.19
  -2   2  -2 4652.23  117.19
  -2   2  -2 4728.03  134.29
  -2   2  -2 4535.85  125.39
   2  -2   2 4609.94  126.09
   2  -2   2 4812.42  110.59
  -3   2  -2  967.10   83.89
  -3   2  -2  969.60   80.19
  -3   2  -2  948.61   81.49
   3  -2   2 1034.70   85.09
   3  -2   2  913.11   59.79
  -4   2  -2 1409.66   98.29
  -4   2  -2 1460.65   94.19
  -4   2  -2 1441.96  105.19
   4  -2   2 1495.85  102.29
  -5   2  -2 1136.99   99.59
  -5   2  -2 1223.48  112.49
  -5   2  -2  869.21   95.69
   5  -2   2 1116.09   88.89
   5  -2   2  931.71   94.99
  -6   2  -2  939.51   91.49
  -6   2  -2  801.32  105.19
  -6   2  -2  948.01  108.99
   6  -2   2  807.02   86.79
   6  -2   2  805.62  101.39
  -7   2  -2  809.82  113.19
  -7   2  -2  847.32  120.89
   7  -2   2  737.63   91.89
   7  -2   2  780.22  112.99
  -8   2  -2   30.30   79.79
  -8   2  -2   78.39   91.39
   8  -2   2   99.49   80.69
  -9   2  -2  515.45  123.29
  -9   2  -2  376.96  116.49
   9  -2   2  278.47  104.49
   9   1  -2  239.08  109.59
  -9  -1   2  246.98  104.19
  -9  -1   2  461.65  127.69
   8   1  -2  148.19   93.89
  -8  -1   2   82.39   96.19
  -8  -1   2  -34.90   75.89
   7   1  -2  824.72  109.49
  -7  -1   2  856.01  117.69
  -7  -1   2  821.52  115.19
   6   1  -2  478.45   64.89
   6   1  -2  386.46   80.49
  -6  -1   2  600.84   81.69
  -6  -1   2  219.18   77.69
  -6  -1   2  470.85   92.99
   5   1  -2  919.71   93.49
   5   1  -2  768.92   64.89
  -5  -1   2  969.20  103.79
  -5  -1   2  874.01   98.49
  -5  -1   2  873.01   86.69
   4   1  -2 1153.58   62.49
   4   1  -2 1096.29   83.99
  -4  -1   2 1105.09   85.29
  -4  -1   2 1355.66   99.59
  -4  -1   2 1242.28   90.69
   3   1  -2  168.88   36.80
   3   1  -2  170.48   45.50
  -3  -1   2  158.48   51.99
  -3  -1   2  265.77   54.69
  -3  -1   2  159.98   47.50
   2   1  -2 1444.76   73.29
   2   1  -2 1464.25   59.29
  -2  -1   2 1425.76   78.89
  -2  -1   2 1334.67   66.49
  -2  -1   2 1321.77   74.69
   1   1  -2    0.90   30.60
   1   1  -2   29.60   28.10
  -1  -1   2   44.60   21.80
  -1  -1   2   42.30   32.00
  -1  -1   2   -0.70   35.00
   0   1  -2 2780.72   74.89
   0   1  -2 2601.04   81.69
   0   1  -2 2767.62   64.79
   0   1  -2 2692.53   59.49
   0  -1   2 2793.82   47.50
   0  -1   2 2737.43   65.59
   0  -1   2 2814.82   80.79
  -1   1  -2 1553.74   71.69
  -1   1  -2 1565.04   59.09
  -1   1  -2 1436.86   55.49
   1  -1   2 1505.25   60.19
   1  -1   2 1548.05   51.49
  -2   1  -2 2738.53   93.19
  -2   1  -2 2798.72   90.39
  -2   1  -2 2705.73   91.49
   2  -1   2 2822.52   65.69
   2  -1   2 2845.02   90.39
  -3   1  -2  650.63   61.99
  -3   1  -2  680.03   65.09
  -3   1  -2  728.33   71.59
   3  -1   2  623.24   41.90
   3  -1   2  585.04   61.39
  -4   1  -2 2002.90  104.59
  -4   1  -2 1686.63   91.39
  -4   1  -2 1907.81  106.09
   4  -1   2 1695.73   89.19
   4  -1   2 1597.84  102.09
  -5   1  -2  624.54   81.29
  -5   1  -2  708.23   89.09
  -5   1  -2  767.22   74.89
   5  -1   2  913.01   96.69
   5  -1   2  877.71   82.29
  -6   1  -2  383.56   78.59
  -6   1  -2  432.26   65.79
  -6   1  -2  232.58   77.29
   6  -1   2  341.37   64.29
   6  -1   2  234.38   79.29
  -7   1  -2  245.98   79.49
  -7   1  -2  254.27   97.19
   7  -1   2  355.46   73.79
   7  -1   2  497.55   99.69
  -8   1  -2   43.80   76.69
  -8   1  -2   46.60   83.29
   8  -1   2   86.79   89.29
  -9   1  -2   88.39   92.19
  -9   1  -2  138.19  110.39
   9  -1   2  103.99   99.59
   9   0  -2  226.98  104.49
  -9   0   2  242.08   98.59
  -9   0   2  368.26  123.69
   8   0  -2   97.39   83.49
  -8   0   2   -9.00   93.89
  -8   0   2  -53.89   77.99
   7   0  -2  476.35  101.59
  -7   0   2  930.21  126.79
  -7   0   2  690.73  109.19
   6   0  -2   46.20   58.19
  -6   0   2  103.49   68.49
  -6   0   2   -2.30   58.39
  -6   0   2  101.99   76.19
   5   0  -2 1152.68   93.99
   5   0  -2 1271.87   67.29
  -5   0   2 1202.68   96.59
  -5   0   2 1152.68  103.09
  -5   0   2 1307.97  114.69
   4   0  -2  527.05   45.70
   4   0  -2  570.74   69.79
  -4   0   2  579.34   68.99
  -4   0   2  682.53   79.69
  -4   0   2  584.44   78.39
   3   0  -2 1883.71   87.59
   3   0  -2 1863.91   56.29
  -3   0   2 1807.02   94.29
  -3   0   2 1746.93   88.19
   2   0  -2 3199.38   61.69
   2   0  -2 3072.19   85.99
  -2   0   2 3243.28   97.99
  -2   0   2 3158.58  100.19
   1   0  -2  309.27   29.90
   1   0  -2  306.07   24.40
   1   0  -2  342.07   29.60
   1   0  -2  298.27   24.00
  -1   0   2  308.07   24.40
  -1   0   2  268.47   39.50
  -1   0   2  300.27   33.70
  -1   0   2  342.67   27.10
   0   0  -2 3860.31   78.89
  -1   0  -2  947.31   32.90
  -1   0  -2  978.50   33.20
  -1   0  -2  981.20   53.69
  -1   0  -2  904.51   57.89
   1   0   2  950.60   37.30
   1   0   2  964.00   32.90
  -2   0  -2 4164.28   96.29
  -2   0  -2 4188.38  110.89
  -2   0  -2 4219.48  110.29
   2   0   2 4375.46  100.19
   2   0   2 4269.67  102.99
  -3   0  -2  524.55   52.29
  -3   0  -2  494.75   19.90
  -3   0  -2  569.54   58.89
  -3   0  -2  608.04   63.49
   3   0   2  515.15   55.09
   3   0   2  640.34   60.99
  -4   0  -2 2886.61  128.49
  -4   0  -2 2834.72  108.39
  -4   0  -2 2954.70  104.29
  -4   0  -2 2847.52   60.79
   4   0   2 2990.20  103.59
   4   0   2 3030.00  113.09
  -5   0  -2  434.96   59.69
  -5   0  -2  478.85   37.40
  -5   0  -2  362.76   67.39
  -5   0  -2  396.86   73.59
   5   0   2  628.14   78.69
   5   0   2  474.95   64.99
  -6   0  -2  998.00   84.39
  -6   0  -2  641.34   95.89
  -6   0  -2  612.64   86.49
   6   0   2  776.42   94.99
   6   0   2  801.12   85.99
  -7   0  -2  601.64  111.39
  -7   0  -2  518.65   98.49
   7   0   2  379.56   88.39
   7   0   2  435.26   80.49
  -8   0  -2  165.38   94.19
  -8   0  -2  163.98   87.09
   8   0   2  266.57   95.99
  -9   0  -2  151.38   96.79
  -9   0  -2   50.59   89.09
   9   0   2   20.50   94.79
   9  -1  -2  329.27  116.49
  -9   1   2  397.66  125.09
  -9   1   2  372.26  111.89
   8  -1  -2  143.39   93.89
  -8   1   2  -37.90   72.19
  -8   1   2 -104.79   84.99
   7  -1  -2  452.85   96.59
  -7   1   2  588.44  108.79
  -7   1   2  507.95  109.19
   6  -1  -2  -26.20   64.69
  -6   1   2  103.69   72.49
  -6   1   2   51.99   63.69
   5  -1  -2 1008.20   54.09
   5  -1  -2  888.11   90.99
  -5   1   2 1020.40  101.69
  -5   1   2  874.11  102.09
   4  -1  -2  240.08   28.90
   4  -1  -2  186.58   53.19
  -4   1   2  206.68   58.29
  -4   1   2  202.48   23.40
  -4   1   2   79.89   54.89
   3  -1  -2 1031.50   35.10
   3  -1  -2 1076.89   70.79
  -3   1   2 1046.10   40.40
  -3   1   2 1114.19   90.59
  -3   1   2 1051.69   81.89
   2  -1  -2  287.47   41.50
  -2   1   2  293.17   50.69
  -2   1   2  460.35   56.59
   1  -1  -2 1718.33   32.00
   1  -1  -2 1797.92   58.69
  -1   1   2 1826.12   67.79
  -1   1   2 1759.62   30.90
  -1   1   2 1925.21   78.89
   0  -1  -2 5389.66   78.79
   0  -1  -2 5189.78   78.79
   0   1   2 5345.46   85.89
   0   1   2 5426.86   88.49
   0   1   2 5227.48  122.79
  -1  -1  -2  619.74   40.00
  -1  -1  -2  528.95   38.30
  -1  -1  -2  694.73   52.29
  -1  -1  -2  601.94   37.60
   1   1   2  634.84   41.60
   1   1   2  586.24   48.20
  -2  -1  -2 4626.14  120.69
  -2  -1  -2 4675.13  105.09
  -2  -1  -2 4861.01  115.79
  -2  -1  -2 4584.24   76.89
   2   1   2 4523.05  111.69
   2   1   2 4622.04   78.49
   2   1   2 4672.53  107.89
  -3  -1  -2    8.60   39.50
  -3  -1  -2  -28.10   35.40
  -3  -1  -2   34.50   44.50
  -3  -1  -2   -0.30   16.50
   3   1   2  -10.50   40.20
   3   1   2    9.80   42.90
   3   1   2   16.00   19.50
  -4  -1  -2 3046.80  125.29
  -4  -1  -2 3201.58  118.59
  -4  -1  -2 3070.89   66.89
  -4  -1  -2 3163.38  105.99
   4   1   2 3108.89  123.39
   4   1   2 3175.68  108.99
  -5  -1  -2  376.96   69.09
  -5  -1  -2  377.66   35.40
  -5  -1  -2  352.06   53.39
  -5  -1  -2  340.37   72.69
   5   1   2  328.67   65.29
   5   1   2  232.08   68.89
  -6  -1  -2 1650.13  125.49
  -6  -1  -2 1614.54  124.59
   6   1   2 1725.13  130.29
   6   1   2 1580.94  102.09
  -7  -1  -2  397.86   87.99
  -7  -1  -2  359.56   92.09
   7   1   2  436.16   89.59
   7   1   2  366.66   77.99
  -8  -1  -2  532.15  110.49
  -8  -1  -2  265.67   94.09
   8   1   2  456.25   92.99
   8   1   2  354.46  102.59
  -9  -1  -2  174.98   90.19
  -9  -1  -2  184.68  101.19
   9   1   2  211.68  103.59
   9  -2  -2  172.08  101.79
  -9   2   2  151.78  101.99
  -9   2   2  258.47  105.99
   8  -2  -2  127.09   90.79
  -8   2   2  -36.00   91.09
  -8   2   2   12.80   79.19
   7  -2  -2  954.70  124.99
  -7   2   2 1273.77  149.99
  -7   2   2  658.73  113.49
   6  -2  -2  -14.30   62.99
  -6   2   2   86.19   69.29
  -6   2   2   80.89   72.49
   5  -2  -2 1113.89  102.29
  -5   2   2 1043.40  106.89
  -5   2   2 1326.87  122.49
   4  -2  -2  215.08   55.29
   4  -2  -2  236.08   29.50
  -4   2   2  179.48   68.19
  -4   2   2  179.48   60.89
  -4   2   2  244.58   37.50
   3  -2  -2  905.51   72.79
  -3   2   2 1057.29   86.69
  -3   2   2 1056.09   89.49
   2  -2  -2  472.25   55.79
  -2   2   2  305.87   56.09
  -2   2   2  351.66   55.89
   1  -2  -2  683.23   53.29
   1  -2  -2  774.92   65.59
  -1   2   2  699.93   39.90
  -1   2   2  814.82   71.79
  -1   2   2  717.83   65.69
   0  -2  -2   42.70   33.50
   0  -2  -2   11.80   34.00
   0   2   2   69.59   30.10
   0   2   2   -8.50   47.50
   0   2   2  105.99   42.10
  -1  -2  -2  106.39   36.10
  -1  -2  -2  103.69   35.60
   1   2   2  115.39   40.00
   1   2   2  132.39   40.10
  -2  -2  -2 1887.81   81.59
  -2  -2  -2 1826.02   67.29
   2   2   2 1918.51   85.69
   2   2   2 1941.91   85.39
  -3  -2  -2  238.48   34.60
  -3  -2  -2  226.48   48.00
   3   2   2  225.08   49.70
   3   2   2  159.38   47.30
  -4  -2  -2 2416.36  124.49
  -4  -2  -2 2374.66  106.09
  -4  -2  -2 2365.76   73.79
   4   2   2 2455.95  118.49
   4   2   2 2284.17  101.19
  -5  -2  -2   60.69   32.00
  -5  -2  -2  -19.60   53.39
  -5  -2  -2  166.98   69.99
   5   2   2  122.99   58.59
   5   2   2  130.89   64.89
  -6  -2  -2 1538.45  124.59
  -6  -2  -2 1721.53  139.29
   6   2   2 1664.73  117.59
   6   2   2 1682.43  132.39
  -7  -2  -2  129.89   74.49
  -7  -2  -2   99.39   86.09
   7   2   2  245.88   79.39
   7   2   2  198.18   94.19
  -8  -2  -2  420.66  112.89
  -8  -2  -2  516.05  103.49
   8   2   2  321.27  101.49
   8   2   2  660.03  110.19
  -9  -2  -2  192.08  100.89
  -9  -2  -2  377.86  123.59
   9   2   2   72.09  101.69
   9  -3  -2  128.49  109.49
   8  -3  -2   25.50   79.99
  -8   3   2  -20.90   81.59
  -8   3   2  100.99   96.19
   7  -3  -2  699.53  112.69
  -7   3   2  745.83  123.59
  -7   3   2  534.45  111.39
   6  -3  -2  -20.50   68.19
  -6   3   2   30.30   69.89
  -6   3   2  121.29   76.19
   5  -3  -2 1836.32  122.79
  -5   3   2 1857.71  128.29
  -5   3   2 1855.31  143.09
   4  -3  -2   86.29   55.79
  -4   3   2   -7.50   54.69
  -4   3   2  -42.10   52.09
   3  -3  -2 2337.47  108.09
  -3   3   2 2244.48  113.79
  -3   3   2 2255.37  116.49
   2  -3  -2  813.92   75.49
   2  -3  -2  719.63   67.09
  -2   3   2  785.32   79.89
  -2   3   2  822.22   52.39
  -2   3   2  821.32   87.09
   1  -3  -2 1933.31   87.39
   1  -3  -2 1918.01   91.89
  -1   3   2 2038.40   97.79
  -1   3   2 1735.83  102.99
  -1   3   2 1955.00   68.69
   0  -3  -2 1130.79   75.89
   0  -3  -2 1132.89   73.49
   0   3   2  968.50   82.39
   0   3   2 1062.19   87.09
   0   3   2 1280.97   65.89
  -1  -3  -2  659.53   60.79
  -1  -3  -2  578.24   55.39
   1   3   2  476.25   52.89
   1   3   2  605.24   63.39
  -2  -3  -2 1990.40   86.19
  -2  -3  -2 2039.70   93.59
   2   3   2 2269.87   93.89
   2   3   2 2101.69   94.59
  -3  -3  -2  -16.60   45.30
  -3  -3  -2    1.70   35.20
   3   3   2   -5.10   48.30
   3   3   2   79.69   46.50
  -4  -3  -2 2344.17  118.59
  -4  -3  -2 2451.55   92.29
   4   3   2 2534.85  127.29
   4   3   2 2365.66  111.69
  -5  -3  -2   37.10   51.49
  -5  -3  -2   50.29   39.20
   5   3   2  -49.99   52.99
   5   3   2   67.89   55.59
  -6  -3  -2 1248.68  126.89
  -6  -3  -2 1324.47  126.69
   6   3   2 1332.87  129.89
   6   3   2 1262.77  113.69
  -7  -3  -2   44.30   73.99
  -7  -3  -2  -36.90   68.79
   7   3   2   17.80   78.59
   7   3   2   -0.70   68.19
  -8  -3  -2  741.93  122.89
  -8  -3  -2  583.54  115.69
   8   3   2  468.75  101.89
   8   3   2  390.16  118.39
  -9  -3  -2 -114.69   95.29
  -9  -3  -2  -28.80   74.79
   9   3   2  -59.49   86.99
   9   3   2  -29.00   88.09
   8  -4  -2  -59.69   86.39
  -8   4   2   -5.00   91.49
  -8   4   2   81.59   93.29
   7  -4  -2  357.26   99.79
  -7   4   2  278.37  103.39
  -7   4   2  410.16  108.49
   6  -4  -2  -31.50   63.79
  -6   4   2   72.49   81.49
  -6   4   2  -10.50   76.59
   5  -4  -2  876.71  108.59
  -5   4   2  816.92  115.79
  -5   4   2  757.22  101.49
   4  -4  -2   19.50   56.79
  -4   4   2   37.60   57.59
  -4   4   2   77.29   71.59
   3  -4  -2 1250.47   96.69
   3  -4  -2 1272.37   98.99
  -3   4   2 1375.36  109.19
  -3   4   2 1188.28   99.59
   2  -4  -2  -36.60   47.80
   2  -4  -2 -124.09   40.00
  -2   4   2   37.70   53.69
  -2   4   2   43.90   38.30
  -2   4   2  -51.89   60.69
   1  -4  -2 1460.55   94.29
   1  -4  -2 1353.06   89.09
  -1   4   2 1461.25   98.89
  -1   4   2 1395.16  110.19
  -1   4   2 1503.45   75.99
   0  -4  -2  886.31   79.79
   0  -4  -2  781.62   82.09
   0   4   2  776.02   81.59
   0   4   2  853.01   70.19
   0   4   2  718.53   83.79
  -1  -4  -2 2423.86  106.09
  -1  -4  -2 2202.08  106.19
   1   4   2 2367.56  119.19
   1   4   2 2048.59   91.69
  -2  -4  -2 1886.31  100.29
  -2  -4  -2 1697.83   94.39
   2   4   2 1860.51  103.79
   2   4   2 1751.72   99.19
  -3  -4  -2  513.95   62.69
  -3  -4  -2  552.54   76.29
   3   4   2  628.04   78.39
   3   4   2  612.74   82.99
  -4  -4  -2 2172.68  100.69
  -4  -4  -2 2017.50  124.49
   4   4   2 1913.11  118.19
   4   4   2 2032.00  123.59
  -5  -4  -2  136.19   70.39
  -5  -4  -2  124.89   53.29
   5   4   2  136.89   69.89
   5   4   2  212.68   70.49
  -6  -4  -2 1319.97  127.59
   6   4   2 1134.79  126.49
   6   4   2 1440.96  124.69
  -7  -4  -2  -34.40   73.99
   7   4   2   27.30   70.49
   7   4   2   23.00   78.29
  -8  -4  -2  633.84  124.09
   8   4   2  310.57  106.99
   8   4   2  689.23  119.59
  -9  -4  -2   18.40   83.09
   9   4   2  102.39  109.49
   9   4   2   76.39   96.39
   8  -5  -2  132.49   99.19
  -8   5   2   55.89   95.59
   7  -5  -2  346.17   99.29
  -7   5   2  378.26  106.89
  -7   5   2  315.97  110.99
   6  -5  -2   69.69   85.09
  -6   5   2   11.00   71.89
  -6   5   2  -22.00   85.69
   5  -5  -2 1015.90  115.69
  -5   5   2  758.92  123.69
  -5   5   2  771.82  108.79
   4  -5  -2  -89.39   58.39
  -4   5   2  -77.59   52.39
  -4   5   2  110.69   75.59
   3  -5  -2  841.42   95.49
   3  -5  -2 1088.59  108.89
  -3   5   2 1058.59  120.29
  -3   5   2  718.43   91.99
   2  -5  -2  -20.00   51.99
   2  -5  -2   -4.40   53.19
  -2   5   2  -46.40   63.19
  -2   5   2   58.49   44.10
  -2   5   2    2.00   47.50
   1  -5  -2  647.44   74.99
   1  -5  -2  815.92   89.29
  -1   5   2  720.73   71.29
  -1   5   2  581.04   88.39
  -1   5   2  770.22   87.09
   0  -5  -2  257.87   62.99
   0  -5  -2  405.76   68.99
   0   5   2  420.16   71.99
   0   5   2  237.28   56.89
  -1  -5  -2  772.82   87.19
  -1  -5  -2  677.03   79.99
   1   5   2  799.12   82.49
   1   5   2  730.43   95.69
   1   5   2  708.43   84.89
  -2  -5  -2  817.42   86.99
  -2  -5  -2  729.63   82.79
   2   5   2  764.22   82.59
   2   5   2  543.15   86.19
  -3  -5  -2  907.41   96.69
  -3  -5  -2 1035.30   94.29
   3   5   2  931.41   95.99
   3   5   2  781.72  100.49
  -4  -5  -2 1443.46  102.99
  -4  -5  -2 1452.05  111.49
   4   5   2 1658.33  110.89
   4   5   2 1297.97  116.39
  -5  -5  -2  235.58   79.49
  -5  -5  -2  184.28   64.89
   5   5   2  287.17   81.09
   5   5   2  200.98   81.79
  -6  -5  -2 1042.00  123.39
   6   5   2  957.80  121.49
   6   5   2  984.10  130.09
  -7  -5  -2    2.80   74.69
   7   5   2   52.99   75.09
   7   5   2    4.70   80.49
  -8  -5  -2  676.83  126.99
   8   5   2  622.64  112.39
   8   5   2  442.76  116.89
   7  -6  -2   -9.70   88.69
  -7   6   2  184.08  112.39
  -7   6   2  296.97  126.09
   6  -6  -2  205.18   91.39
  -6   6   2  229.88   87.39
  -6   6   2  205.88  114.79
   5  -6  -2  611.84  108.59
  -5   6   2  662.53  119.09
  -5   6   2  750.42  113.39
   4  -6  -2  158.88   77.99
   4  -6  -2   -8.20   74.39
  -4   6   2   77.49   86.09
  -4   6   2   -3.60   60.39
   3  -6  -2 1398.66  131.19
   3  -6  -2 1429.76  141.69
  -3   6   2 1084.69  129.99
  -3   6   2 1389.06  127.69
   2  -6  -2  245.98   73.39
   2  -6  -2  198.38   76.59
  -2   6   2  179.78   58.99
  -2   6   2  234.58   85.79
  -2   6   2  101.29   66.29
   1  -6  -2 1112.79  105.39
   1  -6  -2 1065.49  109.49
  -1   6   2 1044.20  122.19
  -1   6   2 1378.66  114.69
  -1   6   2 1103.59   95.19
   0  -6  -2  272.27   77.49
   0  -6  -2  179.38   66.29
   0   6   2  285.27   79.99
   0   6   2   83.89   62.29
   0   6   2  219.68   61.39
  -1  -6  -2  647.74   89.89
  -1  -6  -2  603.24   84.69
   1   6   2  692.93  102.79
   1   6   2  759.42   92.69
   1   6   2  638.44   87.29
  -2  -6  -2  426.76   76.69
  -2  -6  -2  801.62  100.99
   2   6   2  780.62   90.89
   2   6   2  545.05   93.69
   2   6   2  676.63   94.59
  -3  -6  -2  211.18   69.89
  -3  -6  -2  102.79   66.39
   3   6   2  161.48   80.69
   3   6   2  270.87   70.09
  -4  -6  -2  657.93   93.29
  -4  -6  -2  640.84  103.09
   4   6   2  561.24   92.09
   4   6   2  638.64  107.29
  -5  -6  -2  150.48   75.99
  -5  -6  -2  130.99   69.49
   5   6   2  172.18   75.99
   5   6   2  -44.20   77.79
  -6  -6  -2  712.83  116.89
   6   6   2  538.25  119.49
   6   6   2  664.83  110.09
  -7  -6  -2  -31.00   73.39
   7   6   2  -52.59   93.69
   7   6   2    2.20   87.29
  -8  -6  -2  552.64  128.49
   8   6   2  369.56  118.29
   6  -7  -2  222.08   98.29
  -6   7   2  244.58  104.89
  -6   7   2  275.57  117.29
   5  -7  -2  235.28   97.89
  -5   7   2  318.27  100.09
  -5   7   2  311.27  121.49
   4  -7  -2  282.37  104.29
   4  -7  -2  105.29   82.79
  -4   7   2  261.17   84.39
  -4   7   2   97.89   91.69
   3  -7  -2  448.96  109.79
   3  -7  -2  321.57   94.49
  -3   7   2  568.84   97.39
  -3   7   2  596.64  130.49
   2  -7  -2  223.48   86.49
   2  -7  -2  197.88   80.19
  -2   7   2  193.78   99.39
  -2   7   2  203.88   71.09
  -2   7   2  232.58   71.49
   1  -7  -2 1615.34  141.49
   1  -7  -2 1228.18  132.69
  -1   7   2 1587.84  153.78
  -1   7   2 1432.56  118.49
  -1   7   2 1532.55  122.79
   0  -7  -2   51.99   64.19
   0  -7  -2   95.09   70.49
   0   7   2   24.40   61.69
   0   7   2   -6.50   77.99
   0   7   2   64.79   67.19
  -1  -7  -2 1405.06  133.29
  -1  -7  -2 1330.07  134.39
   1   7   2 1297.97  116.79
   1   7   2 1362.96  120.49
  -2  -7  -2  176.38   76.79
  -2  -7  -2  160.58   73.19
   2   7   2  163.38   76.49
   2   7   2  271.07   95.89
   2   7   2  119.49   75.69
  -3  -7  -2  556.34  101.99
  -3  -7  -2  678.53  105.79
   3   7   2  468.15  108.09
   3   7   2  565.44   95.39
  -4  -7  -2  529.25   98.29
  -4  -7  -2  599.94  106.79
   4   7   2  696.13  123.69
   4   7   2  559.14   98.49
  -5  -7  -2   57.59   75.59
  -5  -7  -2  152.48   83.69
   5   7   2   70.09   85.79
   5   7   2  114.89   90.09
  -6  -7  -2  445.66  109.79
   6   7   2  483.55  117.29
   6   7   2  392.66  109.19
  -7  -7  -2   21.10   88.99
   7   7   2  -21.10   98.89
   7   7   2   35.90   98.19
   5  -8  -2  229.68  105.09
  -5   8   2  245.78   94.39
  -5   8   2  259.47  113.69
   4  -8  -2  -16.80   90.49
   4  -8  -2  218.98  108.49
  -4   8   2   86.69  105.29
  -4   8   2  109.99   84.79
   3  -8  -2  426.46  108.89
   3  -8  -2  478.85  115.69
  -3   8   2  712.23  134.39
  -3   8   2  549.15  102.59
   2  -8  -2  209.58   98.19
   2  -8  -2   35.50   82.89
  -2   8   2  -32.90   64.19
  -2   8   2  103.99   69.89
  -2   8   2  133.09   97.49
   1  -8  -2  473.05   98.19
   1  -8  -2  221.88   89.39
  -1   8   2  449.36   92.39
  -1   8   2  392.16   84.59
  -1   8   2  196.88   95.19
   0  -8  -2  -18.30   81.19
   0  -8  -2   48.60   75.39
   0   8   2  -13.40   68.49
   0   8   2   43.90   79.79
  -1  -8  -2  409.66  100.29
  -1  -8  -2  523.15   99.19
   1   8   2  437.96   98.99
   1   8   2  713.63  126.79
  -2  -8  -2  -18.20   77.89
  -2  -8  -2 -106.19   62.29
   2   8   2  129.29   76.89
   2   8   2    3.60   85.79
  -3  -8  -2  592.84  107.69
  -3  -8  -2  751.32  123.69
   3   8   2  635.34  107.99
   3   8   2  599.54  124.59
  -4  -8  -2  254.27   96.19
  -4  -8  -2  213.48   92.59
   4   8   2   93.59   99.59
   4   8   2   55.79   89.19
  -5  -8  -2  559.84  112.29
  -5  -8  -2  412.86  106.29
   5   8   2  400.16  116.69
   5   8   2  495.15  119.09
  -6  -8  -2  426.16  116.39
   6   8   2  454.05  124.79
   6   8   2  363.06  115.89
   3  -9  -2  683.03  144.79
   3  -9  -2  534.15  118.59
  -3   9   2  452.05  124.69
   2  -9  -2   15.80   87.59
   2  -9  -2   -7.00   85.09
  -2   9   2   -6.70   95.39
   1  -9  -2  571.14  110.89
   1  -9  -2  574.14  131.29
  -1   9   2  533.65  104.39
  -1   9   2  624.74  137.59
   0  -9  -2   48.00   81.59
   0  -9  -2  -78.19   84.39
   0   9   2 -131.69   83.69
   0   9   2 -129.49   69.49
  -1  -9  -2  247.48  107.09
  -1  -9  -2  436.66  115.19
   1   9   2  309.77   91.99
   1   9   2  320.67  110.69
  -2  -9  -2   89.09   96.69
  -2  -9  -2  -24.60   79.09
   2   9   2  -87.89   79.79
  -3  -9  -2  198.28   92.49
  -3  -9  -2  295.07  108.99
   3   9   2  120.49   93.29
   3   9   2  312.37   95.79
  -4  -9  -2  124.49   94.99
  -4  -9  -2  139.79  100.69
   4   9   2  171.48   98.89
   4   9   2  207.88  111.89
  -5  -9  -2   77.19   85.29
  -5  -9  -2  214.98  101.49
   0 -10  -2   17.80   85.09
   0  10   2  120.89   89.89
   0  10   2  109.29  101.49
  -1 -10  -2  473.75  119.39
  -1 -10  -2  418.46  117.49
   1  10   2  330.67  118.09
   1  10   2  242.58  103.19
  -2 -10  -2   20.40   87.29
   2  10   2  -65.99   84.69
  -4  -9   3  138.79   99.79
   3   9  -3    5.40   88.29
   3   9  -3  -58.49   73.19
  -3  -9   3  -38.30   90.89
  -3  -9   3   24.60   81.99
   2   9  -3  235.78  100.79
   2   9  -3  189.48   85.49
  -2  -9   3   97.89   86.09
  -2  -9   3  139.99   91.79
   1   9  -3  201.58   83.79
   1   9  -3   65.19   88.89
  -1  -9   3  249.28  103.99
  -1  -9   3  289.67   97.49
   0   9  -3   90.89   86.19
   0   9  -3  103.69   87.99
   0  -9   3   -9.60   89.59
   0  -9   3   82.69   90.29
  -1   9  -3  281.37  103.59
   1  -9   3  342.57  111.69
   1  -9   3  380.46  118.19
  -2   9  -3   16.70   93.69
  -2   9  -3  -12.90   80.49
   2  -9   3  159.98   97.99
   2  -9   3   55.19   93.69
  -3   9  -3  302.97  118.59
  -3   9  -3  420.76  111.69
   3  -9   3  355.46  106.99
   5   8  -3  -72.79   81.29
   5   8  -3  -41.30   96.29
  -5  -8   3   47.20   98.49
  -5  -8   3 -126.89   80.49
   4   8  -3  245.78  102.39
   4   8  -3  408.86  102.59
  -4  -8   3  533.65  119.89
  -4  -8   3  348.37  109.39
   3   8  -3  250.77   88.09
  -3  -8   3  157.18   98.59
  -3  -8   3  204.58   87.59
   2   8  -3  242.78   84.19
   2   8  -3  305.67  102.59
  -2  -8   3  213.58   88.99
  -2  -8   3  163.98   87.99
   1   8  -3  270.57   91.39
   1   8  -3  378.26   97.49
  -1  -8   3  208.68   91.29
  -1  -8   3  296.27   87.29
   0   8  -3  291.87   97.59
   0   8  -3  350.66   95.09
   0  -8   3   90.49   75.09
   0  -8   3  235.68   90.79
  -1   8  -3  289.17   97.49
  -1   8  -3  172.58   84.89
   1  -8   3  282.17   91.49
   1  -8   3  323.07  106.49
  -2   8  -3   48.10   85.49
  -2   8  -3   86.59   89.19
   2  -8   3   10.30   88.89
   2  -8   3   36.50   83.09
  -3   8  -3  562.44  115.99
  -3   8  -3  398.26  120.19
   3  -8   3  327.47  110.69
   3  -8   3  571.44  119.89
  -4   8  -3  -36.90   86.19
  -4   8  -3 -106.79   89.99
   4  -8   3 -189.78   88.19
   4  -8   3   81.19   89.79
  -5   8  -3  338.07  119.79
  -5   8  -3  408.06  124.29
   6   7  -3  339.67  109.09
   6   7  -3  309.97  116.19
  -6  -7   3  838.72  138.39
  -6  -7   3  555.74  120.69
   5   7  -3  -11.40   72.49
   5   7  -3   29.50   89.19
  -5  -7   3  -79.69   76.49
  -5  -7   3 -100.69   72.69
   4   7  -3  910.61  135.69
   4   7  -3  854.11  115.49
  -4  -7   3  847.72  126.69
  -4  -7   3  833.62  121.79
   3   7  -3   40.00   70.69
   3   7  -3   63.09   82.19
  -3  -7   3    9.10   70.99
  -3  -7   3  199.08   83.29
   2   7  -3  583.94  103.39
  -2  -7   3  272.77   84.89
  -2  -7   3  284.57   82.99
   1   7  -3  440.86   87.99
   1   7  -3  450.65   99.79
  -1  -7   3  413.56   95.69
  -1  -7   3  362.86   91.49
   0   7  -3  273.67   77.79
   0   7  -3  425.26   91.99
   0  -7   3  276.37   81.39
   0  -7   3  395.46   95.59
  -1   7  -3  535.55   95.79
  -1   7  -3  621.64  115.39
   1  -7   3  409.56   89.19
   1  -7   3  578.14  107.59
  -2   7  -3  -12.00   85.69
  -2   7  -3   61.19   77.19
   2  -7   3  113.69   86.99
   2  -7   3    9.10   62.99
  -3   7  -3  969.80  136.79
  -3   7  -3  923.11  130.09
   3  -7   3  892.61  125.89
   3  -7   3  892.11  118.39
  -4   7  -3   97.39   91.59
  -4   7  -3  -14.40   75.29
   4  -7   3   34.20   80.49
   4  -7   3   83.69   88.69
  -5   7  -3  483.05  118.49
  -5   7  -3  473.35  123.59
   5  -7   3  585.34  122.59
  -6   7  -3  -27.20   89.39
  -6   7  -3 -102.59   83.89
   6  -7   3   60.09   97.19
   7   6  -3  242.98  115.29
   7   6  -3  106.39   79.99
  -7  -6   3  291.17  103.59
  -7  -6   3   60.69   88.69
   6   6  -3  586.44  113.59
   6   6  -3  434.36  109.59
  -6  -6   3  546.75  115.79
  -6  -6   3  313.87  106.69
   5   6  -3   61.89   84.19
   5   6  -3  167.58   96.59
  -5  -6   3  105.29   85.39
  -5  -6   3  219.58   99.49
   4   6  -3 1158.38  138.19
   4   6  -3 1026.90  120.09
  -4  -6   3  984.90  120.29
  -4  -6   3  963.90  128.19
   3   6  -3   20.70   70.99
   3   6  -3   45.70   65.09
  -3  -6   3   77.59   68.89
  -3  -6   3   -8.30   62.39
   2   6  -3 1018.90  105.19
   2   6  -3 1240.58  127.79
  -2  -6   3  951.40  109.39
  -2  -6   3 1066.99  116.69
   1   6  -3  105.09   58.99
   1   6  -3  156.98   74.89
  -1  -6   3  103.59   65.99
  -1  -6   3  147.59   66.79
   0   6  -3  784.02   97.29
   0   6  -3  963.00  108.79
   0  -6   3  614.54   89.49
   0  -6   3  801.92  106.59
  -1   6  -3  844.22  108.79
  -1   6  -3  860.31  107.49
   1  -6   3  868.31   98.49
   1  -6   3  649.83   99.49
  -2   6  -3  453.85   96.69
  -2   6  -3  437.86   95.59
   2  -6   3  443.46   91.69
   2  -6   3  270.47   75.09
  -3   6  -3  986.90  115.29
  -3   6  -3  919.11  122.89
   3  -6   3 1054.19  115.09
   3  -6   3 1235.78  132.09
  -4   6  -3  121.29   87.19
  -4   6  -3  127.79   85.59
   4  -6   3  142.59   94.89
   4  -6   3  112.99   74.29
  -5   6  -3  926.01  129.79
  -5   6  -3  879.31  129.39
   5  -6   3  894.21  130.89
  -6   6  -3   14.00   86.09
  -6   6  -3  -94.89   84.79
   6  -6   3   54.49   91.99
  -7   6  -3  229.58  100.69
   7  -6   3  223.48  111.49
   8   5  -3  130.19  112.09
  -8  -5   3  385.36  125.29
   7   5  -3  199.58  103.69
   7   5  -3  102.29   82.49
  -7  -5   3  117.69   92.69
  -7  -5   3  308.17  104.49
   6   5  -3  481.35   92.69
   6   5  -3  423.06  101.89
  -6  -5   3  691.33  118.99
  -6  -5   3  553.34  111.89
   5   5  -3  407.46   88.39
   5   5  -3   48.40   80.19
  -5  -5   3  198.88   92.49
  -5  -5   3  135.19   85.29
   4   5  -3  563.04   94.19
   4   5  -3  574.74  100.19
  -4  -5   3  496.05   92.49
  -4  -5   3  531.45  100.79
   3   5  -3    7.50   54.99
   3   5  -3  133.39   72.69
  -3  -5   3   64.29   66.49
  -3  -5   3  -25.50   53.09
   2   5  -3  915.41   97.69
   2   5  -3 1000.50  105.79
  -2  -5   3  915.41   98.19
  -2  -5   3 1101.89  112.79
   1   5  -3  -45.00   47.20
  -1  -5   3   51.99   58.29
  -1  -5   3   -6.50   51.19
   0   5  -3  729.43   88.79
   0   5  -3  660.93   81.69
   0  -5   3  614.24   89.29
   0  -5   3  760.22   90.99
  -1   5  -3   96.59   32.50
  -1   5  -3    5.00   52.09
  -1   5  -3   88.09   62.29
   1  -5   3   69.89   60.19
   1  -5   3   73.99   66.29
  -2   5  -3 1066.39  106.89
  -2   5  -3 1123.39   78.79
  -2   5  -3 1094.89  108.99
   2  -5   3 1235.98  110.59
   2  -5   3 1084.09  101.89
  -3   5  -3  669.73   76.29
  -3   5  -3  858.71  108.79
  -3   5  -3  567.04   90.49
   3  -5   3  649.14   82.69
   3  -5   3  836.32  106.59
  -4   5  -3  491.35   79.69
  -4   5  -3  304.27   84.19
  -4   5  -3  231.88   84.49
   4  -5   3  392.86   79.09
   4  -5   3  350.76   90.59
  -5   5  -3  570.64   94.99
  -5   5  -3  998.90  130.39
  -5   5  -3  618.44  109.79
   5  -5   3  562.04  111.59
   5  -5   3  791.92   95.89
  -6   5  -3  211.48   95.89
  -6   5  -3   -0.10   75.89
  -6   5  -3   75.09   82.09
   6  -5   3   91.79   88.99
  -7   5  -3  486.95  119.59
  -7   5  -3  449.76  110.79
   7  -5   3  509.25  119.29
  -8   5  -3  -62.29   94.09
  -8   5  -3   70.09   86.19
   8   4  -3  182.58  102.29
  -8  -4   3  292.57  111.99
   7   4  -3  308.17  102.79
   7   4  -3  559.64   98.49
  -7  -4   3  567.64  111.69
  -7  -4   3  489.75  111.69
   6   4  -3  960.60  122.99
   6   4  -3  993.10  112.09
  -6  -4   3  821.82  114.69
  -6  -4   3  980.60  112.09
  -6  -4   3  732.63  112.89
   5   4  -3  464.45   78.79
   5   4  -3  601.54   97.49
  -5  -4   3  828.82   94.89
  -5  -4   3  632.74   95.99
  -5  -4   3  670.83  101.29
   4   4  -3 1747.03  123.59
   4   4  -3 1606.64  113.89
  -4  -4   3 1860.81  131.29
  -4  -4   3 1885.81  132.19
  -4  -4   3 1661.13  101.19
   3   4  -3   56.19   58.19
   3   4  -3  -17.00   55.69
  -3  -4   3   14.80   57.39
  -3  -4   3   -3.10   63.89
   2   4  -3 1626.14  107.59
   2   4  -3 1508.05   95.89
  -2  -4   3 1709.53  107.79
  -2  -4   3 1679.03  114.69
   1   4  -3   61.29   47.90
  -1  -4   3   70.29   55.19
  -1  -4   3  -28.50   43.90
   0   4  -3 1974.90  102.39
   0   4  -3 1972.00   45.30
   0   4  -3 2241.78  109.89
   0  -4   3 2072.09  112.19
   0  -4   3 1988.00  103.99
  -1   4  -3  480.35   40.90
  -1   4  -3  400.66   71.89
  -1   4  -3  380.86   69.49
   1  -4   3  414.16   68.29
   1  -4   3  296.47   63.39
  -2   4  -3 1270.87   73.09
  -2   4  -3 1292.07  115.99
  -2   4  -3 1193.88   98.39
   2  -4   3 1197.28   97.19
   2  -4   3 1251.07   93.59
  -3   4  -3  474.15   64.99
  -3   4  -3  440.36   74.99
  -3   4  -3  425.96   79.29
   3  -4   3  486.65   68.39
   3  -4   3  451.65   82.99
  -4   4  -3  608.74   92.59
  -4   4  -3  472.15   83.49
  -4   4  -3  591.64   83.49
   4  -4   3  513.65   92.59
   4  -4   3  580.04   74.19
  -5   4  -3  759.42  102.19
  -5   4  -3  524.95   95.39
  -5   4  -3  861.41  107.19
   5  -4   3  609.94   80.19
   5  -4   3  898.01  115.39
  -6   4  -3  112.09   82.69
  -6   4  -3  283.77   93.09
  -6   4  -3  223.38   85.09
   6  -4   3  192.58   91.49
  -7   4  -3  210.78   90.39
  -7   4  -3  532.05  118.29
   7  -4   3  518.45  111.09
  -8   4  -3  -75.89   96.79
  -8   4  -3  118.49   96.99
   8  -4   3   70.79   93.39
   9   3  -3  145.39  114.09
  -9  -3   3   28.70   93.79
   8   3  -3   -8.60   93.99
  -8  -3   3  287.07  102.59
  -8  -3   3  102.19   88.79
   7   3  -3  432.36  104.29
  -7  -3   3  831.72  118.49
  -7  -3   3  771.62  115.09
  -7  -3   3  501.15  109.69
   6   3  -3  522.15   82.09
   6   3  -3  459.35   98.29
  -6  -3   3  409.36   91.19
  -6  -3   3  296.17   83.59
  -6  -3   3  404.46   97.29
   5   3  -3  417.36   72.19
   5   3  -3  377.16   83.19
  -5  -3   3  590.44   90.89
  -5  -3   3  595.44   94.39
  -5  -3   3  366.86   73.19
   4   3  -3 1452.15   97.29
   4   3  -3 1213.68   95.89
  -4  -3   3 1385.76  118.39
  -4  -3   3 1305.37  102.99
  -4  -3   3 1311.57   95.09
   3   3  -3  713.73   80.59
   3   3  -3  666.93   68.99
  -3  -3   3  796.22   85.39
  -3  -3   3  654.23   83.69
  -3  -3   3  761.62   64.39
   2   3  -3 2776.72  109.59
   2   3  -3 2791.72  111.19
  -2  -3   3 2852.41  118.99
  -2  -3   3 2673.53  110.89
   1   3  -3   15.00   42.70
   1   3  -3  -39.10   38.70
  -1  -3   3  -64.49   44.20
  -1  -3   3  -36.10   46.50
   0   3  -3 3352.96  113.89
   0   3  -3 3231.08  110.09
   0  -3   3 3264.37  114.69
   0  -3   3 3222.48  119.09
  -1   3  -3  219.68   50.69
  -1   3  -3  256.17   59.29
  -1   3  -3  227.38   31.10
   1  -3   3  221.48   47.20
   1  -3   3  189.58   51.79
  -2   3  -3 2352.56  120.49
  -2   3  -3 2411.36   87.19
  -2   3  -3 2279.97  105.69
   2  -3   3 2398.66   96.99
   2  -3   3 2388.56  111.19
  -3   3  -3  712.23   86.29
  -3   3  -3  937.21   79.69
  -3   3  -3  798.62   78.99
   3  -3   3  768.02   82.59
   3  -3   3  794.82   67.69
  -4   3  -3 1347.67  112.69
  -4   3  -3 1138.49  100.99
  -4   3  -3 1072.39  103.89
   4  -3   3 1225.68  110.89
   4  -3   3 1143.99   78.79
  -5   3  -3  845.52   98.09
  -5   3  -3  982.70  102.89
  -5   3  -3 1082.59  107.29
   5  -3   3 1224.58  114.09
   5  -3   3 1242.18   84.29
  -6   3  -3  268.37   91.59
  -6   3  -3  274.57   76.89
  -6   3  -3  298.37   82.99
   6  -3   3  321.57   77.29
   6  -3   3  418.56   90.69
  -7   3  -3  667.63  123.29
  -7   3  -3  525.35  105.99
   7  -3   3  742.83  101.99
   7  -3   3  838.12  117.79
  -8   3  -3   27.00   92.89
  -8   3  -3   33.30   80.69
   8  -3   3   55.89   89.49
  -9   3  -3  257.37  123.39
  -9   3  -3  187.08   95.59
   9   2  -3  326.17  119.49
  -9  -2   3  261.07  105.49
  -9  -2   3  179.28   98.49
   8   2  -3  -70.19   81.19
  -8  -2   3  142.09   87.89
  -8  -2   3  163.78   95.49
   7   2  -3  420.96  104.99
  -7  -2   3  625.64  108.09
  -7  -2   3  398.26   98.19
  -7  -2   3  646.34  105.29
   6   2  -3  253.87   61.09
   6   2  -3  178.68   74.09
  -6  -2   3  193.78   77.59
  -6  -2   3  187.38   78.49
  -6  -2   3  276.77   78.89
   5   2  -3  663.33   89.99
   5   2  -3  670.33   72.29
  -5  -2   3  638.64   88.39
  -5  -2   3  617.54   86.19
  -5  -2   3  680.83   97.99
   4   2  -3  648.44   80.49
   4   2  -3  510.95   60.49
  -4  -2   3  582.74   82.79
  -4  -2   3  566.94   82.29
  -4  -2   3  550.04   69.99
   3   2  -3  659.93   68.89
   3   2  -3  803.52   67.69
  -3  -2   3  756.42   62.39
  -3  -2   3  704.53   76.59
  -3  -2   3  725.83   75.49
   2   2  -3  907.61   70.49
   2   2  -3  881.91   71.59
  -2  -2   3 1008.50   77.49
  -2  -2   3  718.53   70.59
  -2  -2   3  943.41   54.29
   1   2  -3 1087.89   69.09
   1   2  -3 1092.59   68.49
   1   2  -3 1028.90   33.50
  -1  -2   3 1130.69   84.99
  -1  -2   3 1129.79   33.90
  -1  -2   3 1089.49   69.19
   0   2  -3 1555.84   90.89
   0   2  -3 1624.14   80.29
   0   2  -3 1582.14   72.89
   0  -2   3 1722.13   74.89
   0  -2   3 1646.04   84.49
  -1   2  -3  539.55   44.10
  -1   2  -3  709.83   54.89
  -1   2  -3  745.93   68.39
   1  -2   3  768.42   60.99
   1  -2   3  568.44   56.19
  -2   2  -3 2125.49   81.29
  -2   2  -3 2208.18   87.89
  -2   2  -3 2172.98   99.09
   2  -2   3 2031.50   75.19
   2  -2   3 2260.77   90.79
  -3   2  -3  351.56   53.39
  -3   2  -3  272.77   61.39
  -3   2  -3  315.37   59.29
   3  -2   3  403.66   63.19
   3  -2   3  294.67   40.70
  -4   2  -3 1713.93  104.99
  -4   2  -3 1477.25  105.09
  -4   2  -3 1634.94  108.79
   4  -2   3 1693.73   71.99
   4  -2   3 1737.63  107.29
  -5   2  -3  808.82   93.49
  -5   2  -3  743.23   86.29
  -5   2  -3  831.62   88.89
   5  -2   3  859.81   84.19
   5  -2   3 1038.40  105.79
  -6   2  -3  480.05   87.39
  -6   2  -3  399.36   78.79
  -6   2  -3  296.37   84.09
   6  -2   3  375.76   84.29
   6  -2   3  532.65   83.59
  -7   2  -3 1009.10  129.99
  -7   2  -3  733.53  110.39
   7  -2   3  769.12  116.39
   7  -2   3  633.94   93.19
  -8   2  -3  179.98  106.09
  -8   2  -3   46.40   83.89
   8  -2   3  259.37  101.19
  -9   2  -3  315.97  124.89
  -9   2  -3  344.17  108.09
   9  -2   3  299.77  109.39
   9   1  -3  320.77  117.19
  -9  -1   3  375.26  124.69
  -9  -1   3  436.56  126.19
   8   1  -3    0.80   90.39
  -8  -1   3    3.00   79.29
  -8  -1   3  -41.20   82.29
   7   1  -3  994.80  125.59
  -7  -1   3 1474.85  134.59
  -7  -1   3  598.44  101.99
  -7  -1   3 1091.39  132.59
   6   1  -3  667.83   96.29
  -6  -1   3  661.63  105.49
  -6  -1   3  792.52  101.59
  -6  -1   3  627.54  103.69
   5   1  -3 1938.71   84.99
   5   1  -3 1892.71  119.69
  -5  -1   3 1896.61  121.59
  -5  -1   3 1870.11  127.89
  -5  -1   3 1962.40  127.29
   4   1  -3 1841.72   75.29
   4   1  -3 1848.81  103.49
  -4  -1   3 1751.72  102.19
  -4  -1   3 1692.33  104.69
  -4  -1   3 1725.93  103.29
   3   1  -3  727.13   36.70
   3   1  -3  672.33   52.79
   3   1  -3  713.13   65.59
  -3  -1   3  828.22   76.19
  -3  -1   3  793.92   76.09
  -3  -1   3  797.32   69.09
   2   1  -3 1813.72   59.39
   2   1  -3 1853.61   68.29
   2   1  -3 1907.21   78.09
  -2  -1   3 2035.70   86.29
  -2  -1   3 1730.73   70.69
  -2  -1   3 1745.23   91.39
   1   1  -3  181.08   37.30
   1   1  -3  119.59   36.80
   1   1  -3  265.07   35.30
  -1  -1   3  258.97   36.60
  -1  -1   3  184.38   45.90
  -1  -1   3  239.78   30.50
   0   1  -3 1013.20   35.40
   0   1  -3  993.30   64.09
   0   1  -3  931.91   31.40
   0  -1   3 1070.69   62.49
   0  -1   3  923.71   44.60
  -1   1  -3   24.20   24.20
  -1   1  -3   37.30   23.90
  -1   1  -3   82.89   33.00
  -1   1  -3   67.99   41.70
   1  -1   3   87.79   30.80
   1  -1   3   17.10   28.30
  -2   1  -3 1081.19   76.89
  -2   1  -3 1140.49   62.69
  -2   1  -3 1126.69   72.19
   2  -1   3 1052.89   65.79
   2  -1   3 1072.09   46.20
  -3   1  -3   23.50   46.80
  -3   1  -3   79.79   47.00
  -3   1  -3   38.50   38.60
   3  -1   3   58.19   21.80
   3  -1   3   77.39   43.80
  -4   1  -3 1209.08   93.39
  -4   1  -3 1284.67   90.49
  -4   1  -3 1184.58  100.79
   4  -1   3 1278.77   90.69
   4  -1   3 1300.27   86.29
  -5   1  -3   32.40   64.49
  -5   1  -3  144.69   61.39
  -5   1  -3  199.98   58.29
   5  -1   3  164.88   63.99
   5  -1   3  123.59   58.39
  -6   1  -3 1159.88  112.19
  -6   1  -3 1151.48  102.89
  -6   1  -3  937.31  109.49
   6  -1   3 1028.90  109.59
   6  -1   3 1182.28  107.49
  -7   1  -3  614.94  117.29
  -7   1  -3  473.55   92.89
   7  -1   3  401.76   78.09
   7  -1   3  460.75   95.69
  -8   1  -3  243.78   93.99
  -8   1  -3  197.98  106.49
   8  -1   3  161.78   95.69
  -9   1  -3  165.48  106.79
  -9   1  -3  211.78   94.09
   9  -1   3   61.39  101.09
   9   0  -3   48.40   98.89
  -9   0   3  170.38  117.39
  -9   0   3  199.08  111.99
   8   0  -3   64.39   96.79
  -8   0   3  140.89   92.19
  -8   0   3 -243.68   67.99
   7   0  -3  658.53  106.19
  -7   0   3  789.22  108.49
  -7   0   3  640.34  106.69
  -7   0   3  747.43  117.09
   6   0  -3  174.38   72.69
  -6   0   3  211.98   75.99
  -6   0   3  158.08   71.49
  -6   0   3  273.37   86.49
   5   0  -3 1555.24  109.59
   5   0  -3 1611.54   68.29
  -5   0   3 1675.33  125.29
  -5   0   3 1514.25  113.59
  -5   0   3 1592.74  114.69
   4   0  -3  714.73   73.59
   4   0  -3  748.33   46.70
  -4   0   3  762.12   87.39
  -4   0   3  705.33   81.69
  -4   0   3  897.41   87.29
   3   0  -3 2882.41   99.99
   3   0  -3 2785.82   66.79
  -3   0   3 2818.12  111.89
  -3   0   3 2836.32  106.99
   2   0  -3 2826.62   61.89
   2   0  -3 2701.83   51.89
   2   0  -3 2934.01   83.29
  -2   0   3 2933.61   92.49
  -2   0   3 2747.03   54.09
  -2   0   3 2931.91  101.39
   1   0  -3 1260.77   40.00
   1   0  -3 1345.27   55.69
   1   0  -3 1265.87   40.50
  -1   0   3 1284.27   69.89
  -1   0   3 1289.37   51.29
   0   0  -3 3877.91   93.49
  -1   0  -3  351.66   49.60
   1   0   3  311.77   27.50
   1   0   3  339.27   32.20
   1   0   3  333.07   26.40
  -2   0  -3 3009.50   75.99
  -2   0  -3 3042.40  107.99
  -2   0  -3 3048.09  105.89
   2   0   3 3103.19   52.19
   2   0   3 3067.29   82.59
   2   0   3 3185.68   97.99
  -3   0  -3  225.78   50.49
  -3   0  -3  279.87   58.29
  -3   0  -3  180.58   42.30
   3   0   3  169.18   52.89
   3   0   3  211.28   48.20
  -4   0  -3 1734.53  110.79
  -4   0  -3 1850.11   96.99
  -4   0  -3 1673.63   94.79
   4   0   3 1876.61  100.19
   4   0   3 1756.62   97.89
  -5   0  -3  840.72   86.49
  -5   0  -3  690.83   95.09
  -5   0  -3  971.10   86.79
   5   0   3  842.82   86.39
   5   0   3  700.43   84.79
  -6   0  -3  902.21  112.79
  -6   0  -3  707.23   79.99
  -6   0  -3  779.42   95.99
   6   0   3  921.01  104.59
   6   0   3  767.22   85.19
  -7   0  -3  218.38   96.29
  -7   0  -3  105.79   76.89
   7   0   3  319.87   83.59
   7   0   3  301.37   86.99
  -8   0  -3  114.19   78.19
  -8   0  -3  218.58   96.69
   8   0   3  155.58   78.79
   8   0   3  148.69   97.59
  -9   0  -3  255.67   97.69
  -9   0  -3  298.87  110.29
   9   0   3   21.30   94.29
   9  -1  -3   74.79  100.19
  -9   1   3  490.35  137.89
  -9   1   3  353.96  115.39
   8  -1  -3  -66.39   78.49
  -8   1   3   45.60   85.49
  -8   1   3   66.29   88.29
   7  -1  -3  755.92  109.29
  -7   1   3  959.30  126.59
  -7   1   3  797.12  120.29
  -7   1   3  894.11  115.59
   6  -1  -3   12.60   66.99
  -6   1   3   97.69   74.19
  -6   1   3    9.60   64.29
   5  -1  -3 1193.18  105.49
  -5   1   3 1247.08  107.99
  -5   1   3 1373.36  122.09
   4  -1  -3  218.58   55.69
   4  -1  -3  163.08   21.20
  -4   1   3  170.58   63.39
  -4   1   3  163.48   58.89
   3  -1  -3 1248.48   76.59
  -3   1   3 1222.18   91.09
  -3   1   3 1211.48   94.69
  -3   1   3 1198.58   33.60
   2  -1  -3  645.04   51.29
  -2   1   3  479.35   52.89
  -2   1   3  586.44   69.69
   1  -1  -3  796.42   39.70
  -1   1   3  797.02   29.80
  -1   1   3  924.81   74.29
  -1   1   3  781.72   54.29
   0  -1  -3  336.57   41.00
   0   1   3  345.27   25.60
   0   1   3  375.86   36.20
   0   1   3  350.66   24.90
   0   1   3  343.97   60.19
  -1  -1  -3 1075.89   66.89
  -1  -1  -3 1040.00   25.20
  -1  -1  -3 1062.29   26.70
   1   1   3 1071.29   65.99
   1   1   3 1041.20   41.70
  -2  -1  -3 3087.89   80.49
  -2  -1  -3 3047.99  105.49
   2   1   3 2905.61   81.99
   2   1   3 3020.80   96.49
   2   1   3 3038.40   65.99
  -3  -1  -3  -18.10   43.50
  -3  -1  -3   39.80   42.70
  -3  -1  -3   16.30   36.20
   3   1   3   19.20   42.90
   3   1   3   46.30   39.40
  -4  -1  -3 1802.42   94.79
  -4  -1  -3 1718.33   91.39
  -4  -1  -3 1605.54  102.79
   4   1   3 1742.83   91.59
   4   1   3 1608.64   95.79
  -5  -1  -3   44.40   52.89
  -5  -1  -3   27.10   55.19
  -5  -1  -3   50.99   47.30
   5   1   3  173.28   65.49
   5   1   3  106.49   51.79
  -6  -1  -3 1245.28   93.59
  -6  -1  -3 1221.08  118.79
  -6  -1  -3  895.81   96.29
   6   1   3 1094.29  116.69
   6   1   3 1059.79  101.79
  -7  -1  -3  416.76  102.59
  -7  -1  -3  251.57   80.49
   7   1   3  442.46   97.39
   7   1   3  322.37   82.29
  -8  -1  -3  370.86  115.99
  -8  -1  -3  375.96   96.39
   8   1   3  332.57  101.39
   8   1   3  236.48   86.89
  -9  -1  -3  290.87   99.59
  -9  -1  -3  109.19   93.59
   9   1   3  285.37  112.19
   9  -2  -3  241.58  109.29
  -9   2   3  149.59  104.99
  -9   2   3  598.44  136.29
   8  -2  -3   33.50   88.89
  -8   2   3  126.99   95.49
  -8   2   3  114.09   97.79
   7  -2  -3 1015.40  121.99
  -7   2   3  964.00  135.89
  -7   2   3  990.40  131.59
   6  -2  -3   28.20   61.09
  -6   2   3  -46.50   59.09
  -6   2   3   80.89   79.29
   5  -2  -3 2017.40  121.89
  -5   2   3 2035.10  137.69
  -5   2   3 2053.59  141.39
   4  -2  -3  236.08   60.49
  -4   2   3  167.98   64.09
  -4   2   3  253.27   37.50
  -4   2   3  212.88   62.99
   3  -2  -3 1528.75   82.69
  -3   2   3 1768.72  102.69
  -3   2   3 1673.03  108.69
   2  -2  -3  501.65   52.89
  -2   2   3  453.25   60.39
  -2   2   3  399.86   63.29
   1  -2  -3  586.24   50.59
  -1   2   3  689.73   71.19
  -1   2   3  732.43   37.80
  -1   2   3  793.22   64.39
   0  -2  -3 1899.81   80.09
   0  -2  -3 1866.91   59.89
   0   2   3 1796.92   75.69
   0   2   3 1751.52  101.99
   0   2   3 1914.91   62.09
  -1  -2  -3  410.26   45.50
  -1  -2  -3  303.57   36.80
   1   2   3  287.57   42.80
   1   2   3  353.66   43.60
  -2  -2  -3  598.54   51.39
  -2  -2  -3  621.64   47.50
   2   2   3  608.94   58.99
   2   2   3  639.04   57.79
  -3  -2  -3  206.18   32.00
  -3  -2  -3  174.18   45.90
   3   2   3  265.77   54.49
   3   2   3  160.78   52.89
  -4  -2  -3 1771.52   59.49
  -4  -2  -3 1830.12   95.89
   4   2   3 1755.42  102.59
   4   2   3 1752.82  103.69
  -5  -2  -3   37.10   52.79
  -5  -2  -3   77.99   58.19
   5   2   3   48.80   56.59
   5   2   3   34.60   60.79
  -6  -2  -3  998.20  105.29
  -6  -2  -3 1117.29  124.69
   6   2   3  949.40   98.89
   6   2   3  801.82  103.39
  -7  -2  -3  283.27   82.09
  -7  -2  -3  106.19   80.49
   7   2   3  168.28   90.09
   7   2   3  170.38   71.39
  -8  -2  -3  659.53  130.79
  -8  -2  -3  523.05  106.59
   8   2   3  466.95  104.19
   8   2   3  519.15  117.89
  -9  -2  -3  127.09   91.79
  -9  -2  -3  363.66  121.19
   9   2   3   29.20   93.89
   9   2   3  133.29   93.49
   8  -3  -3  -29.40   87.49
  -8   3   3  208.28  104.09
  -8   3   3  114.99  106.19
   7  -3  -3  406.56  101.09
  -7   3   3  450.95  108.59
  -7   3   3  578.64  121.79
   6  -3  -3  -24.10   67.69
  -6   3   3  104.09   85.39
  -6   3   3   34.90   73.09
   5  -3  -3 1243.08  111.89
  -5   3   3 1301.17  123.89
  -5   3   3 1264.97  128.19
   4  -3  -3  -15.30   53.59
  -4   3   3   45.10   57.29
  -4   3   3  -27.20   55.59
   3  -3  -3 3392.06  119.99
  -3   3   3 3457.65  146.79
  -3   3   3 3382.06  140.69
   2  -3  -3  865.61   71.79
  -2   3   3  728.33   83.59
  -2   3   3  667.53   75.89
  -2   3   3  714.03   47.00
   1  -3  -3 2556.24   90.09
   1  -3  -3 2480.25  104.69
  -1   3   3 2425.26  120.89
  -1   3   3 2585.84  111.69
  -1   3   3 2316.67   72.39
   0  -3  -3 1812.42   87.99
   0  -3  -3 1741.13   78.29
   0   3   3 1807.72  115.09
   0   3   3 1869.21   73.79
   0   3   3 1757.32   94.29
  -1  -3  -3  720.73   66.09
  -1  -3  -3  843.32   63.99
   1   3   3  913.21   75.39
   1   3   3  916.11   64.89
  -2  -3  -3 1530.35   80.69
  -2  -3  -3 1504.35   77.39
   2   3   3 1543.45   84.59
   2   3   3 1370.46   85.29
  -3  -3  -3   95.39   46.80
  -3  -3  -3   29.10   31.40
   3   3   3   33.40   49.60
   3   3   3   48.30   49.99
  -4  -3  -3  911.41   85.29
  -4  -3  -3  975.30   63.39
   4   3   3 1070.69  100.79
   4   3   3  917.71   85.69
  -5  -3  -3   40.00   36.30
  -5  -3  -3   65.79   57.29
   5   3   3   56.19   64.59
   5   3   3  198.48   68.39
  -6  -3  -3  577.94   88.29
   6   3   3  607.24   88.49
   6   3   3  566.04   97.99
  -7  -3  -3  146.39   79.19
   7   3   3    2.50   65.19
   7   3   3  -55.89   67.29
  -8  -3  -3  214.38   83.59
   8   3   3  243.48   98.19
   8   3   3  341.97  101.49
  -9  -3  -3  153.08   96.09
   9   3   3   74.99  107.39
   9   3   3  304.77  110.39
   8  -4  -3  -28.20   84.59
  -8   4   3  106.99  102.99
  -8   4   3  -57.39  100.19
   7  -4  -3  435.86  105.89
  -7   4   3  278.97   98.29
  -7   4   3  130.09   94.79
   6  -4  -3  -27.80   72.39
  -6   4   3   93.79   92.29
  -6   4   3  155.88   91.59
   5  -4  -3 1026.20  115.09
  -5   4   3  789.72  113.59
  -5   4   3  814.92  115.69
   4  -4  -3  -75.89   57.09
  -4   4   3  128.79   65.89
  -4   4   3  115.59   73.19
   3  -4  -3 1630.44  103.39
  -3   4   3 1746.63  118.89
  -3   4   3 1643.84  115.29
   2  -4  -3   40.40   50.59
   2  -4  -3  -12.00   48.50
  -2   4   3   80.79   58.69
  -2   4   3  -29.30   62.29
  -2   4   3   36.30   34.70
   1  -4  -3 3309.97  129.19
   1  -4  -3 3370.96  118.49
  -1   4   3 3192.28   97.19
  -1   4   3 3116.49  132.59
  -1   4   3 3388.56  134.99
   0  -4  -3   38.80   43.40
   0  -4  -3   45.60   50.69
   0   4   3  161.88   63.59
   0   4   3   -5.90   52.29
   0   4   3   25.30   38.50
  -1  -4  -3 2929.21  108.69
  -1  -4  -3 2925.31  119.09
   1   4   3 2736.43  123.89
   1   4   3 2590.94  105.19
  -2  -4  -3  927.51   79.99
  -2  -4  -3  885.61   79.39
   2   4   3  786.82   83.39
   2   4   3  881.91   79.29
  -3  -4  -3 1260.87   87.69
  -3  -4  -3 1296.67   97.09
   3   4   3 1197.98  104.29
   3   4   3 1228.48   98.89
  -4  -4  -3 1095.79   99.29
  -4  -4  -3 1291.57   82.39
   4   4   3 1113.49  102.29
   4   4   3 1267.47  115.09
  -5  -4  -3   44.40   45.50
  -5  -4  -3   11.20   56.39
   5   4   3   90.89   76.49
   5   4   3  142.19   72.39
  -6  -4  -3 1168.78  124.59
   6   4   3 1093.49  116.49
   6   4   3 1102.99  128.79
  -7  -4  -3   89.09   75.69
   7   4   3  233.88   98.99
   7   4   3   46.30   86.89
  -8  -4  -3  554.04  108.09
   8   4   3  706.63  123.29
   8   4   3  525.65  128.39
  -9  -4  -3   14.60   85.79
   9   4   3  -67.59   97.59
   9   4   3  -76.49   98.39
   7  -5  -3  106.49   92.49
  -7   5   3  261.57  114.99
  -7   5   3  328.17  106.69
   6  -5  -3  117.29   84.79
  -6   5   3  115.09   89.29
  -6   5   3  232.68  104.99
   5  -5  -3 1306.17  126.39
  -5   5   3  919.11  117.49
  -5   5   3  682.23  115.79
   4  -5  -3   36.00   67.79
  -4   5   3   41.60   72.49
  -4   5   3   55.69   73.39
   3  -5  -3 1291.97  119.09
   3  -5  -3 1292.97  109.29
  -3   5   3 1228.08  116.39
  -3   5   3 1756.92  152.28
   2  -5  -3  -93.39   49.10
   2  -5  -3   24.10   55.59
  -2   5   3   19.10   62.49
  -2   5   3   13.30   73.79
  -2   5   3   51.29   45.40
   1  -5  -3 1389.96  114.69
   1  -5  -3 1598.74  102.19
  -1   5   3 1336.67  114.79
  -1   5   3 1324.77  113.29
  -1   5   3 1373.46   84.09
   0  -5  -3   74.19   54.99
   0  -5  -3    1.90   47.80
   0   5   3  100.79   48.90
   0   5   3   58.09   55.09
  -1  -5  -3  969.80   96.09
  -1  -5  -3  850.81   82.09
   1   5   3  848.62   79.99
   1   5   3  899.91   98.79
   1   5   3 1174.38  113.19
  -2  -5  -3  118.29   59.09
  -2  -5  -3  190.58   61.89
   2   5   3  111.79   59.99
   2   5   3  122.39   66.39
  -3  -5  -3  679.83   84.29
  -3  -5  -3  678.83   77.39
   3   5   3  723.13   86.19
   3   5   3  945.31  109.49
  -4  -5  -3  544.45   75.89
  -4  -5  -3  430.26   79.99
   4   5   3  547.35   94.49
   4   5   3  578.24   96.99
  -5  -5  -3  433.76   74.59
  -5  -5  -3  509.45   92.99
   5   5   3  425.46   95.29
   5   5   3  483.95   93.69
  -6  -5  -3  907.21  118.69
   6   5   3 1020.20  131.09
   6   5   3  582.04  106.39
  -7  -5  -3   88.59   82.09
   7   5   3  153.98   97.19
   7   5   3   74.49   98.19
  -8  -5  -3  458.05  111.89
   8   5   3  661.63  126.69
   8   5   3  343.77  112.49
   7  -6  -3  -23.40   91.29
  -7   6   3  101.39  105.49
  -7   6   3  128.49   99.49
   6  -6  -3  314.87  102.79
  -6   6   3  161.48   84.49
  -6   6   3  308.27  107.29
   5  -6  -3  725.63  115.69
  -5   6   3  558.44  124.19
  -5   6   3  489.45  109.49
   4  -6  -3  246.28   83.59
  -4   6   3  160.98   80.39
  -4   6   3  259.27   97.19
   3  -6  -3 1807.52  134.09
   3  -6  -3 1478.85  135.99
  -3   6   3 1562.64  127.99
  -3   6   3 1426.66  150.38
   2  -6  -3  -32.30   59.29
   2  -6  -3  152.68   70.09
  -2   6   3  116.99   81.59
  -2   6   3   18.50   64.89
  -2   6   3  103.29   54.49
   1  -6  -3 1634.24  115.49
   1  -6  -3 1602.74  130.69
  -1   6   3 1530.75  128.49
  -1   6   3 1551.34  101.29
  -1   6   3 1584.34  142.59
   0  -6  -3   57.89   61.89
   0  -6  -3  -21.30   53.59
   0   6   3    8.10   68.19
   0   6   3  164.38   59.09
   0   6   3  -39.20   57.79
  -1  -6  -3  966.60  106.79
  -1  -6  -3 1170.58  109.19
   1   6   3  827.82  107.49
   1   6   3 1132.59   96.49
   1   6   3 1109.59  116.49
  -2  -6  -3  134.19   67.69
  -2  -6  -3   62.89   61.09
   2   6   3  225.58   66.09
   2   6   3   26.60   71.49
   2   6   3  242.48   85.59
  -3  -6  -3  252.47   71.59
  -3  -6  -3  582.74   91.59
   3   6   3  332.37   87.29
   3   6   3  414.86   79.79
  -4  -6  -3  624.64   89.79
  -4  -6  -3  475.25   87.99
   4   6   3  504.65  100.69
   4   6   3  655.83  102.69
  -5  -6  -3   65.09   66.59
  -5  -6  -3  153.18   81.89
   5   6   3   90.39   82.09
   5   6   3  102.49   72.39
  -6  -6  -3  436.96  101.49
   6   6   3  448.96  107.49
   6   6   3  181.68   94.89
  -7  -6  -3   16.30   78.59
   7   6   3   34.50   83.39
   7   6   3  -12.70   89.69
  -8  -6  -3  335.37  101.29
   8   6   3  265.97  101.69
   8   6   3  271.87  128.69
   6  -7  -3  265.07  105.49
  -6   7   3  122.99  111.49
  -6   7   3  251.17  109.29
   5  -7  -3  304.57  100.69
  -5   7   3  230.08  110.49
  -5   7   3  353.06  112.89
   4  -7  -3  444.16  104.79
  -4   7   3  281.47  107.59
  -4   7   3  282.97   88.09
   3  -7  -3  846.22  131.29
   3  -7  -3  690.43  106.59
  -3   7   3  842.82  118.09
  -3   7   3  832.82  140.49
   2  -7  -3  228.38   97.09
   2  -7  -3  217.78   79.79
  -2   7   3   33.80   84.89
  -2   7   3  222.28   70.99
  -2   7   3  244.08   85.29
   1  -7  -3 1337.97  137.49
   1  -7  -3 1472.95  133.29
  -1   7   3 1320.27  112.19
  -1   7   3 1125.29  139.59
  -1   7   3 1267.37  123.89
   0  -7  -3   49.70   63.39
   0  -7  -3   47.80   67.49
   0   7   3   31.90   59.89
   0   7   3  132.59   91.79
   0   7   3   94.89   70.49
  -1  -7  -3 1844.32  137.69
  -1  -7  -3 1492.25  128.59
   1   7   3 1495.05  146.29
   1   7   3 1422.36  115.79
   1   7   3 1578.04  135.19
  -2  -7  -3   -5.70   71.29
  -2  -7  -3   50.19   78.19
   2   7   3   71.19   80.09
   2   7   3   90.89   64.89
   2   7   3  114.19   78.09
  -3  -7  -3  902.31  110.79
  -3  -7  -3 1046.80  123.69
   3   7   3  844.12  109.79
   3   7   3  725.43  115.59
  -4  -7  -3   65.39   72.99
  -4  -7  -3  219.68   83.29
   4   7   3  290.27  101.89
   4   7   3  184.88   86.29
  -5  -7  -3  371.66   94.49
  -5  -7  -3  402.96   92.49
   5   7   3  386.86  108.69
   5   7   3  294.17   91.69
  -6  -7  -3  318.47   96.19
   6   7   3  264.97  110.19
   6   7   3  307.07  109.69
  -7  -7  -3  118.39   94.69
   7   7   3   48.80  106.29
   7   7   3  -94.39   91.89
   5  -8  -3  141.09  101.39
  -5   8   3  143.09   93.99
  -5   8   3  333.07  127.69
   4  -8  -3  174.48   95.39
  -4   8   3  192.18   97.29
  -4   8   3  136.19  104.39
   3  -8  -3  359.36  119.09
   3  -8  -3  505.45  108.29
  -3   8   3  305.17   93.39
  -3   8   3  499.05  133.79
   2  -8  -3  208.78  100.79
   2  -8  -3   70.89   85.19
  -2   8   3    9.70  105.19
  -2   8   3  100.79   82.59
   1  -8  -3  706.23  114.09
   1  -8  -3  583.94  110.79
  -1   8   3  706.03  110.09
  -1   8   3  406.16   91.89
  -1   8   3  794.02  140.09
   0  -8  -3  -42.30   73.19
   0  -8  -3   41.10   69.79
   0   8   3  -19.70   77.49
   0   8   3  -45.10   71.99
   0   8   3   43.40   67.99
  -1  -8  -3  683.73  116.49
  -1  -8  -3  639.14  118.99
   1   8   3  643.24  104.39
   1   8   3  717.33  109.59
  -2  -8  -3  -52.09   70.19
  -2  -8  -3  -42.30   84.29
   2   8   3  -36.70   86.09
   2   8   3    6.00   77.19
   2   8   3 -106.09   65.19
  -3  -8  -3  746.03  113.29
  -3  -8  -3  745.43  115.99
   3   8   3  668.23  131.89
   3   8   3  837.72  119.19
  -4  -8  -3   35.40   86.29
  -4  -8  -3 -102.29   70.29
   4   8   3  111.89   90.69
   4   8   3   37.70   86.49
  -5  -8  -3  329.07   93.99
   5   8   3  638.44  118.09
   5   8   3  489.95  125.69
  -6  -8  -3   63.09   89.09
   6   8   3  251.87  104.49
   6   8   3  137.09  106.59
   3  -9  -3  148.49   93.89
   3  -9  -3  480.85  124.89
  -3   9   3  576.94  144.49
   2  -9  -3  245.08  115.39
   2  -9  -3   -4.60   86.29
  -2   9   3  -14.10   99.19
   1  -9  -3  467.75  114.19
   1  -9  -3  433.66  110.29
  -1   9   3  923.51  151.98
   0  -9  -3  -39.10   90.19
   0  -9  -3   99.29   84.29
   0   9   3   55.89   99.29
   0   9   3   32.90   76.79
  -1  -9  -3  451.35  118.49
  -1  -9  -3  606.14  112.69
   1   9   3  397.86  102.79
   1   9   3  363.36  114.09
  -2  -9  -3   39.80   80.19
  -2  -9  -3   38.10   94.59
   2   9   3   96.09   82.39
  -3  -9  -3  288.37   94.79
  -3  -9  -3  370.26  115.29
   3   9   3  388.66  113.59
   3   9   3  124.89   98.99
  -4  -9  -3  103.39   93.39
  -4  -9  -3   26.50   78.99
   4   9   3   68.99  105.69
   4   9   3   57.59   85.29
  -5  -9  -3  205.58  101.79
   0 -10  -3  105.69   90.19
   0  10   3   90.79   88.39
  -1 -10  -3  534.55  116.89
   1  10   3  430.36  110.19
  -2 -10  -3  136.19  101.59
   3   9  -4  139.59   94.19
   3   9  -4  -85.09   90.59
  -3  -9   4  -24.90   86.39
  -3  -9   4   86.99   88.39
   2   9  -4  286.57  104.69
   2   9  -4  427.36  113.39
  -2  -9   4  430.66  120.89
  -2  -9   4  249.38  104.09
   1   9  -4  210.98   98.99
   1   9  -4   83.29   80.29
  -1  -9   4  -19.90   85.29
  -1  -9   4  -14.00   90.49
   0   9  -4   97.29   88.99
   0   9  -4  192.78   94.39
   0  -9   4  187.38   88.99
   0  -9   4  229.98  102.79
  -1   9  -4  297.07  121.79
  -1   9  -4  321.27  104.39
   1  -9   4  150.38  110.39
   1  -9   4  107.59   88.69
  -2   9  -4   37.80   85.79
  -2   9  -4  143.59  108.49
   2  -9   4  -59.79   94.89
   2  -9   4   87.29   86.99
  -3   9  -4  476.85  122.99
   5   8  -4  196.08   99.69
   5   8  -4   15.90   96.89
  -5  -8   4   37.90   95.79
  -5  -8   4  114.19   93.39
   4   8  -4  200.98  108.19
   4   8  -4  421.16  104.29
  -4  -8   4  332.67  105.79
  -4  -8   4  488.65  123.09
   3   8  -4  -41.30   78.39
   3   8  -4   41.90   84.99
  -3  -8   4  -33.10   75.19
  -3  -8   4   29.70   86.29
   2   8  -4  349.17  103.39
   2   8  -4  314.57   89.49
  -2  -8   4  232.08   94.19
  -2  -8   4  231.58   96.99
   1   8  -4   43.80   68.59
   1   8  -4   54.39   80.09
  -1  -8   4   51.49   80.89
  -1  -8   4  160.18   92.59
   0   8  -4  254.97   85.89
   0   8  -4  271.17   97.19
   0  -8   4  275.47   96.39
   0  -8   4  180.08   92.49
  -1   8  -4  184.78   99.59
  -1   8  -4   -6.00   77.49
   1  -8   4   93.29   96.09
   1  -8   4   91.19   78.79
  -2   8  -4  324.87  103.99
  -2   8  -4  155.08   88.89
   2  -8   4  160.28   92.19
   2  -8   4  113.79   94.79
  -3   8  -4   37.70   85.59
  -3   8  -4  183.08   91.49
   3  -8   4  195.38  104.19
   3  -8   4  138.99   95.59
  -4   8  -4  120.49  106.59
  -4   8  -4   65.79   86.29
   4  -8   4  -43.90   80.99
   4  -8   4  -82.59   97.99
   6   7  -4  441.96  107.69
   6   7  -4  593.84  128.99
  -6  -7   4  585.34  118.19
  -6  -7   4  294.47  112.09
   5   7  -4 -140.99   68.09
   5   7  -4  -76.79   87.49
  -5  -7   4   56.39   91.49
  -5  -7   4    3.80   81.09
   4   7  -4  748.53  119.89
   4   7  -4  684.73  109.39
  -4  -7   4 1137.59  139.89
  -4  -7   4  605.94  113.69
   3   7  -4   23.20   71.29
   3   7  -4   48.60   86.09
  -3  -7   4  124.29   83.69
  -3  -7   4  189.58   87.59
   2   7  -4 1058.99  123.79
   2   7  -4 1198.18  135.59
  -2  -7   4  893.71  120.79
  -2  -7   4 1097.19  130.29
   1   7  -4  267.27   83.99
   1   7  -4  236.58   77.79
  -1  -7   4  211.98   81.29
  -1  -7   4  352.76   86.39
   0   7  -4  428.86   97.29
   0   7  -4  483.55  100.59
   0  -7   4  447.46  100.09
   0  -7   4  354.46   94.59
  -1   7  -4  543.45  108.99
  -1   7  -4  418.36   95.39
   1  -7   4  390.66   89.29
   1  -7   4  547.85  112.49
  -2   7  -4  266.47   85.99
  -2   7  -4  517.85  113.39
   2  -7   4  245.68   92.89
   2  -7   4  387.96   90.19
  -3   7  -4  380.36  100.39
  -3   7  -4  321.37   98.99
   3  -7   4  482.65  116.79
   3  -7   4  422.26  101.79
  -4   7  -4   13.40   77.19
  -4   7  -4   53.59   86.69
   4  -7   4   76.69   75.49
   4  -7   4  147.19   97.39
  -5   7  -4  316.37  104.89
  -5   7  -4  245.68  108.69
   5  -7   4  387.76  122.29
  -6   7  -4 -106.99   87.39
  -6   7  -4   25.80   92.29
   6  -7   4  -34.90   85.19
   7   6  -4  -25.20   97.69
   7   6  -4  142.29   92.49
  -7  -6   4  182.38  113.39
  -7  -6   4   71.59   97.69
   6   6  -4  500.35  117.19
   6   6  -4  408.86  103.19
  -6  -6   4  454.85  118.59
  -6  -6   4  552.84  121.39
   5   6  -4   98.09   90.69
   5   6  -4   78.69   83.69
  -5  -6   4   19.70   84.59
  -5  -6   4   21.50   78.39
   4   6  -4 1033.50  128.19
   4   6  -4  773.02  115.29
  -4  -6   4  875.41  120.69
  -4  -6   4 1022.90  132.39
   3   6  -4  -22.90   66.79
   3   6  -4  -68.69   68.69
  -3  -6   4    7.90   65.29
  -3  -6   4   34.80   68.49
   2   6  -4 1145.69  115.49
  -2  -6   4 1246.48  130.79
  -2  -6   4 1020.60  122.39
   1   6  -4    7.10   58.69
   1   6  -4   48.70   62.79
  -1  -6   4    1.30   68.39
  -1  -6   4    2.60   68.59
   0   6  -4 1112.49  118.39
   0   6  -4 1190.18  118.29
   0  -6   4 1203.48  118.89
   0  -6   4 1087.79  125.89
  -1   6  -4  416.46   91.89
  -1   6  -4  559.14   95.19
   1  -6   4  297.07   77.19
   1  -6   4  479.95   99.29
  -2   6  -4  441.76   93.99
  -2   6  -4  405.56   88.19
   2  -6   4  471.95   85.79
   2  -6   4  464.45  100.09
  -3   6  -4  638.84  105.39
  -3   6  -4  805.62  115.89
   3  -6   4  615.94  108.89
   3  -6   4  726.43   98.29
  -4   6  -4  -32.60   82.09
  -4   6  -4   52.19   78.89
   4  -6   4   27.70   69.39
   4  -6   4  -91.29   75.39
  -5   6  -4  490.45  104.79
  -5   6  -4  501.05  109.49
   5  -6   4  499.55  117.29
  -6   6  -4  -32.20   79.79
  -6   6  -4 -135.49   74.59
   6  -6   4  -35.80   84.19
  -7   6  -4  352.36  114.49
   8   5  -4  -36.00  101.89
  -8  -5   4  107.89  105.19
   7   5  -4  158.58  102.79
   7   5  -4  128.99   87.39
  -7  -5   4  177.78   99.89
  -7  -5   4  149.29  105.29
   6   5  -4  606.04  115.09
   6   5  -4  420.46   99.29
  -6  -5   4  516.15  118.59
  -6  -5   4  497.35  114.09
   5   5  -4    4.50   69.39
   5   5  -4   15.40   77.59
  -5  -5   4   14.60   73.89
  -5  -5   4  -47.90   80.59
   4   5  -4  657.33   95.89
   4   5  -4 1038.30  118.89
  -4  -5   4  995.60  122.89
  -4  -5   4  938.81  123.59
   3   5  -4  149.49   71.89
   3   5  -4  148.19   74.19
  -3  -5   4   39.40   69.19
  -3  -5   4  287.87   86.69
   2   5  -4  983.50  100.89
   2   5  -4 1032.70  104.69
  -2  -5   4 1062.49  110.29
  -2  -5   4  888.31  100.29
   1   5  -4   21.90   54.59
   1   5  -4   -0.30   52.29
  -1  -5   4  -30.80   58.79
  -1  -5   4   27.30   57.49
   0   5  -4 1034.90  100.69
   0   5  -4 1104.69  107.49
   0  -5   4 1021.60  102.19
   0  -5   4  912.21   97.39
  -1   5  -4  -55.99   58.99
  -1   5  -4  -11.80   55.29
   1  -5   4   42.10   65.79
   1  -5   4   34.70   51.79
  -2   5  -4  476.15   80.39
  -2   5  -4  556.74   92.09
   2  -5   4  663.83   84.89
   2  -5   4  509.35   89.39
  -3   5  -4  103.29   51.89
  -3   5  -4  177.48   76.09
  -3   5  -4  196.98   71.89
   3  -5   4   39.50   62.99
   3  -5   4  182.18   67.79
  -4   5  -4  434.86   89.19
  -4   5  -4  512.15   81.29
  -4   5  -4  408.76   97.19
   4  -5   4  519.85   87.59
   4  -5   4  387.86   90.89
  -5   5  -4  548.55   96.29
  -5   5  -4  603.84  108.29
  -5   5  -4  635.84  114.79
   5  -5   4  353.46   95.29
  -6   5  -4    4.90   76.89
  -6   5  -4   69.79   81.99
  -6   5  -4   47.10   82.69
   6  -5   4   90.19   83.39
  -7   5  -4  502.35  111.89
  -7   5  -4  458.05  110.49
   7  -5   4  400.16  118.89
   8   4  -4  214.38  106.69
  -8  -4   4  113.99  100.29
   7   4  -4   92.59   89.59
  -7  -4   4  489.75  115.29
  -7  -4   4  548.85  119.49
   6   4  -4  660.53  114.59
   6   4  -4  803.72  101.79
  -6  -4   4  740.63  126.09
  -6  -4   4  665.43  113.59
   5   4  -4  423.56   84.49
   5   4  -4  394.26   85.79
  -5  -4   4  484.75   96.99
  -5  -4   4  284.17   82.39
   4   4  -4 2309.37  122.59
   4   4  -4 2253.67  133.79
  -4  -4   4 2344.47  146.09
  -4  -4   4 2615.04  153.08
   3   4  -4   72.09   60.49
   3   4  -4   55.69   52.79
  -3  -4   4   77.49   69.29
  -3  -4   4  153.28   64.69
   2   4  -4 2512.55  118.09
   2   4  -4 2350.86  115.99
  -2  -4   4 2268.57  124.49
  -2  -4   4 2250.47  118.19
   1   4  -4   -1.10   48.20
   1   4  -4   20.00   48.00
  -1  -4   4   21.30   50.09
  -1  -4   4    8.50   53.39
   0   4  -4 1405.86  105.39
   0   4  -4 1608.24   96.99
   0   4  -4 1408.46  103.29
   0  -4   4 1337.37  101.89
   0  -4   4 1263.77   95.29
  -1   4  -4   68.39   25.20
  -1   4  -4  144.99   54.49
  -1   4  -4  143.89   62.49
   1  -4   4   64.79   60.29
   1  -4   4  115.29   51.69
  -2   4  -4  774.92   92.99
  -2   4  -4  730.83   79.29
  -2   4  -4  678.43   62.59
   2  -4   4  591.54   74.99
   2  -4   4  866.91   96.29
  -3   4  -4  134.39   48.90
  -3   4  -4  164.58   74.49
  -3   4  -4   74.49   62.49
   3  -4   4  149.88   65.29
   3  -4   4  195.68   57.79
  -4   4  -4  305.77   68.09
  -4   4  -4  325.87   78.29
  -4   4  -4  198.18   80.89
   4  -4   4  297.17   83.89
   4  -4   4  246.28   62.39
  -5   4  -4   69.49   76.19
  -5   4  -4  202.68   77.99
  -5   4  -4  224.18   73.29
   5  -4   4  170.78   81.09
  -6   4  -4  105.09   81.29
  -6   4  -4  203.08   84.29
  -6   4  -4  305.37   93.09
   6  -4   4  123.49   84.69
  -7   4  -4  333.57   98.79
  -7   4  -4  352.76  101.79
   7  -4   4  278.37  105.29
   7  -4   4  319.97   94.09
  -8   4  -4   55.99  101.99
  -8   4  -4   57.69   87.69
   8  -4   4   26.20   84.89
   8   3  -4   18.00   93.19
  -8  -3   4  -41.60   83.79
  -8  -3   4   67.79   96.49
   7   3  -4  309.67   95.79
  -7  -3   4  575.14  117.09
  -7  -3   4  277.27  102.29
  -7  -3   4  342.17   97.39
   6   3  -4  377.96   78.09
   6   3  -4  473.35   97.09
  -6  -3   4  664.83  111.19
  -6  -3   4  474.25  106.69
  -6  -3   4  585.44   95.89
   5   3  -4  980.30  105.69
   5   3  -4 1112.69  100.19
  -5  -3   4  768.92  100.59
  -5  -3   4  953.20  118.19
  -5  -3   4  952.80   97.99
   4   3  -4 1070.89   92.79
   4   3  -4  960.60   94.99
  -4  -3   4 1157.68  114.99
  -4  -3   4  903.51   97.69
  -4  -3   4 1081.69   87.29
   3   3  -4 1009.20   89.69
   3   3  -4  864.01   79.29
  -3  -3   4  911.41   66.29
  -3  -3   4  754.02   83.59
  -3  -3   4  778.52   94.39
   2   3  -4 2768.12  110.29
   2   3  -4 2654.43  108.79
  -2  -3   4 2762.02   70.69
  -2  -3   4 2824.12  124.29
  -2  -3   4 2685.23  116.99
   1   3  -4  775.52   76.49
   1   3  -4  811.22   75.89
  -1  -3   4  629.54   73.09
  -1  -3   4  642.14   67.59
   0   3  -4 3005.80  104.59
   0   3  -4 3076.19  116.19
   0   3  -4 3058.69  120.89
   0  -3   4 3012.60  112.39
   0  -3   4 2930.91  115.19
  -1   3  -4   98.69   54.39
  -1   3  -4   88.99   26.10
  -1   3  -4   86.19   43.30
   1  -3   4  109.89   49.10
   1  -3   4  148.79   49.20
  -2   3  -4 2385.16   85.69
  -2   3  -4 2619.64  106.19
  -2   3  -4 2306.37  118.19
   2  -3   4 2415.06   99.99
   2  -3   4 2300.77  112.19
  -3   3  -4  579.34   65.99
  -3   3  -4  542.95   70.39
  -3   3  -4  582.74   80.09
   3  -3   4  678.83   83.39
   3  -3   4  588.94   62.59
  -4   3  -4  856.61   89.99
  -4   3  -4  927.31   92.29
  -4   3  -4 1051.09  108.29
   4  -3   4 1205.78  109.79
   4  -3   4  964.50   74.69
  -5   3  -4  562.84   93.09
  -5   3  -4  579.04   90.69
  -5   3  -4  727.33   98.29
   5  -3   4  518.55   88.99
  -6   3  -4  180.18   78.49
  -6   3  -4  148.49   78.39
  -6   3  -4  157.58   73.99
   6  -3   4  237.38   80.29
   6  -3   4  195.78   84.59
  -7   3  -4  484.65  104.79
  -7   3  -4  329.67   93.69
  -7   3  -4  335.87   90.79
   7  -3   4  533.65  116.49
   7  -3   4  384.56   91.69
  -8   3  -4   17.50   95.59
  -8   3  -4   36.40   82.49
   8  -3   4 -114.99   81.79
   9   2  -4  249.88  117.09
  -9  -2   4  233.88  115.49
  -9  -2   4  302.87  117.19
   8   2  -4  -11.20   88.69
  -8  -2   4   60.09   95.39
  -8  -2   4   25.90   89.09
   7   2  -4  628.84  113.09
  -7  -2   4  554.14  110.39
  -7  -2   4  615.14  113.59
  -7  -2   4  545.25  117.39
   6   2  -4  416.86   91.19
  -6  -2   4  515.45  102.79
  -6  -2   4  416.06   89.79
  -6  -2   4  277.97   91.69
   5   2  -4 1091.19  108.19
   5   2  -4 1079.59   85.89
  -5  -2   4  924.41  103.79
  -5  -2   4 1161.68  103.79
  -5  -2   4  883.71  103.59
   4   2  -4 1025.50   81.29
   4   2  -4  976.00   58.09
   4   2  -4 1038.40   91.89
  -4  -2   4  976.80   86.49
  -4  -2   4 1148.99  105.79
  -4  -2   4 1077.99   99.29
   3   2  -4  898.91   76.29
   3   2  -4  966.80   61.19
   3   2  -4  907.71   79.39
  -3  -2   4  979.50   82.69
  -3  -2   4  876.01   87.49
  -3  -2   4  992.50   71.69
   2   2  -4 1900.31   83.69
   2   2  -4 1964.00   84.29
   2   2  -4 1886.21   83.29
  -2  -2   4 1936.91   92.09
  -2  -2   4 1741.33  100.09
  -2  -2   4 1944.31   67.19
   1   2  -4  477.25   56.09
   1   2  -4  681.13   63.59
  -1  -2   4  505.95   63.59
  -1  -2   4  602.34   56.29
  -1  -2   4  522.65   30.10
   0   2  -4 1541.25   93.79
   0   2  -4 1803.12   66.49
   0  -2   4 1730.03   47.30
   0  -2   4 1679.63   74.59
   0  -2   4 1628.64   90.69
  -1   2  -4  358.26   57.29
  -1   2  -4  359.86   40.80
   1  -2   4  347.97   49.90
   1  -2   4  377.06   50.09
  -2   2  -4 1542.85   93.59
  -2   2  -4 1588.74   76.19
  -2   2  -4 1610.34   77.89
   2  -2   4 1744.93   74.59
   2  -2   4 1664.73   87.29
  -3   2  -4  132.49   59.09
  -3   2  -4   10.80   40.00
  -3   2  -4   -7.70   42.20
   3  -2   4   -1.00   44.40
   3  -2   4   61.69   31.10
  -4   2  -4 1610.64  100.99
  -4   2  -4 1530.35   98.59
  -4   2  -4 1685.23  116.99
   4  -2   4 1458.25  103.89
   4  -2   4 1554.64   68.79
  -5   2  -4  387.56   80.59
  -5   2  -4  303.97   71.39
  -5   2  -4  396.46   72.59
   5  -2   4  501.75   87.29
   5  -2   4  368.76   75.89
  -6   2  -4  604.94   90.99
  -6   2  -4  592.14   94.09
  -6   2  -4  558.74   97.09
   6  -2   4  600.54   98.79
   6  -2   4  718.53   97.69
  -7   2  -4  357.86   86.99
  -7   2  -4  406.56   86.69
  -7   2  -4  515.65  116.29
   7  -2   4  604.14  110.59
   7  -2   4  443.86   92.29
  -8   2  -4  230.98  108.39
  -8   2  -4   57.79   78.99
   8  -2   4    6.70   83.19
  -9   2  -4  330.27  106.29
  -9   2  -4  408.76  126.09
   9  -2   4  146.69  100.49
   9   1  -4  131.49  102.19
  -9  -1   4  115.19   96.39
  -9  -1   4  218.88  118.59
   8   1  -4   70.59   89.49
  -8  -1   4   51.39   90.19
  -8  -1   4  128.09   95.29
   7   1  -4  921.61  119.89
  -7  -1   4  823.22  125.99
  -7  -1   4  722.43  119.89
  -7  -1   4  890.21  118.39
   6   1  -4  159.28   74.99
  -6  -1   4  151.58   74.19
  -6  -1   4  -57.49   70.39
  -6  -1   4  234.38   83.39
   5   1  -4 1213.28   73.09
   5   1  -4 1420.46  110.59
  -5  -1   4 1376.66  121.99
  -5  -1   4 1156.08  110.79
  -5  -1   4 1285.07  114.69
   4   1  -4 1152.38   93.09
   4   1  -4  986.20   66.29
  -4  -1   4 1038.90   90.39
  -4  -1   4  904.71   91.89
  -4  -1   4 1024.10   95.39
   3   1  -4 2053.29   77.19
   3   1  -4 2086.29   58.29
   3   1  -4 2145.19   94.69
  -3  -1   4 2134.09  102.49
  -3  -1   4 1989.30  109.09
  -3  -1   4 1992.00   91.29
   2   1  -4 2126.99   76.29
   2   1  -4 2140.99   76.89
   2   1  -4 2185.28   69.79
  -2  -1   4 2190.38  104.29
  -2  -1   4 2234.38   86.29
  -2  -1   4 2189.88   82.49
   1   1  -4  409.26   32.70
   1   1  -4  461.35   47.90
  -1  -1   4  560.14   67.59
  -1  -1   4  494.75   42.00
  -1  -1   4  468.15   42.20
   0   1  -4 2479.65   95.09
   0  -1   4 2588.14   95.99
   0  -1   4 2490.35   61.19
  -1   1  -4  584.34   61.19
   1  -1   4  506.75   46.00
   1  -1   4  523.05   47.60
  -2   1  -4 1828.12   61.29
  -2   1  -4 1617.44   82.09
  -2   1  -4 1751.02   94.49
   2  -1   4 1749.12   61.69
   2  -1   4 1724.03   73.29
  -3   1  -4   61.29   46.60
  -3   1  -4  118.39   50.19
  -3   1  -4   67.09   37.20
   3  -1   4  105.59   23.20
   3  -1   4  141.29   45.10
  -4   1  -4  768.32   86.49
  -4   1  -4  786.22   71.39
  -4   1  -4  688.03   78.09
   4  -1   4  594.84   71.79
   4  -1   4  592.84   72.19
  -5   1  -4   33.90   64.29
  -5   1  -4   14.70   49.90
  -5   1  -4   71.39   56.79
   5  -1   4   52.49   50.99
   5  -1   4   25.80   58.59
  -6   1  -4  663.63   88.59
  -6   1  -4  625.54   88.19
  -6   1  -4  510.05   94.69
   6  -1   4  381.46   74.29
   6  -1   4  590.94   95.19
  -7   1  -4  146.99   77.09
  -7   1  -4  308.57   75.79
  -7   1  -4  180.48   87.19
   7  -1   4  134.19   74.59
   7  -1   4  235.18   83.39
  -8   1  -4  254.47  112.69
  -8   1  -4  255.87   92.39
   8  -1   4  351.36  105.79
   8  -1   4  348.27   89.49
  -9   1  -4  189.18   89.89
  -9   1  -4  220.78  120.89
   9  -1   4   46.10   97.69
   9   0  -4  106.59  102.79
  -9   0   4  184.98  119.39
  -9   0   4  166.48   98.09
   8   0  -4   93.19   90.19
  -8   0   4   41.40   90.99
  -8   0   4  -88.99   74.99
   7   0  -4  752.32  111.49
  -7   0   4  602.64  113.39
  -7   0   4  743.43  113.49
  -7   0   4  734.13  115.39
   6   0  -4  152.58   69.19
  -6   0   4   49.30   68.59
  -6   0   4  145.99   77.69
  -6   0   4   70.29   75.29
   5   0  -4 2421.76  123.99
  -5   0   4 1749.32  121.89
  -5   0   4 2060.19  126.79
  -5   0   4 2256.47  137.39
   4   0  -4  931.91   82.39
   4   0  -4  869.11   48.30
  -4   0   4  815.92   85.99
  -4   0   4  921.51   96.39
  -4   0   4  878.11   83.89
   3   0  -4 3371.26   74.19
   3   0  -4 3381.56  104.39
  -3   0   4 3399.56  126.39
  -3   0   4 3293.27  118.69
   2   0  -4 2333.67   63.09
   2   0  -4 2380.36   73.49
  -2   0   4 2461.95   88.39
  -2   0   4 2503.05   99.99
   1   0  -4 5332.27  111.89
  -1   0   4 5200.28   95.09
  -1   0   4 5359.96  128.99
   0   0  -4 6414.46  134.99
  -1   0  -4 1283.17   78.79
   1   0   4 1281.07   57.99
   1   0   4 1173.38   30.10
   1   0   4 1180.38   29.20
  -2   0  -4 3269.57   64.69
  -2   0  -4 3249.77   64.39
  -2   0  -4 3240.48  117.69
   2   0   4 3501.95   84.39
   2   0   4 3253.17  107.19
   2   0   4 3408.36   71.89
  -3   0  -4   98.59   50.39
  -3   0  -4    8.80   49.40
  -3   0  -4   12.40   30.70
   3   0   4   36.20   45.20
   3   0   4   65.19   38.60
  -4   0  -4 2007.30   91.69
  -4   0  -4 1776.82   98.39
  -4   0  -4 1755.82  107.89
   4   0   4 1807.82   97.89
   4   0   4 2067.59  102.09
  -5   0  -4   62.69   54.69
  -5   0  -4   92.69   60.49
  -5   0  -4   39.70   49.50
   5   0   4   55.19   59.19
   5   0   4  -31.20   51.59
  -6   0  -4  404.56   98.39
  -6   0  -4  399.76   75.09
  -6   0  -4  606.54   86.09
   6   0   4  319.77   75.29
   6   0   4  401.36   75.09
  -7   0  -4  339.97   83.19
  -7   0  -4  242.58   87.69
  -7   0  -4  414.76   77.69
   7   0   4  154.48   82.39
   7   0   4  350.06   85.09
  -8   0  -4  166.08   82.49
  -8   0  -4  171.38   95.79
   8   0   4  120.79   80.89
   8   0   4  134.29   92.89
  -9   0  -4   16.90  104.19
  -9   0  -4  136.89   90.39
   9   0   4  146.79  101.09
   9  -1  -4   75.39   98.99
  -9   1   4  265.47  111.99
  -9   1   4  294.77  124.69
   8  -1  -4    8.00   86.19
  -8   1   4   67.79   87.19
  -8   1   4  -99.69   83.29
   7  -1  -4  446.26   95.29
  -7   1   4  261.17  100.69
  -7   1   4  480.85  104.39
  -7   1   4  247.08  103.19
   6  -1  -4   44.50   64.59
  -6   1   4  196.68   85.79
  -6   1   4   63.19   72.89
   5  -1  -4  875.21   91.69
  -5   1   4  753.12  100.29
  -5   1   4  775.02   97.29
   4  -1  -4  253.07   55.49
  -4   1   4  214.98   69.59
  -4   1   4  258.47   64.29
   3  -1  -4 2534.85   91.89
  -3   1   4 2341.97  112.99
  -3   1   4 2661.13  114.19
   2  -1  -4 1871.21   66.19
  -2   1   4 1675.93   94.29
  -2   1   4 1804.92   81.79
   1  -1  -4 3000.80   46.40
   1  -1  -4 2949.10   47.20
  -1   1   4 3003.70  119.49
  -1   1   4 3014.20   64.39
  -1   1   4 2907.31   77.69
   0  -1  -4 1567.54   78.49
   0   1   4 1648.04   61.29
   0   1   4 1816.52  100.29
   0   1   4 1539.65   31.20
   0   1   4 1514.25   33.60
  -1  -1  -4 3368.36  108.69
   1   1   4 3575.34   96.19
   1   1   4 3474.65   62.99
  -2  -1  -4 1797.62   51.89
  -2  -1  -4 1831.32   49.40
  -2  -1  -4 1884.81   92.19
   2   1   4 1885.21   64.59
   2   1   4 1840.72   85.79
  -3  -1  -4  701.13   58.49
  -3  -1  -4  678.93   69.69
   3   1   4  686.93   73.69
   3   1   4  645.24   24.50
   3   1   4  744.63   63.19
  -4  -1  -4 2539.35  110.59
  -4  -1  -4 2468.05  100.59
  -4  -1  -4 2454.25  123.59
   4   1   4 2309.57  107.59
   4   1   4 2477.55  109.89
  -5  -1  -4   62.59   50.59
  -5  -1  -4   16.30   48.90
  -5  -1  -4   34.20   57.79
   5   1   4   57.89   51.19
   5   1   4    9.90   57.29
  -6  -1  -4 1338.47  105.39
  -6  -1  -4 1362.96  134.69
  -6  -1  -4 1360.56  115.79
   6   1   4 1502.15  118.89
   6   1   4 1492.25  129.49
  -7  -1  -4  232.08   78.19
  -7  -1  -4  304.37  103.39
  -7  -1  -4  174.88   64.19
   7   1   4  326.97   94.19
   7   1   4  243.88   79.39
  -8  -1  -4  474.65  100.39
  -8  -1  -4  473.25  108.29
   8   1   4  564.34  112.99
   8   1   4  668.73  108.79
  -9  -1  -4  331.87   99.79
  -9  -1  -4  288.67  111.49
   9   1   4  350.26  106.79
   9   1   4  135.19   94.49
   8  -2  -4  -42.70   81.39
  -8   2   4  -62.89   85.39
  -8   2   4   98.89  101.69
   7  -2  -4  249.18   88.39
  -7   2   4  313.07   97.19
  -7   2   4  343.57   97.39
   6  -2  -4   80.89   69.49
  -6   2   4  -25.70   66.19
  -6   2   4  -51.79   63.89
   5  -2  -4 1282.67  110.99
  -5   2   4 1463.05  130.69
  -5   2   4 1281.07  128.39
   4  -2  -4  129.09   53.29
  -4   2   4  154.48   68.89
  -4   2   4  169.68   71.69
   3  -2  -4 1828.42   84.39
  -3   2   4 1805.02  117.79
  -3   2   4 1691.63  102.59
   2  -2  -4  536.45   49.80
  -2   2   4  562.74   63.09
  -2   2   4  538.85   72.39
   1  -2  -4 1983.80   61.49
  -1   2   4 2033.10   84.29
  -1   2   4 2036.60   55.19
  -1   2   4 1985.20  114.49
   0  -2  -4  755.72   34.80
   0  -2  -4  836.52   34.50
   0   2   4  809.82   83.39
   0   2   4  841.02   50.89
   0   2   4  853.51   60.39
  -1  -2  -4  696.33   36.90
   1   2   4  702.23   54.39
   1   2   4  713.23   58.39
  -2  -2  -4 1040.30   55.49
  -2  -2  -4 1081.39   59.29
   2   2   4  844.42   69.89
   2   2   4 1055.89   66.69
  -3  -2  -4  416.86   37.90
  -3  -2  -4  377.56   49.90
   3   2   4  440.66   58.29
   3   2   4  368.66   58.89
  -4  -2  -4  454.35   60.39
  -4  -2  -4  426.96   35.90
   4   2   4  461.25   73.39
   4   2   4  436.66   68.59
  -5  -2  -4   29.00   51.29
   5   2   4   17.90   58.99
   5   2   4   10.50   57.19
  -6  -2  -4  934.31   97.99
  -6  -2  -4 1043.70  123.69
   6   2   4 1015.70  116.89
   6   2   4 1000.80  109.99
  -7  -2  -4  112.19   88.39
  -7  -2  -4   11.10   63.99
   7   2   4   81.29   77.39
   7   2   4    0.40   67.09
  -8  -2  -4  320.47   87.79
  -8  -2  -4  510.65  125.69
   8   2   4  452.85   93.89
   8   2   4  252.57   99.39
  -9  -2  -4  242.78  117.39
  -9  -2  -4  167.98   87.39
   9   2   4  197.58  111.09
   9   2   4   55.99   88.79
   8  -3  -4    6.60   86.59
  -8   3   4  -34.70   91.59
  -8   3   4   92.39   96.39
   7  -3  -4  464.15  101.59
  -7   3   4  486.45  117.69
  -7   3   4  707.33  129.39
   6  -3  -4   44.20   71.79
  -6   3   4  -22.20   73.59
  -6   3   4  -12.00   73.49
   5  -3  -4 1525.85  118.79
  -5   3   4 1752.62  146.79
  -5   3   4 1459.65  138.69
   4  -3  -4  -84.49   47.20
  -4   3   4    5.20   63.89
  -4   3   4   68.29   65.19
   3  -3  -4 3112.69  116.39
  -3   3   4 2927.81  136.49
  -3   3   4 3084.89  141.49
   2  -3  -4  190.28   45.30
  -2   3   4  255.17   63.99
  -2   3   4  164.78   60.19
  -2   3   4  174.98   28.00
   1  -3  -4 3967.70  103.59
  -1   3   4 3840.92  146.19
  -1   3   4 3921.41   90.79
  -1   3   4 3847.72  128.99
   0  -3  -4  599.44   70.09
   0  -3  -4  626.54   55.19
   0   3   4  566.14   79.39
   0   3   4  679.63   68.69
   0   3   4  659.23   55.19
  -1  -3  -4 1914.01   91.39
  -1  -3  -4 1806.52   72.99
   1   3   4 1900.81   90.09
   1   3   4 1743.03   84.29
  -2  -3  -4 1037.70   67.99
  -2  -3  -4 1099.99   67.79
   2   3   4 1208.18   84.69
   2   3   4 1245.18   78.99
  -3  -3  -4  736.83   60.29
  -3  -3  -4  838.62   70.79
   3   3   4  820.92   81.39
   3   3   4  742.23   76.89
  -4  -3  -4 1069.19   63.99
  -4  -3  -4  958.40   85.99
   4   3   4 1193.68  104.29
   4   3   4 1108.09   98.59
  -5  -3  -4  139.39   59.89
   5   3   4  102.99   69.49
   5   3   4  -27.20   62.59
  -6  -3  -4  341.67   78.89
   6   3   4  706.23  109.69
   6   3   4  562.54   88.59
  -7  -3  -4   25.10   67.09
   7   3   4  132.49   84.39
   7   3   4  -54.49   77.69
  -8  -3  -4  333.87   96.39
   8   3   4  296.27   91.99
   8   3   4  326.07  112.89
  -9  -3  -4    9.40   80.39
   9   3   4   98.59  108.69
   9   3   4   56.79  105.09
   8  -4  -4   35.20   94.09
  -8   4   4  149.79  102.59
  -8   4   4   14.60  107.19
   7  -4  -4  152.18   87.19
  -7   4   4  241.48   99.39
  -7   4   4   74.99   95.59
   6  -4  -4 -101.39   61.09
  -6   4   4   38.30   82.39
  -6   4   4  111.49   88.19
   5  -4  -4  781.82   97.89
  -5   4   4  850.91  122.49
  -5   4   4  607.24  105.69
   4  -4  -4   89.39   60.89
  -4   4   4  120.79   67.09
  -4   4   4   56.99   77.69
   3  -4  -4 2123.49  109.89
  -3   4   4 2041.80  130.89
  -3   4   4 2136.29  137.19
   2  -4  -4   57.89   45.60
  -2   4   4   48.30   56.09
  -2   4   4   39.70   64.29
  -2   4   4  132.99   36.60
   1  -4  -4 2661.83  123.59
   1  -4  -4 2866.21  104.89
  -1   4   4 2742.73  134.19
  -1   4   4 2691.63   87.79
  -1   4   4 2838.72  136.69
   0  -4  -4  669.63   61.59
   0  -4  -4  739.63   83.59
   0   4   4  665.63   60.69
   0   4   4  576.04   78.79
   0   4   4  548.05   84.49
  -1  -4  -4 2429.76   97.89
  -1  -4  -4 2623.94  109.49
   1   4   4 2692.53  119.99
   1   4   4 2580.14  106.89
  -2  -4  -4  572.54   63.49
  -2  -4  -4  561.14   68.39
   2   4   4  673.03   82.09
   2   4   4  448.06   69.99
  -3  -4  -4 1232.78   93.19
  -3  -4  -4 1224.18   83.19
   3   4   4 1098.69   97.09
   3   4   4 1265.27  103.29
  -4  -4  -4 1227.08   97.99
  -4  -4  -4 1247.08   83.89
   4   4   4 1159.08  106.59
   4   4   4 1242.18  114.79
  -5  -4  -4  222.18   68.19
   5   4   4  272.17   82.69
   5   4   4  472.45   90.99
  -6  -4  -4  774.62  104.09
   6   4   4  461.95   97.69
   6   4   4  799.92  117.19
  -7  -4  -4  -70.19   65.69
   7   4   4  -50.89   73.09
   7   4   4   84.39   84.79
  -8  -4  -4  402.56  102.99
   8   4   4  531.95  108.99
   8   4   4  530.35  124.29
  -9  -4  -4  -41.50   81.39
   9   4   4   27.40  113.69
   9   4   4  154.28  109.49
   7  -5  -4  200.18   94.79
  -7   5   4   11.30  100.39
  -7   5   4  103.69   96.19
   6  -5  -4  146.99   85.59
  -6   5   4   16.30   81.19
  -6   5   4   80.19  102.39
   5  -5  -4  347.37   87.79
  -5   5   4  374.36   99.99
  -5   5   4  442.76  111.99
   4  -5  -4  112.99   67.79
  -4   5   4  138.09   79.29
  -4   5   4  -73.19   72.39
   3  -5  -4  923.01   92.99
  -3   5   4  763.02  109.39
  -3   5   4 1039.60  119.89
   2  -5  -4  -45.50   50.89
   2  -5  -4  -37.40   54.59
  -2   5   4   14.10   57.79
  -2   5   4   -5.80   40.40
  -2   5   4  111.29   80.49
   1  -5  -4 1082.19  110.39
   1  -5  -4 1179.18   94.39
  -1   5   4 1169.68   78.49
  -1   5   4 1281.67  126.09
  -1   5   4 1147.69  113.19
   0  -5  -4   53.09   59.99
   0  -5  -4   96.79   50.99
   0   5   4   81.69   68.39
   0   5   4  137.79   50.49
   0   5   4  105.19   63.49
  -1  -5  -4 1586.44  113.19
  -1  -5  -4 1737.03   99.69
   1   5   4 1666.43  101.19
   1   5   4 1597.64  127.59
   1   5   4 1628.84  121.49
  -2  -5  -4  161.68   57.69
  -2  -5  -4  135.69   59.59
   2   5   4  106.29   56.39
   2   5   4  119.99   64.69
  -3  -5  -4  863.21   89.29
  -3  -5  -4  921.91   89.49
   3   5   4  905.61  102.19
   3   5   4  960.90  111.49
  -4  -5  -4  107.19   58.99
  -4  -5  -4  146.69   63.39
   4   5   4   75.19   66.89
   4   5   4   86.59   64.89
  -5  -5  -4  477.05   89.39
   5   5   4  376.06   87.49
   5   5   4  434.06   98.99
  -6  -5  -4  281.37   81.09
   6   5   4  213.08   84.19
   6   5   4  272.87   92.69
  -7  -5  -4   10.80   70.29
   7   5   4  215.18   94.39
   7   5   4  -61.49   87.89
  -8  -5  -4  187.38   96.29
   8   5   4  335.57  119.79
   8   5   4  349.96  113.69
   7  -6  -4   53.39   88.89
  -7   6   4  188.88  123.29
  -7   6   4   90.19  103.39
   6  -6  -4  252.97   88.49
  -6   6   4  299.27  115.99
  -6   6   4  346.97  113.69
   5  -6  -4  759.72  115.39
  -5   6   4  614.04  113.99
  -5   6   4  431.66  113.99
   4  -6  -4  123.09   75.09
  -4   6   4  180.58   96.29
  -4   6   4  155.08   81.29
   3  -6  -4 1140.59  114.79
  -3   6   4 1393.36  152.38
  -3   6   4 1328.67  139.19
   2  -6  -4   -4.70   64.99
   2  -6  -4  -15.10   59.79
  -2   6   4  -66.09   84.09
  -2   6   4  -28.20   49.50
  -2   6   4   63.69   73.29
   1  -6  -4 1936.51  132.39
   1  -6  -4 2151.88  127.49
  -1   6   4 2091.29  139.89
  -1   6   4 2243.68  149.99
  -1   6   4 2209.08  110.49
   0  -6  -4  104.39   55.99
   0  -6  -4  -20.30   55.99
   0   6   4   23.60   63.29
   0   6   4   54.19   52.99
  -1  -6  -4 1295.57  111.49
  -1  -6  -4 1189.78  113.89
   1   6   4 1112.59  122.09
   1   6   4 1178.28   96.79
   1   6   4 1197.88  128.29
  -2  -6  -4  160.78   71.49
  -2  -6  -4   75.09   58.99
   2   6   4  120.59   63.29
   2   6   4  125.39   78.89
   2   6   4  204.38   79.59
  -3  -6  -4  913.61  101.49
  -3  -6  -4 1147.59  113.69
   3   6   4  883.11  101.19
   3   6   4  653.63  103.29
  -4  -6  -4   93.69   65.49
  -4  -6  -4   90.79   68.29
   4   6   4  125.99   69.49
   4   6   4  128.49   80.89
  -5  -6  -4  286.87   84.79
   5   6   4  171.98   82.29
   5   6   4  195.08   90.89
  -6  -6  -4  119.79   79.19
   6   6   4  152.08   88.19
   6   6   4  138.69   91.39
  -7  -6  -4   -7.40   73.69
   7   6   4  -53.99   78.49
   7   6   4   87.69   89.49
  -8  -6  -4  165.88   91.69
   8   6   4  179.88   98.49
   6  -7  -4   46.40   91.99
  -6   7   4   26.10   84.19
  -6   7   4   60.79  102.29
   5  -7  -4    6.80   77.99
  -5   7   4  468.25  127.29
  -5   7   4  166.88   91.19
   4  -7  -4  393.76   94.89
  -4   7   4  275.37   99.19
  -4   7   4  505.55  119.69
   3  -7  -4 1117.59  147.59
   3  -7  -4  801.92  108.49
  -3   7   4  738.13  111.59
  -3   7   4 1055.79  158.98
   2  -7  -4    6.90   83.99
   2  -7  -4  128.29   72.89
  -2   7   4 -101.99   90.39
  -2   7   4  234.38   81.99
   1  -7  -4 1772.92  144.79
   1  -7  -4 1452.35  124.99
  -1   7   4 1935.11  179.18
  -1   7   4 1753.82  155.88
  -1   7   4 1802.42  116.39
   0  -7  -4  -52.49   61.09
   0  -7  -4  119.89   72.19
   0   7   4   33.70   78.39
   0   7   4   77.99   79.19
   0   7   4  107.59   66.19
  -1  -7  -4 1519.25  132.29
  -1  -7  -4 1596.34  134.69
   1   7   4 1599.54  127.39
   1   7   4 1816.02  169.48
   1   7   4 1660.23  149.69
  -2  -7  -4    7.10   61.59
  -2  -7  -4   42.10   65.49
   2   7   4   61.09   87.99
   2   7   4    7.10   64.59
   2   7   4  -19.80   80.09
  -3  -7  -4 1046.30  118.19
  -3  -7  -4 1057.69  123.59
   3   7   4  854.91  109.39
   3   7   4  900.01  128.09
  -4  -7  -4  300.17   87.09
  -4  -7  -4  183.48   77.09
   4   7   4   88.89   83.69
   4   7   4  137.49   92.79
  -5  -7  -4  338.57   92.09
   5   7   4  318.07  100.89
   5   7   4  342.17   95.19
  -6  -7  -4  377.06  102.19
   6   7   4  253.27  102.69
   6   7   4  218.48  113.19
  -7  -7  -4  -51.59   79.69
   7   7   4   65.29  106.39
   7   7   4  -19.70   98.99
   5  -8  -4  109.59   88.09
  -5   8   4  -15.10   98.19
  -5   8   4   -1.10   95.79
   4  -8  -4  132.09   87.49
  -4   8   4   64.09   83.09
  -4   8   4  126.69  115.29
   3  -8  -4  242.78  100.99
   3  -8  -4  376.06   99.29
  -3   8   4  311.67  126.39
  -3   8   4  282.57   96.19
   2  -8  -4  185.98   86.99
   2  -8  -4  554.84  124.09
  -2   8   4  351.06  125.29
  -2   8   4  261.17   93.69
   1  -8  -4  595.94  112.29
   1  -8  -4  642.74  106.59
  -1   8   4  625.74   97.39
  -1   8   4  682.13  113.79
  -1   8   4  591.34  128.09
   0  -8  -4    1.00   84.49
   0  -8  -4   80.89   70.49
   0   8   4    8.90   63.99
   0   8   4   -0.80   90.79
   0   8   4  119.29   84.19
  -1  -8  -4 1133.39  126.59
  -1  -8  -4  984.20  124.29
   1   8   4 1032.10  131.09
   1   8   4  870.91  115.09
  -2  -8  -4  -32.40   68.39
  -2  -8  -4    7.90   73.99
   2   8   4   -1.80   83.99
   2   8   4   -6.90   78.79
   2   8   4   77.49   77.39
  -3  -8  -4  549.35  101.29
  -3  -8  -4  812.72  117.89
   3   8   4  596.84  126.09
   3   8   4  569.54  125.59
   3   8   4  504.55  101.99
  -4  -8  -4   87.79   89.69
  -4  -8  -4   17.00   76.49
   4   8   4  -53.09   87.79
   4   8   4    1.10   86.99
  -5  -8  -4  258.67   92.39
   5   8   4  386.06  105.29
   5   8   4  160.68  100.59
  -6  -8  -4    7.60   84.09
   6   8   4   27.90   93.89
   6   8   4  103.59  108.39
   3  -9  -4  329.07  125.69
   3  -9  -4  415.96  112.39
  -3   9   4  319.27  103.69
  -3   9   4  313.47  124.59
   2  -9  -4  197.08   93.89
   2  -9  -4  206.98  107.29
  -2   9   4  135.19  117.49
  -2   9   4  181.18  107.29
   1  -9  -4  368.46  102.89
   1  -9  -4  451.15  119.09
  -1   9   4  789.82  155.08
   0  -9  -4   60.59  103.49
   0  -9  -4  -46.80   77.49
   0   9   4  175.18   82.29
   0   9   4   99.49  106.19
  -1  -9  -4  555.24  113.49
  -1  -9  -4  499.25  121.09
   1   9   4  530.35  103.59
   1   9   4  523.15  132.09
  -2  -9  -4 -102.29   73.19
  -2  -9  -4  -25.20   77.89
   2   9   4  -11.30   87.09
  -3  -9  -4  485.25  111.19
  -3  -9  -4  399.06  105.79
   3   9   4  264.17  111.59
   3   9   4  287.47   98.49
  -4  -9  -4   -9.80   79.29
  -4  -9  -4    7.40   87.29
   4   9   4   63.79   86.09
   4   9   4   -6.00  103.49
   2   9  -5  406.26  111.69
   2   9  -5  369.86  104.49
   2   9  -5  361.06  113.89
  -2  -9   5  554.94  134.39
  -2  -9   5  237.98  104.89
   1   9  -5   10.60   90.69
   1   9  -5  -29.50   83.09
   1   9  -5  234.18  122.69
  -1  -9   5  -15.60   81.89
  -1  -9   5   75.69   93.29
   0   9  -5  302.67  105.99
   0   9  -5  612.74  143.69
   0  -9   5   94.49  101.29
   0  -9   5  288.97  108.69
  -1   9  -5  164.88   91.29
  -1   9  -5  255.07  110.49
   1  -9   5  163.08  109.79
   1  -9   5  373.86  110.59
  -2   9  -5  221.48  100.59
   2  -9   5   69.99  115.59
   2  -9   5  228.38  106.29
   4   8  -5  632.74  117.59
  -4  -8   5  373.86  111.89
  -4  -8   5  314.27  106.79
   3   8  -5    3.50   78.19
   3   8  -5   55.39   88.99
  -3  -8   5  165.08  100.19
  -3  -8   5   -7.10   99.49
   2   8  -5  655.13  119.99
   2   8  -5  365.16   95.39
  -2  -8   5  493.05  110.89
  -2  -8   5  494.65  109.79
   1   8  -5   60.79   97.49
   1   8  -5    6.50   74.09
   1   8  -5   49.90   86.79
  -1  -8   5   43.20   81.19
  -1  -8   5  -26.80   89.59
   0   8  -5  299.97   94.89
   0   8  -5  374.16   96.39
   0   8  -5  288.97  116.49
   0  -8   5  345.67  100.29
   0  -8   5  395.76  113.09
  -1   8  -5  144.39   88.69
  -1   8  -5   87.39  101.09
   1  -8   5   65.69   98.19
   1  -8   5  178.18   92.89
  -2   8  -5  304.17  117.79
  -2   8  -5  115.29   82.69
   2  -8   5   76.29   97.09
   2  -8   5  121.49   88.69
  -3   8  -5  201.48   93.89
  -3   8  -5  232.18  114.19
   3  -8   5   40.30   99.09
   3  -8   5  108.19   87.69
  -4   8  -5   31.00  105.09
  -4   8  -5   86.69   90.89
   4  -8   5   88.89  102.79
   6   7  -5  111.69  105.69
   6   7  -5  254.57  108.49
  -6  -7   5  393.16  119.19
  -6  -7   5  455.05  119.79
   5   7  -5  -56.89   85.69
   5   7  -5 -123.29   82.59
  -5  -7   5   -0.50   94.89
  -5  -7   5  -78.49   80.89
   4   7  -5  903.91  134.39
   4   7  -5 1129.69  138.19
  -4  -7   5 1229.98  153.78
  -4  -7   5  915.91  133.19
   3   7  -5  179.58   86.69
  -3  -7   5   61.59   86.99
  -3  -7   5  -91.69   81.19
   2   7  -5 1047.60  125.39
   2   7  -5 1389.96  138.49
  -2  -7   5 1256.97  141.49
  -2  -7   5 1060.49  134.09
   1   7  -5  265.57   82.09
   1   7  -5  269.47   86.09
  -1  -7   5  396.46  104.69
  -1  -7   5  249.68   92.09
   0   7  -5 1064.69  125.09
   0   7  -5  811.72  121.69
   0   7  -5  850.21  112.29
   0  -7   5  775.32  117.59
   0  -7   5  899.21  124.89
  -1   7  -5  429.76   97.09
  -1   7  -5  236.28   92.89
   1  -7   5  200.68   99.19
   1  -7   5  383.16   89.59
  -2   7  -5  171.48   98.19
  -2   7  -5  123.39   79.09
   2  -7   5  293.87  105.49
   2  -7   5  167.18   82.79
  -3   7  -5  317.27  108.29
  -3   7  -5  298.77   91.79
   3  -7   5  286.17  110.49
   3  -7   5  251.77   85.79
  -4   7  -5   65.49   84.69
  -4   7  -5   77.79   98.59
   4  -7   5  172.58   84.99
   4  -7   5  -26.90   98.69
  -5   7  -5  123.39  105.59
  -5   7  -5  390.16  108.59
   5  -7   5  168.98  113.19
   7   6  -5   -8.70   96.89
  -7  -6   5   82.89  107.99
  -7  -6   5 -115.19   90.39
   6   6  -5  232.08  102.79
   6   6  -5  340.67  103.39
  -6  -6   5  401.16  118.39
  -6  -6   5  343.87  121.69
   5   6  -5  -20.40   85.89
   5   6  -5   29.90   82.89
  -5  -6   5  139.69  104.99
  -5  -6   5   36.40   89.99
   4   6  -5  822.82  116.39
   4   6  -5 1065.59  130.39
  -4  -6   5 1148.09  140.19
  -4  -6   5  940.01  127.59
   3   6  -5  218.78   83.09
   3   6  -5  148.99   80.69
  -3  -6   5   98.19   79.49
  -3  -6   5  168.58   80.49
   2   6  -5 1651.23  144.59
   2   6  -5 1400.26  126.29
  -2  -6   5 1495.55  141.79
  -2  -6   5 1448.06  129.89
   1   6  -5  -20.90   58.39
   1   6  -5   27.30   62.49
   1   6  -5  -65.99   64.39
  -1  -6   5  127.19   75.39
  -1  -6   5  -41.00   66.59
   0   6  -5 1600.44  138.89
   0   6  -5 1663.83  152.38
   0   6  -5 1711.73  134.79
   0  -6   5 1657.73  129.39
   0  -6   5 1806.92  143.19
  -1   6  -5  217.18   76.49
  -1   6  -5  140.09   79.89
   1  -6   5  261.87   85.29
   1  -6   5  144.39   69.19
  -2   6  -5 1053.79  114.49
  -2   6  -5 1548.25  153.48
   2  -6   5 1203.68  132.49
   2  -6   5 1345.97  129.69
  -3   6  -5  535.15   99.79
  -3   6  -5  475.95  104.59
   3  -6   5  923.81  131.69
   3  -6   5  664.53  104.99
  -4   6  -5  261.57   89.59
  -4   6  -5  433.36  103.99
   4  -6   5  294.17   84.19
   4  -6   5  467.85  109.99
  -5   6  -5  406.96  102.89
  -5   6  -5  333.37  103.39
   5  -6   5  296.17  109.69
  -6   6  -5   67.59  100.09
  -6   6  -5  128.89   89.99
   6  -6   5   39.30   86.89
   7   5  -5   97.39   99.19
  -7  -5   5  120.09  106.59
  -7  -5   5   49.50   91.89
   6   5  -5  229.58   96.19
   6   5  -5  533.25  103.09
  -6  -5   5  415.36  115.79
  -6  -5   5  328.17  107.59
   5   5  -5  111.69   84.99
   5   5  -5   45.90   79.79
  -5  -5   5  132.59   92.59
  -5  -5   5  139.49   92.59
   4   5  -5  968.50  110.39
   4   5  -5  971.10  111.79
  -4  -5   5 1067.99  123.59
  -4  -5   5 1013.60  122.79
   3   5  -5   30.80   66.99
   3   5  -5   64.79   61.59
  -3  -5   5  -16.20   70.99
  -3  -5   5   16.00   65.79
   2   5  -5 1408.46  121.69
  -2  -5   5 1484.65  133.89
  -2  -5   5 1358.96  122.19
   1   5  -5   48.00   55.69
   1   5  -5   28.70   59.29
   1   5  -5   95.19   60.69
  -1  -5   5  -30.40   58.89
  -1  -5   5   17.30   63.19
   0   5  -5 1022.80  104.39
   0   5  -5 1266.37  105.29
   0   5  -5 1191.78  115.19
   0  -5   5 1416.76  119.49
   0  -5   5 1372.06  119.99
  -1   5  -5  -13.20   53.79
  -1   5  -5  278.67   87.19
   1  -5   5  130.79   61.39
   1  -5   5  139.39   67.09
  -2   5  -5 1039.90  103.99
  -2   5  -5  781.02  110.99
   2  -5   5 1098.39  124.19
   2  -5   5  919.71   95.69
  -3   5  -5   41.20   68.89
  -3   5  -5  -41.00   56.79
   3  -5   5  106.39   63.99
   3  -5   5  -42.40   70.89
  -4   5  -5  704.73  114.79
  -4   5  -5  474.65   91.89
   4  -5   5  862.41   99.19
   4  -5   5  589.74  111.99
  -5   5  -5  511.55  102.39
  -5   5  -5  351.96  105.59
   5  -5   5  284.17   98.69
  -6   5  -5  131.89   97.39
  -6   5  -5   91.59   82.89
   6  -5   5   56.49   86.99
  -7   5  -5  287.17   97.19
  -7   5  -5  468.55  115.69
   7  -5   5  392.76  114.99
   8   4  -5   93.89  100.69
  -8  -4   5 -120.79   87.19
   7   4  -5  292.47  103.49
  -7  -4   5  153.88  103.19
  -7  -4   5  370.46  115.49
   6   4  -5  464.85  106.39
   6   4  -5  509.15   94.69
  -6  -4   5  484.75  105.29
  -6  -4   5  272.17   92.29
   5   4  -5  273.47   73.29
   5   4  -5  310.77   86.89
  -5  -4   5  285.37   95.39
  -5  -4   5  333.97   95.99
   4   4  -5  721.13   78.99
   4   4  -5  724.13   94.89
   4   4  -5  869.01  101.99
  -4  -4   5  534.85   94.09
  -4  -4   5  599.24   96.89
   3   4  -5   78.29   61.09
   3   4  -5  333.47   75.79
   3   4  -5  181.68   57.39
  -3  -4   5   55.89   67.39
  -3  -4   5  182.68   75.79
   2   4  -5 2625.74  126.49
   2   4  -5 2511.75  114.99
   2   4  -5 2234.18  126.09
  -2  -4   5 2291.17  132.49
  -2  -4   5 2607.94  128.99
   1   4  -5   28.70   45.10
   1   4  -5    3.90   55.49
   1   4  -5  -79.19   55.49
  -1  -4   5   24.10   51.99
  -1  -4   5  -25.30   53.19
   0   4  -5 2137.49  105.49
   0   4  -5 1928.01  119.09
   0  -4   5 2087.19  116.39
   0  -4   5 2112.89  116.99
  -1   4  -5   12.00   63.09
  -1   4  -5   19.50   45.00
   1  -4   5  -17.50   52.69
   1  -4   5  -59.29   47.10
  -2   4  -5 1440.76   99.59
  -2   4  -5 1270.27  113.99
  -2   4  -5 1472.75   72.99
   2  -4   5 1291.07  101.39
   2  -4   5 1361.96  112.59
  -3   4  -5   19.90   55.09
  -3   4  -5   87.89   46.00
  -3   4  -5  -22.90   58.99
   3  -4   5   -1.50   64.09
   3  -4   5   71.49   48.50
  -4   4  -5  512.25   77.89
  -4   4  -5  393.46   86.69
  -4   4  -5  496.25   85.39
   4  -4   5  401.16   68.89
   4  -4   5  460.05   89.39
  -5   4  -5   44.20   76.89
  -5   4  -5   69.69   66.29
  -5   4  -5   87.39   68.99
   5  -4   5  -35.40   72.29
  -6   4  -5  195.28   88.19
  -6   4  -5   77.79   84.79
  -6   4  -5  222.78   83.19
   6  -4   5   38.00   75.99
  -7   4  -5   61.99   86.69
  -7   4  -5  129.99   91.29
  -7   4  -5  179.78   85.09
   7  -4   5  195.68   96.99
   7  -4   5  122.79   83.79
  -8   4  -5  -51.39   83.89
  -8   4  -5  -30.40   91.39
   8  -4   5 -175.68   71.29
   8   3  -5  -84.89   85.69
  -8  -3   5   18.70   94.69
   7   3  -5  218.98   93.09
  -7  -3   5  551.14  119.99
  -7  -3   5  231.38  102.89
   6   3  -5   59.29   77.09
  -6  -3   5  299.87  101.99
  -6  -3   5  182.48   80.39
  -6  -3   5  167.08   84.89
   5   3  -5  816.82   92.89
   5   3  -5  754.72   97.59
  -5  -3   5  695.53   88.09
  -5  -3   5  583.04   97.19
  -5  -3   5  562.44  101.09
   4   3  -5 1342.77  101.99
   4   3  -5 1667.73  113.09
   4   3  -5 1468.05   85.59
  -4  -3   5 1630.84  101.29
  -4  -3   5 1275.37  120.79
  -4  -3   5 1403.66  121.39
   3   3  -5  735.83   80.99
   3   3  -5  589.64   74.89
   3   3  -5  839.52   75.09
  -3  -3   5  801.02   91.59
  -3  -3   5  774.02   65.69
  -3  -3   5  539.15   83.89
   2   3  -5 2502.95  117.89
   2   3  -5 2650.73  105.29
   2   3  -5 2517.15  110.79
  -2  -3   5 2471.35  133.59
  -2  -3   5 2543.65   65.99
  -2  -3   5 2574.64  115.49
   1   3  -5  337.57   59.59
   1   3  -5  317.07   62.39
   1   3  -5  250.37   48.20
  -1  -3   5  262.07   67.89
  -1  -3   5  294.57   59.89
   0   3  -5 5322.47  159.08
   0   3  -5 5190.68  127.09
   0  -3   5 5315.67  162.88
   0  -3   5 5150.98  143.09
  -1   3  -5  130.99   57.19
  -1   3  -5   62.29   38.10
   1  -3   5    0.60   39.60
   1  -3   5  140.89   51.09
  -2   3  -5 3258.67  108.49
  -2   3  -5 2842.42  138.59
  -2   3  -5 3014.80   98.79
   2  -3   5 3040.80  122.29
   2  -3   5 3010.60  112.49
  -3   3  -5   31.80   46.80
  -3   3  -5   15.00   62.29
  -3   3  -5   57.29   45.00
   3  -3   5   61.99   43.40
   3  -3   5   58.19   59.69
  -4   3  -5 1438.06  124.79
  -4   3  -5 1291.77  102.59
  -4   3  -5 1275.27  102.89
   4  -3   5 1487.15  116.69
   4  -3   5 1296.87   85.29
  -5   3  -5  320.77   73.79
  -5   3  -5  189.58   83.69
  -5   3  -5   87.19   65.19
   5  -3   5  232.98   81.49
  -6   3  -5  264.87   88.99
  -6   3  -5  303.37   84.19
  -6   3  -5  347.27   95.89
   6  -3   5  288.47   84.59
   6  -3   5  307.67   90.69
  -7   3  -5  250.47  100.29
  -7   3  -5  364.86   98.79
  -7   3  -5  220.88   87.59
   7  -3   5  168.88   86.39
   7  -3   5  119.49   89.59
  -8   3  -5   27.70  100.39
  -8   3  -5  -29.40   74.19
   8  -3   5   80.79   91.99
   8   2  -5   89.99   96.59
  -8  -2   5  -63.89   87.79
  -8  -2   5   70.89  101.39
   7   2  -5  194.88   90.79
  -7  -2   5  175.08   97.29
  -7  -2   5   50.29   87.09
  -7  -2   5  138.89  101.19
   6   2  -5  165.98   78.19
  -6  -2   5  165.28   88.69
  -6  -2   5  135.39   82.79
  -6  -2   5  141.79   80.49
   5   2  -5  198.78   69.39
   5   2  -5  232.98   58.79
  -5  -2   5  162.38   81.29
  -5  -2   5  190.28   68.39
  -5  -2   5   72.29   79.79
   4   2  -5  901.71   87.09
   4   2  -5  731.53   74.89
  -4  -2   5  828.32   82.39
  -4  -2   5  736.43   93.69
  -4  -2   5  713.03   90.19
   3   2  -5  816.12   72.49
   3   2  -5  932.11   76.19
   3   2  -5  866.41   63.19
  -3  -2   5  774.22   70.59
  -3  -2   5  692.23   85.49
  -3  -2   5  995.30   91.19
   2   2  -5 1498.25   81.49
   2   2  -5 1496.15   76.89
   2   2  -5 1592.94   81.59
  -2  -2   5 1681.83   65.49
  -2  -2   5 1464.45   88.39
  -2  -2   5 1693.13  103.99
   1   2  -5  677.33   49.50
   1   2  -5  794.72   69.29
  -1  -2   5  662.43   57.59
  -1  -2   5  782.12   82.69
  -1  -2   5  563.14   38.60
   0   2  -5 1898.61   94.59
   0   2  -5 1887.71   51.99
   0   2  -5 1960.50   55.19
   0  -2   5 2008.40  101.39
   0  -2   5 1939.11   78.79
   0  -2   5 1966.20   61.09
  -1   2  -5  275.37   30.80
  -1   2  -5  256.67   56.79
   1  -2   5  253.97   49.10
   1  -2   5  214.28   42.60
  -2   2  -5 1456.25   62.69
  -2   2  -5 1488.65   79.49
  -2   2  -5 1472.65  107.49
   2  -2   5 1542.25   75.09
   2  -2   5 1449.46   83.29
  -3   2  -5  -15.20   41.30
  -3   2  -5  -38.80   33.80
  -3   2  -5   17.70   51.19
   3  -2   5    8.20   30.90
   3  -2   5   54.69   47.50
  -4   2  -5 1258.67  104.39
  -4   2  -5 1440.76   90.99
  -4   2  -5 1475.95  112.29
   4  -2   5 1410.16   67.89
   4  -2   5 1448.46  104.09
  -5   2  -5  141.89   57.79
  -5   2  -5   32.80   65.49
  -5   2  -5   93.29   69.89
   5  -2   5  -50.49   53.19
   5  -2   5  177.88   69.79
  -6   2  -5  863.61  116.99
  -6   2  -5  855.51  110.39
  -6   2  -5  767.32   94.09
   6  -2   5  865.31  115.49
   6  -2   5  647.44  101.29
  -7   2  -5  355.16   87.19
  -7   2  -5  327.77   96.19
  -7   2  -5  289.47   84.49
   7  -2   5  297.47   95.99
   7  -2   5  240.88   79.39
  -8   2  -5  222.48   90.39
  -8   2  -5   84.49   99.09
   8  -2   5  211.08   97.89
   8  -2   5  144.49   81.69
  -9   2  -5  244.38  124.59
   9  -2   5  150.18  104.19
  -9  -1   5  161.38  102.09
  -9  -1   5  223.98  118.89
   8   1  -5   93.89   90.79
  -8  -1   5  -32.70   86.29
  -8  -1   5   49.80   85.89
   7   1  -5  425.66   97.29
  -7  -1   5  283.27  102.09
  -7  -1   5  480.95  113.29
  -7  -1   5  531.55  110.89
   6   1  -5   42.50   71.39
  -6  -1   5  124.89   74.69
  -6  -1   5  241.28   88.49
  -6  -1   5  159.68   79.89
   5   1  -5  996.70  100.09
  -5  -1   5  787.62  100.59
  -5  -1   5  848.92  111.59
  -5  -1   5  807.92  103.79
   4   1  -5  472.55   67.39
   4   1  -5  477.75   53.99
  -4  -1   5  519.25   76.19
  -4  -1   5  278.57   73.19
  -4  -1   5  548.95   73.29
   3   1  -5 1050.79   71.69
   3   1  -5  959.40   53.29
   3   1  -5  987.30   64.59
  -3  -1   5  970.30   83.19
  -3  -1   5  891.81   75.69
  -3  -1   5  936.21   92.99
   2   1  -5 1906.51   76.69
   2   1  -5 1923.11   77.39
   2   1  -5 1989.70   67.99
  -2  -1   5 2069.49  110.09
  -2  -1   5 1976.00   85.49
  -2  -1   5 1949.41   80.59
   1   1  -5 1655.33   81.39
  -1  -1   5 1712.03  105.79
  -1  -1   5 1603.34   71.79
  -1  -1   5 1654.03   64.99
   0   1  -5 1790.22   94.59
   0  -1   5 1972.40   82.79
   0  -1   5 1902.91   93.39
   0  -1   5 1870.41   54.39
  -1   1  -5  554.24   70.49
   1  -1   5  471.65   42.30
   1  -1   5  509.85   53.09
  -2   1  -5 1295.57  101.69
  -2   1  -5 1153.18   35.80
  -2   1  -5 1174.98   35.10
   2  -1   5 1164.48   64.09
   2  -1   5 1205.68   59.49
  -3   1  -5  201.38   55.39
  -3   1  -5   92.29   59.79
  -3   1  -5  178.78   35.00
   3  -1   5  130.09   27.30
   3  -1   5  163.28   45.90
  -4   1  -5  947.81   72.89
  -4   1  -5  942.11   94.19
  -4   1  -5  707.43   83.59
   4  -1   5  762.32   75.49
   4  -1   5  798.92   35.80
   4  -1   5  695.33   81.99
  -5   1  -5   50.29   49.50
  -5   1  -5   35.50   65.59
  -5   1  -5  -42.80   57.89
   5  -1   5   81.49   55.89
   5  -1   5   -8.80   53.19
  -6   1  -5  394.96   76.69
  -6   1  -5  225.58   75.59
  -6   1  -5  213.18   78.59
   6  -1   5  307.67   83.09
   6  -1   5  211.98   69.39
  -7   1  -5  -77.99   61.49
  -7   1  -5   -0.80   70.19
  -7   1  -5   14.50   63.99
   7  -1   5  187.78   83.89
   7  -1   5  -94.59   67.29
  -8   1  -5  275.07   85.99
  -8   1  -5  199.68  108.59
   8  -1   5  256.77   98.59
   8  -1   5  306.97   90.49
  -9   1  -5   41.00  108.59
   9  -1   5   39.00   99.49
   9   0  -5 -216.58   81.19
  -9   0   5   25.80  115.59
  -9   0   5  114.59   96.79
   8   0  -5  106.19   88.99
  -8   0   5  -66.09   78.09
  -8   0   5    6.80   94.89
   7   0  -5  625.84  103.99
  -7   0   5  326.67  105.79
  -7   0   5  474.75  105.09
  -7   0   5  526.25  113.99
   6   0  -5  114.59   70.69
  -6   0   5   15.70   78.49
  -6   0   5   64.69   82.19
  -6   0   5  -11.50   71.69
   5   0  -5 1716.03  109.79
  -5   0   5 1832.72  123.59
  -5   0   5 1539.45  118.89
  -5   0   5 1788.42  137.09
   4   0  -5  451.15   38.10
   4   0  -5  484.85   64.19
  -4   0   5  442.96   77.59
  -4   0   5  541.85   86.99
  -4   0   5  412.26   73.99
   3   0  -5 2502.35   90.69
  -3   0   5 2368.26  108.19
  -3   0   5 2500.25  115.59
  -3   0   5 2601.44  124.99
   2   0  -5 2059.49   70.79
   2   0  -5 2053.29   60.59
  -2   0   5 2030.90   82.09
  -2   0   5 2146.89   99.99
   1   0  -5 1696.23   74.49
  -1   0   5 1755.72   88.29
  -1   0   5 1862.51   56.59
   0   0  -5 2775.72   97.29
   0   0   5 2748.12  104.79
   0   0   5 2830.52  111.09
  -1   0  -5 1155.18   88.49
   1   0   5 1106.99   63.69
  -2   0  -5 3510.55  122.39
   2   0   5 3544.55  117.09
   2   0   5 3521.55   83.59
   2   0   5 3519.35   86.09
  -3   0  -5  242.68   56.99
  -3   0  -5  295.17   34.60
   3   0   5  250.57   22.80
   3   0   5  256.97   44.00
   3   0   5  259.27   56.29
  -4   0  -5 1285.47  111.69
  -4   0  -5 1370.46   75.49
  -4   0  -5 1204.58   95.29
   4   0   5 1299.37   86.79
   4   0   5 1197.78   91.89
  -5   0  -5   17.50   51.29
  -5   0  -5   97.19   69.59
  -5   0  -5   66.19   48.40
   5   0   5   -0.50   50.99
   5   0   5  -27.10   58.49
  -6   0  -5  864.51  111.49
  -6   0  -5  831.22   93.49
  -6   0  -5  720.63   95.69
   6   0   5  858.41  106.19
   6   0   5  978.90  108.69
  -7   0  -5  -52.59   57.69
  -7   0  -5  -27.60   75.59
  -7   0  -5  -56.09   62.49
   7   0   5   10.50   71.09
   7   0   5  -57.39   57.99
  -8   0  -5  113.99   74.59
  -8   0  -5  339.07  116.49
   8   0   5  160.58   97.09
   8   0   5  123.89   74.29
  -9   0  -5   22.20   87.19
  -9   0  -5  186.18  119.99
   9   0   5   70.49   88.39
   9   0   5   69.79   96.79
   8  -1  -5  131.79   91.59
  -8   1   5  -13.30   83.89
  -8   1   5   39.70   88.19
   7  -1  -5  387.26   95.79
  -7   1   5  501.85  117.39
  -7   1   5  205.48   97.79
  -7   1   5  316.87  101.49
   6  -1  -5  -65.69   59.49
  -6   1   5  -30.10   76.29
  -6   1   5    2.30   75.99
   5  -1  -5  818.82   88.69
  -5   1   5  816.92  105.19
  -5   1   5  679.73   98.39
   4  -1  -5  134.39   50.09
  -4   1   5  240.78   68.39
  -4   1   5  169.38   70.19
   3  -1  -5 2476.95   88.29
  -3   1   5 2157.78  121.99
  -3   1   5 2448.75  106.89
   2  -1  -5  661.63   44.10
  -2   1   5  670.23   78.49
  -2   1   5  762.22   63.49
  -2   1   5  693.33   31.50
   1  -1  -5 3948.90  105.39
  -1   1   5 3949.90   83.69
  -1   1   5 3751.22   86.99
  -1   1   5 3935.41  131.89
   0  -1  -5 3977.10  112.69
   0   1   5 3817.92  143.59
   0   1   5 4026.10   98.19
  -1  -1  -5 1471.65   94.09
   1   1   5 1439.26   34.20
   1   1   5 1399.16   71.69
  -2  -1  -5 2631.74  111.89
   2   1   5 2540.55   71.09
   2   1   5 2561.14  100.19
  -3  -1  -5 1025.40   88.09
  -3  -1  -5 1012.00   53.39
   3   1   5  954.60   65.79
   3   1   5 1099.69   83.69
  -4  -1  -5 2182.48  121.89
  -4  -1  -5 2135.99   87.59
   4   1   5 2268.07  118.19
   4   1   5 2015.90  100.29
  -5  -1  -5  106.99   51.09
  -5  -1  -5  -36.10   47.50
  -5  -1  -5   66.29   60.39
   5   1   5   97.69   62.19
   5   1   5  147.99   61.99
  -6  -1  -5  890.31   93.59
  -6  -1  -5  843.82  111.59
  -6  -1  -5 1060.09  106.29
   6   1   5  791.42   99.59
   6   1   5 1017.80  111.59
  -7  -1  -5    7.70   63.09
  -7  -1  -5   53.09   87.49
  -7  -1  -5    6.50   60.79
   7   1   5   63.69   72.59
   7   1   5   33.40   79.99
  -8  -1  -5  481.05   95.89
  -8  -1  -5  352.86  114.69
   8   1   5  202.78   82.89
   8   1   5  112.09   94.79
  -9  -1  -5   82.89   92.69
   9   1   5   31.30   88.89
   9   1   5   10.50   88.59
   8  -2  -5  -11.60   83.49
  -8   2   5   59.19  107.89
  -8   2   5   73.99   98.99
   7  -2  -5  475.25   97.09
  -7   2   5  392.66  102.99
  -7   2   5  367.56  102.69
   6  -2  -5  -54.19   57.99
  -6   2   5   54.09   79.59
  -6   2   5   57.19   72.89
   5  -2  -5  621.14   82.09
  -5   2   5  664.13   99.59
  -5   2   5  734.03  108.29
   4  -2  -5  115.49   50.59
  -4   2   5  -16.20   62.69
  -4   2   5  -42.20   58.09
   3  -2  -5 1412.76   76.09
  -3   2   5 1365.56   99.69
  -3   2   5 1391.76  117.59
   2  -2  -5  757.62   53.29
  -2   2   5  844.82   93.49
  -2   2   5  781.12   69.49
  -2   2   5  761.62   26.00
   1  -2  -5 1400.86   39.50
  -1   2   5 1426.26   51.99
  -1   2   5 1371.66   73.89
  -1   2   5 1408.26  103.09
   0   2   5 1180.88   62.19
   0   2   5 1105.59   57.79
   0   2   5 1194.28  103.79
   1   2   5 2855.41   97.69
   1   2   5 2757.72   76.89
  -2  -2  -5 1351.66   39.20
  -2  -2  -5 1403.86   41.30
  -2  -2  -5 1438.96   90.09
   2   2   5 1381.86   68.79
   2   2   5 1433.36   82.69
  -3  -2  -5 1025.40   58.99
  -3  -2  -5  980.90   85.49
   3   2   5  961.40   82.29
   3   2   5  867.61   69.19
  -4  -2  -5  981.50   76.39
  -4  -2  -5  884.01   89.19
   4   2   5  949.71   85.39
   4   2   5  895.01   87.99
  -5  -2  -5  311.67   62.09
   5   2   5  397.36   72.49
   5   2   5  302.37   76.09
  -6  -2  -5  600.64   84.59
   6   2   5  443.66   87.89
   6   2   5  575.44   98.59
  -7  -2  -5 -108.99   55.89
   7   2   5  114.69   80.49
   7   2   5   29.20   76.49
  -8  -2  -5  214.18   84.19
   8   2   5  308.57  101.59
   8   2   5  502.25  109.59
   9   2   5  -61.69   78.59
   9   2   5 -195.88   86.29
   8  -3  -5   73.69   85.99
  -8   3   5   67.59  108.99
  -8   3   5  129.29  101.89
   7  -3  -5  -37.70   74.19
  -7   3   5  223.38  105.99
  -7   3   5  293.87  108.19
   6  -3  -5   92.39   72.39
  -6   3   5  245.78   92.19
  -6   3   5  158.88   82.59
   5  -3  -5  975.10   98.99
  -5   3   5  855.11  113.89
  -5   3   5 1154.98  127.59
   4  -3  -5   55.29   51.89
  -4   3   5  -17.60   60.89
  -4   3   5   37.60   62.59
   3  -3  -5 2219.48   97.49
  -3   3   5 2115.19  140.69
  -3   3   5 2140.69  122.19
   2  -3  -5  262.77   43.70
  -2   3   5  335.07   63.29
  -2   3   5  314.97   30.20
  -2   3   5  299.47   77.19
   1  -3  -5 3709.53   90.49
  -1   3   5 3688.63   88.39
  -1   3   5 3689.83  150.38
  -1   3   5 3450.65  122.49
   0  -3  -5 1487.85   54.19
   0   3   5 1653.03   92.19
   0   3   5 1667.13  119.59
   0   3   5 1608.14   74.39
  -1  -3  -5 2717.03   70.69
   1   3   5 2865.91  103.99
   1   3   5 2856.11  103.39
  -2  -3  -5 1350.46   78.19
  -2  -3  -5 1294.67   62.69
   2   3   5 1358.56   91.39
   2   3   5 1361.46   80.69
  -3  -3  -5  974.00   67.09
  -3  -3  -5 1067.19   72.29
   3   3   5  924.11   86.79
   3   3   5  956.30   81.99
  -4  -3  -5  971.20   80.89
  -4  -3  -5  911.21   62.59
   4   3   5  879.11   88.59
   4   3   5  872.11   91.49
  -5  -3  -5  263.37   63.49
   5   3   5  229.58   72.09
   5   3   5  330.97   74.69
  -6  -3  -5  419.16   79.99
   6   3   5  364.76   85.39
   6   3   5  448.06   94.39
  -7  -3  -5  -85.39   62.59
   7   3   5   59.59   86.89
   7   3   5   -6.00   77.89
  -8  -3  -5  269.07   88.89
   8   3   5  215.18   98.19
   8   3   5  112.19   99.99
   9   3   5   44.00  100.99
   9   3   5  -31.80   98.39
   8  -4  -5  140.39   93.49
  -8   4   5   80.89   98.39
   7  -4  -5  -37.30   75.89
  -7   4   5  -65.59   84.79
  -7   4   5  158.88   97.69
   6  -4  -5  248.98   82.19
  -6   4   5  146.69   90.19
  -6   4   5  190.48  101.79
   5  -4  -5  326.87   79.29
  -5   4   5  652.83  115.59
  -5   4   5  533.65  115.29
   4  -4  -5  126.09   56.89
  -4   4   5  -24.70   73.19
  -4   4   5  161.68   73.09
   3  -4  -5 1946.31  103.29
  -3   4   5 1525.15  126.99
  -3   4   5 2029.70  136.69
   2  -4  -5   15.20   42.10
  -2   4   5   -4.30   58.49
  -2   4   5   14.40   30.40
  -2   4   5   98.69   66.29
   1  -4  -5 4269.47  117.79
  -1   4   5 4100.89  153.58
  -1   4   5 4364.86  180.88
  -1   4   5 4437.46  110.69
   0  -4  -5  185.68   55.99
   0  -4  -5  260.07   44.50
   0   4   5  183.98   46.00
   0   4   5  179.98   62.29
   0   4   5  258.37   82.39
  -1  -4  -5 3365.46  132.79
  -1  -4  -5 3534.95  102.89
   1   4   5 3374.26  122.19
   1   4   5 3515.35  174.38
   1   4   5 3430.96  131.99
  -2  -4  -5  860.51   69.59
  -2  -4  -5  982.80   84.09
   2   4   5 1046.40   93.29
   2   4   5  815.92   82.49
  -3  -4  -5 1778.02   91.39
  -3  -4  -5 1926.11   97.69
   3   4   5 1687.83  105.99
   3   4   5 1881.11  114.99
  -4  -4  -5  804.72   73.19
  -4  -4  -5  723.53   78.99
   4   4   5  893.31  104.69
   4   4   5  551.34   82.39
  -5  -4  -5  408.46   73.59
   5   4   5  437.56   90.69
   5   4   5  590.84   95.69
  -6  -4  -5  773.62   99.89
   6   4   5  845.42  120.89
   6   4   5  628.24  106.09
  -7  -4  -5  -10.10   68.09
   7   4   5   39.60   85.19
   7   4   5  154.48   82.29
  -8  -4  -5  135.49   83.99
   8   4   5  134.59   92.09
   8   4   5  306.97  115.99
   7  -5  -5   31.80   81.59
  -7   5   5  151.18  112.19
  -7   5   5  -11.50   83.79
   6  -5  -5   73.59   77.59
  -6   5   5 -225.78   85.09
  -6   5   5  125.79   98.79
   5  -5  -5  292.97   80.19
  -5   5   5  332.57  104.29
  -5   5   5  255.87   98.89
   4  -5  -5   62.29   64.39
  -4   5   5   43.00   76.19
  -4   5   5  -68.19   78.19
   3  -5  -5  779.32   86.09
  -3   5   5  803.92  111.49
  -3   5   5  591.54  103.29
   2  -5  -5  -50.19   47.20
  -2   5   5   24.90   63.39
  -2   5   5  -43.00   74.69
  -2   5   5   -2.50   40.30
   1  -5  -5 1715.53  128.19
   1  -5  -5 1762.32   98.49
  -1   5   5 1752.52   90.49
  -1   5   5 1704.73  132.79
  -1   5   5 1347.67  125.19
   0  -5  -5  -30.30   42.20
   0  -5  -5  -11.60   53.19
   0   5   5   -6.40   44.60
   0   5   5 -139.79   54.79
   0   5   5   76.49   66.59
  -1  -5  -5 2312.27  105.89
  -1  -5  -5 2196.08  126.69
   1   5   5 2214.58  106.69
   1   5   5 2139.09  158.68
   1   5   5 2018.40  132.89
  -2  -5  -5  279.87   65.09
  -2  -5  -5  175.58   54.19
   2   5   5  196.98   63.09
   2   5   5  285.57   76.69
  -3  -5  -5 1938.81  108.49
  -3  -5  -5 1871.61  108.99
   3   5   5 1935.81  133.89
   3   5   5 1695.03  115.99
  -4  -5  -5  548.05   74.79
  -4  -5  -5  568.84   81.59
   4   5   5  457.25   88.39
   4   5   5  631.74  101.29
  -5  -5  -5  589.24   91.59
   5   5   5  650.93  101.29
   5   5   5  781.32  113.99
  -6  -5  -5  349.17   85.39
   6   5   5  157.38   87.59
   6   5   5  411.46   98.39
  -7  -5  -5  183.38   79.19
   7   5   5  102.99  103.19
   7   5   5  176.68   99.29
   8   5   5  200.38  102.69
   8   5   5  579.04  119.09
   6  -6  -5  293.27   95.49
  -6   6   5  447.56  129.09
  -6   6   5  259.67  113.29
   5  -6  -5  197.88   82.79
  -5   6   5  233.68   95.29
  -5   6   5  248.08  102.49
   4  -6  -5  161.28   75.69
  -4   6   5  212.48   88.89
  -4   6   5  163.88   93.99
   3  -6  -5  887.21  100.89
  -3   6   5  753.22  118.59
  -3   6   5  950.30  139.19
   2  -6  -5  -70.29   53.89
  -2   6   5  -30.20   74.39
  -2   6   5 -139.89   80.99
   1  -6  -5  897.51  110.49
   1  -6  -5  938.31   92.99
  -1   6   5 1116.19   93.39
  -1   6   5 1042.70  124.69
  -1   6   5 1085.39  131.19
   0  -6  -5   54.29   52.39
   0  -6  -5  -91.49   62.09
   0   6   5   73.69   54.89
   0   6   5   43.10   69.39
  -1  -6  -5 1185.98  103.09
  -1  -6  -5 1326.07  112.89
   1   6   5 1550.54  152.78
   1   6   5 1327.47  135.29
   1   6   5 1453.55  118.99
  -2  -6  -5  121.19   67.29
  -2  -6  -5  251.67   66.99
   2   6   5  222.98   76.19
   2   6   5  203.98   96.89
   2   6   5  117.49   78.09
  -3  -6  -5  667.83   92.19
  -3  -6  -5  490.85   81.69
   3   6   5  710.13   95.89
   3   6   5  374.66   95.69
  -4  -6  -5   53.79   64.49
  -4  -6  -5  212.18   68.69
   4   6   5  104.69   74.09
   4   6   5   96.79   73.39
  -5  -6  -5  744.33  100.89
   5   6   5  479.15  103.39
   5   6   5  556.94  113.69
  -6  -6  -5  225.78   84.49
   6   6   5  130.39   92.59
   6   6   5  124.69   90.29
  -7  -6  -5   38.50   77.69
   7   6   5   60.39   97.29
   7   6   5  149.29  103.89
  -6   7   5  165.48  103.29
  -6   7   5  205.28  116.69
   5  -7  -5    0.10   81.49
  -5   7   5   85.09  109.09
  -5   7   5   84.49   92.39
   4  -7  -5  272.37   86.89
  -4   7   5  387.86  108.09
  -4   7   5  419.86  123.69
   3  -7  -5  334.57   83.89
  -3   7   5  385.16  125.29
  -3   7   5  368.16  103.19
   2  -7  -5  363.96   85.09
   2  -7  -5  510.25  105.89
  -2   7   5  574.34  136.59
  -2   7   5  374.66   97.59
   1  -7  -5 1368.06  115.59
   1  -7  -5 1285.07  142.99
  -1   7   5 1195.18  139.69
  -1   7   5 1348.67  107.49
  -1   7   5 1482.45  166.48
   0  -7  -5  127.59   77.09
   0  -7  -5  201.08   69.89
   0   7   5  -92.89   75.69
   0   7   5  164.38   89.09
   0   7   5   43.80   61.59
  -1  -7  -5 1624.84  144.69
  -1  -7  -5 1733.33  123.59
   1   7   5 1344.07  142.99
   1   7   5 1561.44  125.69
   1   7   5 1841.62  168.38
  -2  -7  -5 -113.39   65.89
  -2  -7  -5  120.99   66.09
   2   7   5   59.99   73.69
   2   7   5 -216.38   64.89
   2   7   5  -67.49   88.79
  -3  -7  -5 1621.74  135.79
  -3  -7  -5 1525.75  135.29
   3   7   5 1497.75  160.08
   3   7   5 1524.95  131.19
  -4  -7  -5   56.49   69.99
  -4  -7  -5   31.60   72.09
   4   7   5  141.19   91.59
   4   7   5   37.40   78.39
  -5  -7  -5  431.26   93.69
   5   7   5  488.75  109.99
   5   7   5  289.07  103.39
  -6  -7  -5  -14.20   74.79
   6   7   5  138.49   93.49
   6   7   5  115.69  100.39
   7   7   5   83.89  110.59
   4  -8  -5  102.49   84.49
  -4   8   5   25.50  110.79
  -4   8   5  111.89   92.29
   3  -8  -5  311.17   89.79
  -3   8   5  161.28  117.39
  -3   8   5  189.08   93.49
   2  -8  -5  217.08  110.19
   2  -8  -5   52.09   77.29
  -2   8   5  138.79  112.69
  -2   8   5  201.58   95.49
   1  -8  -5  546.25  123.69
   1  -8  -5  544.15   98.29
  -1   8   5  527.65  138.99
  -1   8   5  492.55  112.79
   0  -8  -5  188.88   89.89
   0  -8  -5   41.70   68.89
   0   8   5   -6.50   89.89
   0   8   5  107.19   92.39
   0   8   5  204.38   79.89
  -1  -8  -5  873.81  130.69
  -1  -8  -5  988.40  116.69
   1   8   5  929.71  136.59
   1   8   5  818.32  112.79
  -2  -8  -5  -51.29   70.19
  -2  -8  -5  -22.90   66.59
   2   8   5  249.38  106.99
   2   8   5   19.70   68.49
   2   8   5  111.59   97.89
  -3  -8  -5 1010.70  127.29
  -3  -8  -5 1117.99  127.79
   3   8   5  965.20  143.59
   3   8   5  860.11  144.69
   3   8   5  972.40  131.39
  -4  -8  -5   33.80   75.09
  -4  -8  -5  109.99   83.59
   4   8   5   40.20   98.19
   4   8   5  -24.20   74.09
   4   8   5 -272.17   86.49
  -5  -8  -5  633.94  113.69
   5   8   5  730.43  130.39
   5   8   5  482.75  124.49
   6   8   5   -0.60   98.59
  -3   9   5   52.39  116.59
  -3   9   5 -110.19   84.89
   2  -9  -5  188.38  116.79
   2  -9  -5  -12.20   82.29
  -2   9   5 -128.49   81.39
  -2   9   5  105.59  122.39
   1  -9  -5  220.18  106.59
   1  -9  -5  285.07   96.29
  -1   9   5  221.48  105.69
  -1   9   5  357.76  131.59
   0  -9  -5   43.60   78.19
   0  -9  -5   34.30   98.19
   0   9   5   23.20   92.39
   0   9   5  -20.90   93.99
  -1  -9  -5  437.46   97.89
  -1  -9  -5  623.74  125.29
   1   9   5  396.66  113.59
   1   9   5  497.65  105.79
   1   9   5  145.79  102.99
  -2  -9  -5   12.00   76.19
  -2  -9  -5   12.90   90.59
   2   9   5  -15.90   75.79
  -3  -9  -5  497.15  109.29
  -3  -9  -5  331.97  110.79
   3   9   5  282.57  107.79
   3   9   5  276.57  108.49
  -4  -9  -5  177.68   97.09
   4   9   5    3.40  101.99
   4   9   5  138.29   87.39
   1   9  -6  121.19  116.49
  -1  -9   6  233.78  115.99
   0  -9   6  229.88  113.59
   4   8  -6  440.76  113.59
  -4  -8   6  176.38  105.19
  -4  -8   6  306.57  115.19
   3   8  -6 -129.79   86.99
   3   8  -6   71.09   98.89
  -3  -8   6   38.40  103.29
  -3  -8   6  179.78  103.39
   2   8  -6  340.47   97.29
   2   8  -6  386.96  119.29
   2   8  -6  157.88  104.29
  -2  -8   6  433.26  113.19
  -2  -8   6  373.16  106.89
   1   8  -6   82.59   81.69
   1   8  -6  205.08   87.69
   1   8  -6   90.29  100.09
  -1  -8   6    5.10   88.59
  -1  -8   6    4.70   79.49
   0   8  -6  282.87   90.19
   0   8  -6  592.94  129.59
   0  -8   6  385.46  114.79
   0  -8   6  512.05  116.79
  -1   8  -6  163.68  112.89
   1  -8   6   10.90   86.19
   1  -8   6  127.59   80.99
  -2   8  -6  266.47  113.99
   2  -8   6  365.56  111.49
   2  -8   6  316.57  121.49
  -3   8  -6   22.90   94.89
   3  -8   6  247.38  102.29
   3  -8   6   84.29   99.69
   5   7  -6  127.59   87.49
  -5  -7   6 -113.79   86.79
  -5  -7   6   32.40   90.19
   4   7  -6  373.96  101.09
  -4  -7   6  409.76  113.99
  -4  -7   6  479.35  113.69
   3   7  -6  -52.79   70.29
   3   7  -6   12.10   81.59
   3   7  -6  -19.90   83.99
  -3  -7   6   42.80   89.09
  -3  -7   6  -71.49   72.99
   2   7  -6  830.52  110.99
   2   7  -6 1075.79  127.89
   2   7  -6  937.71  129.29
  -2  -7   6  743.53  119.59
  -2  -7   6  746.13  119.99
   1   7  -6   46.80   92.39
   1   7  -6   36.10   75.69
   1   7  -6  148.09   71.19
  -1  -7   6   48.10   83.79
  -1  -7   6  111.29   86.79
   0   7  -6 1073.39  142.49
   0   7  -6  821.22  109.79
   0  -7   6  940.61  120.99
   0  -7   6  768.32  126.19
  -1   7  -6  330.67  108.19
  -1   7  -6  285.67   82.69
   1  -7   6   -5.10   81.09
   1  -7   6   91.59   82.69
  -2   7  -6  767.62  136.39
  -2   7  -6  436.86   94.19
   2  -7   6  642.94  109.89
   2  -7   6  502.25  116.29
  -3   7  -6  209.38   85.49
  -3   7  -6   22.30   92.59
   3  -7   6   59.79   77.39
   3  -7   6  144.99  100.59
  -4   7  -6  291.17  115.59
   4  -7   6  246.18  108.39
  -5   7  -6  301.97  110.49
   5  -7   6   88.09   98.19
   6   6  -6   13.00   86.89
  -6  -6   6  127.59  115.49
  -6  -6   6  287.27  118.39
   5   6  -6  131.99   92.09
   5   6  -6  186.48   95.59
  -5  -6   6   31.20  104.09
  -5  -6   6  187.28  107.89
   4   6  -6  514.05  109.09
   4   6  -6  507.45  103.99
  -4  -6   6  520.35  110.39
  -4  -6   6  523.85  122.09
   3   6  -6  -16.60   72.09
   3   6  -6   85.59   86.59
  -3  -6   6    0.70   74.09
  -3  -6   6   86.39   80.29
   2   6  -6 1592.54  124.89
   2   6  -6 1619.54  134.09
   2   6  -6 1626.64  146.59
  -2  -6   6 1506.05  147.79
  -2  -6   6 1608.64  150.58
   1   6  -6  -15.00   79.29
   1   6  -6  -10.20   77.09
   1   6  -6  -41.60   55.89
  -1  -6   6    0.30   64.99
  -1  -6   6  -26.40   63.99
   0   6  -6 1854.71  161.88
   0   6  -6 1694.43  127.69
   0  -6   6 1798.42  145.99
   0  -6   6 1683.13  145.99
  -1   6  -6  260.47   99.69
  -1   6  -6  197.68   69.79
   1  -6   6  237.08   90.29
   1  -6   6  139.39   73.79
  -2   6  -6 1510.95  148.19
  -2   6  -6 1425.36  126.29
   2  -6   6 1211.88  127.59
   2  -6   6 1462.75  143.89
  -3   6  -6  185.28   80.19
  -3   6  -6  158.48   85.79
   3  -6   6  387.26  105.59
   3  -6   6  273.37   83.79
  -4   6  -6  404.96  105.39
  -4   6  -6  481.55   99.29
   4  -6   6  512.25  116.39
  -5   6  -6  202.58   96.99
   5  -6   6  370.26  117.19
  -6   6  -6  138.39   96.39
   6  -6   6   18.20   95.59
  -7  -5   6  118.59  118.59
  -7  -5   6  171.08  110.59
   6   5  -6   14.60   77.89
   6   5  -6   55.39   86.29
  -6  -5   6  -66.39   89.99
  -6  -5   6  141.69  107.09
   5   5  -6   84.79   78.79
   5   5  -6  295.27   93.59
  -5  -5   6  177.28  101.09
  -5  -5   6   15.90   90.39
   4   5  -6  755.72  113.39
   4   5  -6  598.14   98.49
  -4  -5   6  725.73  116.29
  -4  -5   6  732.33  117.59
   3   5  -6  -19.40   62.59
   3   5  -6   24.30   72.79
   3   5  -6 -103.19   55.79
  -3  -5   6  157.78   80.99
  -3  -5   6   95.69   77.59
   2   5  -6 1042.60  117.09
   2   5  -6 1061.39  100.49
   2   5  -6 1044.60  114.99
  -2  -5   6 1106.29  116.59
  -2  -5   6  956.50  115.39
   1   5  -6   72.59   65.99
   1   5  -6   28.10   68.09
   1   5  -6   30.20   53.79
  -1  -5   6   60.19   61.69
  -1  -5   6   74.49   70.89
   0   5  -6 1629.44  106.99
   0   5  -6 1593.34  140.69
   0  -5   6 1407.66  128.49
   0  -5   6 1745.03  125.59
  -1   5  -6  -44.90   47.80
  -1   5  -6  -35.30   72.59
   1  -5   6    3.40   60.09
   1  -5   6   36.60   58.39
  -2   5  -6  963.30  116.39
  -2   5  -6 1252.27  106.79
   2  -5   6 1347.17  135.19
   2  -5   6 1141.59  116.39
  -3   5  -6  137.49   78.99
  -3   5  -6   81.09   64.39
   3  -5   6  175.58   69.39
   3  -5   6  238.68   88.39
  -4   5  -6  905.71  127.29
  -4   5  -6  819.42  104.19
   4  -5   6  751.12  122.39
  -5   5  -6  139.39   74.29
  -5   5  -6   71.69   89.59
   5  -5   6  223.68   97.29
  -6   5  -6  350.66  103.89
   6  -5   6  243.58   94.99
  -7   5  -6  519.15  125.39
   7  -5   6  219.48  112.59
   7  -5   6  130.59   97.89
  -8  -4   6 -133.39   93.89
   7   4  -6  355.46  101.39
  -7  -4   6  264.27  115.19
  -7  -4   6  261.97  116.69
   6   4  -6  114.49   84.99
  -6  -4   6  326.47  102.79
  -6  -4   6  242.68  109.19
   5   4  -6  212.38   78.89
   5   4  -6  207.18   79.19
  -5  -4   6  113.69   87.69
  -5  -4   6  140.69   88.49
   4   4  -6 1062.19  107.79
   4   4  -6 1076.49  109.99
  -4  -4   6 1091.89  123.89
  -4  -4   6  994.50  129.89
   3   4  -6  171.48   64.49
   3   4  -6  131.59   68.99
   3   4  -6  223.48   62.19
  -3  -4   6  119.19   77.79
  -3  -4   6  243.48   82.39
   2   4  -6 1659.13  120.29
   2   4  -6 1578.64  119.79
   2   4  -6 1672.03  102.29
  -2  -4   6 1796.02  120.79
  -2  -4   6 1655.53  124.29
   1   4  -6   65.09   55.89
   1   4  -6    3.70   42.60
   1   4  -6   35.60   62.09
  -1  -4   6  -25.50   54.79
  -1  -4   6   64.09   57.89
   0   4  -6 2380.36  101.89
   0   4  -6 2397.66  131.99
   0  -4   6 2172.78  124.79
   0  -4   6 2340.07  122.19
  -1   4  -6   46.20   42.90
  -1   4  -6   13.20   61.29
   1  -4   6   57.89   58.49
   1  -4   6   99.79   58.19
  -2   4  -6 1395.56   91.49
  -2   4  -6 1391.26  117.19
   2  -4   6 1392.76  111.69
   2  -4   6 1401.56  104.99
  -3   4  -6  -11.90   60.69
  -3   4  -6   32.90   47.10
  -3   4  -6   58.09   54.39
   3  -4   6  123.19   67.59
   3  -4   6   35.10   52.89
  -4   4  -6  740.63   89.49
  -4   4  -6  818.72   89.59
  -4   4  -6  900.71  121.89
   4  -4   6 1035.60  120.89
  -5   4  -6  214.28   92.49
  -5   4  -6  253.87   77.19
  -5   4  -6  314.27   77.59
   5  -4   6  138.89   85.09
  -6   4  -6  204.18   85.29
  -6   4  -6  204.48   89.89
  -6   4  -6  312.47   84.99
   6  -4   6  380.56   94.29
  -7   4  -6  141.09   94.09
  -7   4  -6  -26.40   79.39
   7  -4   6   59.99   89.99
   7  -4   6  -33.80   87.39
  -8   4  -6   48.70  102.09
   8  -4   6   20.70   91.59
  -8  -3   6   31.00  106.79
  -8  -3   6   19.60   97.09
   7   3  -6  116.89   89.79
  -7  -3   6  337.37  121.99
  -7  -3   6  221.08  111.29
   6   3  -6  -16.30   75.99
  -6  -3   6 -133.79   79.59
  -6  -3   6   10.00   91.09
   5   3  -6  778.02   96.19
   5   3  -6  787.82   95.99
  -5  -3   6  687.13  109.49
  -5  -3   6  820.82  120.59
   4   3  -6  564.54   80.29
   4   3  -6  508.25   75.79
  -4  -3   6  443.56   97.69
  -4  -3   6  425.36   88.39
   3   3  -6  607.14   70.29
   3   3  -6  639.74   75.49
   3   3  -6  562.04   73.49
  -3  -3   6  573.44   96.49
  -3  -3   6  721.53   89.29
   2   3  -6 2540.25  113.49
   2   3  -6 2260.57  119.89
  -2  -3   6 2330.07  117.09
  -2  -3   6 2290.17  137.69
   1   3  -6  167.98   60.59
   1   3  -6  138.69   39.00
  -1  -3   6  159.88   52.69
  -1  -3   6  172.68   61.99
   0   3  -6 3075.19  137.19
   0   3  -6 3096.79   86.29
   0  -3   6 3086.39  117.09
   0  -3   6 2957.70  134.79
  -1   3  -6   58.39   32.40
  -1   3  -6   90.19   64.09
   1  -3   6   66.39   44.90
   1  -3   6    1.90   43.20
  -2   3  -6 3508.55  102.39
  -2   3  -6 3314.77  146.69
   2  -3   6 3199.18  127.39
   2  -3   6 3199.18  120.09
  -3   3  -6   54.79   42.70
  -3   3  -6   36.60   59.09
  -3   3  -6   64.39   49.30
   3  -3   6  114.59   59.09
   3  -3   6  112.69   47.70
  -4   3  -6 1227.58  103.49
  -4   3  -6 1224.88   93.09
  -4   3  -6  917.91  108.19
   4  -3   6 1216.78  112.89
  -5   3  -6  109.69   71.69
  -5   3  -6   60.79   57.99
  -5   3  -6  117.79   75.39
   5  -3   6   34.20   68.39
  -6   3  -6  523.45  104.59
  -6   3  -6  505.65   97.29
  -6   3  -6  433.36   87.39
   6  -3   6  221.98   84.39
   6  -3   6  404.16   90.29
  -7   3  -6  238.48   95.89
  -7   3  -6  -12.30   84.09
   7  -3   6  173.38   86.89
   7  -3   6  163.78   92.39
  -8   3  -6  192.28  109.59
   8  -3   6   99.49   90.19
   8  -3   6  102.39   89.49
  -8  -2   6   36.90  106.19
  -8  -2   6  -39.40  102.99
   7   2  -6  100.09   79.99
  -7  -2   6  297.07  112.69
  -7  -2   6   96.99   94.19
  -7  -2   6  181.98   95.19
   6   2  -6  -72.49   63.99
  -6  -2   6  111.99   88.49
  -6  -2   6  -94.29   66.49
  -6  -2   6  196.68   97.19
   5   2  -6  518.85   84.09
  -5  -2   6  645.64  102.09
  -5  -2   6  536.15   86.39
  -5  -2   6  565.34  101.19
   4   2  -6  104.59   54.59
   4   2  -6   95.79   49.10
  -4  -2   6  171.68   57.29
  -4  -2   6  151.88   71.09
  -4  -2   6   39.30   62.39
   3   2  -6  836.82   77.99
   3   2  -6  692.03   60.99
   3   2  -6  848.62   74.49
  -3  -2   6  568.64   88.09
  -3  -2   6  815.42   70.19
  -3  -2   6  742.13   85.89
   2   2  -6  983.90   81.09
   2   2  -6  990.00   74.59
  -2  -2   6  820.22   92.59
  -2  -2   6  922.71   61.29
  -2  -2   6  948.41   80.39
   1   2  -6 1259.07   89.09
   1   2  -6 1158.48   32.70
   1   2  -6 1298.77   36.00
  -1  -2   6 1166.38   55.49
  -1  -2   6 1241.08   95.19
  -1  -2   6 1213.28   73.59
   0   2  -6 3189.58  121.39
   0  -2   6 3174.38  122.19
   0  -2   6 3011.30   95.69
   0  -2   6 3140.59   86.49
  -1   2  -6  336.77   66.89
   1  -2   6  393.06   57.19
   1  -2   6  250.87   44.90
  -2   2  -6 4201.98   78.99
   2  -2   6 4320.97  125.29
   2  -2   6 4276.37  125.39
  -3   2  -6   15.80   47.00
  -3   2  -6    4.80   59.49
  -3   2  -6   46.50   31.30
   3  -2   6  -55.69   42.30
   3  -2   6   -8.40   32.60
  -4   2  -6 2175.08  134.39
  -4   2  -6 2359.66  125.79
  -4   2  -6 2330.47   96.89
   4  -2   6 2009.00  112.79
  -5   2  -6  138.49   71.79
  -5   2  -6  -24.00   70.79
  -5   2  -6   58.39   50.59
   5  -2   6   18.10   64.19
   5  -2   6   42.40   59.19
  -6   2  -6 1081.09  104.89
  -6   2  -6  905.51  123.29
  -6   2  -6  876.51  118.59
   6  -2   6 1098.29  124.09
   6  -2   6 1018.10  120.09
  -7   2  -6  112.39   79.69
  -7   2  -6  134.49   93.29
   7  -2   6   86.39   74.29
   7  -2   6  107.69   84.69
  -8   2  -6  240.48  108.69
   8  -2   6  178.28   95.69
   8  -2   6  168.68  100.09
   8   1  -6   38.00   86.69
  -8  -1   6  -54.79   95.29
  -8  -1   6   67.59   99.19
  -8  -1   6  -73.49   90.59
   7   1  -6  480.15  103.29
  -7  -1   6  277.17  108.29
  -7  -1   6  659.33  123.69
  -7  -1   6  431.86  109.09
   6   1  -6   30.80   66.89
  -6  -1   6  -25.30   74.59
  -6  -1   6  139.99   81.79
  -6  -1   6  -28.70   77.69
   5   1  -6  536.45   78.69
  -5  -1   6  509.55   93.19
  -5  -1   6  400.46   86.09
  -5  -1   6  512.15  106.69
   4   1  -6  595.44   68.59
   4   1  -6  407.46   55.59
  -4  -1   6  543.45   89.79
  -4  -1   6  524.85   82.89
  -4  -1   6  573.04   78.79
   3   1  -6  526.65   53.59
   3   1  -6  472.65   47.40
  -3  -1   6  512.25   67.39
  -3  -1   6  620.94   75.19
  -3  -1   6  537.95   83.59
   2   1  -6 1136.39   73.69
   2   1  -6 1075.69   37.80
  -2  -1   6 1141.69   76.29
  -2  -1   6 1293.87   78.49
  -2  -1   6 1287.67  110.29
   1   1  -6  282.47   51.79
  -1  -1   6  226.68   45.80
  -1  -1   6  293.87   39.30
  -1  -1   6  366.96   71.89
   0   1  -6 3273.97  121.89
   0  -1   6 3003.00   69.29
   0  -1   6 3031.00  119.39
   0  -1   6 3036.60  102.99
  -1   1  -6  384.16   69.19
   1  -1   6  425.76   37.00
   1  -1   6  331.27   51.79
   2  -1   6 1595.94   70.39
   2  -1   6 1650.53   74.99
  -3   1  -6  168.18   61.09
  -3   1  -6  139.69   24.70
   3  -1   6  144.39   43.60
   3  -1   6   71.69   29.10
  -4   1  -6 1457.45   73.69
  -4   1  -6 1405.96  113.79
  -4   1  -6 1420.96  121.59
   4  -1   6 1562.34   95.69
   4  -1   6 1291.87  102.69
  -5   1  -6   50.89   45.50
  -5   1  -6  -58.99   62.59
  -5   1  -6   11.30   64.09
   5  -1   6   15.70   55.29
   5  -1   6  -60.59   49.90
  -6   1  -6  732.33  105.39
  -6   1  -6  843.22   89.89
  -6   1  -6  809.22  112.39
   6  -1   6  877.81  109.29
   6  -1   6  769.12   98.79
  -7   1  -6  100.69   87.99
  -7   1  -6  -80.19   58.29
  -7   1  -6   12.60   71.29
   7  -1   6   88.99   76.89
   7  -1   6  -73.09   70.89
  -8   1  -6  270.77  112.49
   8  -1   6  201.68   93.59
   8  -1   6  330.27   97.09
  -9   1  -6   96.59  112.49
   9  -1   6   18.60   96.39
   9  -1   6  127.19   95.49
   8   0  -6   10.30   85.29
  -8   0   6   23.10  102.49
  -8   0   6  -45.70   92.59
  -8   0   6   46.10  105.89
   7   0  -6  164.58   84.59
  -7   0   6  234.28   95.59
  -7   0   6  200.28   91.39
  -7   0   6  306.07   99.19
   6   0  -6   64.19   66.59
  -6   0   6  142.99   92.39
  -6   0   6  116.89   83.99
  -6   0   6  121.29   80.39
   5   0  -6  542.55   76.89
  -5   0   6  630.64   97.79
  -5   0   6  555.04   97.89
  -5   0   6  729.43  102.79
   4   0  -6  -69.19   42.00
  -4   0   6  -25.30   56.39
  -4   0   6   54.19   61.19
  -4   0   6   46.80   69.69
   3   0  -6 1978.90   74.69
   3   0  -6 1888.41   61.59
  -3   0   6 1830.42   97.59
  -3   0   6 1842.82  118.89
  -3   0   6 1914.01  112.19
   2   0  -6  909.41   63.89
  -2   0   6  942.21   83.59
  -2   0   6  968.40   68.29
  -2   0   6 1059.49   99.19
   1   0  -6 1580.24   79.69
  -1   0   6 1611.84   98.69
  -1   0   6 1644.64   56.19
  -1   0   6 1582.24   96.19
   0   0  -6 3087.49  107.99
   0   0   6 2872.71  114.69
   0   0   6 2880.31  117.69
  -1   0  -6 1262.37   94.49
   1   0   6 1387.46   76.39
  -2   0  -6 2991.90  122.99
   2   0   6 3135.89   78.09
   2   0   6 3171.38  117.89
   2   0   6 3379.06   95.49
  -3   0  -6  247.08   61.99
   3   0   6  246.38   63.59
   3   0   6  272.77   31.70
   3   0   6  344.57   47.10
  -4   0  -6 1532.75   68.69
  -4   0  -6 1792.22  123.59
   4   0   6 1298.27   98.49
   4   0   6 1347.87   87.39
  -5   0  -6    8.60   56.49
  -5   0  -6   84.89   62.69
  -5   0  -6   41.70   42.20
   5   0   6  -37.60   54.29
   5   0   6  -56.49   47.10
  -6   0  -6  401.66   81.59
  -6   0  -6  429.36   70.69
  -6   0  -6  529.55   99.69
   6   0   6  339.47   80.69
   6   0   6  467.95   88.89
  -7   0  -6  -60.69   71.59
  -7   0  -6   39.40   68.49
  -7   0  -6  -58.79   56.29
   7   0   6   63.19   67.49
   7   0   6  -42.20   70.39
  -8   0  -6  323.07  117.39
   8   0   6  113.99   94.49
   8   0   6  104.99   76.89
  -9   0  -6  -19.00   86.79
   9   0   6   20.90   92.69
   9   0   6  108.29   91.09
  -8   1   6  134.79  104.09
  -8   1   6  237.68  117.79
  -8   1   6   62.89  102.49
   7  -1  -6  145.19   81.69
  -7   1   6  303.77  107.39
  -7   1   6  168.08  103.09
  -7   1   6  111.49   89.79
   6  -1  -6   43.00   65.99
  -6   1   6    9.90   77.49
  -6   1   6    8.50   77.99
  -6   1   6  -12.20   70.39
   5  -1  -6  509.85   75.49
  -5   1   6  526.05   95.39
  -5   1   6  681.93  103.39
   4  -1  -6 -100.99   38.90
  -4   1   6  -45.30   54.89
  -4   1   6   16.20   56.79
   3  -1  -6  920.41   61.29
  -3   1   6  835.82   89.29
  -3   1   6 1005.70   84.49
  -2   1   6   59.39   59.59
  -2   1   6  128.89   39.60
  -2   1   6  165.78   25.40
   1  -1  -6 3871.01  111.29
  -1   1   6 3646.14  141.19
  -1   1   6 3590.04   84.69
  -1   1   6 3826.72   90.89
   0  -1  -6 1116.39   84.39
   0   1   6  847.72   61.29
   0   1   6  936.91   89.39
  -1  -1  -6 3163.08  126.59
   1   1   6 2827.22  103.89
  -2  -1  -6 2708.33  127.79
   2   1   6 2799.52   71.99
   2   1   6 2830.02  114.29
  -3  -1  -6  904.81   88.09
   3   1   6  854.91   48.20
   3   1   6 1000.00   65.69
   3   1   6  978.60   84.59
  -4  -1  -6 2374.46  134.69
  -4  -1  -6 2394.66   80.69
   4   1   6 2231.78  125.19
   4   1   6 2439.36  104.49
  -5  -1  -6  152.78   63.59
  -5  -1  -6  301.67   54.39
   5   1   6  183.28   63.99
   5   1   6  315.37   79.09
  -6  -1  -6 1354.26  104.09
  -6  -1  -6 1147.39  113.19
   6   1   6 1003.40  110.29
   6   1   6 1395.06  129.79
  -7  -1  -6   87.69   64.39
  -7  -1  -6   14.20   64.69
   7   1   6   36.80   77.59
   7   1   6  -53.09   71.09
   8   1   6  248.18   97.39
   8   1   6  326.47   91.59
   9   1   6   12.20   96.99
   9   1   6  -39.10   93.99
  -8   2   6  160.68  110.39
  -8   2   6  130.09   97.59
  -8   2   6  166.68  117.39
   7  -2  -6  171.68   82.89
  -7   2   6  137.49   97.29
  -7   2   6  253.67   97.39
   6  -2  -6   57.69   66.79
  -6   2   6   63.89   83.49
  -6   2   6   32.70   79.09
   5  -2  -6  378.76   72.19
  -5   2   6  203.58   87.79
  -5   2   6  212.48   83.09
   4  -2  -6    6.70   41.50
  -4   2   6  -40.20   57.79
  -4   2   6  105.39   64.69
   3  -2  -6  768.02   62.49
  -3   2   6  617.64   97.39
  -3   2   6  625.34   74.89
   2  -2  -6  196.28   28.10
  -2   2   6  159.98   64.79
  -2   2   6  131.39   21.60
  -2   2   6  168.48   46.30
  -1   2   6 1045.80   51.99
  -1   2   6 1150.68  107.29
  -1   2   6  987.90   65.59
   0   2   6  440.06   47.30
   0   2   6  463.55   44.10
   0   2   6  395.76   75.39
  -1  -2  -6 1177.18   93.59
   1   2   6 1175.78   54.89
   1   2   6 1251.97   71.79
  -2  -2  -6  664.13   74.19
   2   2   6  875.81   76.99
   2   2   6  767.12   56.79
  -3  -2  -6 1355.16   44.10
  -3  -2  -6 1324.57   98.09
   3   2   6 1228.88   97.29
   3   2   6 1365.56   78.09
  -4  -2  -6 1354.46   69.59
  -4  -2  -6 1226.98  100.09
   4   2   6 1237.68   89.59
   4   2   6 1344.57  112.49
  -5  -2  -6  340.47   77.49
  -5  -2  -6  338.37   58.69
   5   2   6  245.38   72.59
   5   2   6  292.07   69.69
  -6  -2  -6 1107.09   99.39
   6   2   6 1157.58  116.79
  -7  -2  -6  155.38   71.39
   7   2   6    4.80   72.29
   7   2   6   94.79   86.69
   8   2   6  592.74  119.99
   8   2   6  485.45  105.89
   9   2   6  -31.00   92.39
   9   2   6   72.89  101.79
  -8   3   6  201.88  111.79
  -8   3   6  202.88  120.89
   7  -3  -6   13.30   74.59
  -7   3   6  121.99   98.19
  -7   3   6   66.39   94.19
   6  -3  -6  277.37   77.29
  -6   3   6  238.48   93.79
  -6   3   6  615.74  121.39
   5  -3  -6  392.46   74.69
  -5   3   6  372.36   95.69
  -5   3   6  632.94  107.29
   4  -3  -6   91.49   51.39
  -4   3   6  166.88   74.89
  -4   3   6   -1.40   62.89
   3  -3  -6 1301.57   77.39
  -3   3   6 1153.48  117.79
  -3   3   6 1390.96  107.69
   2  -3  -6   11.90   29.00
  -2   3   6  -19.50   58.79
  -2   3   6   46.60   22.30
  -2   3   6   20.90   51.19
   1  -3  -6 1457.45   47.40
  -1   3   6 1410.06   61.29
  -1   3   6 1578.74  120.19
  -1   3   6 1471.75   92.19
   0   3   6  643.74   68.49
   0   3   6  574.44   97.89
   0   3   6  662.93   58.49
   1   3   6 1409.96   84.19
   1   3   6 1192.88   76.49
  -2  -3  -6 1268.07   40.30
   2   3   6 1293.47   82.59
   2   3   6 1170.88   85.29
  -3  -3  -6  799.92   54.99
   3   3   6  913.51   96.89
   3   3   6  744.43   74.69
  -4  -3  -6  637.44   62.39
   4   3   6  620.04   81.29
   4   3   6  575.74   83.29
  -5  -3  -6  531.65   68.79
   5   3   6  360.86   77.59
   5   3   6  406.56   86.79
  -6  -3  -6  282.67   71.09
   6   3   6  371.56   93.29
   6   3   6  330.27   91.79
   7   3   6  -47.70   71.79
   7   3   6   71.59   83.19
   8   3   6  277.57  100.69
   8   3   6  119.29   92.19
   9   3   6   67.49   89.29
   9   3   6   59.09  102.39
  -7   4   6   45.70   88.99
  -7   4   6   81.69  100.29
   6  -4  -6  254.17   83.49
  -6   4   6  187.08  101.99
  -6   4   6   73.69   99.49
   5  -4  -6  224.18   69.59
  -5   4   6  401.76  106.09
  -5   4   6  243.58   90.79
   4  -4  -6  114.39   57.09
  -4   4   6  319.07   88.89
  -4   4   6  130.19   75.79
   3  -4  -6  658.73   70.09
  -3   4   6  758.52  108.19
  -3   4   6  750.42  104.09
   2  -4  -6  102.79   42.00
  -2   4   6  356.66   92.99
  -2   4   6  208.98   71.99
   1  -4  -6 1923.41   76.19
  -1   4   6 1930.91  117.89
  -1   4   6 2041.90   82.89
  -1   4   6 1997.20  137.19
   0  -4  -6    1.40   28.00
   0   4   6  -64.09   48.90
   0   4   6   85.19   43.00
   0   4   6   77.99   77.39
  -1  -4  -6 3321.77   87.79
   1   4   6 3518.65  131.99
   1   4   6 3570.14  127.29
   1   4   6 3304.77  180.58
  -2  -4  -6  623.94   75.59
  -2  -4  -6  592.24   53.09
   2   4   6  612.84   76.29
   2   4   6  783.62   86.99
  -3  -4  -6 2074.29   90.69
  -3  -4  -6 2043.40  102.29
   3   4   6 2020.40  123.79
   3   4   6 1986.70  120.19
  -4  -4  -6 1000.20   79.09
  -4  -4  -6  962.80   80.39
   4   4   6 1055.69  105.49
   4   4   6 1176.88  110.19
  -5  -4  -6 1082.69   98.09
   5   4   6 1035.30  111.79
   5   4   6  915.51  113.89
  -6  -4  -6  685.03   87.69
   6   4   6  490.85   99.89
   6   4   6  473.55   94.69
   7   4   6  116.59   97.49
   7   4   6   26.60   89.09
   8   4   6  318.97  107.79
   8   4   6  149.59   98.29
  -7   5   6  195.78  104.09
  -7   5   6  -38.30  100.79
  -6   5   6  381.26  112.99
  -6   5   6   75.79  102.19
   5  -5  -6  134.19   70.29
  -5   5   6  140.99   91.99
  -5   5   6  100.89   84.29
   4  -5  -6  244.38   68.19
  -4   5   6   42.30   87.09
  -4   5   6  127.29   91.99
   3  -5  -6  380.36   71.09
  -3   5   6  465.85  109.49
  -3   5   6  501.75  108.89
   2  -5  -6    5.90   43.30
  -2   5   6  -39.10   72.99
  -2   5   6    3.00   77.49
   1  -5  -6  989.00   78.39
  -1   5   6 1183.68  120.49
  -1   5   6  790.52  111.49
  -1   5   6  974.60   77.89
   0  -5  -6  -57.49   52.29
   0  -5  -6   97.79   43.70
   0   5   6  204.68   76.39
   0   5   6   98.49   51.09
   0   5   6   20.90   71.29
  -1  -5  -6 1479.45   82.29
  -1  -5  -6 1366.26  114.99
   1   5   6 1514.35  125.39
   1   5   6 1433.06  139.89
   1   5   6 1358.66   94.09
  -2  -5  -6   25.10   55.69
  -2  -5  -6   97.89   46.60
   2   5   6   25.60   62.89
   2   5   6   69.69   63.89
  -3  -5  -6 1466.85  106.29
  -3  -5  -6 1670.43   99.29
   3   5   6 1686.03  119.49
   3   5   6 1678.53  125.69
  -4  -5  -6  373.86   68.59
  -4  -5  -6  361.56   68.79
   4   5   6  301.17   82.89
   4   5   6  404.36   92.19
  -5  -5  -6 1009.70   99.19
   5   5   6  751.22  108.99
   5   5   6  638.24  104.19
   6   5   6  308.57  103.59
   6   5   6  458.65  106.59
   7   5   6  422.96  114.49
   7   5   6  175.18   94.19
   8   5   6  373.76  122.29
   8   5   6   39.10  104.99
  -6   6   6  228.78  108.59
  -6   6   6  238.48  116.99
  -5   6   6  101.19   85.39
  -5   6   6  139.79  107.19
   4  -6  -6  217.48   75.99
  -4   6   6  227.98  104.99
  -4   6   6  197.28   92.99
   3  -6  -6  354.76   76.09
  -3   6   6  622.04  127.49
  -3   6   6  489.35  112.69
   2  -6  -6  159.28   58.39
  -2   6   6   13.50   84.89
  -2   6   6  -78.59   77.39
   1  -6  -6 1040.10   91.19
  -1   6   6  930.51  134.29
  -1   6   6 1148.39   96.69
  -1   6   6 1157.98  139.19
   0  -6  -6   75.99   64.59
   0  -6  -6   15.20   46.20
   0   6   6   27.50   53.89
   0   6   6  -24.50   81.79
  -1  -6  -6 1133.69   89.39
  -1  -6  -6 1176.68  115.89
   1   6   6 1308.97  133.59
   1   6   6 1386.56  103.19
   1   6   6 1233.38  147.19
  -2  -6  -6  224.28   62.49
  -2  -6  -6  204.38   71.89
   2   6   6  207.58   81.79
   2   6   6  137.59   65.99
   2   6   6  339.57  111.29
  -3  -6  -6  948.21   91.79
  -3  -6  -6  841.62   98.79
   3   6   6  913.71  110.99
   3   6   6  803.22  111.79
  -4  -6  -6  167.48   66.79
  -4  -6  -6   87.49   64.09
   4   6   6  216.48   92.09
   4   6   6  133.29   77.29
   5   6   6  328.97   94.59
   5   6   6  410.26  101.59
   6   6   6  181.48   97.69
   6   6   6  298.37  101.89
   7   6   6  158.08  102.29
   7   6   6  289.07  107.69
  -5   7   6   -2.50   83.69
  -5   7   6  143.59  111.49
  -4   7   6  372.16  119.89
  -4   7   6  259.77  108.59
   3  -7  -6  270.97   81.69
  -3   7   6  223.38  115.39
  -3   7   6  243.38   96.29
   2  -7  -6  502.65   84.89
  -2   7   6  371.76  121.99
  -2   7   6  321.87  106.79
   1  -7  -6  872.21   97.39
   1  -7  -6 1004.90  134.59
  -1   7   6 1042.50  150.48
  -1   7   6 1061.29  145.69
   0  -7  -6  164.68   66.19
   0  -7  -6   73.39   75.69
   0   7   6   87.89   82.89
   0   7   6  211.08   70.69
   0   7   6   74.79   97.39
  -1  -7  -6 1250.57  108.39
  -1  -7  -6 1267.77  138.29
   1   7   6 1157.78  139.99
   1   7   6 1350.26  160.58
   1   7   6 1218.78  120.99
  -2  -7  -6  -29.00   68.59
  -2  -7  -6  -36.90   57.19
   2   7   6  -47.40   92.79
   2   7   6   50.39   72.69
   2   7   6   31.30   90.29
  -3  -7  -6 1078.09  124.19
  -3  -7  -6 1086.59  109.79
   3   7   6 1304.17  136.59
   3   7   6  938.01  135.99
   3   7   6 1116.69  158.38
  -4  -7  -6  197.48   78.89
   4   7   6   66.29   93.89
   4   7   6  180.18   83.49
   5   7   6  415.76  111.99
   5   7   6  593.84  110.79
   6   7   6  216.88  114.29
   6   7   6   95.09   99.29
  -4   8   6   88.39   86.79
  -4   8   6  282.57  125.39
  -3   8   6   63.69  112.59
  -3   8   6  182.48  108.39
  -2   8   6   61.29   96.69
  -2   8   6   32.00  107.89
   1  -8  -6  286.47  113.09
  -1   8   6  139.09  109.99
  -1   8   6  267.87   95.49
   0  -8  -6   28.10   90.49
   0   8   6   92.89   72.99
   0   8   6   89.39   98.79
   0   8   6  188.28  106.59
  -1  -8  -6  594.84  120.69
   1   8   6  521.25  101.59
   1   8   6  665.13  129.69
  -2  -8  -6  207.58   85.99
   2   8   6  136.89   80.69
   2   8   6   65.89   98.69
   2   8   6   30.10   88.59
  -3  -8  -6  782.32  120.89
   3   8   6  866.21  154.08
   3   8   6  832.12  136.99
   3   8   6  780.72  113.09
   4   8   6  105.89   89.59
   4   8   6  117.59  117.69
   4   8   6 -150.58   90.29
   5   8   6  506.85  124.19
   5   8   6  620.04  116.89
  -2   9   6  187.78  131.69
  -2   9   6    2.00   97.79
   1  -9  -6  252.77  117.99
  -1   9   6  172.38  100.49
  -1   9   6   43.00  120.29
   0  -9  -6  170.08  111.99
   0   9   6   38.60   90.99
   0   9   6   91.79   95.19
  -1  -9  -6  444.26  113.49
   1   9   6  264.97   94.79
   1   9   6  349.07  117.09
   1   9   6  247.38  115.19
  -2  -9  -6   34.90   92.09
   2   9   6  -69.39  100.19
   2   9   6 -184.28   68.79
  -3  -9  -6  390.76  107.69
   3   9   6  357.66  105.19
   3   9   6  370.66  133.19
   3   9   6  300.77  113.79
   4   9   6 -135.09   84.69
   3   8  -7  -41.50   86.49
   3   8  -7   -6.20   86.99
  -3  -8   7   10.20   93.89
  -3  -8   7  -20.30   93.49
   2   8  -7  434.66  119.19
   2   8  -7  295.07   99.09
  -2  -8   7  387.06  110.39
  -2  -8   7  283.97  110.29
   1   8  -7    7.40   96.49
  -1  -8   7   58.49   89.89
  -1  -8   7 -129.79   85.39
   0   8  -7  281.17  108.29
   0  -8   7  458.65  118.49
   0  -8   7  497.65  124.79
  -1   8  -7   -8.20  102.89
   1  -8   7  240.98  110.19
   1  -8   7   47.20   84.59
  -2   8  -7  179.38  104.39
   2  -8   7  407.96  115.69
   2  -8   7  405.16  120.99
   3  -8   7  350.96  127.39
   3  -8   7  343.57  107.09
   5   7  -7   76.69   94.89
  -5  -7   7   42.90  103.19
  -5  -7   7   20.10  101.09
   4   7  -7  471.55  119.19
  -4  -7   7  370.06  122.69
  -4  -7   7  285.77  108.59
   3   7  -7  -63.59   84.09
   3   7  -7 -108.69   73.29
  -3  -7   7   58.49   82.89
  -3  -7   7   24.20   83.79
   2   7  -7  502.55  108.39
   2   7  -7  597.14  122.89
  -2  -7   7  625.94  120.69
  -2  -7   7  588.74  118.19
   1   7  -7  233.38  101.19
  -1  -7   7  -90.99   72.99
  -1  -7   7   25.30   81.59
   0   7  -7  356.26  113.69
   0  -7   7  598.64  116.19
   0  -7   7  581.14  109.79
  -1   7  -7  167.88  103.89
   1  -7   7  132.79   92.39
   1  -7   7  100.69   79.69
  -2   7  -7  333.47  118.19
   2  -7   7  383.26   98.19
   2  -7   7  380.46  112.89
  -3   7  -7  303.87  103.79
   3  -7   7  243.18   94.19
   3  -7   7  499.45  118.89
  -4   7  -7  226.88  109.19
   4  -7   7  181.18  110.59
  -5   7  -7  169.98  105.29
   5  -7   7  232.98  120.19
  -6  -6   7   91.09  102.89
  -6  -6   7   87.19  102.79
   5   6  -7  252.87  101.69
  -5  -6   7  139.09   99.09
  -5  -6   7  309.27  119.49
   4   6  -7  170.28   93.79
  -4  -6   7  204.98   93.59
  -4  -6   7  124.49   92.29
   3   6  -7  118.79   85.09
   3   6  -7  144.09   80.99
  -3  -6   7  216.68   87.59
  -3  -6   7  238.58   97.99
   2   6  -7  668.33  112.69
   2   6  -7  681.83  120.09
  -2  -6   7  917.11  131.99
  -2  -6   7  527.45  108.29
   1   6  -7   49.50   84.79
  -1  -6   7  -18.20   70.09
  -1  -6   7  -18.50   71.09
   0   6  -7 1272.97  145.79
   0  -6   7 1654.03  142.49
   0  -6   7 1418.96  136.99
  -1   6  -7  224.28   89.49
   1  -6   7   79.19   79.69
   1  -6   7  124.09   80.99
  -2   6  -7  737.03  118.39
   2  -6   7  773.02  107.49
   2  -6   7  843.32  130.39
  -3   6  -7  395.66  111.69
   3  -6   7  250.17   85.39
   3  -6   7  208.58   88.89
  -4   6  -7  602.84  126.89
   4  -6   7  437.76  124.59
  -5   6  -7  137.39  101.79
   5  -6   7  152.58  100.19
  -6   6  -7  114.89  112.39
   6  -6   7   57.89   98.79
  -7  -5   7  341.17  135.69
  -7  -5   7  219.18  117.69
  -6  -5   7  128.89  117.49
  -6  -5   7  232.28  115.59
   5   5  -7  167.58   85.89
  -5  -5   7   65.99  101.19
  -5  -5   7   55.89   93.49
   4   5  -7  -49.40   64.99
  -4  -5   7  -34.40   79.59
  -4  -5   7   49.20   82.99
   3   5  -7  143.19   75.99
   3   5  -7  125.69   75.99
  -3  -5   7  156.08   81.59
  -3  -5   7  219.58   86.29
   2   5  -7  464.95   91.39
   2   5  -7  345.57   94.09
  -2  -5   7  509.45   94.59
  -2  -5   7  563.04  107.49
   1   5  -7  126.09   77.79
  -1  -5   7  173.58   73.09
  -1  -5   7   88.29   72.19
   0   5  -7  662.73  108.19
   0  -5   7  847.42  102.69
   0  -5   7  828.12  109.59
  -1   5  -7   45.10   72.49
   1  -5   7   17.00   67.29
   1  -5   7  -37.70   65.09
  -2   5  -7 1845.02  158.68
   2  -5   7 2030.10  147.49
   2  -5   7 1854.51  133.39
  -3   5  -7  167.08   83.69
   3  -5   7   89.59   68.79
   3  -5   7   64.69   76.09
  -4   5  -7  957.10  130.59
   4  -5   7  858.21  123.09
  -5   5  -7  261.27  106.89
   5  -5   7  338.97  103.59
  -6   5  -7  384.46  118.69
   6  -5   7  304.27  109.39
  -7   5  -7  282.77  116.59
   7  -5   7   96.09   92.49
   7  -5   7  173.18  108.89
  -7  -4   7  702.63  146.19
  -7  -4   7  187.18  108.29
  -6  -4   7  115.99  105.09
  -6  -4   7   28.10   95.39
   5   4  -7  561.64   97.69
  -5  -4   7  342.07  104.79
  -5  -4   7  470.95  104.09
   4   4  -7  515.25   93.59
  -4  -4   7  266.87   89.29
  -4  -4   7  306.97   93.29
   3   4  -7  102.49   63.19
   3   4  -7  102.09   71.49
  -3  -4   7  112.39   73.29
  -3  -4   7   53.19   70.69
   2   4  -7  773.82   96.09
   2   4  -7  974.10  101.99
   2   4  -7  881.91   77.19
  -2  -4   7  879.01  117.79
  -2  -4   7  893.81  100.89
   1   4  -7   95.39   44.20
   1   4  -7   14.30   61.79
  -1  -4   7  158.98   69.29
  -1  -4   7   67.59   57.49
   0   4  -7 1330.77  123.09
   0  -4   7 1228.68  120.49
   0  -4   7 1161.78  100.79
  -1   4  -7  139.89   68.09
   1  -4   7   24.60   57.29
   1  -4   7   -7.50   54.69
  -2   4  -7  837.52  108.09
   2  -4   7 1032.70  104.49
   2  -4   7  995.20   97.59
  -3   4  -7   76.49   73.39
   3  -4   7   49.30   54.89
   3  -4   7  -62.69   60.89
  -4   4  -7  558.34  101.89
   4  -4   7  631.44  101.39
  -5   4  -7  -22.20   83.39
   5  -4   7  274.77   92.09
  -6   4  -7  339.67  109.49
   6  -4   7  525.75  107.59
  -7   4  -7  103.19  101.39
   7  -4   7  213.38   96.59
   7  -4   7  104.59  101.39
  -8  -3   7  108.69  106.79
  -7  -3   7  375.26  125.59
  -7  -3   7  304.47  109.89
  -6  -3   7   91.09   87.59
  -6  -3   7  -51.59   79.39
  -5  -3   7  365.96  101.69
  -5  -3   7  349.57  103.49
   4   3  -7  142.89   60.79
   4   3  -7   20.20   62.09
  -4  -3   7  138.39   77.79
  -4  -3   7   87.29   76.19
   3   3  -7  847.02   75.59
   3   3  -7  943.31   92.99
   3   3  -7  826.02   81.69
  -3  -3   7  930.41  100.89
  -3  -3   7  817.82  115.19
   2   3  -7  894.51   89.79
   2   3  -7  857.61   65.49
  -2  -3   7  925.61  107.49
  -2  -3   7 1021.60   93.29
   1   3  -7  473.75   76.29
  -1  -3   7  444.26   67.89
  -1  -3   7  466.55   86.29
   0   3  -7 2625.14  130.09
   0  -3   7 2817.32  138.19
   0  -3   7 2789.02  113.19
  -1   3  -7  211.78   72.99
   1  -3   7  167.58   54.79
   1  -3   7  228.48   56.29
  -2   3  -7 2069.89  140.29
   2  -3   7 2162.28  107.39
   2  -3   7 2157.88  111.49
  -3   3  -7  130.29   68.39
   3  -3   7   63.59   47.30
   3  -3   7   -7.10   55.89
  -4   3  -7 1113.09  119.29
  -4   3  -7 1265.47  113.89
   4  -3   7 1275.07  112.79
  -5   3  -7   94.79   73.89
  -5   3  -7   17.00   82.09
   5  -3   7  114.39   74.19
  -6   3  -7  377.36   95.39
  -6   3  -7  376.16   98.39
   6  -3   7  364.36   92.59
   6  -3   7  252.67   87.39
  -7   3  -7  -65.99   80.59
  -7   3  -7   58.19   88.69
   7  -3   7   45.30   82.89
   7  -3   7  184.38   99.49
  -8   3  -7  202.08  112.79
   8  -3   7   77.29   89.49
   8  -3   7   82.99   84.39
  -8  -2   7  118.79  100.39
  -8  -2   7  -21.00  101.29
  -7  -2   7  413.76  114.49
  -7  -2   7  412.46  124.69
  -6  -2   7  -79.29   79.69
  -6  -2   7   27.30   84.09
   5   2  -7  417.96   84.19
  -5  -2   7  451.15   84.79
  -5  -2   7  475.05  111.09
  -5  -2   7  538.85  101.79
   4   2  -7  154.88   53.99
   4   2  -7  131.79   55.49
  -4  -2   7  114.69   75.79
  -4  -2   7   15.50   62.99
  -4  -2   7  192.78   61.69
   3   2  -7  662.63   66.19
   3   2  -7  713.73   59.99
  -3  -2   7  447.16   83.59
  -3  -2   7  773.22   70.49
  -3  -2   7  645.74   83.79
   2   2  -7  207.48   56.49
  -2  -2   7  234.18   42.30
  -2  -2   7  253.77   55.59
  -2  -2   7  139.49   64.29
   1   2  -7  695.03   74.99
  -1  -2   7  670.53   62.29
  -1  -2   7  629.24   52.09
  -1  -2   7  548.85   78.69
   0   2  -7 1156.28  103.59
   0  -2   7 1255.17  101.59
   0  -2   7 1048.00   69.09
   0  -2   7 1248.98   70.19
  -1   2  -7  539.55   78.59
   1  -2   7  549.85   57.29
   1  -2   7  543.35   68.39
  -2   2  -7 2151.28  135.29
   2  -2   7 2300.57   99.39
   2  -2   7 2388.36  104.29
  -3   2  -7  112.49   64.99
   3  -2   7    0.20   35.50
   3  -2   7  119.69   54.19
  -4   2  -7 2362.06  154.08
   4  -2   7 2205.08  123.69
  -5   2  -7  -10.70   72.99
  -5   2  -7  -28.70   64.09
   5  -2   7   -4.70   57.29
   5  -2   7  -17.40   64.79
  -6   2  -7 1090.69  122.39
  -6   2  -7  844.82  114.69
   6  -2   7  920.51  113.39
   6  -2   7  871.81  117.09
  -7   2  -7  -18.60   84.89
  -7   2  -7   86.99   76.89
   7  -2   7   11.90   83.19
   7  -2   7   59.59   74.69
  -8   2  -7  462.35  115.99
   8  -2   7  262.17  106.19
   8  -2   7  314.37   96.39
  -8  -1   7   -6.90   90.79
  -8  -1   7  -18.30   95.09
  -8  -1   7  122.79  116.79
  -7  -1   7  351.46  111.69
  -7  -1   7  439.36  108.59
  -7  -1   7  514.35  114.29
  -6  -1   7   26.40   80.89
  -6  -1   7  -56.69   74.79
  -6  -1   7   64.49   84.29
   5   1  -7  765.72   92.29
  -5  -1   7  707.23  115.69
  -5  -1   7  845.82  104.09
  -5  -1   7  641.44  102.49
   4   1  -7   68.79   46.10
  -4  -1   7  169.98   66.59
  -4  -1   7  112.29   81.99
  -4  -1   7   91.79   58.39
   3   1  -7  678.43   53.59
   3   1  -7  604.74   56.39
  -3  -1   7  865.81   83.89
  -3  -1   7  568.34   92.59
  -3  -1   7  640.44   73.69
   2   1  -7  445.46   58.19
  -2  -1   7  564.54   62.89
  -2  -1   7  417.46   55.69
  -2  -1   7  387.46   76.79
   1   1  -7  816.92   78.49
  -1  -1   7  759.42   66.89
  -1  -1   7  681.43   85.39
  -1  -1   7  844.42   56.19
   0   1  -7  538.15   74.89
   0  -1   7  493.65   38.90
   0  -1   7  543.15   62.09
   0  -1   7  470.55   71.59
  -1   1  -7  189.98   59.09
   1  -1   7  211.08   32.70
   1  -1   7  236.58   51.89
  -2   1  -7 1210.28  101.29
   2  -1   7 1266.87   67.19
   2  -1   7 1270.87   74.49
  -3   1  -7  127.89   62.89
   3  -1   7   80.79   42.00
   3  -1   7   51.89   33.40
  -4   1  -7 1353.86  126.29
   4  -1   7 1253.47   91.19
   4  -1   7 1171.48  107.59
  -5   1  -7   44.60   63.09
   5  -1   7   28.10   61.19
   5  -1   7   37.30   56.39
  -6   1  -7 1115.89  119.59
  -6   1  -7 1332.57  136.89
   6  -1   7 1001.60  116.09
   6  -1   7 1203.18  121.09
  -7   1  -7   83.29   80.19
  -7   1  -7    5.20   94.59
   7  -1   7   12.80   66.69
   7  -1   7  -17.90   79.99
  -8   1  -7  482.65  128.49
  -8   1  -7  367.76  106.29
   8  -1   7  476.25  103.09
   8  -1   7  386.36  105.09
  -8   0   7  201.68  118.79
  -8   0   7  -10.50   92.69
  -8   0   7   16.90  102.69
  -7   0   7  514.15  122.19
  -7   0   7  482.65  116.39
  -7   0   7  479.35  120.49
  -6   0   7    3.60   85.69
  -6   0   7   46.50   76.69
  -6   0   7  153.08   87.79
   5   0  -7 1121.89  100.59
  -5   0   7 1205.58  140.49
  -5   0   7 1145.99  117.99
  -5   0   7 1044.10  118.79
   4   0  -7  -38.10   38.10
  -4   0   7  -36.50   61.49
  -4   0   7   71.89   62.99
  -4   0   7  -79.09   52.29
   3   0  -7 1153.28   61.39
  -3   0   7 1234.58  122.49
  -3   0   7 1405.96  107.89
  -3   0   7 1408.36   95.39
   2   0  -7  338.07   51.29
  -2   0   7  343.37   64.19
  -2   0   7  425.76   53.69
  -2   0   7  371.46   78.19
   1   0  -7 1619.14   87.99
  -1   0   7 1583.24   58.69
  -1   0   7 1768.22  108.59
  -1   0   7 1581.74   99.39
   0   0  -7 2196.48  106.69
   0   0   7 2086.49  110.49
   0   0   7 2071.59  110.39
  -1   0  -7  478.75   68.29
   1   0   7  482.75   59.79
  -2   0  -7 2647.14  122.49
   2   0   7 2557.94   71.39
   2   0   7 2486.85  118.99
   2   0   7 2460.55   94.99
  -3   0  -7  148.69   60.79
   3   0   7  181.88   40.40
   3   0   7  162.68   35.90
   3   0   7  153.68   61.99
  -4   0  -7 1771.22  129.69
   4   0   7 1623.84  110.89
   4   0   7 1873.11   99.39
  -5   0  -7  -84.49   61.89
   5   0   7   66.89   63.89
   5   0   7   17.60   51.69
  -6   0  -7  591.74   97.59
   6   0   7  592.54   96.89
   6   0   7  613.24   97.49
  -7   0  -7   -7.40   63.49
   7   0   7  -47.00   69.09
   7   0   7 -174.88   68.19
  -8   0  -7  315.87   95.49
   8   0   7  142.99   92.89
   8   0   7  205.58   95.19
   9   0   7   20.70   94.49
   9   0   7  -23.00   96.49
  -8   1   7  145.89  104.99
  -8   1   7  142.99  109.29
  -8   1   7   16.60  104.69
  -7   1   7  196.28   92.79
  -7   1   7  233.78  104.19
  -7   1   7  155.98  103.09
  -6   1   7  135.19   86.89
  -6   1   7  120.89   93.49
  -6   1   7  169.98   91.39
  -5   1   7  528.45  104.19
  -5   1   7  412.86   93.99
   4  -1  -7   21.90   43.70
  -4   1   7  -19.30   57.89
  -4   1   7   -0.90   58.89
  -3   1   7  921.11   99.69
  -3   1   7 1058.89   86.59
  -2   1   7   -8.10   34.30
  -2   1   7   -1.80   52.39
  -2   1   7  -10.00   25.20
   1  -1  -7  600.34   65.39
  -1   1   7  711.23   87.79
  -1   1   7  646.04   54.99
  -1   1   7  616.64   46.30
   0  -1  -7  305.57   60.49
   0   1   7  386.76   72.09
   0   1   7  368.06   52.09
  -1  -1  -7 1874.71  114.49
   1   1   7 1841.52   94.09
  -2  -1  -7 2189.18  125.89
   2   1   7 1894.61   60.49
   2   1   7 2053.69  108.49
  -3  -1  -7  607.74   81.69
   3   1   7  784.32   61.49
   3   1   7  742.43   54.79
   3   1   7  804.82   85.69
  -4  -1  -7 2057.29  135.89
   4   1   7 1821.72  115.99
   4   1   7 2043.30   98.09
  -5  -1  -7  125.39   73.49
   5   1   7   89.69   63.89
   5   1   7  249.18   66.79
  -6  -1  -7 1357.36  132.19
   6   1   7 1045.20  114.49
   6   1   7 1245.18  121.19
  -7  -1  -7  -74.69   65.29
   7   1   7   93.49   77.99
   7   1   7  115.19   78.79
  -8  -1  -7  307.37   88.09
   8   1   7  366.56  107.69
   8   1   7  278.17  105.29
   9   1   7   47.60  102.39
   9   1   7   12.40   87.49
  -8   2   7  219.58  111.29
  -8   2   7   50.69   95.59
  -8   2   7  253.67  126.89
  -7   2   7  150.88  107.69
  -7   2   7   95.99   88.49
  -7   2   7  329.47  105.39
  -6   2   7  344.47  100.89
  -6   2   7  296.27   92.29
  -5   2   7  344.47   92.79
  -5   2   7  459.65   93.39
   4  -2  -7   58.09   50.09
  -4   2   7  104.39   66.79
  -4   2   7   16.60   74.69
  -3   2   7  763.62   83.49
  -3   2   7  617.34   94.39
  -2   2   7   -2.60   21.20
  -2   2   7   42.90   61.19
  -2   2   7   29.00   40.50
  -1   2   7 1178.68   68.39
  -1   2   7 1274.57  119.59
  -1   2   7 1178.68   58.79
   0   2   7  575.94   93.19
   0   2   7  463.65   52.89
   0   2   7  437.46   43.50
  -1  -2  -7  780.42   82.59
   1   2   7  830.02   48.90
   1   2   7  872.31   77.09
  -2  -2  -7  567.14   76.99
   2   2   7  522.25   47.70
   2   2   7  399.46   62.99
  -3  -2  -7  591.14   79.49
   3   2   7  823.72   91.99
   3   2   7  732.53   65.09
  -4  -2  -7 1178.98  113.19
   4   2   7 1155.18  111.09
   4   2   7 1009.10   88.39
  -5  -2  -7  308.67   76.79
   5   2   7  257.57   75.89
   5   2   7  450.75   78.19
  -6  -2  -7  774.02  102.09
   6   2   7  930.81  112.49
   6   2   7  837.92  109.99
   7   2   7    0.90   84.49
   7   2   7  114.09   82.79
   8   2   7  471.05  105.69
   8   2   7  404.16  107.29
  -7   3   7  347.57  111.89
  -7   3   7   79.89   90.79
  -6   3   7  143.09   91.79
  -6   3   7  261.77  108.39
  -5   3   7  410.06  111.79
  -5   3   7  395.06   90.89
  -4   3   7  463.15  104.69
  -4   3   7  341.87   82.59
  -3   3   7  704.23   89.09
  -3   3   7 1008.60  124.19
  -2   3   7  -95.69   61.59
  -2   3   7  -43.40   49.99
  -1   3   7 1179.98  118.49
  -1   3   7 1309.37   90.89
  -1   3   7 1247.28   64.59
   0   3   7   95.99   41.50
   0   3   7  144.39   50.19
   0   3   7  145.79   79.69
   1   3   7 1755.72   86.69
   1   3   7 1739.53   94.29
   2   3   7  777.82   80.89
   2   3   7  670.63   67.29
   3   3   7  758.52   76.49
   3   3   7  762.02   90.39
   4   3   7  819.32   95.19
   4   3   7  751.82   85.69
   5   3   7  190.88   73.99
   5   3   7  315.27   90.49
   6   3   7  569.94  105.29
   6   3   7  423.36   93.99
   7   3   7   74.59   78.29
   7   3   7   39.20   86.09
   8   3   7  288.47  103.59
   8   3   7  224.38  101.79
  -7   4   7   88.79  102.59
  -7   4   7   52.09  104.09
  -6   4   7  347.07  106.99
  -6   4   7  420.36  114.29
  -5   4   7   77.09   81.69
  -5   4   7  267.27   93.39
  -4   4   7  493.45  113.19
  -4   4   7  257.77   84.29
  -3   4   7  555.14  103.79
  -3   4   7  719.73   99.39
  -2   4   7  415.86   82.59
  -2   4   7  361.56   98.49
  -1   4   7 1101.49   70.29
  -1   4   7 1048.30  127.99
  -1   4   7 1210.28  105.79
   0   4   7  157.78   47.90
   0   4   7  -19.90   51.59
   0   4   7  126.29   75.39
   1   4   7 1615.24  106.09
   1   4   7 1580.14  143.89
   1   4   7 1697.93   99.89
   2   4   7  157.78   59.59
   2   4   7  336.57   71.39
   3   4   7 1338.47  108.69
   3   4   7 1526.35  112.09
   4   4   7  504.55   88.39
   4   4   7  661.03   94.29
   5   4   7  571.04  104.99
   5   4   7  420.56   89.49
   6   4   7  696.53  108.99
   6   4   7  627.04  111.59
   7   4   7  282.77  107.49
   7   4   7   62.89   83.79
   8   4   7  111.99  101.89
   8   4   7  263.47  101.29
  -7   5   7   57.49  110.89
  -6   5   7  476.05  129.29
  -6   5   7  341.97  125.89
  -5   5   7  176.28   97.79
  -5   5   7   95.59  100.49
  -4   5   7  236.78   96.19
  -4   5   7  273.17   96.89
  -3   5   7  463.25  104.59
  -3   5   7  347.67  101.89
  -2   5   7  348.37   94.69
  -2   5   7  329.77  103.89
  -1   5   7  630.04   69.39
  -1   5   7  573.74  114.69
  -1   5   7  859.11  109.29
   0   5   7  104.99   79.29
   0   5   7  256.37   59.99
   1   5   7 1073.49  111.29
   1   5   7  719.93  115.69
   1   5   7  982.60   97.69
   2   5   7   51.09   64.49
   2   5   7   71.99   63.59
  -3  -5  -7 1162.48  101.79
   3   5   7 1363.16  122.69
   3   5   7 1271.57  120.79
   4   5   7   82.59   71.39
   4   5   7  110.59   74.99
   5   5   7  964.00  120.99
   5   5   7  935.91  123.09
   6   5   7   68.79   82.19
   6   5   7  535.35  117.89
   7   5   7  385.26  120.29
   7   5   7  465.35  117.79
   8   5   7  225.68  112.09
  -6   6   7  430.96  129.99
  -6   6   7  303.37  137.19
  -5   6   7   -8.30   91.29
  -5   6   7  135.59   99.29
  -4   6   7  156.28  102.59
  -4   6   7  168.08   99.39
  -3   6   7   22.60  104.49
  -3   6   7  221.18  101.49
  -2   6   7  244.08  102.49
  -2   6   7  272.37  107.09
  -1   6   7  327.27  100.09
  -1   6   7  608.34  116.19
   0   6   7   50.89   52.89
   0   6   7   52.99   90.09
  -1  -6  -7  634.64  100.49
   1   6   7  890.71  134.49
   1   6   7  948.91  122.99
   1   6   7  863.01   96.49
  -2  -6  -7   67.79   66.69
   2   6   7  172.78  109.29
   2   6   7   14.70   72.09
   2   6   7   -6.40   66.19
  -3  -6  -7  933.01  103.99
   3   6   7 1032.10  125.39
   3   6   7  751.52  112.99
   4   6   7  390.76  101.59
   4   6   7  195.38   87.39
   5   6   7  309.77   94.19
   5   6   7  695.73  118.19
   6   6   7   68.39   85.19
   6   6   7   45.70   91.49
   7   6   7  322.07  112.59
   7   6   7  224.78  109.19
  -5   7   7   37.70  101.19
  -5   7   7   52.59  109.59
  -4   7   7  440.26  132.39
  -4   7   7  359.46  109.69
  -3   7   7   81.69  110.89
  -3   7   7   42.60   92.19
  -2   7   7  553.24  127.69
  -2   7   7  408.06  124.99
  -1   7   7  217.68  102.89
  -1   7   7  118.89   92.99
   0   7   7  225.78  104.79
   0   7   7  236.58   71.99
   0   7   7  297.47  101.99
  -1  -7  -7  673.63  107.49
   1   7   7  615.44  120.69
   1   7   7  823.62  101.39
   1   7   7  726.73  137.69
  -2  -7  -7   20.20   72.09
   2   7   7   -5.50  104.39
   2   7   7  -12.10   75.49
   2   7   7  131.59   91.89
  -3  -7  -7  753.82  111.99
   3   7   7  828.32  112.39
   3   7   7  893.51  153.28
   3   7   7  790.52  128.59
   4   7   7   77.99   87.99
   4   7   7  -11.30   76.59
   5   7   7  690.03  122.29
   5   7   7  319.57  106.09
   6   7   7  155.58  109.79
   6   7   7  271.37  110.79
  -4   8   7  412.86  141.89
  -3   8   7   73.49   95.79
  -3   8   7    1.80  118.59
  -2   8   7  350.46  118.49
  -2   8   7  735.53  157.18
  -1   8   7  124.19   97.59
  -1   8   7  204.28  119.59
   0  -8  -7  209.18   97.09
   0   8   7  309.37  108.79
   0   8   7  406.96  116.09
  -1  -8  -7  187.48   97.09
   1   8   7  380.26  114.69
   1   8   7  147.79   75.89
  -2  -8  -7  209.58   90.59
   2   8   7  292.57  110.99
   2   8   7  332.07   93.89
   2   8   7  143.19  114.89
  -3  -8  -7  709.03  123.49
   3   8   7  538.35  123.89
   3   8   7  692.83  112.89
   3   8   7  496.65  127.59
   4   8   7  -19.50   89.99
   4   8   7  -33.00   98.39
   4   8   7   -2.10  118.89
   5   8   7  407.56  109.39
   5   8   7  313.97  110.19
  -2   9   7  -48.60  122.79
  -1   9   7   50.09  107.49
  -1   9   7  149.99  122.39
   0  -9  -7   92.39  107.79
   0   9   7  162.18  114.09
   0   9   7  161.28  127.29
  -1  -9  -7  243.58  108.89
   1   9   7  175.98  124.69
   1   9   7  290.77  123.59
  -2  -9  -7   89.79  100.99
   2   9   7    8.70  105.19
   2   9   7  -63.59   75.19
  -3  -9  -7  198.28   99.39
   3   9   7  235.18  101.89
   3   9   7  269.57  122.29
   3   9   7   41.90  104.79
   2   8  -8  215.28  111.89
  -2  -8   8  117.29   93.79
   1   8  -8  -37.00   95.79
  -1  -8   8   55.69   91.49
  -1  -8   8 -148.89   91.69
   0   8  -8    6.80   96.79
   0  -8   8  160.78   93.09
   0  -8   8  264.57  111.49
  -1   8  -8 -124.69   83.19
   1  -8   8   19.60   93.69
   1  -8   8   38.30   99.09
   2  -8   8  276.57  110.29
   2  -8   8  275.37  109.69
   4   7  -8  443.96  114.89
  -4  -7   8   12.10   97.99
  -4  -7   8  349.57  108.49
   3   7  -8  -18.20   79.39
  -3  -7   8   35.60   97.59
  -3  -7   8   87.39   97.69
   2   7  -8  497.45  119.49
  -2  -7   8  535.85  124.19
  -2  -7   8  321.17  106.19
   1   7  -8   95.39   95.29
  -1  -7   8   11.70   89.29
  -1  -7   8   15.60   81.59
   0   7  -8  493.55  122.59
   0  -7   8  475.75  116.39
   0  -7   8  540.65  115.49
  -1   7  -8  -37.20   83.59
   1  -7   8    0.80   85.89
   1  -7   8   13.60   83.39
  -2   7  -8  185.38  112.59
   2  -7   8  206.88  108.89
   2  -7   8  218.58   88.79
  -3   7  -8  190.38  111.89
   3  -7   8   46.50   88.39
  -4   7  -8   33.70   91.99
   4  -7   8  260.97  116.59
   5   6  -8   72.29   95.49
  -5  -6   8   24.00  100.49
  -5  -6   8   47.70   97.89
   4   6  -8  312.37   98.69
  -4  -6   8  236.88  104.69
  -4  -6   8  159.98  109.49
   3   6  -8  137.89  107.29
   3   6  -8   62.29   86.99
  -3  -6   8   55.69   88.49
  -3  -6   8  109.59   85.69
   2   6  -8  622.44  109.39
  -2  -6   8  425.96  108.59
  -2  -6   8  235.38   93.59
   1   6  -8   40.80   79.89
  -1  -6   8   55.99   74.99
  -1  -6   8   17.60   77.49
   0   6  -8  690.33  115.39
   0  -6   8  846.32  121.29
   0  -6   8 1014.80  124.39
  -1   6  -8  178.58   95.29
   1  -6   8   25.40   77.99
   1  -6   8   36.50   75.69
  -2   6  -8  604.94  115.49
   2  -6   8  748.33  117.99
   2  -6   8  994.60  137.49
  -3   6  -8   99.99   90.39
   3  -6   8  152.78   92.09
   3  -6   8  283.47   87.59
  -4   6  -8  321.77  113.19
   4  -6   8  353.66  111.69
  -5   6  -8  434.06  129.69
   5  -6   8  261.97  112.49
  -6  -5   8  -35.10  103.39
  -6  -5   8  161.28  104.49
  -5  -5   8  282.07  106.29
  -5  -5   8  211.68  110.49
   4   5  -8  -55.79   80.99
  -4  -5   8   36.70   87.69
  -4  -5   8   54.19   84.19
   3   5  -8  186.48   81.69
   3   5  -8  162.98   80.39
  -3  -5   8  225.58   91.49
  -3  -5   8  345.87   95.99
   2   5  -8  304.37   89.39
  -2  -5   8  233.28   80.59
  -2  -5   8  205.38   84.29
   1   5  -8   76.59   79.49
  -1  -5   8  107.59   75.19
  -1  -5   8   90.69   73.19
   0   5  -8  453.95  104.79
   0  -5   8  461.55   88.19
   0  -5   8  516.05   99.69
  -1   5  -8   41.00   73.99
   1  -5   8   52.29   71.59
   1  -5   8   32.10   60.19
  -2   5  -8  427.46  106.79
   2  -5   8  549.45   93.09
   2  -5   8  494.85   95.29
  -3   5  -8  100.69   92.39
   3  -5   8 -120.49   54.79
   3  -5   8   25.80   74.79
  -4   5  -8  649.14  125.79
   4  -5   8  945.61  133.99
  -5   5  -8  202.88  107.59
   5  -5   8   94.79   88.19
  -6   5  -8  150.48  107.19
   6  -5   8  125.49   96.29
  -7  -4   8  565.14  135.99
  -7  -4   8  314.47  126.39
  -6  -4   8  198.08  114.49
  -6  -4   8  -28.40   89.59
  -5  -4   8  451.75  112.89
  -5  -4   8  687.93  118.19
   4   4  -8  202.58   80.09
  -4  -4   8  234.58  101.99
  -4  -4   8  227.78   90.99
   3   4  -8  580.94   88.59
  -3  -4   8  637.44  118.09
  -3  -4   8  564.94   97.79
   2   4  -8  226.78   72.89
  -2  -4   8  220.48   71.39
  -2  -4   8  466.65   94.89
   1   4  -8  127.09   76.39
  -1  -4   8   73.99   75.49
  -1  -4   8  124.39   61.99
   0   4  -8  461.05   95.19
   0  -4   8  528.75   81.89
   0  -4   8  560.74   95.89
  -1   4  -8   -8.40   74.49
   1  -4   8  -11.40   62.49
   1  -4   8   29.70   57.99
  -2   4  -8  521.65   98.29
   2  -4   8  654.53   96.49
   2  -4   8  747.43   93.59
  -3   4  -8  -39.60   77.29
   3  -4   8  118.59   61.59
   3  -4   8   56.99   70.49
  -4   4  -8  488.25  103.59
   4  -4   8  615.94  108.49
  -5   4  -8  -17.90   74.69
   5  -4   8   70.59   80.39
  -6   4  -8  762.72  138.69
   6  -4   8  368.16  103.39
  -7   4  -8  -53.19   89.19
   7  -4   8   11.30   95.89
   7  -4   8  -34.20   79.39
  -7  -3   8  381.26  117.29
  -7  -3   8  389.56  131.79
  -6  -3   8  -92.49   99.89
  -6  -3   8   91.99   91.69
  -5  -3   8  625.04  115.79
  -5  -3   8  725.53  134.09
  -4  -3   8   88.59   96.19
  -4  -3   8  149.88   78.49
   3   3  -8  871.71   87.09
  -3  -3   8  859.31  101.79
  -3  -3   8  556.74   97.99
   2   3  -8  334.77   70.99
  -2  -3   8  257.97   89.19
  -2  -3   8  352.76   72.09
   1   3  -8  821.92   96.39
  -1  -3   8  802.02   84.29
  -1  -3   8  676.93  104.19
   0   3  -8 1249.28  117.49
   0  -3   8 1120.79   88.59
   0  -3   8 1301.87  117.89
  -1   3  -8   42.90   62.59
   1  -3   8   55.99   49.90
   1  -3   8  112.19   56.29
  -2   3  -8 1904.61  147.19
   2  -3   8 1755.42  107.19
   2  -3   8 1614.94  108.79
  -3   3  -8  -33.00   68.79
   3  -3   8   19.20   47.10
   3  -3   8  -18.20   56.09
  -4   3  -8  817.02  113.39
   4  -3   8 1059.19  108.39
  -5   3  -8  241.98   98.99
   5  -3   8   79.99   73.19
  -6   3  -8  340.97  102.39
  -6   3  -8  325.77  100.29
   6  -3   8  369.96  110.29
   6  -3   8  334.07   89.99
  -7   3  -8  263.17  103.29
  -7   3  -8  117.69   97.89
   7  -3   8  176.18   97.39
   7  -3   8   64.89   87.39
  -7  -2   8  373.16  112.69
  -7  -2   8  268.97  125.49
  -6  -2   8   35.10   81.99
  -6  -2   8   10.40   85.89
  -5  -2   8  507.55  113.49
  -5  -2   8  787.02  114.59
  -4  -2   8   40.40   66.79
  -4  -2   8  -20.70   69.89
   3   2  -8  845.12   82.29
  -3  -2   8  662.33  101.99
  -3  -2   8  927.41   95.99
   2   2  -8   70.49   51.39
  -2  -2   8  184.48   72.39
  -2  -2   8   93.09   50.99
  -2  -2   8   85.99   40.00
   1   2  -8  512.55   75.69
  -1  -2   8  732.83   66.89
  -1  -2   8  651.33   59.59
  -1  -2   8  805.92  100.59
   0   2  -8  168.78   61.29
   0  -2   8  199.78   68.99
   0  -2   8  274.67   50.49
   0  -2   8  274.97   47.80
  -1   2  -8  531.55   82.29
   1  -2   8  515.65   57.79
   1  -2   8  560.54   75.79
  -2   2  -8 1036.00  109.29
   2  -2   8 1156.98   83.59
   2  -2   8 1154.48   85.09
  -3   2  -8  226.58   73.89
   3  -2   8  153.98   47.50
   3  -2   8  258.37   61.59
  -4   2  -8 1081.69  119.39
   4  -2   8 1359.76  102.99
  -5   2  -8   23.80   78.39
   5  -2   8   -6.40   73.89
   5  -2   8   21.00   55.89
  -6   2  -8  863.81  124.49
   6  -2   8  722.03  107.19
   6  -2   8  641.64  116.49
  -7   2  -8  -35.30   72.09
   7  -2   8   -0.90   80.49
   7  -2   8   29.70   76.69
  -8   2  -8  259.47   99.09
   8  -2   8  292.57  102.49
   8  -2   8   73.99   98.29
  -8  -1   8  102.89  122.39
  -8  -1   8  160.48  107.89
  -7  -1   8  584.94  125.59
  -7  -1   8  614.34  122.09
  -7  -1   8  391.76  125.29
  -6  -1   8  149.69   90.39
  -6  -1   8  -42.90   73.99
  -6  -1   8  109.59  100.69
  -5  -1   8  798.02  109.29
  -5  -1   8  828.92  105.29
  -5  -1   8  707.13  127.79
  -4  -1   8   88.69   61.39
  -4  -1   8   45.50   61.89
  -4  -1   8  -65.59   68.49
  -3  -1   8 1206.88   99.99
  -3  -1   8 1146.99  128.69
  -3  -1   8 1257.57  103.89
   2   1  -8  -24.50   43.90
  -2  -1   8   72.49   64.29
  -2  -1   8   51.69   43.50
  -2  -1   8   79.89   49.30
   1   1  -8 1004.00   89.79
  -1  -1   8  923.91   82.09
  -1  -1   8 1111.69  111.79
  -1  -1   8  894.81   59.99
   0   1  -8  359.06   72.19
   0  -1   8  321.47   70.49
   0  -1   8  424.76   65.19
   0  -1   8  336.87   34.60
  -1   1  -8 1106.39  106.09
   1  -1   8  881.41   81.39
   1  -1   8  870.71   51.39
  -2   1  -8  711.73   96.59
   2  -1   8  749.42   73.49
   2  -1   8  741.83   59.29
  -3   1  -8  213.18   75.29
   3  -1   8  177.28   49.90
   3  -1   8  158.48   44.50
  -4   1  -8  835.92  101.49
   4  -1   8 1048.20  114.69
   4  -1   8 1067.99   90.29
  -5   1  -8   78.79   73.79
   5  -1   8   27.50   64.99
   5  -1   8  -16.20   51.19
  -6   1  -8  487.05   97.59
   6  -1   8  917.81  112.69
   6  -1   8  666.13  104.29
  -7   1  -8  -72.99   71.89
   7  -1   8   57.89   77.79
   7  -1   8   50.39   71.19
  -8   1  -8  534.15  113.29
   8  -1   8  348.27  100.29
   8  -1   8  337.97  108.49
  -8   0   8   86.69  106.59
  -8   0   8  147.99  110.19
  -8   0   8   65.69  100.09
  -7   0   8  794.42  141.09
  -7   0   8  456.25  114.59
  -7   0   8  387.66  114.39
  -6   0   8  330.67  112.09
  -6   0   8  342.57   95.79
  -6   0   8  142.59   86.59
  -5   0   8 1007.80  140.19
  -5   0   8  982.70  116.99
  -5   0   8  978.10  120.19
  -4   0   8   -1.20   77.89
  -4   0   8  -80.19   54.49
  -4   0   8   63.49   65.99
  -3   0   8 1478.95  128.49
  -3   0   8 1439.06   96.89
  -3   0   8 1368.26  115.49
   2   0  -8    9.20   42.20
  -2   0   8  -58.59   36.50
  -2   0   8   81.59   57.09
  -2   0   8   20.20   66.19
   1   0  -8 1546.85   95.59
  -1   0   8 1572.74  112.49
  -1   0   8 1504.45   60.59
  -1   0   8 1604.14  103.79
   0   0  -8  446.26   72.19
   0   0   8  373.16   66.99
   0   0   8  441.46   75.29
  -1   0  -8 1282.07   99.39
   1   0   8 1367.86   90.49
  -2   0  -8  650.53   90.29
   2   0   8  762.52   70.39
   2   0   8  702.93   83.79
   2   0   8  629.54   45.30
  -3   0  -8  310.97   80.69
   3   0   8  319.17   49.10
   3   0   8  402.46   49.50
   3   0   8  384.36   73.19
  -4   0  -8 1090.19  117.19
   4   0   8  944.61   83.99
   4   0   8  908.11  101.69
  -5   0  -8  -22.30   62.19
   5   0   8  -64.49   46.00
   5   0   8   86.19   73.59
  -6   0  -8  943.61  127.79
   6   0   8  811.62  111.19
   6   0   8  919.71  106.79
  -7   0  -8    4.50   69.39
   7   0   8   25.20   72.59
   7   0   8   -7.00   70.19
  -8   0  -8  424.96  105.09
   8   0   8  289.67  104.89
   8   0   8  208.78   97.49
  -8   1   8  141.59  113.19
  -8   1   8  -59.89  107.39
  -8   1   8   67.69   97.79
  -7   1   8  230.58  109.19
  -7   1   8  258.57  105.69
  -7   1   8  207.98  110.29
  -6   1   8  302.27   99.39
  -6   1   8   63.19   81.69
  -6   1   8   89.69   89.19
  -5   1   8  531.95   98.49
  -5   1   8  628.24   98.39
  -5   1   8  417.46  100.49
  -4   1   8  409.86   92.49
  -4   1   8  339.27   75.99
  -3   1   8 1333.97  102.59
  -3   1   8 1218.18  116.49
  -2   1   8   34.50   30.90
  -2   1   8   21.80   38.90
  -2   1   8   29.70   64.69
   1  -1  -8 1807.72  103.59
  -1   1   8 1623.64   61.79
  -1   1   8 1883.81   81.39
  -1   1   8 1809.32  127.49
   0  -1  -8  -72.19   48.80
   0   1   8   27.60   39.60
   0   1   8   45.10   59.89
  -1  -1  -8 1365.46  102.59
   1   1   8 1465.55   93.89
  -2  -1  -8  458.55   78.59
   2   1   8  502.45   41.50
   2   1   8  619.34   64.89
   2   1   8  585.04   75.49
  -3  -1  -8 1052.49  111.09
   3   1   8 1010.60   66.59
   3   1   8 1092.59   68.69
   3   1   8 1080.09   99.59
  -4  -1  -8 1058.49  117.09
   4   1   8  981.00  109.79
   4   1   8 1192.68   84.49
  -5  -1  -8  242.18   83.39
   5   1   8  128.19   60.19
   5   1   8  210.88   75.59
  -6  -1  -8 1176.08  129.09
   6   1   8  890.11  106.79
   6   1   8  848.42  112.69
  -7  -1  -8   95.09   80.89
   7   1   8  -29.40   72.79
   7   1   8   89.19   81.99
  -8  -1  -8  409.26   97.89
   8   1   8  403.66  108.29
   8   1   8  503.45  109.39
  -7   2   8  178.38   93.99
  -7   2   8  266.47  116.29
  -7   2   8  306.57  120.79
  -6   2   8   51.59   85.79
  -6   2   8   27.20   87.19
  -5   2   8  691.53  106.89
  -5   2   8  667.03  121.99
  -4   2   8  175.28   72.59
  -4   2   8   56.09   80.79
  -3   2   8  641.04  101.39
  -3   2   8  662.03   82.79
  -2   2   8   -2.60   72.19
  -2   2   8   92.09   43.70
  -1   2   8  719.03   97.39
  -1   2   8  802.62   58.79
  -1   2   8  772.42   64.09
   0   2   8  -22.20   31.60
   0   2   8   -1.60   38.30
   0   2   8  -68.39   60.79
  -1  -2  -8  815.02   86.29
   1   2   8  953.70   74.19
   1   2   8  732.43   48.80
  -2  -2  -8   68.29   57.79
   2   2   8  209.18   37.00
   2   2   8  194.98   61.29
  -3  -2  -8  559.54   89.99
   3   2   8  553.74   81.29
   3   2   8  504.95   57.99
  -4  -2  -8  477.35   84.29
   4   2   8  607.04   74.99
   4   2   8  643.74   90.79
  -5  -2  -8  405.96   83.79
   5   2   8  456.45   88.09
   5   2   8  445.36   77.59
  -6  -2  -8  543.95  102.99
   6   2   8  805.32  109.99
   6   2   8  847.52  109.69
   7   2   8  158.38   85.89
   7   2   8  216.08   86.39
   8   2   8  688.63  127.69
   8   2   8  583.24  125.29
  -7   3   8  158.38   99.09
  -7   3   8  126.79   93.69
  -6   3   8  472.55  126.59
  -6   3   8  457.35  108.29
  -5   3   8  569.64  106.59
  -5   3   8  506.15  114.79
  -4   3   8  284.87   81.49
  -4   3   8  223.88   98.39
  -3   3   8  941.31  127.99
  -3   3   8  964.60  101.59
  -2   3   8  124.59   76.49
  -2   3   8  215.78   62.69
  -1   3   8  963.00   84.09
  -1   3   8 1058.79  126.29
  -1   3   8  998.10   64.49
   0   3   8   10.50   44.90
   0   3   8   48.00   41.00
   0   3   8   91.19   72.99
   1   3   8  870.01   75.49
   1   3   8 1024.50   88.39
   1   3   8  867.61  119.89
   2   3   8   -5.60   41.40
   2   3   8    7.40   49.80
   3   3   8  658.63   73.09
   3   3   8  680.53   88.59
   4   3   8  334.97   69.89
   4   3   8  277.77   78.89
   5   3   8  219.28   74.19
   5   3   8  128.89   72.79
   6   3   8  541.95  102.09
   6   3   8  565.44   98.89
   7   3   8   53.79   81.49
   7   3   8  -52.69   85.79
   8   3   8  251.37  106.19
   8   3   8  268.27  108.29
  -7   4   8  -32.50   88.09
  -6   4   8  342.47  110.99
  -6   4   8  339.37  109.69
  -5   4   8  107.79   84.69
  -5   4   8  200.38   95.59
  -4   4   8  527.75  122.29
  -4   4   8  493.75   99.19
  -3   4   8  771.62   99.89
  -3   4   8  709.23  115.89
  -2   4   8  326.67   79.69
  -2   4   8  233.88   90.89
  -1   4   8 1062.99  102.99
  -1   4   8  883.91  122.29
   0   4   8   63.19   47.90
   0   4   8  214.58   84.39
   0   4   8   33.70   55.09
   1   4   8 1129.19   96.09
   1   4   8 1467.65  153.38
   1   4   8 1257.57  103.79
   2   4   8   56.49   55.79
   2   4   8   24.80   53.99
   3   4   8  942.81  103.59
   3   4   8 1163.48  104.49
   4   4   8  207.08   71.99
   4   4   8  238.18   74.99
   5   4   8  500.75  102.79
   5   4   8  365.46   85.19
   6   4   8  391.76   96.89
   6   4   8  371.56   94.79
   7   4   8  144.79   90.49
   7   4   8   -9.20   78.49
   8   4   8  155.18  106.49
   8   4   8   51.09   91.39
  -6   5   8  417.56  123.49
  -6   5   8  268.97  124.49
  -5   5   8   64.49   98.89
  -5   5   8  190.98   97.49
  -4   5   8  235.88   97.29
  -4   5   8  293.87  102.39
  -3   5   8  200.38  108.79
  -3   5   8  306.07   93.69
  -2   5   8  309.37   90.49
  -2   5   8  250.37   97.59
  -1   5   8  630.54  122.99
  -1   5   8  477.65   96.89
   0   5   8  229.08   61.49
   0   5   8  218.48   93.79
   1   5   8  907.41  109.39
   1   5   8  660.03  119.49
   1   5   8  772.42   91.49
   2   5   8  -38.10   54.39
   2   5   8  131.69   97.09
   2   5   8  -21.00   59.09
   3   5   8  803.02  103.69
   3   5   8  792.42  103.09
   4   5   8   14.40   64.79
   4   5   8   58.29   70.39
   5   5   8  471.75   97.99
   5   5   8  581.44  105.49
   6   5   8  223.08   92.39
   6   5   8  245.98  100.09
   7   5   8  185.38   97.89
   7   5   8  288.47  113.09
  -5   6   8  232.78  110.99
  -5   6   8  177.98  115.69
  -4   6   8  197.78  104.69
  -4   6   8  266.37  105.09
  -3   6   8  291.97  124.19
  -3   6   8  309.07  106.39
  -2   6   8  180.38   98.29
  -2   6   8   27.00   88.19
  -1   6   8  393.96  110.29
  -1   6   8  580.74  112.29
   0   6   8  100.19   82.09
   0   6   8  217.48   68.39
   0   6   8   35.10   82.19
   1   6   8  358.16   94.39
   1   6   8  399.26  112.19
   1   6   8  536.25   89.69
   2   6   8  132.59   83.09
   2   6   8   13.30  100.79
   2   6   8   37.00   63.69
   3   6   8  507.25  104.19
   3   6   8  226.28   87.69
   4   6   8   18.30   76.29
   4   6   8  -65.29   79.69
   5   6   8  272.57   93.79
   5   6   8  313.37   96.69
   6   6   8   91.59  100.49
   6   6   8  124.39   92.59
   7   6   8   34.90   96.89
  -4   7   8  647.64  142.49
  -4   7   8  372.86  114.49
  -3   7   8  295.97  113.39
  -3   7   8  155.98  101.79
  -2   7   8  373.26  113.59
  -2   7   8  561.94  130.19
  -1   7   8  406.16  131.39
  -1   7   8  413.16  115.99
   0   7   8  519.25  117.39
   0   7   8  240.98  103.29
   1   7   8  423.86  120.59
   1   7   8  629.24   96.39
   1   7   8  555.14  116.79
   2   7   8  200.58   75.29
   2   7   8   17.30  100.29
   2   7   8  180.28   97.59
   3   7   8  861.71  129.19
   3   7   8  447.06  129.59
   3   7   8  542.05  106.59
   4   7   8  -92.29   79.79
   4   7   8  -92.69   77.89
   5   7   8  168.18   98.59
   5   7   8  171.78   99.19
   6   7   8  -29.20   97.59
  -3   8   8   96.99  117.19
  -3   8   8  -81.09   93.99
  -2   8   8  281.27  123.99
  -2   8   8  522.45  144.99
  -1   8   8  117.39  114.29
  -1   8   8  220.08  118.39
   0   8   8  562.14  127.29
   0   8   8  546.85  137.69
   1   8   8   59.89   96.99
   2   8   8  149.09  117.49
   2   8   8  398.66  117.89
   2   8   8  216.98   86.99
  -3  -8  -8  384.76  100.79
   3   8   8   -8.40  101.99
   3   8   8  381.66   99.39
   3   8   8  -26.90   98.89
   4   8   8  118.19   99.79
   4   8   8  -18.10   92.39
   4   8   8 -120.59  106.79
   0   9   8  225.38  128.19
   0   9   8  207.38  118.69
   1   9   8  -47.80   96.79
   1   9   8   18.90  112.79
  -2  -9  -8  180.08   94.99
   2   9   8  341.37  101.39
   2   9   8  239.78  129.19
  -3  -7   9   82.39  107.19
  -3  -7   9  257.57  109.79
   2   7  -9  216.98  107.29
  -2  -7   9  112.19   99.79
  -2  -7   9  325.37  113.69
   1   7  -9  -92.89   76.59
  -1  -7   9  -61.09   89.59
  -1  -7   9 -151.48   63.79
   0   7  -9  460.65  114.89
   0  -7   9  227.58   95.29
   0  -7   9  484.55  112.99
  -1   7  -9  -33.30   81.99
   1  -7   9   37.60   84.99
   1  -7   9 -190.88   75.19
  -2   7  -9   83.79   99.49
   2  -7   9  189.18   94.29
   2  -7   9  306.77  116.09
  -3   7  -9   99.69   98.79
   3  -7   9   25.00   94.39
  -5  -6   9  392.36  122.79
  -4  -6   9  129.19   98.09
  -4  -6   9  304.87  116.49
  -3  -6   9  246.58   93.49
  -3  -6   9  383.66  107.59
   2   6  -9  230.48   96.39
  -2  -6   9  263.27   99.29
  -2  -6   9  482.15  105.79
   1   6  -9  112.49   91.79
  -1  -6   9  157.68   85.59
  -1  -6   9  105.09   84.39
   0   6  -9  469.05  115.09
   0  -6   9  420.06   95.69
   0  -6   9  552.64  102.19
  -1   6  -9  161.78  103.79
   1  -6   9  -29.10   75.59
   1  -6   9  -48.80   74.29
  -2   6  -9  670.33  121.59
   2  -6   9  735.23  124.19
   2  -6   9  566.54  103.69
  -3   6  -9  108.89  101.49
   3  -6   9  -29.00   84.49
  -4   6  -9  311.27  108.39
   4  -6   9  262.47  105.89
   5  -6   9  247.48  110.59
  -6  -5   9   45.40  107.29
  -5  -5   9  310.07  123.09
  -5  -5   9  417.16  119.79
  -4  -5   9   -7.30   84.79
  -4  -5   9  161.88   95.69
  -3  -5   9  488.55  102.69
  -3  -5   9  353.66  105.69
   2   5  -9  161.48   84.89
  -2  -5   9  112.99   86.49
  -2  -5   9  124.69   77.39
   1   5  -9  314.47   98.99
  -1  -5   9  302.97   85.09
  -1  -5   9  186.88   84.79
   0   5  -9  542.55  113.49
   0  -5   9  462.75   96.99
   0  -5   9  540.85   91.39
  -1   5  -9  248.88   88.09
   1  -5   9   54.19   73.79
   1  -5   9  147.99   74.79
  -2   5  -9  454.85  113.69
   2  -5   9  590.44  104.89
   2  -5   9  515.85   92.49
  -3   5  -9   57.99   83.59
   3  -5   9   45.00   79.39
  -4   5  -9  415.46  119.29
   4  -5   9  507.35  115.89
  -5   5  -9  -39.40   96.39
   5  -5   9  105.59   91.89
  -6   5  -9   93.49  110.39
   6  -5   9  -35.00   87.29
  -6  -4   9  -58.09   86.59
  -6  -4   9   31.80  111.19
  -5  -4   9  362.16  112.09
  -5  -4   9  316.27  105.29
  -4  -4   9   62.89   87.79
  -4  -4   9   86.69   83.79
  -3  -4   9  576.24  111.59
  -3  -4   9  415.16   91.69
   2   4  -9  299.37   83.19
  -2  -4   9  257.57   97.09
  -2  -4   9  308.47   78.39
   1   4  -9  342.67   88.29
  -1  -4   9  302.67   95.39
  -1  -4   9  334.37   82.19
   0   4  -9  217.58   89.09
   0  -4   9  400.06   93.59
  -1   4  -9   94.49   74.49
   1  -4   9  146.79   65.59
  -2   4  -9  361.66   93.99
   2  -4   9  381.46   79.99
  -3   4  -9   29.40   75.69
  -4   4  -9  378.26  103.99
  -5   4  -9    8.30   90.29
  -6   4  -9  225.78  110.69
   6  -4   9  105.59   95.29
  -7  -3   9  241.88  117.79
  -7  -3   9  205.88  110.59
  -6  -3   9   10.60  109.49
  -6  -3   9  182.28   98.89
  -5  -3   9  677.63  137.29
  -5  -3   9  845.02  125.89
  -4  -3   9  163.28   80.89
  -4  -3   9   20.30   89.49
  -3  -3   9  849.02  102.79
  -3  -3   9  788.62  119.49
   2   3  -9  483.85   83.59
  -2  -3   9  255.07   95.49
   1   3  -9  766.72   99.99
  -1  -3   9  648.74   99.49
   0   3  -9  648.84   94.09
   0  -3   9  526.85   87.19
  -1   3  -9  563.04   97.39
   1  -3   9  449.66   82.19
  -2   3  -9  426.06   93.79
   2  -3   9  530.55   81.69
  -3   3  -9  -64.89   78.09
  -4   3  -9  714.83  121.99
  -5   3  -9   66.29   81.39
  -6   3  -9  183.38   92.79
   6  -3   9  341.27   99.19
  -7   3  -9   16.30   95.79
   7  -3   9  156.28   96.29
  -7  -2   9  216.68  126.69
  -7  -2   9  176.68  101.79
  -6  -2   9  -85.79   86.89
  -6  -2   9 -146.69   95.29
  -5  -2   9  336.67   96.69
  -5  -2   9  498.85  111.19
  -4  -2   9  -10.50   69.69
  -4  -2   9   48.10   87.19
  -3  -2   9 1052.39  108.29
  -3  -2   9  804.52  120.79
   2   2  -9  142.49   64.89
  -2  -2   9  -18.60   70.39
   1   2  -9  809.52   92.69
  -1  -2   9 1205.18  125.09
   0   2  -9  336.57   82.49
   0  -2   9  309.87   77.59
  -1   2  -9  590.84   91.39
   1  -2   9  802.32   91.49
  -2   2  -9  492.95   96.59
   2  -2   9  530.45   72.79
  -3   2  -9  102.49   80.39
  -4   2  -9  729.03  119.09
  -5   2  -9  -31.10   79.09
   5  -2   9  -59.99   77.69
  -6   2  -9  481.85  111.29
   6  -2   9  426.86  109.99
  -7   2  -9  243.28  105.99
   7  -2   9   65.29   85.79
  -7  -1   9  287.97  107.49
  -7  -1   9  285.57  113.09
  -6  -1   9  303.27   96.59
  -6  -1   9  -53.39  102.09
  -5  -1   9  762.72  113.19
  -5  -1   9  881.01  109.89
  -5  -1   9  546.25  123.99
  -4  -1   9   30.00   66.39
  -4  -1   9   94.99   65.79
  -4  -1   9 -129.49   69.89
  -3  -1   9  953.40   91.69
  -3  -1   9  828.22  118.29
   2   1  -9  -10.10   50.39
  -2  -1   9   21.40   47.90
  -2  -1   9   63.29   68.79
   1   1  -9  686.33   83.69
  -1  -1   9  678.53   77.89
  -1  -1   9  897.01  112.09
   0   1  -9  -37.00   56.89
   0  -1   9   34.50   50.39
   0  -1   9  -12.00   58.19
  -1   1  -9  409.36   83.99
   1  -1   9  294.57   66.29
  -2   1  -9  180.88   69.59
   2  -1   9   84.59   52.09
  -3   1  -9  302.77   78.39
  -4   1  -9  225.38   76.59
   4  -1   9  446.46   86.89
  -5   1  -9  116.19   75.49
   5  -1   9   55.39   67.69
  -6   1  -9  433.86  105.99
   6  -1   9  346.47   89.49
  -7   1  -9  -35.80   73.29
   7  -1   9  -19.30   78.59
  -8   1  -9  277.27  108.99
   8  -1   9  188.68   93.49
  -7   0   9  278.07  110.59
  -7   0   9  291.17  108.09
  -7   0   9   96.59  114.19
  -6   0   9  112.59  105.09
  -6   0   9  378.36  101.99
  -6   0   9  175.88   88.99
  -5   0   9  812.72  124.09
  -5   0   9 1135.39  127.99
  -5   0   9  948.71  116.09
  -4   0   9   87.39   71.29
  -4   0   9  100.69   68.19
  -4   0   9  -24.60   75.79
  -3   0   9 1466.25  135.99
  -3   0   9 1743.73  128.59
   2   0  -9   57.89   49.30
  -2   0   9    6.30   55.29
  -2   0   9   18.20   73.69
   1   0  -9 1926.41  111.29
  -1   0   9 1938.11  128.69
  -1   0   9 1965.20  125.29
   0   0  -9   53.29   58.69
   0   0   9   13.90   58.59
   0   0   9  131.89   58.29
  -1   0  -9  992.60   98.49
   1   0   9 1159.18   96.19
  -2   0  -9  213.78   68.99
   2   0   9  285.97   59.19
   2   0   9  379.76   79.59
  -3   0  -9  301.57   76.19
   3   0   9  283.47   69.59
  -4   0  -9  206.08   76.19
   4   0   9  130.39   77.39
  -5   0  -9  160.98   79.49
   5   0   9   48.60   78.39
  -6   0  -9  392.66   95.39
   6   0   9  271.97   90.79
  -7   0  -9  109.99   91.29
   7   0   9 -137.09   68.09
  -8   0  -9  152.38   93.79
   8   0   9  225.18  106.49
  -7   1   9   91.39   96.29
  -7   1   9   59.39  100.59
  -7   1   9  251.57  120.29
  -6   1   9  174.28   98.39
  -6   1   9  111.49   82.29
  -6   1   9  128.29   94.29
  -5   1   9  685.23  104.49
  -5   1   9  461.35  107.69
  -5   1   9  551.24  109.09
  -4   1   9  200.38   86.59
  -4   1   9  201.48   93.89
  -4   1   9   94.09   69.59
  -3   1   9 1382.26  132.39
   2  -1  -9  161.18   52.69
  -2   1   9  174.88   78.79
   1  -1  -9 1965.80  112.19
  -1   1   9 2353.76  146.49
  -1   1   9 2155.78   93.89
   0  -1  -9  209.98   66.09
   0   1   9  104.79   75.29
   0   1   9  297.37   59.29
  -1  -1  -9 1767.92  117.49
   1   1   9 1916.01  101.79
  -2  -1  -9  163.58   67.09
   2   1   9  215.08   68.89
   2   1   9  219.68   54.09
  -3  -1  -9  838.02  101.69
   3   1   9  856.11   96.09
  -4  -1  -9  610.74   94.99
   4   1   9  613.04   94.49
  -5  -1  -9   16.90   69.99
   5   1   9  134.59   80.79
  -6  -1  -9  485.55  102.89
   6   1   9  392.96   95.79
  -7  -1  -9  -18.20   76.19
   7   1   9   64.29   81.09
  -8  -1  -9  267.57  102.69
   8   1   9  161.88   91.89
  -7   2   9  -23.10   99.89
  -7   2   9   38.20  111.89
  -7   2   9  139.99  100.09
  -6   2   9   91.19   89.49
  -6   2   9  119.39   95.69
  -5   2   9  245.98   89.39
  -5   2   9  378.16  107.79
  -4   2   9  274.17   98.69
  -4   2   9   23.10   69.09
  -3   2   9  912.81  128.69
  -2   2   9  143.59   87.69
  -1   2   9  606.14   99.69
  -1   2   9  800.82   67.99
   0  -2  -9   50.99   61.09
   0   2   9   10.60   77.29
   0   2   9   89.89   47.30
  -1  -2  -9 1169.68  112.19
   1   2   9 1224.78  131.89
   1   2   9 1271.97   92.89
  -2  -2  -9    1.90   58.49
   2   2   9  -92.89   47.50
  -3  -2  -9  860.01  102.99
   3   2   9 1022.80  110.39
  -4  -2  -9  192.68   80.89
   4   2   9  204.18   79.59
  -5  -2  -9  341.17   85.89
   5   2   9  383.16   88.69
  -6  -2  -9  352.86   92.69
   6   2   9  158.98   84.99
   7   2   9   17.30   81.19
   8   2   9  296.67  112.39
  -7   3   9  130.09  101.29
  -7   3   9  -61.79   89.59
  -6   3   9  576.14  120.69
  -6   3   9  566.24  130.39
  -5   3   9  421.56  119.19
  -5   3   9  171.48   89.09
  -4   3   9  291.87   83.19
  -4   3   9  363.36  108.99
  -3   3   9  977.10  130.19
  -2   3   9  130.89   84.79
  -1   3   9 1860.91  148.89
   0   3   9   99.29   78.09
   0   3   9   41.20   45.40
   1   3   9 1279.87  146.39
   1   3   9 1110.29   92.89
   2   3   9   32.50   58.79
   3   3   9  558.64   88.09
   4   3   9   44.80   65.49
   5   3   9  389.06   99.19
   6   3   9  119.09   89.49
   7   3   9   -1.50   76.19
   8   3   9  143.59   96.09
  -6   4   9  131.29  105.49
  -6   4   9  176.68  101.29
  -5   4   9  442.96  114.49
  -5   4   9  238.58   91.89
  -4   4   9  584.64  102.39
  -4   4   9  364.16  114.99
  -3   4   9  565.74  121.49
  -2   4   9  558.24  112.79
  -1   4   9 1474.75  150.98
   0   4   9  275.27   92.19
   0   4   9  401.66   63.79
   1   4   9 1904.71  174.28
   1   4   9 1875.21  113.69
   2   4   9   54.39   64.39
   3   4   9 1281.27  125.99
   4   4   9   75.59   78.59
   5   4   9  431.56   97.09
   6   4   9  233.58   99.89
   7   4   9    6.20   95.59
  -6   5   9  -35.70  102.29
  -5   5   9   97.89  110.09
  -5   5   9   60.69   89.19
  -4   5   9  393.66  123.99
  -4   5   9  244.98   93.39
  -3   5   9  354.26   97.69
  -3   5   9  164.08   99.19
  -2   5   9  358.16  108.19
  -1   5   9  475.15  110.99
   0   5   9  318.87   69.19
   0   5   9  143.89  104.49
   1   5   9  800.22   99.59
   1   5   9  791.72  141.79
   2   5   9  149.69   67.59
   2   5   9  253.97  106.69
   3   5   9  870.61  110.49
   4   5   9  124.49   83.79
   5   5   9  637.74  120.49
   6   5   9   39.10   83.49
   7   5   9  350.96  119.79
  -5   6   9   34.90  103.59
  -5   6   9  -99.59   90.69
  -4   6   9  214.78  110.89
  -4   6   9  313.57  107.49
  -3   6   9  479.85  110.69
  -3   6   9  219.58  110.59
  -2   6   9  167.18  114.09
  -2   6   9  431.16  123.29
  -1   6   9  475.35  118.49
   0   6   9  186.78  112.29
   1   6   9  220.78  109.19
   1   6   9  466.85   87.79
   2   6   9   60.19   65.49
   2   6   9   97.89  101.79
   3   6   9  510.25  107.99
   4   6   9  -88.39   70.79
   5   6   9  496.55  124.19
   6   6   9   76.49   91.29
  -4   7   9  457.35  129.29
  -3   7   9  -34.70  111.09
  -3   7   9   88.99  100.69
  -2   7   9  355.16  128.49
  -2   7   9  614.64  132.89
  -1   7   9  334.97  129.59
   0   7   9  182.08  122.89
   1   7   9  330.17  128.79
   2   7   9  268.97   91.99
   2   7   9    8.20   96.29
   3   7   9  637.24  110.79
   3   7   9  283.97  116.69
   4   7   9 -102.29   86.89
   5   7   9   97.19  101.69
  -2   8   9  485.25  144.09
  -2   8   9  358.76  121.49
  -1   8   9  -29.20  107.39
  -1   8   9 -129.09  109.59
   0   8   9  225.28  115.39
   1   8   9   36.60  112.09
   2   8   9  434.96  101.39
   2   8   9  224.78  133.99
   3   8   9  322.87  126.09
   3   8   9  273.07  103.19
   4   8   9  116.49  117.19
   4   8   9  104.59   91.99
   2   7 -10  266.97  121.59
   1   7 -10   55.89  108.19
  -1  -7  10  -21.70   91.29
   0   7 -10  100.09  106.89
   0  -7  10  -10.20   78.49
  -1   7 -10   46.00   95.19
   1  -7  10  -59.69   84.39
  -3  -6  10  444.76  124.99
   2   6 -10  547.65  116.19
  -2  -6  10  494.25  128.49
   1   6 -10  347.77  113.09
  -1  -6  10  325.27   96.49
   0   6 -10  557.54  124.69
   0  -6  10  659.13  115.99
  -1   6 -10  -77.89   97.19
   1  -6  10   33.80   80.89
  -2   6 -10  490.25  123.79
   2  -6  10  537.05  108.99
  -3   6 -10  -51.69   82.39
  -4  -5  10  157.98  109.89
  -3  -5  10  330.77  111.39
   2   5 -10  218.88   90.09
  -2  -5  10  152.18  103.29
   1   5 -10  341.57  105.09
  -1  -5  10  380.66  105.89
   0   5 -10  450.65  102.99
   0  -5  10  426.56   98.39
  -1   5 -10  395.96  115.09
   1  -5  10  398.66   92.19
  -2   5 -10  500.85  123.19
   2  -5  10  656.13  106.89
  -3   5 -10  -50.99   88.79
  -4   5 -10  288.57  113.49
  -5   5 -10   63.79   97.19
  -5  -4  10  686.83  140.49
  -4  -4  10  286.07  104.69
  -3  -4  10  259.07  109.69
   2   4 -10  563.34  101.29
  -2  -4  10  262.57   93.69
   1   4 -10  309.77   93.09
  -1  -4  10  305.87   89.29
   0   4 -10  329.97   91.69
   0  -4  10  352.26   93.59
  -1   4 -10  135.29   82.09
   1  -4  10  321.47   85.79
  -2   4 -10  297.07   94.39
   2  -4  10  213.98   73.19
  -3   4 -10   34.30   82.59
  -4   4 -10  206.48  100.79
  -5   4 -10 -113.39   89.79
  -6   4 -10  186.18  104.89
   6  -4  10  123.09  109.89
  -6  -3  10 -174.98  100.09
  -5  -3  10  371.26  117.89
  -4  -3  10  169.88  105.59
  -3  -3  10  723.53  121.09
   2   3 -10  406.36   88.09
  -2  -3  10  196.48   98.69
   1   3 -10  960.60  114.29
  -1  -3  10  818.52  115.59
   0   3 -10  626.84  105.89
   0  -3  10  589.74  102.29
  -1   3 -10  475.75   96.49
   1  -3  10  439.96   86.69
  -2   3 -10  740.23  117.19
   2  -3  10  964.80  101.29
  -3   3 -10   36.80   78.79
  -4   3 -10  369.96  111.59
  -5   3 -10   52.49   98.19
  -6   3 -10  204.78   98.29
   6  -3  10   87.59   83.19
  -7   3 -10   17.20   85.39
  -6  -2  10  -65.89   87.09
  -5  -2  10  444.66  116.59
  -4  -2  10   51.69   84.69
  -3  -2  10  621.54  113.59
   2   2 -10  205.98   67.29
  -2  -2  10   88.89   74.19
   1   2 -10 1323.27  118.99
  -1  -2  10 1063.09  121.29
   0   2 -10  416.06   90.19
   0  -2  10  531.35   96.19
  -1   2 -10 1052.09  121.69
   1  -2  10 1142.09  111.09
  -2   2 -10  792.02  111.99
   2  -2  10  665.53   84.19
  -3   2 -10  413.96  104.49
  -4   2 -10  537.35  106.99
  -5   2 -10   64.59   85.69
   5  -2  10   95.49   87.69
  -6   2 -10  295.47   99.19
   6  -2  10  205.98   99.19
  -7   2 -10  -75.39   89.49
   7  -2  10  -49.70   92.89
  -7  -1  10  259.47  131.89
  -6  -1  10  -62.29   97.39
  -5  -1  10  406.06  125.29
  -4  -1  10  -86.19   83.29
  -3  -1  10  512.15  108.59
   2   1 -10   86.29   58.69
  -2  -1  10   80.29   81.99
  -2  -1  10   28.70   54.99
   1   1 -10  667.23   88.99
  -1  -1  10  648.44   82.09
  -1  -1  10  621.34  106.09
   0   1 -10  169.58   66.99
   0  -1  10  255.47   69.29
   0  -1  10  104.09   69.39
  -1   1 -10  956.30  111.79
   1  -1  10  777.72   97.49
   1  -1  10  770.72   90.29
  -2   1 -10  213.88   73.09
   2  -1  10   17.90   50.79
  -3   1 -10  447.46   90.59
   3  -1  10  377.46   84.29
  -4   1 -10  287.67   86.29
   4  -1  10  230.48   77.29
  -5   1 -10  439.96  106.29
   5  -1  10  250.17   82.69
  -6   1 -10  433.96  112.49
   6  -1  10  220.78   89.59
  -7   1 -10    0.30   82.19
   7  -1  10   -6.80   81.29
  -7   0  10   79.59  115.79
  -6   0  10  136.69   91.19
  -6   0  10  110.79   98.69
  -5   0  10  297.27   96.39
  -5   0  10  413.26  121.19
  -4   0  10  -46.00   64.49
  -4   0  10    7.50   81.59
  -3   0  10 1521.05  127.09
  -3   0  10 1162.48  134.99
   2   0 -10   42.50   51.69
  -2   0  10  165.88   69.69
  -2   0  10  -90.79   72.69
   1   0 -10 1705.63  118.69
  -1   0  10 1807.02  121.69
  -1   0  10 1500.35  137.19
   0   0 -10  127.99   68.19
   0   0  10   88.49   61.19
   0   0  10  202.78   71.29
  -1   0 -10 1160.88  116.49
   1   0  10 1322.97  128.49
   1   0  10 1153.28  106.09
   1   0  10 1273.77  112.89
  -2   0 -10  177.48   70.09
   2   0  10  178.08   59.19
   2   0  10  169.68   71.99
  -3   0 -10  360.56   85.79
   3   0  10  329.77   76.29
  -4   0 -10  226.88   83.39
   4   0  10  107.09   72.29
  -5   0 -10   46.50   77.59
   5   0  10   41.10   70.79
  -6   0 -10   94.39   84.39
   6   0  10   74.09   81.29
  -7   0 -10  -50.29   74.49
   7   0  10  114.69   85.79
  -7   1  10   50.19   99.09
  -7   1  10  -16.30  108.59
  -6   1  10  295.87  119.59
  -6   1  10  127.49   99.49
  -5   1  10  328.27  104.19
  -5   1  10  246.98  100.09
  -4   1  10  235.58   90.39
  -4   1  10   20.40   78.39
  -3   1  10  856.11  111.79
  -3   1  10  717.73  112.09
   2  -1 -10   87.89   55.69
  -2   1  10  -11.50   64.09
  -2   1  10  130.49   75.99
   1  -1 -10 1651.03  123.29
  -1   1  10 1759.52  132.89
  -1   1  10 1718.83   96.69
  -1   1  10 1893.51  144.89
   0  -1 -10   13.10   63.49
   0   1  10   42.50   62.69
   0   1  10  -34.90   46.10
   0   1  10 -159.38   66.49
  -1  -1 -10 1874.51  126.99
   1   1  10 1879.91  158.48
   1   1  10 1850.91  114.99
   1   1  10 1948.80  119.39
  -2  -1 -10  159.68   71.19
   2   1  10    7.00   52.79
   2   1  10  158.08   64.69
  -3  -1 -10  933.31  112.59
   3   1  10 1120.99  119.09
  -4  -1 -10  102.79   73.49
   4   1  10  108.99   71.39
  -5  -1 -10  508.15  109.99
   5   1  10  472.25  105.59
  -6  -1 -10  385.46  106.89
   6   1  10  193.98   86.49
  -7  -1 -10   92.89   93.49
   7   1  10 -148.29   78.59
  -8  -1 -10  -14.20   88.39
  -6   2  10   85.79   98.09
  -6   2  10  133.29  107.19
  -5   2  10  207.98   92.69
  -4   2  10  130.09   81.69
  -3   2  10  616.64  119.69
  -2   2  10   59.79   75.39
  -1   2  10  983.50  121.69
   0  -2 -10   70.69   67.59
   0   2  10   -1.00   81.09
   0   2  10   28.90   47.20
  -1  -2 -10  864.91  108.99
   1   2  10 1011.30  134.59
   1   2  10  814.12   86.69
  -2  -2 -10  152.68   75.19
   2   2  10  -88.59   56.69
  -3  -2 -10 1232.78  134.59
   3   2  10  989.00  105.29
  -4  -2 -10   23.40   67.69
   4   2  10   39.60   65.29
  -5  -2 -10  518.75  105.09
   5   2  10  570.54  110.19
  -6  -2 -10  200.88   94.99
   6   2  10   35.20   77.59
  -7  -2 -10  250.87   92.39
   7   2  10  309.27  108.49
  -6   3  10  231.78  108.89
  -5   3  10   79.99   91.29
  -4   3  10   83.69   96.29
  -3   3  10  472.65  111.39
  -2   3  10   77.59   92.89
  -1   3  10  764.42  117.69
   0   3  10  -53.29   79.79
   0   3  10    1.60   44.70
   1   3  10  928.21  136.49
   1   3  10 1111.39   99.29
   2   3  10   84.49   60.39
   3   3  10  364.66   84.09
   4   3  10   21.00   67.69
   5   3  10  437.96   97.09
   6   3  10   66.89   81.49
   7   3  10  -79.09   85.19
  -6   4  10  356.26  130.19
  -5   4  10   55.09  105.49
  -4   4  10  374.96  124.99
  -3   4  10  268.77  114.99
  -2   4  10  520.85  128.89
  -1   4  10 1003.00  135.69
   0   4  10  294.17  108.09
   1   4  10 1812.22  116.79
   1   4  10 1553.54  164.38
   2   4  10   99.39  107.59
   2   4  10   57.49   59.79
   3   4  10 1217.38  125.39
   4   4  10   15.50   69.99
   5   4  10  338.47   94.09
   6   4  10  120.79   93.99
   7   4  10  -16.20   95.49
  -5   5  10   48.30  113.19
  -4   5  10  300.87  124.79
  -3   5  10  247.08  112.89
  -2   5  10  316.77  108.69
  -1   5  10  679.43  137.39
   0   5  10  287.47  115.39
   1   5  10 1009.20  107.39
   1   5  10  761.62  132.89
   2   5  10  149.99   76.79
   2   5  10  155.78  104.49
   3   5  10  856.11  118.39
   4   5  10  105.29   74.49
   5   5  10  673.53  115.29
   6   5  10  -93.49   77.59
  -4   6  10  237.88  114.59
  -3   6  10  200.68  114.29
  -2   6  10  177.98  114.59
  -1   6  10  286.17  125.29
   0   6  10  266.97  110.09
   1   6  10  442.06  127.89
   2   6  10   76.89   75.39
   2   6  10   97.89  119.19
   3   6  10  450.05  141.79
   3   6  10  524.05  106.19
   4   6  10  -18.80   88.49
   5   6  10  324.97  115.69
  -3   7  10  -94.09  118.69
  -2   7  10  488.05  139.09
  -1   7  10  224.88  118.99
   0   7  10  561.04  134.89
   1   7  10  465.15  146.39
   2   7  10  191.38  132.39
   2   7  10  123.39   84.69
   3   7  10  169.58  129.09
   3   7  10  536.05  117.89
   4   7  10    6.90  125.99
   4   7  10  125.29   90.39
   0   8  10  223.48  133.89
   1   8  10  142.59  111.19
   2   8  10  105.99  125.39
   3   8  10  329.87   99.79
  -2  -6  11  288.87  108.39
   1   6 -11  197.08   98.79
  -1  -6  11   90.09  101.69
   0   6 -11  351.76  117.29
   0  -6  11  298.17  101.99
  -1   6 -11  159.68  107.89
   1  -6  11   -4.70   82.09
  -2   6 -11  438.96  131.49
  -3  -5  11  284.97  116.59
  -2  -5  11  204.48  103.29
   1   5 -11  364.26  104.49
  -1  -5  11  182.08   90.19
   0   5 -11  141.29   99.69
   0  -5  11  359.26  103.99
  -1   5 -11  358.56  119.89
   1  -5  11  436.76  101.69
  -2   5 -11  328.17  107.49
  -3   5 -11  256.57  103.59
  -4   5 -11  332.97  122.29
  -4  -4  11  168.58   97.89
  -3  -4  11  189.88  107.09
  -2  -4  11  296.17  103.89
   1   4 -11  445.06  103.39
  -1  -4  11  241.98   99.39
   0   4 -11  500.95  112.99
   0  -4  11  372.06   98.99
  -1   4 -11  185.48   93.59
   1  -4  11  260.07   87.89
  -2   4 -11  478.75  121.69
   2  -4  11  460.15   90.59
  -3   4 -11  212.98  105.79
  -4   4 -11  246.28  101.09
  -5   4 -11   16.50   92.99
  -5  -3  11   86.69  114.09
  -4  -3  11  -26.70   85.79
  -3  -3  11  701.13  132.79
  -2  -3  11   67.59   85.19
   1   3 -11  846.52  115.19
  -1  -3  11  619.94  110.49
   0   3 -11  290.67   97.19
   0  -3  11  352.66   95.09
  -1   3 -11  321.27   93.69
   1  -3  11  558.34   95.69
  -2   3 -11  368.86  100.89
   2  -3  11  519.25   89.79
  -3   3 -11  216.78   91.79
  -4   3 -11  346.97  104.39
  -5   3 -11   27.30   85.79
   5  -3  11   87.59   88.39
  -6   3 -11  -32.90   84.69
   6  -3  11  -33.30   79.49
  -6  -2  11   84.29  104.29
  -5  -2  11  276.87  119.19
  -4  -2  11  -91.79   76.19
  -3  -2  11  325.27  100.49
  -2  -2  11  179.38   84.69
   1   2 -11 1101.29  116.09
  -1  -2  11 1131.09  131.99
   0   2 -11  122.89   69.19
   0  -2  11  179.38   71.69
  -1   2 -11  925.31  115.19
   1  -2  11 1025.80  111.79
  -2   2 -11  367.06   98.99
   2  -2  11  300.17   73.09
  -3   2 -11  622.34  110.39
  -4   2 -11  481.25  104.89
   4  -2  11  309.97   91.79
  -5   2 -11  225.78   98.09
   5  -2  11  185.28   93.49
  -6   2 -11  537.35  126.59
   6  -2  11  259.67   92.19
  -6  -1  11 -131.09  100.89
  -5  -1  11  298.37  115.49
  -4  -1  11 -151.28   73.69
  -3  -1  11  598.84  124.19
  -2  -1  11   60.69   79.09
   1   1 -11  821.12   98.69
  -1  -1  11  689.03  106.09
   0   1 -11  245.98   77.29
   0  -1  11  192.68   78.79
  -1   1 -11  651.53   98.69
   1  -1  11  762.22   96.29
   1  -1  11  884.71  103.89
  -2   1 -11  290.67   92.49
   2  -1  11  458.15   78.89
  -3   1 -11  458.75  105.29
   3  -1  11  608.24  108.69
  -4   1 -11  268.47   90.09
   4  -1  11  289.37   95.49
  -5   1 -11  291.57  105.89
   5  -1  11  119.99   88.59
  -6   1 -11  247.48   97.39
   6  -1  11  318.27  100.49
  -7   1 -11  250.17  116.19
   7  -1  11  -30.30   83.49
  -6   0  11  227.48  125.39
  -5   0  11  246.68  116.09
  -4   0  11   12.70   85.79
  -4   0  11   27.10   71.99
  -3   0  11  675.73  119.89
  -3   0  11  657.63  100.39
  -2   0  11  146.99   71.39
  -2   0  11   32.10   83.99
   1   0 -11  985.80  105.79
  -1   0  11  907.61  124.99
  -1   0  11 1064.39  109.49
   0   0 -11  124.89   72.59
   0   0  11   23.70   70.29
   0   0  11  130.39   65.49
   0   0  11   60.39   72.39
  -1   0 -11  577.64  102.29
   1   0  11  813.62  102.09
   1   0  11  523.15   88.29
   1   0  11  686.13  110.79
  -2   0 -11  307.07   86.09
   2   0  11  396.76   74.59
   2   0  11  316.67   78.29
  -3   0 -11  712.23  119.99
   3   0  11  507.65   91.99
  -4   0 -11  302.37  100.39
   4   0  11  143.49   84.49
  -5   0 -11  364.76  109.79
   5   0  11  230.48   86.09
  -6   0 -11  -47.80   78.19
   6   0  11   83.79   82.39
  -7   0 -11  -15.30   86.89
   7   0  11   40.70   89.49
  -6   1  11  285.87  109.09
  -6   1  11  228.78  123.29
  -5   1  11  127.19   95.09
  -5   1  11  -16.50   79.79
  -4   1  11  224.28   96.69
  -4   1  11  177.88   86.49
  -3   1  11  616.54  117.79
  -3   1  11  686.43  114.99
  -2   1  11  -62.39   67.09
  -2   1  11   72.39   77.09
   1  -1 -11 1284.97  114.89
  -1   1  11 1262.67  132.79
  -1   1  11  996.60  118.29
   0  -1 -11  -41.10   67.69
   0   1  11   14.50   58.69
   0   1  11   15.80   78.79
   0   1  11 -116.59   45.80
  -1  -1 -11 1888.91  142.29
   1   1  11 1727.73  159.88
   1   1  11 2140.79  124.79
   1   1  11 1824.32  127.19
  -2  -1 -11  115.39   80.89
   2   1  11   69.59   57.89
   2   1  11  187.08   75.09
  -3  -1 -11 1008.40  126.79
   3   1  11 1095.19  115.69
  -4  -1 -11  337.57  100.99
   4   1  11  276.67   93.59
  -5  -1 -11  528.35  112.29
   5   1  11  550.64  109.89
  -6  -1 -11  339.07  107.69
   6   1  11   75.39   79.39
  -7  -1 -11   98.09   94.49
   7   1  11  -67.69   84.99
  -6   2  11   66.19   95.19
  -6   2  11   51.29   92.09
  -5   2  11 -156.08   81.49
  -5   2  11    3.80   87.99
  -4   2  11  101.79   82.19
  -3   2  11  186.78   96.89
  -2   2  11   80.09   89.79
  -1   2  11  783.92  124.19
   0  -2 -11   18.30   64.79
   0   2  11  -22.60   85.29
   0   2  11   27.20   51.99
  -1  -2 -11 1163.88  124.09
   1   2  11 1080.19  103.39
   1   2  11 1365.56  155.78
  -2  -2 -11  -95.49   78.59
   2   2  11   48.80   58.19
  -3  -2 -11  659.03  114.99
   3   2  11  850.91  105.59
  -4  -2 -11   70.09   82.09
   4   2  11   23.70   65.79
  -5  -2 -11  491.35  110.29
   5   2  11  402.76   95.89
  -6  -2 -11  -33.50   77.19
   6   2  11  179.48   85.49
  -7  -2 -11  206.48   94.89
   7   2  11  207.78   95.19
  -6   3  11  307.17  129.99
  -5   3  11   17.20  104.29
  -4   3  11  189.18  112.99
  -3   3  11  249.78  110.19
  -2   3  11  192.78   94.59
  -1   3  11  556.94  116.59
   0   3  11   -4.50   90.59
   1   3  11  898.91   98.79
   1   3  11  858.91  129.49
   2   3  11 -138.39   84.59
   2   3  11  -61.09   60.69
   3   3  11 1028.60  121.59
   4   3  11   76.79   78.59
   5   3  11  270.67   93.59
   6   3  11   52.29   93.99
  -5   4  11  -83.69   98.39
  -4   4  11  274.27  120.79
  -3   4  11  142.39  101.59
  -2   4  11  450.85  117.99
  -1   4  11  781.22  128.59
   0   4  11  200.08   95.99
   1   4  11  903.41  141.09
   1   4  11 1125.99  112.79
   2   4  11  -43.60   85.89
   2   4  11   10.30   63.79
   3   4  11  678.83  109.79
   4   4  11   44.90   83.99
   5   4  11  540.35  118.69
   6   4  11  132.19   93.29
  -4   5  11  197.68  109.79
  -3   5  11   52.29   99.49
  -2   5  11  259.27  121.19
  -1   5  11   43.10   93.49
   0   5  11  243.98  110.29
   1   5  11  734.63  150.08
   2   5  11  276.07  116.39
   2   5  11  280.47   85.69
   3   5  11  873.71  154.08
   3   5  11  955.40  125.39
   4   5  11  114.99   82.59
   5   5  11  738.43  131.69
   6   5  11    4.00   84.99
  -3   6  11 -107.69   96.89
  -2   6  11  194.78  110.09
  -1   6  11  248.28  115.39
   0   6  11  178.58  104.69
   1   6  11  342.07  132.99
   2   6  11   97.49  109.89
   2   6  11  159.08   85.09
   3   6  11  315.27  143.69
   3   6  11  453.05  106.29
   4   6  11   87.09   98.89
   5   6  11  253.17  115.79
  -1   7  11  111.99  121.59
   0   7  11  309.97  127.09
   1   7  11  145.69  122.99
   2   7  11  200.48  127.59
   3   7  11  312.87  108.59
   3   7  11  207.18  138.99
   4   7  11  226.08   98.29
  -2  -5  12   48.00   98.49
   1   5 -12  357.66  112.89
  -1  -5  12   75.79   89.19
   0   5 -12  393.46  113.99
   0  -5  12  171.68   95.89
  -1   5 -12  -41.50   96.09
   1  -5  12  138.19   81.79
  -2   5 -12  275.57  117.69
  -3   5 -12  -45.60  103.99
  -3  -4  12  188.38  101.39
  -2  -4  12  -12.50   97.39
   1   4 -12  257.27  100.49
  -1  -4  12  136.09   87.39
   0   4 -12  104.49   95.99
   0  -4  12  140.89   92.49
  -1   4 -12  256.47   96.69
   1  -4  12   80.09   74.39
  -2   4 -12  124.99   98.39
  -3   4 -12  -17.00   93.89
  -4   4 -12  215.18  108.29
  -4  -3  12  -33.40   99.79
  -3  -3  12  227.88  103.59
  -2  -3  12   17.30   96.49
   1   3 -12  397.16  100.79
  -1  -3  12  532.95  115.59
   0   3 -12  220.98   97.49
   0  -3  12  421.56   98.39
  -1   3 -12  277.97  100.29
   1  -3  12  224.98   81.39
  -2   3 -12  402.16  114.19
  -3   3 -12  308.57  102.59
  -4   3 -12  239.98  104.99
  -5   3 -12  141.39  104.09
   5  -3  12    1.00   93.59
  -5  -2  12  192.68  118.99
  -4  -2  12  133.09   93.09
  -3  -2  12  171.88   95.99
  -2  -2  12   23.60   81.39
   1   2 -12  285.57   89.99
  -1  -2  12  558.14  115.79
   0   2 -12   93.39   78.79
   0  -2  12   81.89   80.59
  -1   2 -12  558.74  108.69
   1  -2  12  576.84   95.29
  -2   2 -12  336.27  103.29
  -3   2 -12  321.97   98.19
  -4   2 -12  435.26  116.29
   4  -2  12  376.46  107.29
  -5   2 -12  178.88   91.19
   5  -2  12   79.59   79.19
  -6   2 -12  264.57  117.19
  -5  -1  12  208.98  105.39
  -4  -1  12   93.59   95.99
  -3  -1  12  192.18   99.59
  -2  -1  12  -17.70   87.89
   1   1 -12  363.06   88.99
  -1  -1  12  453.95  104.79
   0   1 -12   40.70   72.49
   0  -1  12   37.70   73.29
  -1   1 -12  471.95   94.19
   1  -1  12  581.04   94.29
  -2   1 -12   91.99   78.59
   2  -1  12  169.58   77.89
  -3   1 -12  489.75  112.49
   3  -1  12  375.06   91.09
  -4   1 -12   69.09   83.49
   4  -1  12  134.09   80.49
  -5   1 -12  346.97  102.49
   5  -1  12  237.28  100.99
  -6   1 -12  100.69  104.29
   6  -1  12   -6.40   93.49
  -5   0  12  -21.70   94.39
  -4   0  12  113.09  105.29
  -3   0  12  318.87  108.69
  -2   0  12  103.79   84.59
   1   0 -12  430.46   91.79
  -1   0  12  637.74  118.49
  -1   0  12  637.44   97.89
   0   0 -12  161.98   71.89
   0   0  12   19.50   63.09
   0   0  12  -54.99   67.99
   0   0  12   62.99   70.59
  -1   0 -12  674.43  113.09
   1   0  12  762.92  103.69
   1   0  12  641.54  107.89
   1   0  12  712.73   98.59
  -2   0 -12   85.49   77.49
   2   0  12  244.68   82.59
  -3   0 -12  452.35  104.89
   3   0  12  532.55  107.69
  -4   0 -12   50.89   93.09
   4   0  12  205.48   93.09
  -5   0 -12  461.45  109.49
   5   0  12  336.07   93.99
  -6   0 -12  154.38   92.59
   6   0  12  160.28  101.49
  -5   1  12  105.89  102.79
  -5   1  12   70.59   98.19
  -4   1  12  352.86  105.99
  -4   1  12  151.58  103.89
  -3   1  12  219.38   99.59
  -3   1  12  248.78   91.29
  -2   1  12  180.38   95.49
  -2   1  12  186.88   83.39
   1  -1 -12  733.33  106.79
  -1   1  12  895.81  129.49
  -1   1  12  707.53  107.49
   0  -1 -12    1.60   81.09
   0   1  12  -92.09   70.49
   0   1  12  -38.60   64.99
   0   1  12  -63.79   50.39
  -1  -1 -12 1052.99  132.39
   1   1  12  906.41  104.59
   1   1  12  867.31  132.69
   1   1  12  868.61  109.09
  -2  -1 -12  -41.90   87.89
   2   1  12  -40.90   65.79
  -3  -1 -12  803.62  140.19
   3   1  12  761.62  113.49
  -4  -1 -12  284.77  107.39
   4   1  12  219.78   85.79
  -5  -1 -12  281.07  103.39
   5   1  12  143.79   85.49
  -6  -1 -12  275.47  113.29
   6   1  12  176.28   89.09
  -5   2  12   91.89  109.69
  -5   2  12   34.40   91.19
  -4   2  12  165.08  105.39
  -4   2  12   91.99   98.99
  -3   2  12   97.69   97.69
  -3   2  12    3.50   82.69
  -2   2  12  175.78   98.39
  -1   2  12  291.77  103.69
   0   2  12   98.19   95.39
  -1  -2 -12  912.01  121.09
   1   2  12  689.53  123.19
   1   2  12  528.65   85.39
   1   2  12  648.04  100.99
  -2  -2 -12   -5.10   96.09
   2   2  12   27.00   86.89
   2   2  12   25.00   69.19
  -3  -2 -12  900.21  141.79
   3   2  12  826.82  116.79
  -4  -2 -12  199.98  101.79
   4   2  12    6.30   70.39
  -5  -2 -12  699.43  128.59
   5   2  12  626.24  116.79
  -6  -2 -12    0.40   98.79
   6   2  12  197.28   94.79
  -5   3  12    5.40  106.09
  -4   3  12  264.57  116.59
  -3   3  12  199.88  104.99
  -2   3  12  165.18   98.09
  -1   3  12  537.65  128.29
   0   3  12   17.10   92.49
   1   3  12  256.97  115.79
   1   3  12  587.04   91.29
   2   3  12  160.48  103.39
   2   3  12  -24.50   62.89
   3   3  12  576.84  105.39
   4   3  12   11.80   79.49
   5   3  12  275.17   95.39
   6   3  12  -69.29   76.19
  -4   4  12  285.17  130.69
  -3   4  12  -74.79  102.59
  -2   4  12  233.88  109.59
  -1   4  12  -24.60   88.09
   0   4  12  481.95  125.29
   1   4  12  652.83  130.09
   2   4  12   29.20   98.69
   2   4  12  126.19   72.19
   3   4  12  520.65   99.99
   4   4  12  -77.49   72.39
   5   4  12  439.46  107.49
  -3   5  12  126.29  125.29
  -2   5  12  215.58  120.49
  -1   5  12   69.69  109.89
   0   5  12  373.36  118.39
   1   5  12  308.27  124.79
   2   5  12  130.69  106.89
   2   5  12   65.79   75.79
   3   5  12  580.34  108.39
   3   5  12  617.24  137.89
   4   5  12  140.09   95.89
   5   5  12  485.05  115.59
  -2   6  12  197.38  123.49
  -1   6  12   92.09  107.79
   0   6  12  268.77  128.79
   1   6  12  248.88  120.29
   2   6  12  151.78  114.69
   3   6  12  269.27  142.89
   3   6  12   66.99   91.89
   4   6  12  136.59   95.19
   0   5 -13  -10.10  101.99
   0  -5  13   77.29   90.19
  -1   5 -13  117.19   96.59
  -2  -4  13  -27.40   87.69
  -1  -4  13  -51.49   91.99
   0   4 -13  -40.50   93.29
   0  -4  13  -27.40   82.69
  -1   4 -13   85.39  101.49
   1  -4  13  259.17   92.49
  -2   4 -13  240.38  118.59
  -3   4 -13  132.19  102.59
  -3  -3  13  -12.10   91.39
  -2  -3  13 -192.38   81.69
   1   3 -13  299.97   99.69
  -1  -3  13   28.20   94.49
   0   3 -13   21.40   87.09
   0  -3  13  238.58   93.99
  -1   3 -13  144.69   91.69
   1  -3  13  242.58   89.09
  -2   3 -13  351.56  112.69
  -3   3 -13   58.39   97.89
  -4   3 -13  254.47  113.09
  -4  -2  13   26.80   96.59
  -3  -2  13  278.57  116.89
  -2  -2  13   -3.80   87.09
   1   2 -13  527.05  104.79
  -1  -2  13  388.66  104.49
   0   2 -13  -34.50   70.79
   0  -2  13  -45.00   72.79
  -1   2 -13  546.05  118.29
   1  -2  13  355.06   87.39
  -2   2 -13  199.48   99.49
  -3   2 -13  200.58  102.69
  -4   2 -13  180.38   95.49
   4  -2  13  252.27  101.89
  -5   2 -13  114.59   93.39
   5  -2  13  161.78   88.89
  -4  -1  13  156.78  100.69
  -3  -1  13  -59.19   96.49
  -2  -1  13   32.10   90.49
   1   1 -13   61.69   81.19
  -1  -1  13  357.36  108.99
   0   1 -13   53.39   77.29
   0  -1  13   -3.30   73.29
  -1   1 -13  331.87  101.79
   1  -1  13  223.18   80.79
  -2   1 -13   11.10   88.79
   2  -1  13  -80.19   64.29
  -3   1 -13  220.28   92.79
   3  -1  13  194.08   86.29
  -4   1 -13   49.00   85.19
   4  -1  13   64.89   77.39
  -5   1 -13  195.78   98.09
   5  -1  13  -75.19   70.29
  -4   0  13  361.56  128.49
  -3   0  13  112.39   98.49
  -2   0  13  112.79   92.59
   1   0 -13  387.66   96.59
  -1   0  13  257.77   99.19
   0   0 -13 -100.29   73.69
   0   0  13 -107.39   65.39
   0   0  13  -32.80   59.69
  -1   0 -13  360.86  102.99
   1   0  13  236.78   85.09
   1   0  13  249.18   80.89
  -2   0 -13   78.29   81.19
   2   0  13   16.30   73.89
  -3   0 -13  193.48   91.59
   3   0  13  195.98   85.59
  -4   0 -13  -47.30   79.79
   4   0  13   -4.30   74.99
  -5   0 -13  183.48  101.89
   5   0  13  193.78   90.09
  -4   1  13  359.96  125.59
  -3   1  13  -36.60  101.49
  -2   1  13  459.85  102.29
  -2   1  13  354.76  107.69
   1  -1 -13  557.34  107.09
  -1   1  13  379.86   97.69
  -1   1  13  474.25  114.69
   0  -1 -13   79.59   92.29
   0   1  13   46.20   74.59
   0   1  13  117.49   85.79
  -1  -1 -13  579.84  116.19
   1   1  13  591.64  119.09
   1   1  13  536.75   92.29
   1   1  13  562.04   99.09
  -2  -1 -13   33.50   87.09
   2   1  13   56.09   66.09
   2   1  13 -199.68   84.49
  -3  -1 -13  769.82  142.29
   3   1  13  591.24  108.59
  -4  -1 -13   88.49   99.79
   4   1  13   94.99   82.19
  -5  -1 -13  463.85  132.49
   5   1  13  347.37  108.89
  -4   2  13  169.38  100.99
  -4   2  13   40.70   89.49
  -3   2  13  281.57  105.39
  -3   2  13  -27.10   96.59
  -2   2  13  102.89   96.69
  -2   2  13  253.27  101.89
  -1   2  13   83.59   92.39
  -1   2  13  283.37  104.69
   0   2  13  163.28   95.29
   0   2  13    0.60   74.79
  -1  -2 -13  535.55  113.89
   1   2  13  276.87   79.39
   1   2  13  373.56   86.49
   1   2  13  493.65  122.39
  -2  -2 -13  -83.49   95.59
   2   2  13 -192.88   89.39
   2   2  13   50.39   68.79
  -3  -2 -13  500.15  135.19
   3   2  13  463.65   99.49
  -4  -2 -13    4.00   99.49
   4   2  13   -0.30   82.59
  -5  -2 -13  386.46  130.59
   5   2  13  314.57  103.49
  -4   3  13  193.08  113.89
  -3   3  13  130.19  111.69
  -2   3  13  151.68   99.19
  -1   3  13  202.08  101.59
   0   3  13   54.69  100.99
   1   3  13  267.47  117.29
   2   3  13  -73.59  102.29
   2   3  13  -35.20   65.69
   3   3  13  250.27   87.49
   4   3  13   78.49   89.39
   5   3  13  171.28   94.69
  -3   4  13  -32.50   97.99
  -2   4  13  333.77  115.69
  -1   4  13   54.19  113.09
   0   4  13  261.07  118.49
   1   4  13  253.67  122.79
   2   4  13  163.38  122.29
   2   4  13  169.28   79.59
   3   4  13  527.35  139.09
   3   4  13  517.85  104.99
   4   4  13  -61.49   78.19
   5   4  13  269.27  102.49
  -2   5  13  257.67  127.79
  -1   5  13   52.99  114.39
   0   5  13  454.85  138.59
   1   5  13   33.40  100.39
   2   5  13  406.66  129.19
   3   5  13  232.48   93.19
   3   5  13  248.98  138.89
   4   5  13  210.18  105.39
   0   6  13  322.17  134.99
   1   6  13   54.89  119.89
  -2  -3  14  -43.80   99.59
  -1  -3  14  451.75  118.39
   0   3 -14    4.60   90.29
   0  -3  14   60.79   84.89
  -1   3 -14  232.98  107.59
  -2   3 -14  172.88  106.89
  -3  -2  14   92.39  115.39
  -2  -2  14   76.29  105.89
  -1  -2  14  329.67  113.29
   0   2 -14  -51.59   77.99
   0  -2  14   11.20   74.79
  -1   2 -14  494.65  120.19
  -2   2 -14  178.48  100.69
  -3   2 -14  237.28  102.19
   3  -2  14  347.67  103.79
  -3  -1  14  139.29  110.69
  -2  -1  14   19.20   93.19
  -1  -1  14  172.58  102.59
   0   1 -14    2.10   84.49
   0  -1  14   96.79   81.49
  -1   1 -14   41.20   90.99
   1  -1  14  114.69   81.79
  -2   1 -14   50.79   81.69
   2  -1  14  -28.30   79.69
  -3   1 -14  105.39  106.09
   3  -1  14   82.89   83.89
  -4   1 -14   62.49  101.89
   4  -1  14  119.09   92.59
  -3   0  14  204.08  106.79
  -2   0  14    2.70   85.69
  -1   0  14  271.87   94.69
   0   0 -14   99.39   99.39
   0   0  14    3.10   68.19
  -1   0 -14  229.98   97.49
   1   0  14  180.28   82.09
  -2   0 -14 -147.39   71.39
   2   0  14 -111.09   71.99
  -3   0 -14  -60.19   81.39
   3   0  14  141.99   95.99
  -4   0 -14  117.19   95.29
   4   0  14  -50.49   76.49
  -3   1  14  115.29   98.79
  -2   1  14  331.47  115.79
  -1   1  14  303.37  105.89
   0  -1 -14  144.59   98.99
   0   1  14  338.47  100.49
  -1  -1 -14  495.05  125.69
   1   1  14  523.35   95.99
   1   1  14  343.27  110.89
  -2  -1 -14  -66.69  104.49
   2   1  14   81.89   81.69
   2   1  14  -15.30   92.79
  -3  -1 -14  400.86  134.59
   3   1  14  322.07   95.19
  -4  -1 -14 -106.99  111.59
   4   1  14   -1.40   78.59
  -3   2  14  173.18  108.49
  -3   2  14    0.20  103.39
  -2   2  14  359.86  115.29
  -2   2  14  116.39  105.39
  -1   2  14  -12.40   87.09
  -1   2  14  246.28  107.19
   0   2  14  163.88   99.19
   0   2  14   58.39   82.79
   1   2  14   96.19  102.59
  -2  -2 -14  116.19  111.89
   2   2  14  116.89   76.69
   2   2  14  -51.89  105.79
  -3  -2 -14  233.38  124.79
   3   2  14  219.38   80.69
   3   2  14  145.79  120.49
  -4  -2 -14 -126.79   92.59
   4   2  14   26.40   90.29
  -3   3  14   -3.00  108.29
  -2   3  14  176.78  113.59
  -1   3  14  208.38  118.29
   0   3  14  258.97  120.59
   1   3  14  110.79  114.79
   2   3  14   58.89   74.89
   2   3  14   85.99  116.49
   3   3  14   -0.90  122.69
   3   3  14  265.47   97.89
   4   3  14   65.59   95.39
  -2   4  14  290.57  115.49
  -1   4  14   -7.40  100.89
   0   4  14  428.66  124.69
   1   4  14  309.97  131.99
   2   4  14  153.98  120.99
   3   4  14  268.57  137.49
   3   4  14  252.47   97.29
   0   5  14  126.39  128.09
   1   5  14  201.18  110.09
   0   2 -15  -56.09   86.19
   0  -2  15  134.09   94.39
  -1   2 -15  555.64  125.99
  -2   2 -15   74.49  106.89
  -1  -1  15  296.77  102.19
   0   1 -15   -3.50   90.79
   0  -1  15  -25.50   83.29
  -1   1 -15  352.86  104.49
   1  -1  15  272.77   96.19
  -2   1 -15   25.50   98.89
   2  -1  15   33.00   87.29
  -3   1 -15  258.47  115.49
   3  -1  15  117.49   85.39
  -2   0  15  158.08  114.19
  -1   0  15  295.17  107.69
   0   0 -15   49.40  101.99
   0   0  15   65.39   86.59
  -1   0 -15  331.17  122.19
  -2   0 -15   51.79  115.89
   2   0  15  -19.70   79.29
  -3   0 -15  294.97  122.79
   3   0  15  131.09   95.39
  -2   1  15  225.18  115.59
  -1   1  15  181.68   92.19
   0  -1 -15  101.69  104.99
   0   1  15   91.39   87.59
  -1  -1 -15  827.02  149.59
  -2  -1 -15    0.00  111.79
   2   1  15  129.19   84.29
  -3  -1 -15  334.57  122.09
   3   1  15  224.68   97.29
  -2   2  15  389.86  123.39
  -1   2  15  172.48   99.49
  -1   2  15  333.47  128.49
   0   2  15  325.87  114.49
   0   2  15  127.19   89.09
   1   2  15  233.38  109.19
  -2  -2 -15  169.38  121.99
   2   2  15   41.30  109.89
  -3  -2 -15  238.78  117.59
   3   2  15  301.07   96.79
   3   2  15  142.59  127.59
  -1   3  15   76.59  112.69
  -1   3  15  -63.09   90.29
   0   3  15  208.88  118.79
   0   3  15  -14.70   82.79
   1   3  15  151.58  119.09
   2   3  15  213.98  128.59
;
_shelx_hkl_checksum              7971
loop_
_space_group_symop_operation_xyz
'x, y, z'
'-x, -y, -z'
loop_
_atom_site_label
_atom_site_type_symbol
_atom_site_fract_x
_atom_site_fract_y
_atom_site_fract_z
_atom_site_U_iso_or_equiv
_atom_site_adp_type
_atom_site_occupancy
_atom_site_site_symmetry_order
_atom_site_calc_flag
_atom_site_refinement_flags_posn
_atom_site_refinement_flags_adp
Pt1 Pt 0.22800(6) 1.02577(5) 0.02118(4) 0.02257(13) Uani 1 1 d . .
Cl1 Cl 0.2920(3) 1.0037(3) -0.1734(2) 0.0310(6) Uani 1 1 d . .
Cl2 Cl 0.1852(4) 1.3312(3) -0.0010(2) 0.0360(7) Uani 1 1 d . .
O1 O 0.1418(9) 0.3800(8) 0.3125(6) 0.0377(18) Uani 1 1 d . .
N1 N 0.2664(11) 0.7560(10) 0.0418(6) 0.028(2) Uani 1 1 d . .
H1A H 0.1460 0.7048 0.0389 0.033 Uiso 1 1 calc R U
H1D H 0.3448 0.7164 -0.0240 0.033 Uiso 1 1 calc R U
N2 N 0.1531(11) 1.0459(10) 0.1870(7) 0.037(2) Uani 1 1 d . .
H2A H 0.1775 1.1676 0.2044 0.044 Uiso 1 1 calc R U
H2C H 0.0187 1.0369 0.1957 0.044 Uiso 1 1 calc R U
N3 N 0.0523(11) 0.6635(10) 0.2559(7) 0.035(2) Uani 1 1 d . .
H3A H -0.0387 0.7372 0.2351 0.042 Uiso 1 1 calc R U
N4 N -0.5037(12) 0.2302(13) 0.5168(8) 0.051(3) Uani 1 1 d . .
N5 N -0.6685(13) 0.1812(11) 0.5281(7) 0.040(2) Uani 1 1 d . .
N6 N -0.8078(13) 0.1294(13) 0.5456(8) 0.050(3) Uani 1 1 d . .
C1 C 0.3502(13) 0.6790(12) 0.1478(8) 0.032(3) Uani 1 1 d . .
H1B H 0.4747 0.7220 0.1494 0.038 Uiso 1 1 calc R U
H1C H 0.3620 0.5483 0.1467 0.038 Uiso 1 1 calc R U
C2 C 0.2374(12) 0.7277(12) 0.2552(8) 0.027(2) Uani 1 1 d . .
H2B H 0.2972 0.6611 0.3204 0.033 Uiso 1 1 calc R U
C3 C 0.2324(13) 0.9232(12) 0.2778(8) 0.028(2) Uani 1 1 d . .
H3B H 0.1600 0.9402 0.3503 0.033 Uiso 1 1 calc R U
H3C H 0.3589 0.9559 0.2872 0.033 Uiso 1 1 calc R U
C4 C 0.0198(14) 0.4930(14) 0.2881(9) 0.034(3) Uani 1 1 d . .
C5 C -0.1835(14) 0.4474(13) 0.2909(9) 0.037(3) Uani 1 1 d . .
H5A H -0.2607 0.5577 0.2770 0.044 Uiso 1 1 calc R U
H5B H -0.1998 0.3696 0.2294 0.044 Uiso 1 1 calc R U
C6 C -0.2445(12) 0.3563(13) 0.4025(9) 0.038(3) Uani 1 1 d . .
H6A H -0.2356 0.4367 0.4636 0.046 Uiso 1 1 calc R U
H6B H -0.1630 0.2496 0.4186 0.046 Uiso 1 1 calc R U
C7 C -0.4407(13) 0.3028(13) 0.4013(8) 0.035(3) Uani 1 1 d . .
H7A H -0.5209 0.4072 0.3776 0.042 Uiso 1 1 calc R U
H7B H -0.4477 0.2123 0.3461 0.042 Uiso 1 1 calc R U
loop_
_atom_site_aniso_label
_atom_site_aniso_U_11
_atom_site_aniso_U_22
_atom_site_aniso_U_33
_atom_site_aniso_U_23
_atom_site_aniso_U_13
_atom_site_aniso_U_12
Pt1 0.0278(2) 0.01629(18) 0.0241(2) -0.00136(14) -0.00320(16) -0.00291(14)
Cl1 0.0356(14) 0.0318(14) 0.0257(15) -0.0007(12) -0.0010(12) -0.0055(12)
Cl2 0.0543(17) 0.0186(12) 0.0352(17) 0.0003(12) -0.0069(14) -0.0007(12)
O1 0.041(4) 0.028(4) 0.043(5) 0.001(4) -0.010(4) 0.008(3)
N1 0.037(5) 0.024(4) 0.023(5) -0.009(4) -0.004(4) 0.000(4)
N2 0.048(6) 0.025(5) 0.036(6) 0.000(4) -0.005(5) 0.001(4)
N3 0.030(5) 0.022(4) 0.052(6) 0.002(4) -0.007(4) 0.005(4)
N4 0.041(6) 0.059(6) 0.051(7) 0.016(5) -0.003(5) -0.012(5)
N5 0.042(6) 0.038(5) 0.039(6) 0.000(5) 0.002(5) -0.010(5)
N6 0.035(6) 0.063(7) 0.052(7) -0.010(5) 0.005(5) -0.020(5)
C1 0.024(6) 0.026(5) 0.046(7) 0.004(5) -0.011(5) 0.000(4)
C2 0.027(6) 0.023(5) 0.032(7) -0.001(5) -0.006(5) 0.001(4)
C3 0.034(6) 0.030(5) 0.020(6) -0.001(5) -0.003(5) -0.008(5)
C4 0.032(6) 0.037(6) 0.031(7) 0.002(5) -0.002(5) -0.009(5)
C5 0.048(7) 0.027(6) 0.037(7) -0.001(5) 0.002(6) -0.008(5)
C6 0.022(6) 0.033(6) 0.058(8) -0.002(6) 0.008(5) -0.005(5)
C7 0.038(6) 0.023(5) 0.043(7) 0.008(5) 0.004(5) -0.007(5)
loop_
_atom_type_symbol
_atom_type_description
_atom_type_scat_dispersion_real
_atom_type_scat_dispersion_imag
_atom_type_scat_source
C C 0.0033 0.0016 'International Tables Vol C Tables 4.2.6.8 and 6.1.1.4'
H H 0.0000 0.0000 'International Tables Vol C Tables 4.2.6.8 and 6.1.1.4'
N N 0.0061 0.0033 'International Tables Vol C Tables 4.2.6.8 and 6.1.1.4'
Cl Cl 0.1484 0.1585 'International Tables Vol C Tables 4.2.6.8 and 6.1.1.4'
Pt Pt -1.7033 8.3905 'International Tables Vol C Tables 4.2.6.8 and 6.1.1.4'
O O 0.0106 0.0060 'International Tables Vol C Tables 4.2.6.8 and 6.1.1.4'
loop_
_geom_angle_atom_site_label_1
_geom_angle_atom_site_label_2
_geom_angle_atom_site_label_3
_geom_angle
N2 Pt1 N1 92.8(3)
N2 Pt1 Cl2 86.9(2)
N1 Pt1 Cl2 179.6(2)
N2 Pt1 Cl1 175.8(2)
N1 Pt1 Cl1 87.8(2)
Cl2 Pt1 Cl1 92.53(9)
C1 N1 Pt1 117.4(6)
C1 N1 H1A 108.0
Pt1 N1 H1A 108.0
C1 N1 H1D 108.0
Pt1 N1 H1D 108.0
H1A N1 H1D 107.2
C3 N2 Pt1 121.9(6)
C3 N2 H2A 106.8
Pt1 N2 H2A 106.8
C3 N2 H2C 106.8
Pt1 N2 H2C 106.8
H2A N2 H2C 106.7
C4 N3 C2 120.9(8)
C4 N3 H3A 119.5
C2 N3 H3A 119.5
N5 N4 C7 115.9(9)
N6 N5 N4 174.2(11)
N1 C1 C2 112.5(7)
N1 C1 H1B 109.1
C2 C1 H1B 109.1
N1 C1 H1C 109.1
C2 C1 H1C 109.1
H1B C1 H1C 107.8
N3 C2 C3 111.7(8)
N3 C2 C1 110.4(8)
C3 C2 C1 114.9(8)
N3 C2 H2B 106.5
C3 C2 H2B 106.5
C1 C2 H2B 106.5
N2 C3 C2 114.6(8)
N2 C3 H3B 108.6
C2 C3 H3B 108.6
N2 C3 H3C 108.6
C2 C3 H3C 108.6
H3B C3 H3C 107.6
O1 C4 N3 123.2(9)
O1 C4 C5 121.8(9)
N3 C4 C5 115.0(9)
C6 C5 C4 111.5(8)
C6 C5 H5A 109.3
C4 C5 H5A 109.3
C6 C5 H5B 109.3
C4 C5 H5B 109.3
H5A C5 H5B 108.0
C5 C6 C7 110.7(8)
C5 C6 H6A 109.5
C7 C6 H6A 109.5
C5 C6 H6B 109.5
C7 C6 H6B 109.5
H6A C6 H6B 108.1
N4 C7 C6 109.4(8)
N4 C7 H7A 109.8
C6 C7 H7A 109.8
N4 C7 H7B 109.8
C6 C7 H7B 109.8
H7A C7 H7B 108.2
loop_
_geom_bond_atom_site_label_1
_geom_bond_atom_site_label_2
_geom_bond_distance
Pt1 N2 2.016(8)
Pt1 N1 2.045(7)
Pt1 Cl2 2.315(2)
Pt1 Cl1 2.334(3)
O1 C4 1.233(11)
N1 C1 1.496(11)
N1 H1A 0.9900
N1 H1D 0.9900
N2 C3 1.489(11)
N2 H2A 0.9900
N2 H2C 0.9900
N3 C4 1.349(12)
N3 C2 1.468(11)
N3 H3A 0.8800
N4 N5 1.280(12)
N4 C7 1.486(12)
N5 N6 1.117(11)
C1 C2 1.525(13)
C1 H1B 0.9900
C1 H1C 0.9900
C2 C3 1.525(12)
C2 H2B 1.0000
C3 H3B 0.9900
C3 H3C 0.9900
C4 C5 1.548(13)
C5 C6 1.494(13)
C5 H5A 0.9900
C5 H5B 0.9900
C6 C7 1.519(12)
C6 H6A 0.9900
C6 H6B 0.9900
C7 H7A 0.9900
C7 H7B 0.9900
loop_
_geom_hbond_atom_site_label_D
_geom_hbond_atom_site_label_H
_geom_hbond_atom_site_label_A
_geom_hbond_distance_DH
_geom_hbond_distance_HA
_geom_hbond_distance_DA
_geom_hbond_angle_DHA
_geom_hbond_site_symmetry_A
N1 H1A Cl2 0.99 2.90 3.394(8) 111.6 1_545
N1 H1A Cl2 0.99 2.53 3.489(8) 162.0 2_575
N2 H2A O1 0.99 2.13 3.030(10) 150.6 1_565
N2 H2C Cl1 0.99 2.35 3.324(9) 166.9 2_575
N3 H3A Cl1 0.88 2.71 3.587(8) 173.1 2_575
C1 H1B Cl1 0.99 2.82 3.709(10) 150.5 2_675
C1 H1B Cl2 0.99 2.97 3.714(10) 132.4 2_675
C1 H1C Cl2 0.99 2.91 3.596(10) 127.2 1_545
C3 H3C Cl1 0.99 2.83 3.677(10) 143.9 2_675
C7 H7B Cl1 0.99 2.85 3.760(11) 152.7 2_565
loop_
_geom_torsion_atom_site_label_1
_geom_torsion_atom_site_label_2
_geom_torsion_atom_site_label_3
_geom_torsion_atom_site_label_4
_geom_torsion
Pt1 N1 C1 C2 59.3(9)
C4 N3 C2 C3 -150.2(9)
C4 N3 C2 C1 80.7(11)
N1 C1 C2 N3 59.5(10)
N1 C1 C2 C3 -67.8(10)
Pt1 N2 C3 C2 -47.1(10)
N3 C2 C3 N2 -66.3(11)
C1 C2 C3 N2 60.4(11)
C2 N3 C4 O1 -4.0(16)
C2 N3 C4 C5 176.8(8)
O1 C4 C5 C6 52.8(13)
N3 C4 C5 C6 -128.0(10)
C4 C5 C6 C7 -176.6(8)
N5 N4 C7 C6 179.4(9)
C5 C6 C7 N4 -174.0(8)
