#------------------------------------------------------------------------------
#$Date: 2020-01-04 05:36:38 +0200 (Sat, 04 Jan 2020) $
#$Revision: 246564 $
#$URL: file:///home/coder/svn-repositories/cod/cif/4/12/91/4129167.cif $
#------------------------------------------------------------------------------
#
# This file is available in the Crystallography Open Database (COD),
# http://www.crystallography.net/
#
# All data on this site have been placed in the public domain by the
# contributors.
#
data_4129167
loop_
_publ_author_name
'Berdiell, Izar Capel'
'Hochd\"orffer, Tim'
'Desplanches, C\'edric'
'Kulmaczewski, Rafal'
'Shahid, Namrah'
'Wolny, Juliusz A.'
'Warriner, Stuart L.'
'Cespedes, Oscar'
'Sch\"unemann, Volker'
'Chastanet, Guillaume'
'Halcrow, Malcolm A.'
_publ_section_title
;
 Supramolecular Iron Metallocubanes Exhibiting Site-Selective Thermal and
 Light-Induced Spin-Crossover.
;
_journal_issue                   47
_journal_name_full               'Journal of the American Chemical Society'
_journal_page_first              18759
_journal_page_last               18770
_journal_paper_doi               10.1021/jacs.9b08862
_journal_volume                  141
_journal_year                    2019
_chemical_formula_moiety         'C12 H12 N6 O'
_chemical_formula_sum            'C12 H12 N6 O'
_chemical_formula_weight         256.28
_chemical_name_systematic
;
4,6-Di(4-methylpyrazol-1-yl)pyrimid-2-one (HL2)
;
_space_group_crystal_system      triclinic
_space_group_IT_number           2
_space_group_name_Hall           '-P 1'
_space_group_name_H-M_alt        'P -1'
_atom_sites_solution_hydrogens   geom
_atom_sites_solution_primary     direct
_atom_sites_solution_secondary   difmap
_audit_creation_date             2019-03-14
_audit_creation_method
;
  Olex2 1.2
  (compiled Apr 23 2013 17:54:37, GUI svn.r4466)
;
_cell_angle_alpha                77.757(7)
_cell_angle_beta                 88.305(6)
_cell_angle_gamma                75.102(6)
_cell_formula_units_Z            2
_cell_length_a                   6.3701(4)
_cell_length_b                   8.0327(6)
_cell_length_c                   12.0083(11)
_cell_measurement_reflns_used    1956
_cell_measurement_temperature    125(2)
_cell_measurement_theta_max      72.78
_cell_measurement_theta_min      5.81
_cell_volume                     580.09(8)
_computing_cell_refinement       'CrysAlisPro, Agilent Technologies'
_computing_data_collection       'CrysAlisPro, Agilent Technologies'
_computing_data_reduction        'CrysAlisPro, Agilent Technologies'
_computing_molecular_graphics    'XSEED (Barbour, 2001)'
_computing_publication_material
;
O. V. Dolomanov, L. J. Bourhis, R. J. Gildea, J. A. K. Howard and H. Puschmann,
OLEX2: a complete structure solution, refinement and analysis program.
J. Appl. Cryst. (2009). 42, 339-341.
;
_computing_structure_refinement  'SHELXL-97 (Sheldrick, 1997)'
_computing_structure_solution    'SHELXS-97 (Sheldrick, 1990)'
_diffrn_ambient_temperature      125(2)
_diffrn_detector_area_resol_mean 5.3095
_diffrn_measured_fraction_theta_full 0.940
_diffrn_measured_fraction_theta_max 0.929
_diffrn_measurement_device_type  'SuperNova, Dual, Cu at zero, Atlas'
_diffrn_measurement_method       '\w scans'
_diffrn_radiation_monochromator  mirror
_diffrn_radiation_source         'SuperNova (Cu) X-ray Source'
_diffrn_radiation_type           CuK\a
_diffrn_radiation_wavelength     1.54184
_diffrn_reflns_av_R_equivalents  0.0355
_diffrn_reflns_av_unetI/netI     0.0452
_diffrn_reflns_limit_h_max       5
_diffrn_reflns_limit_h_min       -7
_diffrn_reflns_limit_k_max       9
_diffrn_reflns_limit_k_min       -9
_diffrn_reflns_limit_l_max       14
_diffrn_reflns_limit_l_min       -12
_diffrn_reflns_number            4021
_diffrn_reflns_theta_full        72.00
_diffrn_reflns_theta_max         73.18
_diffrn_reflns_theta_min         3.77
_diffrn_standards_decay_%        0
_diffrn_standards_interval_count 0
_diffrn_standards_interval_time  0
_diffrn_standards_number         0
_exptl_absorpt_coefficient_mu    0.837
_exptl_absorpt_correction_T_max  1.000
_exptl_absorpt_correction_T_min  0.900
_exptl_absorpt_correction_type   multi-scan
_exptl_absorpt_process_details
; 
CrysAlisPro, Agilent Technologies,
Version 1.171.36.24 (release 03-12-2012 CrysAlis171 .NET)
Empirical absorption correction using spherical harmonics,
 implemented in SCALE3 ABSPACK scaling algorithm.
;
_exptl_crystal_colour            yellow
_exptl_crystal_density_diffrn    1.467
_exptl_crystal_density_method    'not measured'
_exptl_crystal_description       'rectangular prism'
_exptl_crystal_F_000             268
_exptl_crystal_size_max          0.25
_exptl_crystal_size_mid          0.20
_exptl_crystal_size_min          0.10
_refine_diff_density_max         0.278
_refine_diff_density_min         -0.289
_refine_diff_density_rms         0.060
_refine_ls_extinction_method     none
_refine_ls_goodness_of_fit_ref   1.037
_refine_ls_hydrogen_treatment    refxyz
_refine_ls_matrix_type           full
_refine_ls_number_parameters     208
_refine_ls_number_reflns         2144
_refine_ls_number_restraints     0
_refine_ls_restrained_S_all      1.037
_refine_ls_R_factor_all          0.0575
_refine_ls_R_factor_gt           0.0512
_refine_ls_shift/su_max          0.000
_refine_ls_shift/su_mean         0.000
_refine_ls_structure_factor_coef Fsqd
_refine_ls_weighting_details
'calc w=1/[\s^2^(Fo^2^)+(0.0880P)^2^+0.1352P] where P=(Fo^2^+2Fc^2^)/3'
_refine_ls_weighting_scheme      calc
_refine_ls_wR_factor_gt          0.1359
_refine_ls_wR_factor_ref         0.1416
_reflns_number_gt                1858
_reflns_number_total             2144
_reflns_threshold_expression     >2sigma(I)
_cod_data_source_file            ja9b08862_si_003.cif
_cod_data_source_block           icb-161L
_cod_depositor_comments
'Adding full bibliography for 4129157--4129168.cif.'
_cod_database_code               4129167
_olex2_refinement_description
;
1. Fixed Uiso
 At 1.2 times of:
  All C(H) groups, All N(H) groups
 At 1.5 times of:
  All C(H,H,H) groups
;
_shelx_res_file
;
TITL icb-161-l_a.res in P-1
CELL 1.54184 6.3701 8.0327 12.0083 77.757 88.305 75.102
ZERR 2 0.0004 0.0006 0.0011 0.007 0.006 0.006
LATT 1
 
SFAC C H N O
UNIT 24 24 12 2
EQIV $1 -X,1-Y,1-Z
 
L.S. 8
PLAN  20
TEMP -100
HTAB N5 O7_$1
REM Old TITL icb-161-L in P-1
REM SHELXT solution in P-1
REM R1 0.137, Rweak 0.006, Alpha 0.065, Orientation as input
REM Formula found by SHELXT: C14 N4 O
REM icb-161-l_a.res in P-1
REM 174 parameters refined using 0 restraints
REM Highest difference peak 0.275, deepest hole -0.284, 1-sigma level 0.061
REM 208 parameters refined using 0 restraints
REM Highest difference peak 0.287, deepest hole -0.292, 1-sigma level 0.060
GRID
BOND $H
fmap 2
acta
MERG 2
REM <HKL>C:/Users/chmmah/Desktop/icb-161-L/icb-161l.hkl</HKL>
 
WGHT    0.088000    0.135200
FVAR      13.75438
C1    1    0.487716    0.389727    0.754384    11.00000    0.02038    0.02836 =
         0.02033   -0.00826   -0.00479   -0.00485
H1    2    0.549361    0.390636    0.820098    11.00000   -1.20000
C2    1    0.602702    0.302424    0.673458    11.00000    0.01895    0.02183 =
         0.02295   -0.00571   -0.00269   -0.00498
N3    3    0.525969    0.297067    0.573551    11.00000    0.01864    0.02644 =
         0.02151   -0.00917   -0.00311   -0.00440
C4    1    0.314262    0.382206    0.546460    11.00000    0.02004    0.02366 =
         0.02193   -0.00621   -0.00193   -0.00584
N5    3    0.190328    0.470799    0.623613    11.00000    0.01710    0.02661 =
         0.02074   -0.00818   -0.00370   -0.00371
H5    2    0.056973    0.519305    0.603527    11.00000   -1.20000
C6    1    0.275212    0.476613    0.724625    11.00000    0.02054    0.02287 =
         0.02105   -0.00637   -0.00312   -0.00687
O7    4    0.228116    0.382991    0.454983    11.00000    0.02119    0.03457 =
         0.02144   -0.01169   -0.00475   -0.00395
N8    3    0.819597    0.207143    0.697661    11.00000    0.01805    0.02810 =
         0.02102   -0.00873   -0.00439   -0.00376
N9    3    0.914603    0.189830    0.801503    11.00000    0.02215    0.03025 =
         0.02270   -0.00931   -0.00626   -0.00140
C10   1    1.111592    0.088660    0.794318    11.00000    0.02056    0.02896 =
         0.02573   -0.00956   -0.00471   -0.00175
H10   2    1.216416    0.059344    0.861308    11.00000   -1.20000
C11   1    1.150444    0.039443    0.687427    11.00000    0.02135    0.02385 =
         0.02705   -0.00776   -0.00299   -0.00450
C12   1    0.958527    0.118660    0.628251    11.00000    0.02185    0.02850 =
         0.02394   -0.01051   -0.00149   -0.00496
H12   2    0.911152    0.121167    0.553424    11.00000   -1.20000
C13   1    1.353719   -0.072045    0.648365    11.00000    0.02078    0.03249 =
         0.03177   -0.01358   -0.00160   -0.00232
H13A  2    1.346407   -0.068111    0.567983    11.00000   -1.50000
H13B  2    1.387288   -0.191693    0.687665    11.00000   -1.50000
H13C  2    1.491115   -0.034534    0.661632    11.00000   -1.50000
N14   3    0.140550    0.571923    0.795981    11.00000    0.02255    0.02557 =
         0.01771   -0.00828   -0.00517   -0.00559
N15   3    0.239980    0.595392    0.890009    11.00000    0.02256    0.03480 =
         0.02280   -0.01287   -0.00522   -0.00526
C16   1    0.077443    0.685032    0.941265    11.00000    0.02533    0.03144 =
         0.02286   -0.01029   -0.00314   -0.00480
H16   2    0.112005    0.719868    1.016278    11.00000   -1.20000
C17   1   -0.125895    0.720578    0.883377    11.00000    0.02337    0.02824 =
         0.02254   -0.00775   -0.00182   -0.00534
C18   1   -0.077740    0.646382    0.790754    11.00000    0.02033    0.02946 =
         0.02433   -0.00917   -0.00385   -0.00452
H18   2   -0.159702    0.642761    0.730565    11.00000   -1.20000
C19   1   -0.340583    0.817422    0.919940    11.00000    0.02447    0.03915 =
         0.02977   -0.01421   -0.00237   -0.00238
H19A  2   -0.458219    0.781339    0.888438    11.00000   -1.50000
H19B  2   -0.363319    0.942376    0.896555    11.00000   -1.50000
H19C  2   -0.354399    0.789227    1.003741    11.00000   -1.50000
HKLF 4
 
REM  icb-161-l_a.res in P-1
REM R1 =  0.0512 for   1858 Fo > 4sig(Fo)  and  0.0575 for all   2144 data
REM    208 parameters refined using      0 restraints
 
END  
     
WGHT      0.0880      0.1352 
REM Highest difference peak  0.278,  deepest hole -0.289,  1-sigma level  0.060
Q1    1   0.5318  0.3409  0.7185  11.00000  0.05    0.28
Q2    1   0.1793  0.4841  0.8037  11.00000  0.05    0.27
Q3    1   0.1788  0.5191  0.7836  11.00000  0.05    0.26
Q4    1   1.2288 -0.0231  0.6793  11.00000  0.05    0.26
Q5    1   1.2200 -0.0626  0.6967  11.00000  0.05    0.25
Q6    1   1.1186  0.0426  0.7463  11.00000  0.05    0.25
Q7    1   0.8508  0.0833  0.7160  11.00000  0.05    0.25
Q8    1   0.2138  0.5805  0.7402  11.00000  0.05    0.25
Q9    1   0.5970  0.2496  0.5255  11.00000  0.05    0.25
Q10   1   1.0336  0.0184  0.6591  11.00000  0.05    0.25
Q11   1   0.5328  0.2472  0.7764  11.00000  0.05    0.23
Q12   1   0.2529  0.4084  0.6059  11.00000  0.05    0.23
Q13   1   0.8824  0.1602  0.6558  11.00000  0.05    0.23
Q14   1   0.2863  0.2477  0.4793  11.00000  0.05    0.23
Q15   1   0.1794  0.5032  0.4335  11.00000  0.05    0.22
Q16   1   0.8970  0.1943  0.6423  11.00000  0.05    0.22
Q17   1   0.1422  0.5633  0.9667  11.00000  0.05    0.22
Q18   1   0.8078  0.2120  0.8534  11.00000  0.05    0.22
Q19   1   1.3097 -0.1532  0.6080  11.00000  0.05    0.21
Q20   1  -0.1797  0.8596  0.8473  11.00000  0.05    0.21

REM The information below was added by Olex2.
REM
REM R1 = 0.0512 for 1858 Fo > 4sig(Fo) and 0.0575 for all 4021 data
REM n/a parameters refined using n/a restraints
REM Highest difference peak 0.28, deepest hole -0.29
REM Mean Shift 0, Max Shift 0.

REM +++ Tabular Listing of Refinement Information +++
REM R1_all = 0.0575
REM R1_gt = 0.0512
REM wR_ref = 0.1416
REM GOOF = 1.037
REM Shift_max = 0
REM Shift_mean = 0
REM Reflections_all = 4021
REM Reflections_gt = 1858
REM Parameters = n/a
REM Hole = 0.28
REM Peak = -0.29
REM Flack = n/a

;
loop_
_space_group_symop_id
_space_group_symop_operation_xyz
1 'x, y, z'
2 '-x, -y, -z'
loop_
_atom_site_label
_atom_site_type_symbol
_atom_site_fract_x
_atom_site_fract_y
_atom_site_fract_z
_atom_site_U_iso_or_equiv
_atom_site_adp_type
_atom_site_occupancy
_atom_site_symmetry_multiplicity
_atom_site_calc_flag
C1 C 0.4877(3) 0.3897(2) 0.75438(14) 0.0227(4) Uani 1 1 d
H1 H 0.549(4) 0.391(3) 0.820(2) 0.027 Uiso 1 1 d
C2 C 0.6027(3) 0.3024(2) 0.67346(14) 0.0211(4) Uani 1 1 d
N3 N 0.5260(2) 0.29707(19) 0.57355(12) 0.0218(3) Uani 1 1 d
C4 C 0.3143(3) 0.3822(2) 0.54646(14) 0.0216(4) Uani 1 1 d
N5 N 0.1903(2) 0.47080(19) 0.62361(12) 0.0213(3) Uani 1 1 d
H5 H 0.057(5) 0.519(3) 0.604(2) 0.026 Uiso 1 1 d
C6 C 0.2752(3) 0.4766(2) 0.72462(14) 0.0209(4) Uani 1 1 d
O7 O 0.2281(2) 0.38299(17) 0.45498(10) 0.0253(3) Uani 1 1 d
N8 N 0.8196(2) 0.20714(19) 0.69766(12) 0.0222(3) Uani 1 1 d
N9 N 0.9146(3) 0.1898(2) 0.80150(13) 0.0253(4) Uani 1 1 d
C10 C 1.1116(3) 0.0887(2) 0.79432(15) 0.0253(4) Uani 1 1 d
H10 H 1.216(4) 0.059(3) 0.861(2) 0.030 Uiso 1 1 d
C11 C 1.1504(3) 0.0394(2) 0.68743(15) 0.0239(4) Uani 1 1 d
C12 C 0.9585(3) 0.1187(2) 0.62825(15) 0.0242(4) Uani 1 1 d
H12 H 0.911(4) 0.121(3) 0.553(2) 0.029 Uiso 1 1 d
C13 C 1.3537(3) -0.0720(3) 0.64836(17) 0.0281(4) Uani 1 1 d
H13A H 1.346(5) -0.068(4) 0.568(2) 0.042 Uiso 1 1 d
H13B H 1.387(5) -0.192(4) 0.688(2) 0.042 Uiso 1 1 d
H13C H 1.491(5) -0.035(4) 0.662(2) 0.042 Uiso 1 1 d
N14 N 0.1405(2) 0.57192(19) 0.79598(12) 0.0214(3) Uani 1 1 d
N15 N 0.2400(2) 0.5954(2) 0.89001(12) 0.0260(4) Uani 1 1 d
C16 C 0.0774(3) 0.6850(2) 0.94127(15) 0.0262(4) Uani 1 1 d
H16 H 0.112(4) 0.720(3) 1.016(2) 0.031 Uiso 1 1 d
C17 C -0.1259(3) 0.7206(2) 0.88338(14) 0.0245(4) Uani 1 1 d
C18 C -0.0777(3) 0.6464(2) 0.79075(15) 0.0244(4) Uani 1 1 d
H18 H -0.160(4) 0.643(3) 0.731(2) 0.029 Uiso 1 1 d
C19 C -0.3406(3) 0.8174(3) 0.91994(16) 0.0311(4) Uani 1 1 d
H19A H -0.458(5) 0.781(4) 0.888(2) 0.047 Uiso 1 1 d
H19B H -0.363(5) 0.942(4) 0.897(2) 0.047 Uiso 1 1 d
H19C H -0.354(5) 0.789(4) 1.004(3) 0.047 Uiso 1 1 d
loop_
_atom_site_aniso_label
_atom_site_aniso_U_11
_atom_site_aniso_U_22
_atom_site_aniso_U_33
_atom_site_aniso_U_23
_atom_site_aniso_U_13
_atom_site_aniso_U_12
C1 0.0204(9) 0.0284(9) 0.0203(8) -0.0083(6) -0.0048(6) -0.0048(6)
C2 0.0190(9) 0.0218(8) 0.0230(8) -0.0057(6) -0.0027(6) -0.0050(6)
N3 0.0186(8) 0.0264(7) 0.0215(7) -0.0092(6) -0.0031(5) -0.0044(5)
C4 0.0200(9) 0.0237(8) 0.0219(8) -0.0062(6) -0.0019(6) -0.0058(6)
N5 0.0171(8) 0.0266(7) 0.0207(7) -0.0082(6) -0.0037(6) -0.0037(6)
C6 0.0205(9) 0.0229(8) 0.0210(8) -0.0064(6) -0.0031(6) -0.0069(6)
O7 0.0212(7) 0.0346(7) 0.0214(6) -0.0117(5) -0.0048(5) -0.0040(5)
N8 0.0181(8) 0.0281(7) 0.0210(7) -0.0087(6) -0.0044(5) -0.0038(5)
N9 0.0222(8) 0.0303(8) 0.0227(7) -0.0093(6) -0.0063(6) -0.0014(6)
C10 0.0206(9) 0.0290(9) 0.0257(9) -0.0096(7) -0.0047(6) -0.0017(6)
C11 0.0213(9) 0.0239(8) 0.0271(8) -0.0078(7) -0.0030(6) -0.0045(6)
C12 0.0218(9) 0.0285(9) 0.0239(9) -0.0105(7) -0.0015(6) -0.0050(6)
C13 0.0208(10) 0.0325(10) 0.0318(10) -0.0136(8) -0.0016(7) -0.0023(7)
N14 0.0226(8) 0.0256(7) 0.0177(7) -0.0083(5) -0.0052(5) -0.0056(5)
N15 0.0226(8) 0.0348(8) 0.0228(7) -0.0129(6) -0.0052(6) -0.0053(6)
C16 0.0253(10) 0.0314(9) 0.0229(8) -0.0103(7) -0.0031(7) -0.0048(7)
C17 0.0234(10) 0.0282(9) 0.0225(8) -0.0077(7) -0.0018(6) -0.0053(7)
C18 0.0203(9) 0.0295(9) 0.0243(8) -0.0092(7) -0.0038(6) -0.0045(7)
C19 0.0245(10) 0.0392(11) 0.0298(10) -0.0142(8) -0.0024(7) -0.0024(8)
loop_
_atom_type_symbol
_atom_type_description
_atom_type_scat_dispersion_real
_atom_type_scat_dispersion_imag
_atom_type_scat_source
C C 0.0181 0.0091 'International Tables Vol C Tables 4.2.6.8 and 6.1.1.4'
H H 0.0000 0.0000 'International Tables Vol C Tables 4.2.6.8 and 6.1.1.4'
N N 0.0311 0.0180 'International Tables Vol C Tables 4.2.6.8 and 6.1.1.4'
O O 0.0492 0.0322 'International Tables Vol C Tables 4.2.6.8 and 6.1.1.4'
loop_
_geom_angle_atom_site_label_1
_geom_angle_atom_site_label_2
_geom_angle_atom_site_label_3
_geom_angle
C2 C1 H1 122.2(15)
C6 C1 H1 122.5(15)
C6 C1 C2 115.21(15)
C1 C2 N8 119.13(15)
N3 C2 C1 126.26(16)
N3 C2 N8 114.60(15)
C2 N3 C4 117.52(15)
N3 C4 N5 119.10(14)
O7 C4 N3 121.94(16)
O7 C4 N5 118.96(15)
C4 N5 H5 115.5(16)
C6 N5 C4 121.92(15)
C6 N5 H5 122.6(16)
C1 C6 N14 121.85(15)
N5 C6 C1 119.96(16)
N5 C6 N14 118.18(15)
N9 N8 C2 120.82(14)
C12 N8 C2 127.38(15)
C12 N8 N9 111.77(14)
C10 N9 N8 103.66(14)
N9 C10 H10 118.6(14)
N9 C10 C11 113.41(16)
C11 C10 H10 127.9(14)
C10 C11 C13 128.36(16)
C12 C11 C10 103.45(16)
C12 C11 C13 128.20(16)
N8 C12 H12 119.7(15)
C11 C12 N8 107.71(15)
C11 C12 H12 132.6(15)
C11 C13 H13A 111.6(17)
C11 C13 H13B 113.6(17)
C11 C13 H13C 113.9(15)
H13A C13 H13B 109(2)
H13A C13 H13C 106(2)
H13B C13 H13C 103(2)
N15 N14 C6 116.36(14)
C18 N14 C6 131.27(15)
C18 N14 N15 112.37(14)
C16 N15 N14 103.22(14)
N15 C16 H16 118.0(14)
N15 C16 C17 113.00(15)
C17 C16 H16 129.0(14)
C16 C17 C19 126.13(16)
C18 C17 C16 104.46(16)
C18 C17 C19 129.40(17)
N14 C18 H18 120.1(15)
C17 C18 N14 106.95(15)
C17 C18 H18 133.0(16)
C17 C19 H19A 110.0(16)
C17 C19 H19B 111.8(18)
C17 C19 H19C 111.9(17)
H19A C19 H19B 110(2)
H19A C19 H19C 106(2)
H19B C19 H19C 108(2)
loop_
_geom_bond_atom_site_label_1
_geom_bond_atom_site_label_2
_geom_bond_distance
C1 H1 0.89(3)
C1 C2 1.398(2)
C1 C6 1.373(2)
C2 N3 1.322(2)
C2 N8 1.402(2)
N3 C4 1.360(2)
C4 N5 1.391(2)
C4 O7 1.240(2)
N5 H5 0.86(3)
N5 C6 1.357(2)
C6 N14 1.398(2)
N8 N9 1.367(2)
N8 C12 1.366(2)
N9 C10 1.320(2)
C10 H10 1.01(3)
C10 C11 1.418(3)
C11 C12 1.365(3)
C11 C13 1.498(2)
C12 H12 0.95(2)
C13 H13A 0.96(3)
C13 H13B 0.95(3)
C13 H13C 1.02(3)
N14 N15 1.3804(19)
N14 C18 1.363(2)
N15 C16 1.318(2)
C16 H16 1.04(2)
C16 C17 1.422(3)
C17 C18 1.361(2)
C17 C19 1.493(3)
C18 H18 0.91(3)
C19 H19A 0.98(3)
C19 H19B 0.96(3)
C19 H19C 0.99(3)
loop_
_geom_hbond_atom_site_label_D
_geom_hbond_atom_site_label_H
_geom_hbond_atom_site_label_A
_geom_hbond_distance_DH
_geom_hbond_distance_HA
_geom_hbond_distance_DA
_geom_hbond_angle_DHA
_geom_hbond_site_symmetry_A
N5 H5 O7 0.86(3) 1.88(3) 2.728(2) 174(2) 2_566
loop_
_refln_index_h
_refln_index_k
_refln_index_l
_refln_F_squared_meas
_refln_F_squared_sigma
_refln_scale_group_code
0 0 1 102681 2494.03 2
0 0 1 108429 2553.7 3
0 0 2 279217 6272.69 3
0 0 2 269668 6102.01 2
0 0 3 238.347 231.736 3
0 0 -3 203.095 208.967 5
0 0 4 21149 1620.58 3
0 0 5 530.009 504.99 3
0 0 6 18820.8 1926.97 1
0 0 7 27331.4 2517.09 1
0 0 8 45379.4 3561.54 1
0 0 -9 52877.8 1805.36 19
0 0 9 59579.9 1886.55 7
0 0 9 57742.3 1826.2 8
0 0 9 57845.7 4329.6 1
0 0 10 7575.36 583.566 8
0 0 10 8678.24 668.232 7
0 0 10 8076.26 1680.99 1
0 0 11 10216.1 670.194 8
0 0 11 11312.1 755.031 7
0 0 12 43065.2 1497.56 8
0 0 13 183.943 133.29 10
0 0 14 53.4502 97.5653 10
0 -1 14 47.169 83.0514 10
0 -1 13 91.8816 114.338 8
0 -1 12 7149.54 522.322 8
0 -1 11 3182.39 391.687 8
0 -1 11 3436.55 436.046 7
0 -1 10 -50.1001 130.488 8
0 -1 10 224.619 176.186 7
0 -1 9 1218.88 604.924 1
0 -1 9 1036.41 268.904 7
0 -1 9 1062.5 257.429 8
0 -1 8 32105.6 2971.07 1
0 -1 8 36798.4 1363.93 7
0 -1 8 35556.8 1337.22 8
0 -1 7 36785.7 2918.32 1
0 1 -6 59033 2876.46 5
0 -1 6 55643.9 3341.36 1
0 1 -5 -17.8741 218.218 5
0 -1 5 -127.746 339.459 1
0 -1 4 864.207 399.182 1
0 1 -4 367.951 278.559 5
0 -1 3 472939 10966.4 1
0 1 -3 456496 10683.3 5
0 -1 2 343262 7749.85 1
0 1 -2 315171 7476.29 6
0 -1 1 31514.2 1299.72 1
0 -1 0 238231 5559.62 1
0 1 1 136721 3428.2 2
0 1 1 137718 3474.14 3
0 1 2 777983 16461.4 3
0 -1 -2 777241 16294.3 4
0 1 2 775885 16273.1 2
0 -1 -3 2683.63 421.492 4
0 1 3 2460.82 476.182 3
0 1 3 2487.31 392.245 2
0 1 4 142817 4278.63 2
0 1 4 139903 4717.42 3
0 -1 -4 141587 4313.54 4
0 1 5 20167.4 1624.97 3
0 -1 -5 18278.1 1386.3 4
0 1 5 21317.5 1510.17 2
0 1 6 108254 4105.66 2
0 -1 -6 101553 3963.42 4
0 1 6 98374 4429.41 3
0 1 7 4965.17 1077.5 3
0 -1 -7 4554.12 784.238 4
0 1 8 6690.89 1362.28 1
0 1 9 11340.7 672.218 8
0 1 9 12860.4 740.116 7
0 1 9 11873.1 1979.07 1
0 1 10 11926.3 776.514 7
0 1 10 10885.6 693.572 8
0 1 10 10733.2 1950.16 1
0 1 10 12345.2 705.649 9
0 1 11 8593.34 613.375 8
0 1 11 9507.71 613.231 9
0 1 12 5661.18 528.57 10
0 1 13 2113.13 310.147 10
0 1 14 11027.3 582.656 10
0 -2 13 13629.2 586.77 8
0 -2 12 3205.6 332.35 8
0 -2 11 18314.3 972.484 7
0 -2 11 19005.4 942.432 8
0 -2 10 1802.21 325.454 7
0 -2 10 1980.04 343.375 8
0 -2 9 2835.33 385.52 8
0 -2 9 1858.64 846.617 1
0 -2 9 3247.37 424.243 7
0 -2 8 71579.4 2218.02 8
0 -2 8 64193 4607.99 1
0 -2 8 70071.9 2186.7 7
0 -2 7 26796.8 1109.96 7
0 -2 7 29246.2 1482.35 16
0 -2 7 26559 1125.46 8
0 -2 6 3334.38 902.697 1
0 2 -5 10762.8 1209.87 5
0 -2 5 9505.33 1304.34 1
0 -2 4 34764.7 2275.58 1
0 2 -4 33865.4 2181.62 5
0 -2 3 15556.7 1383.33 1
0 2 -3 14224.2 1214.02 6
0 2 -2 316564 8150.77 6
0 -2 2 325518 8373.6 1
0 -2 1 359087 8953.5 1
0 -2 0 2722.1 589.973 1
0 2 1 7783.49 766.863 3
0 2 2 25744.2 1484.14 2
0 2 2 25444 1430.24 3
0 2 3 -46.2224 206.42 3
0 2 3 4.74309 226.947 2
0 2 4 76506.7 3026.71 2
0 2 4 81261.3 3270.16 3
0 2 5 15122.2 1282.29 2
0 2 5 15781.5 1475.7 3
0 2 6 33903.8 2161.27 2
0 2 6 29354.4 2255.8 3
0 2 7 2594.23 633.173 2
0 2 7 2663.51 755.532 3
0 2 8 2162.57 826.495 3
0 2 9 40772.7 1440.54 8
0 2 9 47490.9 1546.82 9
0 2 10 274.247 161.477 10
0 2 10 493.667 162.061 9
0 2 10 686.709 716.458 1
0 2 11 151631 3824.47 9
0 2 11 149475 3937.31 10
0 2 12 3625.77 380.988 9
0 2 12 3582.48 425.137 10
0 2 13 17407.4 869.247 10
0 2 14 4589.42 361.586 10
0 -3 12 5792.18 399.149 8
0 -3 11 6113.69 496.972 8
0 -3 11 6375.78 508.13 7
0 -3 10 658.667 226.87 8
0 -3 10 645.123 229.832 7
0 -3 9 5122.39 510.159 7
0 -3 9 4849.33 495.353 8
0 -3 8 23262.3 1126.37 7
0 -3 8 25039.4 1189.47 8
0 -3 8 23839.2 1447.47 16
0 -3 7 35063.9 1384.42 7
0 -3 7 32442.1 3182.67 1
0 -3 7 37414.4 1463.6 8
0 -3 7 34038.2 1749.61 16
0 -3 6 4366.76 427.342 8
0 -3 6 2942.84 960.66 1
0 -3 6 4006.52 544.486 16
0 -3 5 7644.54 1298.22 1
0 -3 4 885.206 448.266 1
0 -3 3 4969.86 951.191 1
0 3 -3 2989.4 708.437 6
0 -3 2 23388.5 1963.71 1
0 3 -2 20333.1 1768.73 6
0 -3 1 1061.77 533.506 1
0 -3 0 18151.6 1525.39 1
0 3 1 16583.9 1385.17 3
0 3 2 60553 2768.47 3
0 3 2 63726.8 2925.4 2
0 3 3 29826.5 1914.8 3
0 3 3 32461 2066.17 2
0 3 4 39135.3 2319.63 2
0 3 4 36649 2296.81 3
0 3 5 5925.2 924.231 2
0 3 5 5479.58 961.082 3
0 3 6 2393.93 717.286 3
0 3 6 2230.87 620.816 2
0 3 7 6338.07 1188.53 3
0 3 7 6741.29 1039.66 2
0 3 8 980.416 225.268 9
0 3 8 1020.84 213.132 10
0 3 8 1498.1 651.485 3
0 3 9 136734 3583.04 10
0 3 9 129063 6740.76 3
0 3 9 140113 3572.58 9
0 3 10 78149.6 2369.49 10
0 3 10 76187 2337.13 9
0 3 11 25223.1 1158.81 10
0 3 11 24044.2 1138.23 9
0 3 12 459.934 223.497 10
0 3 12 394.628 199.218 9
0 3 13 278.954 154.753 9
0 3 13 355.901 185.466 10
0 3 14 209.398 118.928 10
0 -4 11 936.12 189.255 8
0 -4 11 1131.62 185.838 7
0 -4 10 530.601 211.961 8
0 -4 10 500.659 180.742 7
0 -4 9 52.5958 133.048 7
0 -4 9 -162.847 155.803 8
0 -4 8 3957.69 466.361 8
0 -4 8 4184.11 455.245 7
0 -4 7 3911.85 621.581 16
0 -4 7 4411.85 487.546 8
0 -4 7 4821.99 476.031 7
0 -4 6 9502.56 697.939 8
0 4 -6 10457.9 741.936 10
0 -4 6 9387.92 871.969 16
0 -4 5 13803.1 812.693 8
0 4 -5 14485.6 858.79 10
0 -4 5 14140.6 972.363 16
0 -4 4 833.954 638.581 1
0 -4 3 26033 2488.23 1
0 4 -3 24114 2200.43 6
0 4 -2 6499.26 1172.71 6
0 -4 2 6651.18 1242.87 1
0 -4 1 6429.09 1111.96 1
0 -4 0 34933.1 2489.3 1
0 4 1 965.603 437.613 3
0 4 2 1877.03 713.324 2
0 4 2 1449.54 520.707 3
0 4 3 156934 5727.93 3
0 4 3 156122 5928.99 2
0 4 4 51610 3121.7 2
0 4 4 50026.5 2966.01 3
0 4 5 15990.9 1671.14 2
0 4 5 13589.2 1564.38 3
0 4 6 268.736 384.34 2
0 4 6 767.107 485.774 3
0 4 7 34238.8 1293.02 10
0 4 7 33866.7 1307.99 9
0 4 8 3887.87 420.143 10
0 4 8 4014.99 428.012 9
0 4 8 3507.48 989.384 3
0 4 9 87080.2 2558.29 10
0 4 9 84732 2549.66 9
0 4 10 55788.7 1949.77 9
0 4 10 58884.1 1965.81 10
0 4 11 16795.7 914.569 10
0 4 11 16540.6 917.897 9
0 4 12 7106.38 556.607 10
0 4 12 6725.39 542.228 9
0 4 13 1439.38 250.628 9
0 4 13 1560.12 258.424 10
0 4 14 1780.79 215.152 10
0 -5 10 3236.32 260.977 7
0 -5 10 3348.87 304.6 8
0 -5 9 14000.1 749.314 8
0 -5 9 13559.5 661.669 7
0 -5 8 11137.4 736.16 8
0 -5 8 10693.4 651.66 7
0 -5 7 32.2693 272.266 16
0 -5 7 -95.6095 192.432 8
0 -5 7 133.847 145.988 7
0 -5 6 -68.4764 175.193 8
0 -5 6 518.857 342.617 16
0 -5 5 16251.4 948.612 8
0 5 -5 15381.7 956.343 10
0 -5 5 14255.4 1060.5 16
0 -5 4 7112.5 713.855 16
0 -5 4 7273.02 604.909 8
0 5 -4 5954.3 586.443 10
0 -5 3 21925 1121.75 16
0 5 -3 20724.6 1057.35 10
0 5 -2 -239.981 385.326 6
0 5 -2 454.96 199.079 10
0 5 -1 1046.63 735.217 6
0 5 0 2259.84 676.729 3
0 5 1 15512.6 1921.65 2
0 5 1 14183.5 1635.15 3
0 5 2 11733.5 1460.42 3
0 5 2 12458.3 1683.58 2
0 5 3 76454.5 4385.48 2
0 5 3 82519.2 4068.33 3
0 5 4 99404.2 4644.78 3
0 5 4 84959.3 4713.8 2
0 5 5 254.533 351 2
0 5 5 191.34 305.521 3
0 5 5 326.756 171.986 9
0 5 5 565.301 196.835 10
0 5 6 2486.14 806.203 3
0 5 6 3229.27 379.998 9
0 5 6 2673.29 360.339 10
0 5 7 4493.6 467.776 10
0 5 7 4591.51 476.089 9
0 5 7 6023.66 1275.25 3
0 5 8 820.009 232.466 9
0 5 8 1468.36 545.926 3
0 5 8 1089.71 279.56 10
0 5 9 2288.27 369.545 10
0 5 9 2090.89 365.517 9
0 5 10 381.988 194.474 9
0 5 10 367.299 189.594 10
0 5 11 4885.88 466.755 10
0 5 11 5101.14 522.284 9
0 5 12 14127.7 777.597 9
0 5 12 14893 775.895 10
0 5 13 6377.18 432.239 10
0 5 13 5632.46 422.894 9
0 -6 9 1926.86 219.62 8
0 -6 8 3202.82 321.7 8
0 -6 7 1936.56 299.298 8
0 -6 6 971.437 238.449 8
0 -6 6 1020.39 379.206 16
0 6 -5 3012.77 420.229 10
0 -6 5 2679 529.299 16
0 -6 5 2618.73 394.864 8
0 6 -4 213.676 179.867 10
0 -6 4 -76.3464 214.808 16
0 -6 4 170.846 145.654 8
0 6 -3 43129.8 1736.47 10
0 -6 3 40898.8 1774.35 16
0 -6 3 47060.6 1704.02 8
0 6 -2 15458.7 954.035 10
0 -6 2 15540.1 958.586 16
0 6 -1 422.383 199.742 10
0 -6 1 725.246 255.329 16
0 6 0 1623.49 789.027 2
0 -6 0 1777.71 305.878 16
0 6 0 1720.82 316.463 10
0 6 0 2322.15 918.64 6
0 6 1 585.369 262.551 10
0 6 1 901.688 600.444 2
0 6 2 36434.1 1479.13 10
0 6 2 38228.9 3408.87 2
0 6 3 4162.67 462.48 10
0 6 3 3612.63 1043.86 2
0 6 4 7446.32 1427.17 2
0 6 4 6667.65 576.12 10
0 6 5 5.96179 149.354 10
0 6 6 8058.46 648.922 9
0 6 6 7336.26 630.844 10
0 6 7 7211.02 628.068 9
0 6 7 6821.51 607.29 10
0 6 8 2490.28 379.961 10
0 6 8 2639.61 414.917 9
0 6 9 39335.8 1547.01 10
0 6 9 40410.1 1606.19 9
0 6 10 3957.94 452.526 9
0 6 10 3815.55 407.523 10
0 6 11 143.758 142.762 10
0 6 11 630.135 230.713 9
0 6 12 1449.65 209.571 10
0 6 13 7593.75 393.267 10
0 -7 7 410.966 120.478 8
0 -7 6 3422.59 324.111 8
0 -7 5 3904.99 396.169 8
0 -7 5 2751.91 445.315 16
0 -7 4 7612.13 731.302 16
0 -7 4 9628.35 635.66 8
0 7 -4 8764.58 670.991 10
0 -7 3 393.667 173.92 8
0 -7 3 322.472 274.578 16
0 7 -3 -51.6815 193.526 10
0 -7 2 21684.9 1039.88 8
0 7 -2 20239 1116.18 10
0 -7 2 18886.6 1112.46 16
0 7 -1 1160.15 285.261 10
0 7 0 1783.23 319.245 10
0 7 1 15938.3 979.135 10
0 7 2 168.537 223.79 10
0 7 3 1720.48 350.303 10
0 7 4 6704.87 613.542 10
0 7 5 7115.76 640.801 10
0 7 6 28503.1 1304 10
0 7 7 4294.17 476.38 10
0 7 8 4375.66 463.405 10
0 7 9 374.378 164.502 10
0 7 10 5121.81 425.323 10
0 7 11 1879.09 236.892 10
0 7 12 16382.7 606.575 10
0 -8 4 1474.02 193.226 8
0 8 -3 133.371 130.482 10
0 -8 3 377.83 135.441 8
0 -8 2 10390.7 582.931 8
0 8 -2 10669 684.529 10
0 -8 1 215.513 128.435 8
0 8 -1 89.2209 153.484 10
0 -8 0 5282.95 429.154 8
0 8 0 5015.61 508.298 10
0 8 1 17417.4 950.47 10
0 8 2 -55.6121 210.84 10
0 8 3 7135.08 590.644 10
0 8 4 943.607 235.221 10
0 8 5 1638.17 302.41 10
0 8 6 908.56 247.679 10
0 8 7 24290.1 1057.12 10
0 8 8 20923.2 907.821 10
0 8 9 160.313 122.69 10
0 8 10 314.675 113.453 10
0 9 -1 322.521 120.858 10
0 9 0 7155.51 452.021 10
0 9 1 1671.05 246.369 10
0 9 2 1728.56 252.94 10
0 9 3 11303.6 617.84 10
0 9 4 10520 586.499 10
0 9 5 3002.94 298.852 10
0 9 6 2212.18 245.42 10
0 9 7 16474.8 656.152 10
-1 9 6 3262.48 249.728 10
-1 9 5 176.135 91.3185 10
-1 9 4 6785.15 411.358 10
-1 9 3 9452.09 498.774 10
-1 9 2 29470.9 989.139 10
-1 9 1 3040.42 267.043 10
-1 9 0 43023.7 1218.07 10
-1 8 9 4693.71 341.132 10
-1 8 8 686.546 162.168 10
-1 8 7 10038.4 609.554 10
-1 8 6 8722.01 590.303 10
-1 8 5 7813.83 571.187 10
-1 8 4 8188.65 602.976 10
-1 8 3 3004.79 361.779 10
-1 8 2 10047.4 667.223 10
-1 8 1 23800.1 1079.9 10
-1 8 0 1045.26 248.324 10
1 -8 1 308.638 153.211 8
-1 8 -1 219.259 160.901 10
1 -8 2 2012.98 242.078 8
-1 8 -2 2276.5 293.076 10
1 -8 3 7654.1 438.426 8
1 -8 4 4068.61 278.052 8
-1 7 11 575.148 130.569 10
-1 7 10 409.386 154.888 10
-1 7 9 229.49 165.788 10
-1 7 8 28858.5 1196.41 10
-1 7 7 7134.1 588.026 10
-1 7 6 7285.95 621.163 10
-1 7 5 15263.6 928.253 10
-1 7 4 13223 879.953 10
-1 7 3 7585.59 669.536 10
-1 7 2 2061.08 354.204 10
-1 7 1 12612.3 856.629 10
-1 7 0 255.147 176.782 10
-1 7 -1 2682.7 415.505 10
-1 7 -2 189.431 240.6 10
1 -7 3 9217.64 651.123 8
-1 7 -3 8926.4 670.646 10
1 -7 4 11452.9 693.388 8
-1 7 -4 10997.1 703.516 10
1 -7 5 2495.17 290.034 8
1 -7 6 193.108 115.945 8
-1 6 12 6476.36 417.091 10
-1 6 11 69.5675 128.369 10
-1 6 10 183.233 143.884 10
-1 6 9 24523.4 1148.17 10
-1 6 8 46093.1 1730.52 10
-1 6 7 3603.56 457.223 10
-1 6 6 197.943 223.59 10
-1 6 5 774.777 270.514 10
-1 6 4 17145.7 979.949 10
-1 6 4 18064.5 2446.42 2
-1 6 3 119.737 161.719 10
-1 6 3 -243.175 387.954 2
-1 6 2 42707.8 1676.42 10
-1 6 2 46976.7 4040.08 2
-1 6 1 9820.17 1898.12 6
-1 6 1 7679.9 1640.46 2
-1 6 1 8531.11 694.25 10
-1 6 0 1367.96 318.172 10
-1 6 0 2051.16 982.144 6
-1 6 0 1873.71 761.263 2
-1 6 -1 42069.3 1674.05 10
-1 6 -2 405.029 255.841 10
-1 6 -3 2551.91 411.305 10
-1 6 -4 3315.03 442.921 10
1 -6 4 3578.6 450.815 8
1 -6 5 4438.55 483.14 8
-1 6 -5 3858.75 463.424 10
1 -6 6 117.505 167.194 8
1 -6 7 14099.1 671.475 7
1 -6 7 15791.1 782.779 8
1 -6 8 513.932 116.897 7
1 -6 8 312.266 117.495 8
-1 5 13 30561.4 1032.51 10
-1 5 12 771.465 189.333 10
-1 5 11 10092.4 669.169 10
-1 5 10 -198.465 190.582 10
-1 5 10 152.482 221.559 9
-1 5 9 1305.13 262.696 10
-1 5 9 1501.27 354.5 9
-1 5 8 3762.98 483.19 9
-1 5 8 3352.17 425.926 10
-1 5 7 55663.4 1958.48 10
-1 5 7 54113.3 4037.74 2
-1 5 7 57827 1989.2 9
-1 5 6 29372.3 1295.32 9
-1 5 6 27056.7 2812.88 2
-1 5 6 27816.8 1251.71 10
-1 5 5 6054.72 1341.71 2
-1 5 5 5697.37 539.957 10
-1 5 5 6371.37 474.955 17
-1 5 4 314.788 140.892 17
-1 5 4 -44.1788 126.33 10
-1 5 4 532.777 518.155 2
-1 5 3 23.9281 343.515 2
-1 5 3 166.876 149.852 10
-1 5 2 69906.7 4558.57 2
-1 5 2 61730.9 1981.72 10
-1 5 1 2523.28 875.1 2
-1 5 1 2347.82 328.871 10
-1 5 0 526.269 210.797 10
-1 5 0 347.015 612.575 2
-1 5 0 77.7747 459.291 6
-1 5 -1 43799.2 3659.61 6
-1 5 -1 40090.3 1534.94 10
-1 5 -1 42765.4 3538.88 2
-1 5 -2 -108.775 341.096 2
-1 5 -2 175.055 152.768 10
-1 5 -2 742.225 606.508 6
-1 5 -3 29252.4 1310.7 10
-1 5 -4 7092.64 647.843 10
-1 5 -5 9731.82 744.834 10
1 -5 5 9951.39 753.567 8
1 -5 6 180.089 169.722 8
1 -5 6 396.52 282.964 16
1 -5 7 281.799 181.434 8
1 -5 7 410.072 191.311 7
1 -5 8 5425.16 491.756 8
1 -5 8 5126.05 446.619 7
1 -5 9 -11.8648 102.51 7
1 -5 9 -190.655 132.207 8
1 -5 10 20307.2 729.669 8
1 -5 10 19926.2 685.13 7
-1 4 14 13494.5 579.726 10
-1 4 13 1538.35 247.578 10
-1 4 12 183.189 201.991 10
-1 4 12 336.078 153.598 9
-1 4 11 2315.89 356.848 10
-1 4 11 2279.8 344.436 9
-1 4 10 55584 1898.3 10
-1 4 10 50584.3 1848.71 9
-1 4 9 20575.6 1056.63 10
-1 4 9 19223.3 1025.05 9
-1 4 8 7643.56 1470.47 2
-1 4 8 6062.02 560.906 9
-1 4 8 7519.33 594.421 10
-1 4 7 2956.12 863.163 3
-1 4 7 4440.84 461.348 9
-1 4 7 5103.74 1140.99 2
-1 4 7 4587.47 466.537 10
-1 4 6 354.39 372.439 3
-1 4 6 589.873 213.661 10
-1 4 6 571.419 184.893 9
-1 4 6 355.585 563.615 2
-1 4 5 54715.9 3642.33 2
-1 4 5 46222.8 2845.58 3
-1 4 4 4740.66 1057.91 2
-1 4 3 84850.8 4632.04 2
-1 4 2 4649.96 1032.59 2
-1 4 1 6462.19 1233.68 2
-1 4 0 947.236 600.448 2
-1 4 -1 60534.9 3864.05 6
-1 4 -2 104240 5277.16 6
-1 4 -3 55.0593 419.479 6
-1 4 -4 5588.42 1329.26 5
-1 4 -4 6450.67 550.04 10
1 -4 5 -192.662 224.506 16
-1 4 -5 48.697 138.966 10
-1 4 -5 232.586 447.474 5
1 -4 5 -39.3399 143.76 8
1 -4 6 778.852 267.402 16
-1 4 -6 1583.57 313.474 10
1 -4 6 1885.21 337.72 8
1 -4 7 10247.3 751.257 8
1 -4 8 2872.83 383.595 7
1 -4 8 2110.36 351.062 8
1 -4 9 1313.76 285.433 8
1 -4 9 1177.58 258.676 7
1 -4 10 1555.46 245.002 8
1 -4 10 1870.56 254.697 7
1 -4 11 8231.52 438.492 8
1 -4 11 8249.43 450.681 7
-1 3 14 1898.53 231.533 10
-1 3 13 11640 668.706 10
-1 3 12 287 215.416 10
-1 3 12 287.949 148.433 9
-1 3 11 125.09 180.973 10
-1 3 11 -42.8839 143.809 9
-1 3 10 1739.62 331.797 10
-1 3 10 1420.3 298.003 9
-1 3 9 2870.38 390.169 10
-1 3 9 2721.37 822.421 1
-1 3 9 2162.88 331.827 9
-1 3 8 20724.5 989.673 10
-1 3 8 19200 944.686 9
-1 3 7 -46.9162 282.438 3
-1 3 7 382.125 496.788 2
-1 3 6 1005.32 571.065 2
-1 3 6 800.044 355.39 3
-1 3 5 125345 4846.39 3
-1 3 5 134178 5547.59 2
-1 3 4 67377.5 3039.41 3
-1 3 4 70914.7 3732.83 2
-1 3 3 71338.4 2868.16 3
-1 3 3 73649 3739.36 2
-1 3 2 54393.7 2252.66 3
-1 3 2 60369 3278.32 2
-1 3 1 1763.94 350.485 3
-1 3 1 2449.62 678.628 2
-1 3 0 735.177 251.277 3
-1 3 -1 7361.19 1226.63 6
1 -3 1 4441.42 650.005 1
-1 3 -2 120072 5097.65 6
-1 3 -3 19480.4 1940.48 6
-1 3 -4 48589.7 3573.13 5
-1 3 -5 146.186 291.812 5
1 -3 6 487.067 190.961 8
1 -3 6 836.806 307.789 16
-1 3 -6 450.794 231.381 10
1 -3 7 14542.2 879.251 8
1 -3 8 21489.4 1091.21 7
1 -3 8 21859.3 1121.83 8
1 -3 9 15711.8 898.65 8
1 -3 9 15973.2 917.92 7
1 -3 10 1994.54 291.518 8
1 -3 10 1830.97 302.946 7
1 -3 11 332.01 132.599 8
1 -3 11 486.696 173.099 7
1 -3 12 9035.1 447.475 8
1 -3 12 10115.8 513.96 7
-1 2 14 196.431 129.582 10
-1 2 13 5786.79 490.507 10
-1 2 12 19546.7 1012.34 10
-1 2 11 58478.8 1989.71 10
-1 2 10 36642.7 1402.67 9
-1 2 10 41002.8 1559.34 10
-1 2 9 3232.43 395.002 10
-1 2 9 2795.75 1009.32 1
-1 2 9 2084.96 299.258 9
-1 2 8 28460.6 2652.53 2
-1 2 8 28813.5 1185.73 10
-1 2 8 28716.5 2924.29 1
-1 2 7 -158.768 273.023 2
-1 2 7 715.258 554.978 3
-1 2 6 23204.7 2037.18 2
-1 2 6 21908.8 1995.78 3
-1 2 5 62051.1 3055.55 3
-1 2 5 68951.2 3457.15 2
-1 2 4 253215 7036.27 3
-1 2 4 254193 7636.55 2
-1 2 3 5919.59 887.117 2
-1 2 3 7313.63 764.122 3
-1 2 2 2413.95 355.399 3
-1 2 2 2797.35 602.755 2
-1 2 1 143294 3647.99 3
-1 2 1 147396 4845.31 2
-1 2 0 8010.54 555.02 3
-1 2 -1 39895 2305.75 6
1 -2 1 38605.6 1592.09 1
1 -2 2 18190.8 1218.47 1
-1 2 -2 16608.5 1547.84 6
1 -2 3 2132.32 529.732 1
1 -2 4 6602.75 917.718 1
-1 2 -4 7947.67 1234.9 5
1 -2 5 26734.5 2054.57 1
-1 2 -5 28854.4 2451.99 5
-1 2 -6 42211.2 3121.27 5
1 -2 7 13828.9 798.333 8
1 -2 8 2375.75 359.679 7
1 -2 8 2250.44 348.357 8
1 -2 9 526.864 238.929 7
1 -2 9 277.727 167.027 8
1 -2 10 9760.66 710.406 7
1 -2 10 9834.92 674.448 8
1 -2 11 904.275 212.301 8
1 -2 11 1001.3 265.04 7
1 -2 12 15952.9 712.051 8
1 -2 12 15894.1 799.771 7
1 -2 13 -110.787 91.1536 10
-1 1 14 57.9156 108.383 10
-1 1 13 399.433 155.7 10
-1 1 12 4455.89 451.527 10
-1 1 11 62746.6 2115.77 10
-1 1 10 103756 2885.57 8
-1 1 10 99499.2 6208.68 1
-1 1 9 1544.51 771.193 1
-1 1 9 1011.93 222.537 8
-1 1 8 6714.4 1386 1
-1 1 7 4926.81 1060.39 1
-1 1 7 4127.95 918.031 2
-1 1 6 52.1247 380.42 2
-1 1 5 43784.5 2563.8 2
-1 1 5 41720 2521.86 3
-1 1 4 112231 3975.54 3
-1 1 4 109387 4090.65 2
-1 1 3 80187.1 3167.65 2
-1 1 3 82723.7 2860.52 3
-1 1 2 65421.7 2124.24 3
-1 1 2 67318.7 2646.66 2
-1 1 1 9893.52 494.739 3
-1 1 1 10533.8 887.72 2
-1 1 0 7071.73 706.424 2
1 -1 1 77090 1960.02 1
1 -1 2 -55.9657 144.292 1
-1 1 -2 170.553 319.674 6
-1 1 -3 37321.2 2250.72 5
1 -1 3 33530 1631.3 1
1 -1 4 1145.1 390.599 1
-1 1 -4 1046.83 466.534 5
1 -1 5 20275.4 1677.87 1
-1 1 -5 19664 1815.41 5
1 -1 6 69718.2 3590.06 1
-1 1 -6 75482 3972.57 5
-1 1 -7 79044.7 4240.27 5
1 -1 7 63959.1 3779.25 1
1 -1 8 145.486 251.265 1
1 -1 8 31.021 117.84 8
-1 1 -8 61.6915 99.7939 19
1 -1 8 200.218 191.94 7
1 -1 9 4519.43 461.503 8
1 -1 9 4550.16 477.387 7
1 -1 10 15720.3 865.936 8
1 -1 10 16412.6 923.942 7
1 -1 11 7839.21 563.647 8
1 -1 11 8056.66 627.035 7
1 -1 12 3619.37 332.828 8
1 -1 12 3528.82 404.568 7
1 -1 13 9293.04 532.512 10
-1 0 14 5294.61 368.898 10
-1 0 13 1350.49 245.468 10
-1 0 12 87999.3 2505.37 8
-1 0 11 895.111 256.032 8
-1 0 10 52633.4 1817.11 8
-1 0 9 14349.5 876.239 11
-1 0 9 13067.4 767.164 8
-1 0 9 12778.5 785.2 7
-1 0 9 11130.8 1889.36 1
-1 0 8 4614.22 412.086 8
-1 0 8 5375.46 464.19 7
-1 0 8 4890.06 1252.21 1
-1 0 7 9163.61 1515.83 1
-1 0 6 2097.26 766.769 1
-1 0 5 120788 4740.72 2
-1 0 5 127791 5018.17 1
-1 0 4 1251.65 464.239 1
1 0 -4 1042.73 167.087 4
-1 0 3 20036.9 1382.62 2
-1 0 3 21629.6 1467.3 1
-1 0 2 37563.9 1656.15 1
-1 0 2 32352.3 1612.08 2
-1 0 1 3383.37 504.807 2
-1 0 1 4435 409.098 6
-1 0 1 3940.98 402.193 1
-1 0 0 161848 3982.35 2
-1 0 0 161411 3759.51 1
-1 0 0 166955 4014.69 6
1 0 1 378022 8066.07 3
-1 0 -1 382557 8095.26 2
1 0 2 163687 4177.23 3
-1 0 -3 69882.7 2864.34 5
1 0 3 63005.7 2500.78 3
1 0 4 370.503 191.855 3
-1 0 -4 401.562 255.682 5
1 0 5 13646.1 1355.15 3
-1 0 -5 14110.6 1470.55 5
-1 0 -6 112452 4842.05 5
1 0 6 108026 4684.79 1
1 0 6 98314.9 4514.33 3
1 0 7 148478 6182.5 1
1 0 8 1622.46 680.607 1
1 0 8 1499.37 245.109 7
-1 0 -9 998.068 213.182 19
1 0 9 138.085 478.684 1
1 0 9 900.243 217.621 8
1 0 9 736.052 263.527 7
1 0 10 21281.7 982.268 8
-1 0 -10 19236.6 1075.61 19
1 0 11 1893.72 288.838 8
1 0 11 1792.97 312.06 7
1 0 12 35291.7 1262.26 9
1 0 12 34857.1 1230.26 8
1 0 12 37687.5 1415.31 7
1 0 13 1421.41 220.97 10
1 0 14 -16.6423 76.7635 10
-1 -1 14 3695.74 278.363 10
-1 -1 13 1563.93 245.962 10
-1 -1 12 7560.04 567.498 8
-1 -1 11 9555.88 685.547 8
-1 -1 10 5458.38 514.329 8
-1 -1 10 5113.23 516.854 7
-1 -1 9 350.184 165.334 7
-1 -1 9 293.611 490.83 1
-1 -1 9 463.128 213.621 8
-1 -1 9 564.674 247.137 11
-1 -1 8 216.587 116.255 8
-1 -1 8 137.926 117.803 11
-1 -1 8 173.037 116.909 7
-1 -1 7 17059.7 2119.93 1
-1 -1 6 5060.9 1108.98 1
-1 -1 5 36896.4 2686.05 1
-1 -1 4 116.027 265.175 1
-1 -1 3 206848 6047.34 1
-1 -1 2 62710.2 2510.51 1
-1 -1 1 24421.2 1379.55 1
-1 -1 0 16267.1 897.783 4
-1 -1 0 14392.9 1017.37 1
-1 -1 -1 211378 5285.01 1
1 1 1 201163 5126.98 3
1 1 2 569442 12573.4 3
1 1 3 6971.81 755.105 3
1 1 4 9672.73 1019.71 3
1 1 5 102281 4101.62 3
1 1 6 34520.2 2435.47 3
1 1 7 102192 4917.06 3
-1 -1 -8 14450.4 1821.1 4
1 1 8 13920.8 1927.07 3
1 1 9 1394.27 676.17 1
-1 -1 -9 937.396 250.977 19
1 1 9 1302.5 242.542 7
1 1 10 2415.9 353.895 7
-1 -1 -10 2103.22 362.179 19
1 1 10 1464.1 748.692 1
1 1 11 7582.68 612.136 7
1 1 12 463.754 192.891 9
1 1 12 325.939 156.951 10
1 1 13 356.655 147.637 9
1 1 13 33.6557 152.005 10
1 1 14 661.949 145.516 10
-1 -2 13 21308.8 790.887 8
-1 -2 13 18428 781.363 10
-1 -2 12 5363.75 448.549 8
-1 -2 11 1904.49 325.555 8
-1 -2 10 17553 951.986 8
-1 -2 10 17184.7 943.974 7
-1 -2 9 31580.7 1331.77 8
-1 -2 9 30366.9 1296.05 7
-1 -2 8 13828.3 2233.36 1
-1 -2 8 16305.5 883.752 8
-1 -2 8 14570 1096.45 16
-1 -2 8 15965.6 853.724 7
-1 -2 7 3720.39 540.532 16
-1 -2 7 2896.9 1018.37 1
-1 -2 7 4333.03 412.948 8
-1 -2 6 6421.66 1293.2 1
-1 -2 5 10490.8 1505.31 1
-1 -2 4 1595.7 679.625 1
-1 -2 3 10743.4 1286.87 1
-1 -2 2 92280.9 3868.44 1
-1 -2 0 55302.5 2682.28 1
-1 -2 -1 622273 14394.6 1
1 2 2 52.7577 137.394 2
1 2 2 152.282 246.25 3
1 2 3 3439.13 652.272 3
1 2 3 3468.43 374.663 2
-1 -2 -3 3244.34 630.613 4
1 2 4 3956.33 403.898 2
-1 -2 -4 3729.23 715.521 4
1 2 4 4392.01 728.81 3
1 2 5 29802.5 1393.12 2
1 2 5 29521.6 2100.58 3
-1 -2 -5 27771.3 2087.4 4
-1 -2 -6 28050.3 2232.38 4
1 2 6 27570.9 2227.45 3
-1 -2 -7 57165.9 3397.91 4
1 2 7 49879.8 3334.53 3
-1 -2 -8 109936 5117.69 4
1 2 8 88386.8 4977.29 3
-1 -2 -9 16845.4 910.995 19
1 2 9 14416.2 2126.24 3
1 2 9 16698.7 832.263 7
1 2 10 8679.4 635.179 10
1 2 10 9516.66 1866.41 1
1 2 11 60233.6 2041 10
1 2 11 65333.6 2052.47 9
1 2 12 208.864 141.156 10
1 2 12 156.761 159.554 9
1 2 13 497.847 176.567 9
1 2 13 423.291 172.78 10
1 2 14 748.475 154.082 10
1 2 14 567.537 127.34 9
-1 -3 12 2348.86 273.222 8
-1 -3 11 -102.156 170.096 8
-1 -3 10 358.317 195.353 7
-1 -3 10 407.28 189.483 8
-1 -3 9 4019.65 459.798 8
-1 -3 9 3365.61 385 7
-1 -3 8 17754.4 924.934 7
-1 -3 8 19843.4 1023.24 8
-1 -3 8 19341.5 1301.89 16
-1 -3 8 16305.8 2563.27 1
-1 -3 7 27619.1 3143.22 1
-1 -3 7 29216.6 1233.61 8
-1 -3 7 27023.6 1508.62 16
-1 -3 7 26724.2 1130.18 7
-1 -3 6 3412.36 383.972 8
-1 -3 6 2315.55 402.292 16
-1 -3 6 2487.34 972.697 1
-1 -3 5 419.494 456.191 1
-1 -3 4 127885 5860.33 1
1 3 -3 104165 3617.22 6
-1 -3 3 127460 5382.86 1
-1 -3 2 32851.8 2537.21 1
-1 -3 1 397083 11221.7 1
-1 -3 0 157846 5792.25 1
-1 -3 -1 474896 12265.5 1
1 3 2 3884.1 766.74 3
1 3 3 58783 3095.68 3
1 3 3 61685.7 2494.03 2
1 3 4 11720.1 1380.88 3
1 3 4 10648.4 924.293 2
1 3 5 160416 5960.09 3
1 3 6 12748.1 1558.16 3
1 3 7 8677.15 1438.54 3
1 3 8 28208.6 1123.37 9
1 3 8 26349.1 1085.18 10
1 3 8 26497 2659.98 3
1 3 9 9079.47 1694.56 3
1 3 9 9787.02 650.614 9
1 3 9 9527.11 641.488 10
1 3 10 11897.7 747.565 10
1 3 10 12019.5 753.345 9
1 3 11 8819.25 638.273 10
1 3 11 9257.06 662.577 9
1 3 12 159.933 169.635 10
1 3 12 15.526 146.569 9
1 3 13 13588.2 709.174 10
1 3 13 12868.7 702.921 9
1 3 14 2955.97 277.904 9
1 3 14 2993.33 274.669 10
-1 -4 12 7761.05 389.024 8
-1 -4 11 840.739 181.506 8
-1 -4 10 4328.94 417.825 8
-1 -4 10 4461.59 389.667 7
-1 -4 9 26661 1199.72 8
-1 -4 9 26901.7 1113.5 7
-1 -4 8 3014.88 545.119 16
-1 -4 8 3192.02 416.462 8
-1 -4 8 3339.23 375.74 7
-1 -4 7 1733.68 321.881 8
-1 -4 7 1930.98 305.226 7
-1 -4 7 1412.36 841.859 1
-1 -4 7 1866.32 494.67 16
-1 -4 6 14167 2352.56 1
-1 -4 6 12316.8 783.567 8
-1 -4 6 12864.2 982.913 16
-1 -4 5 8912.51 628.843 8
-1 -4 5 8990.91 1787.51 1
-1 -4 5 8767.22 731.274 16
1 4 -5 9450.01 659.114 10
-1 -4 4 117.35 482.678 1
-1 -4 3 124021 6237.6 1
-1 -4 2 150818 6689.54 1
-1 -4 1 1106.6 667.086 1
-1 -4 0 10918.9 1541.47 1
-1 -4 -1 25679.6 2314.12 1
1 4 2 37.6608 318.248 3
1 4 3 771.572 346.75 2
1 4 3 1288.74 619.658 3
1 4 4 13816.3 1583.14 3
1 4 4 15066.7 1388.72 2
1 4 5 20537.6 2066.45 3
1 4 6 288.574 487.581 3
1 4 7 1529.22 269.049 9
1 4 7 2059.79 737.229 3
1 4 8 26156.6 1119.17 9
1 4 8 27216.5 2794.16 3
1 4 8 23524 1052.11 10
1 4 9 3480.43 381.13 10
1 4 9 3663.16 414.017 9
1 4 9 2801.5 916.161 3
1 4 10 154650 3997.25 10
1 4 10 163096 4098.08 9
1 4 11 5384 506.198 10
1 4 11 5206.33 516.925 9
1 4 12 25364.1 1073.79 10
1 4 12 25657 1130.09 9
1 4 13 4186.53 366.608 10
1 4 13 3812.57 383.973 9
1 4 14 280.631 126.395 9
1 4 14 353.922 107.137 10
-1 -5 11 167.881 90.1844 8
-1 -5 10 5409.95 399.345 8
-1 -5 9 8760.84 584.981 8
-1 -5 8 9329.59 900.691 16
-1 -5 8 10997.6 708.187 8
-1 -5 7 633.583 351.113 16
-1 -5 7 1131.51 275.166 8
-1 -5 6 12636.1 824.051 8
-1 -5 6 11568.6 1002.68 16
-1 -5 5 7153.28 1798.18 1
-1 -5 5 8005.03 781.754 16
-1 -5 5 7115.65 576.532 8
1 5 -5 6931.2 620.824 10
-1 -5 4 2063.4 388.04 16
1 5 -4 2030.74 345.4 10
-1 -5 4 2682.77 1046.36 1
-1 -5 4 1994.75 315.121 8
1 5 -3 11042.1 730.442 10
-1 -5 3 12944 823.444 16
-1 -5 3 11776.5 714.51 14
-1 -5 3 11211.8 693.533 8
-1 -5 3 10280.9 1802.45 1
-1 -5 2 465.786 551.5 1
-1 -5 1 10662.1 1740.45 1
-1 -5 0 391.889 526.616 1
1 5 1 28681.8 2556.39 3
1 5 2 1419.68 671.166 3
1 5 2 1133.78 516.927 2
1 5 3 9355.26 1326.27 2
1 5 3 9749.43 1507.18 3
1 5 4 12952.7 1689.35 3
1 5 5 -27.5196 261.8 3
1 5 6 1465.71 260.352 10
1 5 6 1828 290.89 9
1 5 6 1925.62 739.284 3
1 5 7 777.473 233.784 9
1 5 7 645.332 194.113 10
1 5 7 939.852 596.718 3
1 5 8 99713.3 5771.49 3
1 5 8 93069.6 2711.14 9
1 5 8 90448 2649 10
1 5 9 45293.2 1671.08 10
1 5 9 50041 1777.76 9
1 5 10 41928.6 1570.53 10
1 5 10 43389.7 1660.22 9
1 5 11 480.064 182.059 10
1 5 11 263.052 200.926 9
1 5 12 169.471 182.108 9
1 5 12 158.113 125.058 10
1 5 13 187.604 106.811 10
1 5 13 239.309 134.543 9
1 5 14 1813.81 208.109 9
-1 -6 9 1468.77 197.685 8
-1 -6 8 -22.2551 106.192 8
-1 -6 7 2872.74 514.326 16
-1 -6 7 2579.25 316.957 8
-1 -6 6 9037.28 896.019 16
-1 -6 6 9864.7 675.3 8
-1 -6 5 545.091 357.454 16
1 6 -5 48.5649 166.104 10
-1 -6 5 16.4304 162.528 8
-1 -6 4 21686.4 1275.98 16
-1 -6 4 23941.8 1116.32 8
1 6 -4 20673.5 1133.73 10
-1 -6 3 521.642 315.872 16
1 6 -3 419.803 227.816 10
-1 -6 3 631.616 214.679 8
1 6 -2 2099.46 364.169 10
-1 -6 2 2170.46 416.058 16
-1 -6 2 2353.78 338.368 8
-1 -6 2 2598.36 1051.79 1
1 6 -1 7931.73 1505.06 3
-1 -6 1 6975.16 563.529 13
-1 -6 1 8246.61 655.5 16
1 6 -1 7828.99 622.628 10
1 6 0 806.514 223.757 10
1 6 0 713.895 498.128 3
-1 -6 0 804.085 217.869 16
-1 -6 0 819.396 231.862 13
1 6 1 2500.8 359.884 10
1 6 1 1946.45 751.526 3
-1 -6 -1 2745.55 348.859 16
-1 -6 -1 3127.74 375.756 13
1 6 1 2776.05 860.137 2
1 6 2 50124.1 3594.28 3
-1 -6 -2 42673.8 1535.01 16
1 6 2 43444.1 1598.4 10
1 6 2 48636.6 3502.38 2
1 6 3 27445.4 1187.44 10
1 6 3 29864 2741.67 3
-1 -6 -3 27510.4 1303.25 12
1 6 4 7462.29 576.61 10
-1 -6 -4 7156.03 642.629 12
1 6 4 7981.78 581.446 9
1 6 5 72.8 125.836 10
-1 -6 -5 569.294 258.87 12
1 6 5 240.832 389.019 3
1 6 5 12.0379 137.167 9
1 6 6 24448.7 1122.32 10
-1 -6 -6 21918.9 1145.56 12
1 6 6 23911.8 1120.08 9
1 6 7 2862.3 403.743 9
1 6 7 3084.62 379.356 10
1 6 8 91173.8 2718.87 9
1 6 8 89826.8 2655.61 10
1 6 9 41253.3 1561.75 10
1 6 9 43527.8 1647.54 9
1 6 10 5289.85 476.32 10
1 6 10 5328.12 522.218 9
1 6 11 4338.2 440.138 9
1 6 11 4091.64 384.353 10
1 6 12 4039.68 327.592 10
1 6 12 3426.54 367.033 9
-1 -7 7 754.215 143.384 8
-1 -7 6 985.83 332.423 16
-1 -7 6 1744.88 238.287 8
-1 -7 5 1460.14 402.423 16
-1 -7 5 2194.96 280.429 8
-1 -7 4 5455.47 461.295 8
-1 -7 4 5582.83 643.154 16
1 7 -4 4688.27 490.149 10
1 7 -3 45.604 163.446 10
-1 -7 3 179.415 143.315 8
1 7 -2 136.154 215.788 10
-1 -7 2 -141.071 241.829 16
1 7 -1 1490.35 331.146 10
-1 -7 1 1236.01 330.246 16
-1 -7 0 1648.91 341.356 16
1 7 0 1221.14 286.805 10
1 7 1 888.339 237.871 10
-1 -7 -1 1340.13 269.774 16
1 7 2 38247.2 1555.52 10
-1 -7 -2 40423 1534.98 16
-1 -7 -3 36155.7 1396.91 16
1 7 3 35892.8 1482.45 10
1 7 4 -46.1665 169.652 10
-1 -7 -4 61.0191 141.23 16
-1 -7 -5 8167.49 588.024 16
1 7 5 6525.01 591.071 10
1 7 6 89.0882 162.729 10
1 7 7 19.5872 187.069 10
1 7 8 3283.89 398.358 10
1 7 9 700.244 191.437 10
1 7 10 15295.6 737.314 10
1 7 11 14996.1 651.281 10
-1 -8 5 847.113 259.16 16
-1 -8 4 13606.8 883.023 16
-1 -8 3 3896.02 491.671 16
1 8 -3 4036.94 392.075 10
-1 -8 2 29.2027 202.978 16
1 8 -2 3.23206 164.006 10
-1 -8 1 328.901 232.725 16
1 8 -1 634.241 223.604 10
-1 -8 0 1061.97 287.137 16
1 8 0 1264.43 284.624 10
-1 -8 -1 12663.8 824.404 16
1 8 1 12190.9 797.703 10
-1 -8 -2 679.697 263.988 16
1 8 2 532.937 202.695 10
-1 -8 -3 -113.058 157.085 16
1 8 3 117.421 178.489 10
1 8 4 997.726 257.332 10
-1 -8 -4 689.414 232.597 16
1 8 5 5796.94 529.65 10
-1 -8 -5 6756.65 497.087 16
1 8 6 7168.57 558.993 10
1 8 7 847.183 224.32 10
1 8 8 24137.4 985.795 10
1 8 9 3072.46 297.197 10
1 8 10 285.003 115.098 10
1 9 -1 1977.35 272.387 10
1 9 0 5729.39 414.229 10
1 9 1 405.921 161.788 10
1 9 2 906.555 195.712 10
1 9 3 2911.51 319.552 10
1 9 4 677.017 181.64 10
1 9 5 7840.5 484.568 10
1 9 6 1840.35 218.954 10
1 9 7 2930.8 247.944 10
-2 8 7 883.313 155.11 10
-2 8 6 270.557 129.826 10
-2 8 5 296.111 144.234 10
-2 8 4 726.573 186.623 10
-2 8 3 20148.2 869.12 10
-2 8 2 3523.89 347.881 10
-2 8 1 27120.4 1020.13 10
2 -8 0 364.218 126.421 8
-2 8 0 661.248 169.404 10
2 -8 1 9960.91 516.877 8
-2 8 -1 10583.8 542.58 10
2 -8 2 2165.57 210.833 8
-2 7 10 2222.94 228.623 10
-2 7 9 506.981 153.981 10
-2 7 8 3257.1 342.348 10
-2 7 7 4988.69 472.908 10
-2 7 6 248.833 168.775 10
-2 7 5 4299.86 450.305 10
-2 7 4 8641.59 659.789 10
-2 7 3 35902.1 1432.35 10
-2 7 2 13401.1 817.315 10
-2 7 1 149760 3858.67 10
-2 7 0 5390.9 502.227 10
-2 7 -1 -38.4302 187.597 10
-2 7 -2 2544.38 354.228 10
2 -7 3 5127.8 439.961 8
-2 7 -3 4619 409.454 10
2 -7 4 230.774 134.534 8
2 -7 5 161.992 120.715 8
-2 6 11 5637.78 388.196 10
-2 6 10 2466.56 294.423 10
-2 6 9 316.345 174.87 10
-2 6 8 7882.51 599.693 10
-2 6 7 4023.09 443.262 10
-2 6 6 9835.59 718.228 10
-2 6 5 15438.5 911.89 10
-2 6 4 15225.2 914.139 10
-2 6 3 43664.4 1703 10
-2 6 2 34618.9 1466.69 10
-2 6 1 6802.88 598.083 10
-2 6 0 762.34 263.248 10
-2 6 -1 226.834 180.05 10
-2 6 -2 11596.8 789.362 10
-2 6 -3 14986.8 875.196 10
2 -6 4 16374.5 930.799 8
-2 6 -4 16543.3 889.725 10
2 -6 5 842.841 231.843 8
2 -6 6 1667.49 245.499 8
2 -6 7 1166.45 170.813 8
2 -6 7 219.3 118.496 7
-2 5 12 -28.6684 97.9005 10
-2 5 11 53.8602 141.602 10
-2 5 10 1504.58 295.449 10
-2 5 9 32827.3 1360.82 10
-2 5 8 10653.8 740.954 10
-2 5 8 10771.3 643.563 17
-2 5 7 5486.19 536.2 10
-2 5 7 5667.88 490.013 17
-2 5 6 6502.22 530.474 17
-2 5 6 7161.01 592.63 10
-2 5 5 6255.7 574.577 10
-2 5 5 5831.99 1413.18 2
-2 5 5 6354.03 532.892 17
-2 5 4 14690.5 881.184 10
-2 5 4 15745.3 842.307 17
-2 5 4 15895.4 2345.45 2
-2 5 3 2850.3 388.267 10
-2 5 3 3904.29 1172.33 6
-2 5 3 3223.1 376.809 17
-2 5 3 3582.24 1165.92 2
-2 5 2 13256.9 2135.14 2
-2 5 2 11822.1 728.555 17
-2 5 2 11237.9 752.474 10
-2 5 2 13834.6 2199.66 6
-2 5 1 2997.64 1137.92 6
-2 5 1 1463.07 793.923 2
-2 5 1 2529.74 378.051 10
-2 5 0 3419.19 420.042 10
-2 5 0 4080.95 1253.9 6
-2 5 0 3404.32 1061.34 2
-2 5 -1 688.992 714.084 6
-2 5 -1 204.99 142.321 10
-2 5 -1 345.896 433.58 2
-2 5 -2 12382 2075.77 2
-2 5 -2 11096.9 778.22 10
-2 5 -3 17197.8 967.087 10
-2 5 -4 2748.52 385.396 10
-2 5 -5 2886.18 381.019 10
2 -5 5 3977.26 490.597 8
2 -5 6 162.485 195.895 8
2 -5 7 32397.5 1274.51 8
2 -5 8 18646.4 820.044 8
2 -5 8 18309.4 811.1 7
2 -5 9 49.1771 95.8047 8
2 -5 9 -108.965 83.6487 7
-2 4 13 5414.25 369.023 10
-2 4 12 211.624 141.641 10
-2 4 11 1322.01 265.197 10
-2 4 10 16707.4 927.747 10
-2 4 9 58572.2 2015.3 10
-2 4 9 58970.9 1812.71 17
-2 4 8 12469.1 713.485 17
-2 4 8 12566 812.714 10
-2 4 7 1044.84 255.481 10
-2 4 7 1427.2 262.638 17
-2 4 7 1700.05 789.793 2
-2 4 6 -30.8744 156.919 10
-2 4 6 67.2429 135.643 17
-2 4 6 586.6 661.171 2
-2 4 5 12034.6 744.802 10
-2 4 5 12311.8 1902.5 2
-2 4 5 13998.9 737.318 17
-2 4 4 435.359 358.964 2
-2 4 4 776.5 201.953 17
-2 4 4 543.348 165.189 10
-2 4 3 57720.2 4159.55 2
-2 4 2 7049.9 1440.68 6
-2 4 2 5130.97 1262.14 2
-2 4 1 4014.18 1130.93 6
-2 4 1 3711.43 1070.61 2
-2 4 0 139298 6757.52 2
-2 4 0 141482 6755.86 6
-2 4 -1 70.2986 387.08 6
-2 4 -1 631.207 582.461 2
-2 4 -2 965.813 196.603 20
-2 4 -2 1147.04 220.536 15
-2 4 -2 1142.8 252.726 10
-2 4 -2 1394.64 268.259 19
-2 4 -2 1379 711.56 6
-2 4 -2 1285.24 638.129 2
-2 4 -3 13533.4 806.065 10
-2 4 -3 12637.4 693.953 15
-2 4 -3 14881.6 2121.87 2
-2 4 -4 4379.52 1180.72 2
-2 4 -4 2171.26 903.754 5
-2 4 -4 3065.98 332.517 15
-2 4 -4 3071.73 393.625 10
-2 4 -5 147.629 156.875 10
2 -4 6 15884.9 943.076 8
2 -4 7 1503.86 295.008 8
2 -4 8 84615.7 2519.45 8
2 -4 8 90395.6 2562.66 7
2 -4 9 64500.3 1903.7 8
2 -4 9 66981.9 1966.57 7
2 -4 10 4561.57 352.862 7
2 -4 10 4132.81 310.386 8
-2 3 13 119.219 127.244 10
-2 3 12 8560.52 592.833 10
-2 3 11 -79.7628 153.689 10
-2 3 10 -31.5529 157.42 10
-2 3 10 160.487 143.781 17
-2 3 9 449.345 216.52 10
-2 3 9 807.055 247.649 9
-2 3 9 874.969 218.281 17
-2 3 8 59327.5 1967.27 9
-2 3 8 62281.6 1934.9 17
-2 3 8 62731.2 2025.3 10
-2 3 7 52597 1684.98 17
-2 3 7 55517.6 4045.82 2
-2 3 7 51881.3 1735.04 10
-2 3 7 50737.8 1719.01 9
-2 3 6 418.746 480.819 2
-2 3 5 4034.16 1068.6 2
-2 3 4 2596.87 854.64 2
-2 3 3 168396 6884.07 2
-2 3 2 439.987 586.553 2
-2 3 1 1524.23 662.795 6
-2 3 1 1682.17 687.505 2
-2 3 0 49745.6 3393.55 2
-2 3 0 56216.5 3579.35 6
-2 3 -1 913.838 655.681 2
-2 3 -1 130.826 417.714 6
-2 3 -2 89783.2 4938.03 6
-2 3 -2 110253 5117.82 2
-2 3 -3 13916.4 1767.03 2
-2 3 -4 17450.5 2335.99 5
-2 3 -5 807.545 196.714 19
-2 3 -5 490.704 715.195 5
-2 3 -5 700.283 184.914 10
-2 3 -6 535.195 521.871 5
2 -3 6 771.727 249.778 8
2 -3 7 7752.24 636.077 8
2 -3 8 4490.52 475.279 8
2 -3 9 43624.6 1552.49 8
2 -3 9 45401.3 1645.21 7
2 -3 10 4040.69 365.772 8
2 -3 10 4215.75 418.403 7
2 -3 11 4946.89 322.463 8
2 -3 11 6051.11 416.577 7
-2 2 14 1861.88 209.457 10
-2 2 13 160.469 130.668 10
-2 2 12 89.7673 178.426 10
-2 2 11 45193.8 1650.32 10
-2 2 11 43731.9 1484.16 17
-2 2 10 41975.4 1591.51 10
-2 2 10 39325 1474.04 17
-2 2 9 5553.28 504.697 17
-2 2 9 6574.11 1390.85 1
-2 2 9 6207.47 541.503 10
-2 2 9 4580.77 1265.63 2
-2 2 8 -24.8162 135.541 10
-2 2 8 -58.7614 154.514 17
-2 2 8 2.61222 344.023 1
-2 2 8 -96.244 461.277 2
-2 2 7 1017.45 220.773 10
-2 2 7 532.388 444.425 1
-2 2 7 910.614 530.223 2
-2 2 6 109210 5365.85 2
-2 2 6 100747 4934.02 1
-2 2 5 1004 462.67 1
-2 2 5 891.252 540.321 2
-2 2 4 107511 4934.63 2
-2 2 4 101138 4104.75 1
-2 2 3 19658.4 1397.74 1
-2 2 3 22302.6 2016.67 2
-2 2 2 23002.5 2022.21 2
-2 2 1 54149.3 3031.18 2
-2 2 1 45960.5 2761.56 6
-2 2 0 126198 4991.07 2
-2 2 0 132904 5146.92 6
-2 2 -1 120019 4984.45 2
-2 2 -1 152926 5666.05 6
-2 2 -2 9225.73 1326.54 6
-2 2 -2 7423.78 1125.87 2
-2 2 -3 19479.1 2157.18 5
-2 2 -4 600.044 668.177 5
-2 2 -5 327.885 439.3 5
-2 2 -6 14442.2 737.173 19
-2 2 -6 14185.5 2098.28 5
2 -2 6 15790.7 836.233 8
-2 2 -7 2718.42 326.833 19
-2 2 -7 3704.75 1061.15 5
2 -2 7 2611.82 365.258 8
-2 2 -8 1373.57 245.892 19
2 -2 8 1280.11 239.665 8
2 -2 9 1807.03 298.191 8
2 -2 9 2014.77 329.897 7
2 -2 10 7914.3 609.011 7
2 -2 10 7521.61 542.146 8
2 -2 11 9566.68 529.861 8
2 -2 11 10599.6 630.147 7
2 -2 12 217.969 130.978 7
-2 1 14 5082.01 327.756 10
-2 1 13 3743.09 350.028 10
-2 1 12 15.7751 154.26 10
-2 1 11 2183.55 334.598 17
-2 1 11 2387.81 347.913 10
-2 1 10 307.871 160.635 10
-2 1 10 1007.46 214.236 21
-2 1 9 31755.8 1210.13 21
-2 1 9 32072.3 1338.58 10
-2 1 9 33749.8 1571.95 11
-2 1 8 6613.01 1420.81 1
-2 1 8 7333 551.272 10
-2 1 8 6599.8 486.577 21
-2 1 8 6956.16 641.267 11
-2 1 8 6846.59 1407.72 2
-2 1 7 916.133 640.186 1
-2 1 7 408.403 316.426 2
-2 1 6 68050.3 3910.68 1
-2 1 6 76375.9 4291.35 2
-2 1 5 25366.4 2231.86 2
-2 1 5 25632 2089.01 1
-2 1 4 207649 6930.37 2
-2 1 4 200256 6415.59 1
-2 1 3 50061 2787.13 2
-2 1 3 47025.9 2288.66 1
-2 1 2 38403.6 1709.15 1
-2 1 2 41885 2249.27 6
-2 1 2 42170.5 2428.84 2
-2 1 1 12198.6 1197.98 6
-2 1 1 13583.4 1276.36 2
-2 1 1 11198 607.454 1
-2 1 0 49011 2486.77 2
-2 1 0 52371.8 2580.55 6
-2 1 -1 353272 9306.71 6
-2 1 -1 333715 8867.55 2
-2 1 -2 57632.8 3223.35 5
-2 1 -2 48657.6 2408.86 2
-2 1 -3 108660 5013.07 5
-2 1 -4 411.477 391.186 5
-2 1 -5 4451.92 1067.7 5
-2 1 -6 20998.3 2357.84 5
-2 1 -7 23095.4 964.236 19
-2 1 -7 24972.6 2705.28 5
2 -1 7 22324.9 986.789 8
-2 1 -8 44747.6 1508.46 19
-2 1 -8 44048.4 3746.65 5
2 -1 8 45204 1570.1 8
-2 1 -9 3374.56 384.212 19
2 -1 9 4103.33 407.967 8
2 -1 9 3911.55 449.326 7
2 -1 10 97.0335 115.233 8
-2 1 -10 39.4884 130.799 19
2 -1 10 -50.2196 160.653 7
-2 1 -11 13934.3 748.671 19
2 -1 11 12859 765.309 7
2 -1 12 36353.8 1278.16 7
-2 0 14 3749.94 261.976 10
-2 0 13 9217.15 539.925 10
-2 0 12 35886.5 1338.51 17
-2 0 12 43252.1 1484.97 10
-2 0 11 5584.51 527.636 10
-2 0 10 1240.17 283.547 8
-2 0 10 1152.6 224.463 21
-2 0 10 1425.19 341.574 11
-2 0 9 11371.1 670.612 21
-2 0 9 11153.3 735.654 8
-2 0 9 12297.4 875.706 11
-2 0 9 10496.7 1932.28 1
-2 0 8 -134.86 361.977 1
-2 0 8 -4.07432 122.009 8
-2 0 8 -252.183 191.805 21
-2 0 8 135.247 185.442 11
-2 0 7 25203 2550.57 1
-2 0 6 54115.1 3532.63 2
-2 0 6 50985.3 3358.04 1
-2 0 5 131492 5317.76 1
-2 0 5 142668 5789.73 2
-2 0 4 10712.1 1208.54 1
-2 0 4 10536.6 1321.55 2
-2 0 3 5984.11 532.713 6
-2 0 3 8482.16 1060.5 2
-2 0 3 7704.91 921.087 1
-2 0 2 57874.8 2085.64 6
-2 0 2 65268.4 2465.94 1
-2 0 2 65340.7 2744.57 2
-2 0 1 10072.3 963.528 2
-2 0 1 9190.5 795.593 1
-2 0 0 41375.6 2090.61 5
-2 0 0 37152.6 1783.38 2
-2 0 0 39045.6 1526.59 1
-2 0 -1 12445.1 919.713 2
2 0 1 13718.5 725.707 3
-2 0 -2 931.125 431.952 5
-2 0 -2 680.27 215.701 2
2 0 2 570.005 175.799 3
-2 0 -3 3154.17 729.702 5
2 0 3 2951.07 485.87 3
-2 0 -3 3085.26 432.342 2
-2 0 -4 46667.7 2904.4 5
2 0 4 40945.1 2150.16 3
-2 0 -5 148287 6019.97 5
2 0 5 130118 4841.41 3
-2 0 -6 28823 2620.69 5
2 0 6 26821.1 2075.15 1
-2 0 -7 16233.3 2113.69 5
-2 0 -8 388.628 154.486 19
2 0 8 329.753 175.805 7
-2 0 -9 27598.9 1182.34 19
2 0 9 27402.6 1206.97 7
-2 0 -10 51.2245 131.281 19
2 0 10 158.488 208.813 7
-2 0 -11 25712.5 1229.87 19
2 0 11 30436.9 1240.62 7
2 0 12 109.95 161.081 7
2 0 13 306.968 108.043 9
-2 -1 13 135.687 103.379 10
-2 -1 12 35545.9 1318.81 10
-2 -1 11 56145.1 1689.27 21
-2 -1 11 56275.3 1883.15 8
-2 -1 10 2034.54 285.028 21
-2 -1 10 2088.53 331.764 8
-2 -1 10 2328.22 434.088 11
-2 -1 9 9594.69 1923.86 1
-2 -1 9 9751.42 689.045 8
-2 -1 9 10508.5 779.823 11
-2 -1 8 2372.55 342.62 8
-2 -1 8 1774.8 904.875 1
-2 -1 8 2565.51 360.644 11
-2 -1 7 -13.8321 371.791 1
-2 -1 6 16538.9 1993.93 1
-2 -1 5 51614 3256.88 1
-2 -1 4 51819.3 3020.62 1
-2 -1 4 55371.1 3084.88 2
-2 -1 3 21238.2 1720.19 1
-2 -1 3 22661.2 1744.26 2
-2 -1 2 11153.3 1161.78 1
-2 -1 2 11644 1142.47 2
-2 -1 1 10257.5 772.62 4
-2 -1 1 9786.14 718.542 5
-2 -1 1 10369.5 948.25 2
-2 -1 1 10957.4 1092.61 1
-2 -1 0 157684 4454.37 4
-2 -1 0 142947 4150.73 2
-2 -1 0 141180 4656.04 1
-2 -1 0 157725 4432.17 5
-2 -1 -1 14058.7 755.206 2
2 1 1 14376.9 1026.49 3
-2 -1 -1 14381.8 1154.89 5
-2 -1 -1 16053.2 1130.49 1
-2 -1 -2 141965 4784 5
2 1 2 141914 4285.43 3
-2 -1 -3 272.213 277.94 5
2 1 3 381.65 247.093 3
2 1 4 46908.8 2431.4 3
-2 -1 -4 47040.3 2840.47 5
-2 -1 -5 85770 4239.7 5
2 1 5 82421 3695.22 3
2 1 6 122315 5013.66 3
2 1 7 6619.26 1214.21 3
-2 -1 -8 11986.5 718.756 18
-2 -1 -8 13081.2 706.394 19
2 1 8 11547.6 659.882 7
-2 -1 -9 15548.1 861.412 19
-2 -1 -9 16530.6 2339.36 4
2 1 9 16204.7 840.644 7
-2 -1 -10 11675.3 762.306 19
2 1 10 10320.8 679.71 7
-2 -1 -11 34467.6 1351.86 19
2 1 11 29404.9 1243.41 7
2 1 12 13407.4 702.88 10
2 1 13 12919.9 629.879 9
-2 -2 13 22195.2 772.563 10
-2 -2 12 2404.29 309.161 8
-2 -2 11 53770.9 1738.24 8
-2 -2 11 45213.9 1696.38 11
-2 -2 10 12392.9 779.68 8
-2 -2 10 11831.5 810.882 11
-2 -2 9 3800.38 437.239 8
-2 -2 9 3634.32 445.665 11
-2 -2 8 1168.61 855.572 1
-2 -2 8 1268.85 351.827 16
-2 -2 8 1871.57 307.585 8
-2 -2 8 1404.32 281.406 11
-2 -2 8 1725.44 285.428 7
-2 -2 7 86.7644 214.337 16
-2 -2 7 36.1627 145.6 8
-2 -2 7 -50.3652 473.188 1
-2 -2 7 -210.843 144.947 11
-2 -2 7 90.8109 124.278 7
-2 -2 6 46288.8 3736.67 1
-2 -2 5 7733.59 1523.66 1
-2 -2 4 4447.97 1051.61 1
-2 -2 3 42692.9 2879.6 1
-2 -2 2 3649.05 831.702 1
-2 -2 1 17167.9 1713.4 1
-2 -2 0 109239 4435.31 1
-2 -2 -1 102988 4043.01 1
-2 -2 -1 100622 3815.47 4
2 2 2 7308.72 927.513 3
-2 -2 -2 7669.91 971.144 4
-2 -2 -3 36443.5 2374.57 4
2 2 3 36915.5 2170.54 3
-2 -2 -4 25376.9 2074.6 4
2 2 4 28622 2013.9 3
-2 -2 -5 181156 6727.01 4
2 2 5 178184 6235.39 3
-2 -2 -6 223258 8110.45 4
2 2 6 218532 7572.31 3
-2 -2 -7 1975.94 709.043 4
2 2 7 2339.51 745.253 3
-2 -2 -8 544.14 187.92 19
-2 -2 -8 530.426 157.041 18
-2 -2 -8 1296.64 698.15 4
2 2 8 631.476 518.806 3
2 2 9 13688 728.13 7
-2 -2 -9 15698.4 802.044 18
-2 -2 -9 16931.1 2305.71 4
2 2 9 10924.1 1863.19 3
-2 -2 -9 12516.6 828.08 19
-2 -2 -10 378.511 228.724 19
2 2 10 -144.268 151.115 10
2 2 10 218.465 148.22 7
2 2 11 53233.2 1731.06 10
-2 -2 -11 53791.7 1916.8 19
2 2 12 1620.9 281.619 9
2 2 12 1863.07 261.15 10
2 2 13 1488.96 242.672 9
2 2 14 1868.69 202.968 9
-2 -3 12 4342.04 343.019 8
-2 -3 11 906.36 208.093 8
-2 -3 10 648.302 206.158 8
-2 -3 10 916.524 252.06 11
-2 -3 9 90.8172 162.678 8
-2 -3 9 236.753 147.594 11
-2 -3 8 1954.89 461.347 16
-2 -3 8 2204.18 344.525 8
-2 -3 8 1460.14 282.118 11
-2 -3 8 1753.76 274.814 7
-2 -3 7 -322.877 663.52 1
-2 -3 7 -226.727 248.011 16
-2 -3 7 89.4103 162.423 8
-2 -3 7 8.12205 125.903 11
-2 -3 6 5810.61 1426.64 1
-2 -3 6 6046.85 619.187 16
-2 -3 6 6931.49 534.73 8
-2 -3 6 6115.13 517.514 11
-2 -3 5 -527.327 503.772 1
-2 -3 4 31255 2985.22 1
-2 -3 3 10679.5 1736.35 1
-2 -3 2 522.317 591.626 1
-2 -3 1 28805.2 2516.09 1
-2 -3 0 8805.5 1294.22 1
-2 -3 -1 85536.8 4105.47 1
2 3 2 5033 908.926 3
2 3 3 11918.1 1405.26 3
-2 -3 -4 62881.7 3616.56 4
2 3 4 68561.3 3565.6 3
2 3 5 3954.59 915.319 3
-2 -3 -5 3300.7 850.918 4
-2 -3 -6 125450 5787.28 4
2 3 6 127517 5668.96 3
-2 -3 -7 47261 3543.24 4
2 3 7 45262.3 3362.14 3
-2 -3 -8 2351.29 340.672 19
-2 -3 -8 2815.75 954.011 4
-2 -3 -8 2254.65 320.783 12
-2 -3 -8 2740.9 338.777 18
2 3 8 2357.66 829.729 3
-2 -3 -9 3013.7 428.793 19
-2 -3 -9 3538.84 386.047 18
2 3 9 3659.43 1158.93 3
-2 -3 -10 2096.06 375.584 19
2 3 11 1813.28 322.84 9
2 3 12 581.607 217.96 9
2 3 13 1033.68 230.363 9
2 3 14 163.874 119.032 9
-2 -4 11 3670.83 323.236 8
-2 -4 10 10942.1 646.463 8
-2 -4 9 3710.75 416.083 8
-2 -4 8 159.267 320.668 16
-2 -4 8 -266.633 185.598 8
-2 -4 8 352.57 178.192 11
-2 -4 7 5917.19 741.661 16
-2 -4 7 6010.73 533.085 8
-2 -4 7 5442.38 517.531 11
-2 -4 6 3168.28 513.181 16
-2 -4 6 3016.73 370.069 8
-2 -4 6 3333.39 1235.14 1
-2 -4 6 2633.96 356.311 11
-2 -4 5 975.82 301.368 16
-2 -4 5 1621.53 808.949 1
-2 -4 5 1379.37 246.309 8
-2 -4 5 1164.59 223.976 11
-2 -4 4 29.4442 189.464 13
-2 -4 4 171.887 469.704 1
-2 -4 3 41243.9 3735.52 1
-2 -4 2 999999 25753.2 1
-2 -4 1 9547.75 1636.28 1
-2 -4 0 301877 10226.1 1
-2 -4 -1 606.44 711.466 1
2 4 2 11163.5 1481.86 3
2 4 3 2695.39 844.648 3
2 4 4 12503.8 1636.03 3
2 4 5 10443.2 1563.22 3
2 4 6 21594.2 2314.75 3
-2 -4 -7 53320 1795.55 19
2 4 7 56148.5 1769.37 9
2 4 8 16638 863.16 9
2 4 8 17674 2342.15 3
-2 -4 -8 16371.1 828.971 12
2 4 9 2000.7 322.704 9
2 4 9 1729.77 857.657 3
2 4 10 61372.9 2020.32 9
2 4 11 306.225 213.64 9
2 4 12 703.62 226.226 9
2 4 13 263.873 162.34 9
2 4 14 1046.11 169.705 9
-2 -5 10 168.119 117.051 8
-2 -5 9 6673.87 484.007 8
-2 -5 8 9859.39 641.179 8
-2 -5 8 8205.45 828.433 16
-2 -5 7 1789.51 481.277 16
-2 -5 7 2352.39 329.182 8
-2 -5 7 2709.16 397.134 11
-2 -5 6 268.005 335.516 16
-2 -5 6 112.85 147.204 8
-2 -5 6 85.9662 118.19 11
-2 -5 5 26625.5 1380 16
-2 -5 5 21729 1033.27 8
-2 -5 5 24574.4 3382.81 1
-2 -5 5 21690.1 1074.47 11
-2 -5 4 23361.9 1067.61 8
-2 -5 4 29828.6 3533.42 1
-2 -5 4 30406.2 1382.65 16
2 5 -4 27332.4 1181.83 10
-2 -5 3 8539.53 682.504 16
-2 -5 3 9466.09 672.277 14
-2 -5 3 9245.87 635.171 13
-2 -5 3 8824.92 1853.18 1
2 5 -3 7940.6 580.01 10
-2 -5 2 174869 4265.77 13
-2 -5 2 174496 4353.46 16
-2 -5 2 174330 4328.86 14
-2 -5 2 184918 8590.16 1
-2 -5 1 93922.7 5656.14 1
-2 -5 0 110999 5984.53 1
2 5 1 2853.27 930.398 3
2 5 2 5372.88 1164.05 3
2 5 3 3418.2 960.714 3
2 5 4 89573.7 5054.36 3
2 5 5 10558.7 1749.52 3
-2 -5 -5 9896.29 636.774 12
2 5 6 2139.2 283.622 9
-2 -5 -6 2819.93 335.173 12
2 5 6 2685.34 875.487 3
2 5 7 27562.2 1173.84 9
2 5 7 28729.6 2947.82 3
-2 -5 -7 28766.6 1163.05 12
2 5 8 5981.95 542.226 9
-2 -5 -8 6273.24 516.447 12
2 5 8 5313 1337.36 3
2 5 9 7146.87 594.072 9
2 5 10 8217.36 633.066 9
2 5 11 3195.24 400.751 9
2 5 12 11091.3 683.182 9
2 5 13 872.381 189.947 9
2 5 14 200.341 102.79 9
-2 -6 9 430.182 109.532 8
-2 -6 8 1624.26 388.656 16
-2 -6 8 1721.64 221.909 8
-2 -6 7 7338.5 501.403 8
-2 -6 7 7410.78 787.129 16
-2 -6 6 2140.64 487.468 16
-2 -6 6 2555.09 322.855 8
-2 -6 6 2350.62 313.451 11
-2 -6 5 3139.04 545.438 16
-2 -6 5 3270.41 369.335 8
-2 -6 5 2741.41 372.167 11
-2 -6 4 49424.7 2029.26 16
-2 -6 3 38428.8 1545.77 14
-2 -6 3 38923.5 1658.21 16
2 6 -3 35414.1 1451.26 10
-2 -6 2 6416 618.601 16
-2 -6 2 5647.38 545.464 14
-2 -6 2 5102.93 494.962 13
-2 -6 2 4224.19 1242.71 1
2 6 -2 5131.94 478.563 10
-2 -6 1 2077.17 878.795 1
-2 -6 1 2169.4 367.145 16
-2 -6 1 1973.72 334.912 14
-2 -6 1 1601.56 299.941 13
2 6 0 17463.1 2374.81 3
-2 -6 0 15533 888.207 16
-2 -6 0 16573.5 924.425 14
-2 -6 0 15627 862.861 13
-2 -6 -1 498.041 211.501 16
-2 -6 -1 393.803 208.637 13
-2 -6 -1 269.242 224.33 12
2 6 1 283.523 455.613 3
-2 -6 -2 3044.89 415.12 16
-2 -6 -2 2812.64 440.701 12
2 6 2 3539.28 1030.95 3
-2 -6 -3 3602.97 467.535 12
2 6 3 5560.21 1353.04 3
2 6 4 8251.34 1642.28 3
-2 -6 -4 5970.74 587.622 12
-2 -6 -5 -165.828 191.148 12
2 6 5 583.502 397.457 3
2 6 6 6259.44 533.554 9
-2 -6 -6 5968.01 558.322 12
2 6 7 6076.64 534.782 9
-2 -6 -7 5267.13 544.23 12
2 6 8 5428.14 527.007 9
-2 -6 -8 3748.83 438.745 12
2 6 9 99944.6 2856.23 9
2 6 10 4282.52 462.869 9
2 6 11 16946.7 879.657 9
2 6 12 1454.54 230.485 9
2 6 13 824.683 161.86 9
-2 -7 7 10239.1 745.561 16
-2 -7 6 4684.82 621.238 16
-2 -7 5 605.331 326.612 16
-2 -7 4 7613.25 735.007 16
-2 -7 4 6695.14 545.156 11
2 7 -3 1391.61 283.204 10
-2 -7 3 1339.35 348.144 16
-2 -7 2 3971.15 524.116 16
-2 -7 2 3538.24 428.84 14
2 7 -2 3386.96 403.856 10
-2 -7 1 654.869 347.042 16
-2 -7 1 935.036 243.957 14
-2 -7 1 556.878 216.583 13
2 7 -1 879.559 230.922 10
-2 -7 0 7235.31 612.511 14
-2 -7 0 7224.77 651.951 16
-2 -7 0 7157.21 591.852 13
2 7 0 7134.2 581.638 10
-2 -7 -1 332.552 202.957 14
-2 -7 -1 213.616 213.426 13
-2 -7 -1 263.418 216.475 16
-2 -7 -2 297.888 203.124 16
-2 -7 -2 274.064 207.526 13
-2 -7 -3 7511.03 602.56 16
-2 -7 -3 7444.66 591.337 13
-2 -7 -4 721.534 261.445 16
-2 -7 -4 1080.51 362.207 12
-2 -7 -5 237.959 218.699 12
-2 -7 -6 576.159 280.055 12
2 7 7 40929.5 1510.69 9
-2 -7 -7 40281.8 1649.74 12
2 7 8 18457.4 938.253 9
-2 -7 -8 17944.3 987.722 12
2 7 9 40846.8 1486.48 9
2 7 10 3418.65 372.291 9
2 7 11 182.71 147.337 9
-2 -8 5 11477 785.555 16
-2 -8 4 -346.346 205.678 16
-2 -8 3 972.803 282.65 16
-2 -8 3 534.115 157.405 11
-2 -8 2 2911.62 471.042 16
2 8 -2 3399.5 346.136 10
-2 -8 1 234.045 218.2 16
2 8 -1 45.543 121.571 10
-2 -8 0 2349.15 408.258 16
-2 -8 0 1842.52 296.436 14
-2 -8 -1 9536.56 622.947 13
-2 -8 -1 7333.25 678.007 16
-2 -8 -1 8144.88 590.176 14
-2 -8 -2 13023.2 832.417 16
-2 -8 -2 13003.6 765.8 14
-2 -8 -2 11150 689.923 13
-2 -8 -3 2505.75 318.335 13
-2 -8 -3 2497.55 400.86 16
-2 -8 -3 3183.63 381.413 14
-2 -8 -4 -121.317 175.09 16
-2 -8 -5 14698.9 825.41 16
-2 -8 -6 1758.37 298.687 16
-2 -8 -7 80498.2 2246.58 16
-2 -8 -8 31825.8 1126.09 16
-2 -8 -9 92.374 121.154 16
-2 -8 -10 1337.45 177.909 16
-2 -9 3 113.855 174.531 16
-2 -9 2 957.617 257.116 16
-2 -9 1 212.12 186.616 16
-2 -9 1 179.874 92.0019 11
-2 -9 0 -50.1576 158.873 16
-2 -9 -1 17626.4 892.796 16
-2 -9 -2 16623.4 844.472 16
-2 -9 -3 622.707 179.817 16
-2 -9 -4 6654.98 500.419 16
-2 -9 -5 806.954 215.758 16
-2 -9 -6 896.346 180.327 16
-2 -9 -7 4215.45 313.177 16
-3 7 7 227.814 118.119 10
-3 7 6 84.6309 101.788 10
-3 7 6 382.263 172.764 19
-3 7 5 2736.02 313.218 19
-3 7 5 3863.13 338.612 10
-3 7 4 2453.63 306.202 19
-3 7 4 2991.81 313.248 10
-3 7 3 175.196 131.304 10
-3 7 3 -173.203 123.035 19
-3 7 2 1784.9 255.727 10
-3 7 1 9692.05 559.906 10
-3 7 0 11914.8 613.021 10
-3 7 -1 1348.68 196.598 10
3 -7 2 119.59 115.424 8
3 -7 3 7545.23 432.048 8
-3 6 10 3219.17 252.287 10
-3 6 9 1288.8 197.869 10
-3 6 8 4077.64 371.337 10
-3 6 7 479.94 184.929 10
-3 6 6 317.51 183.43 10
-3 6 5 2122.51 321.5 10
-3 6 4 42264.7 1542.58 10
-3 6 3 1885.15 263.209 20
-3 6 3 2468.46 330.883 10
-3 6 2 25720.8 1024.86 20
-3 6 2 25552.1 1238.21 19
-3 6 2 27941.5 1182.96 10
-3 6 1 2660.39 335.866 10
-3 6 1 1999.28 337.182 19
-3 6 1 2257.25 293.293 15
-3 6 1 2728.03 306.52 20
-3 6 0 15290.1 836.427 19
-3 6 0 17359.6 888.074 10
-3 6 -1 8047.29 578.431 10
-3 6 -2 1168.28 215.784 10
-3 6 -3 1201.92 204.838 10
3 -6 4 50228.5 1595.2 8
3 -6 5 5726.75 406.494 8
3 -6 6 12187.7 514.363 8
3 -6 6 10972.2 502.455 7
-3 5 11 2099.96 213.731 10
-3 5 10 -11.279 111.429 10
-3 5 9 3215.47 356.313 10
-3 5 9 3341.63 315.04 17
-3 5 8 6227.13 484.431 17
-3 5 8 7137.17 540.542 10
-3 5 7 62.1498 128.946 17
-3 5 7 167.802 169.467 10
-3 5 6 1898.08 312.777 10
-3 5 6 1951.65 318.279 17
-3 5 5 3349.27 398.813 17
-3 5 5 3288.76 397.933 10
-3 5 4 15919.7 900.061 10
-3 5 4 17363.4 904.006 17
-3 5 3 26222.7 1191.87 10
-3 5 3 26801.2 1201.51 17
-3 5 2 292052 6728.74 10
-3 5 1 2333.61 341.988 20
-3 5 1 1822.81 296.755 10
-3 5 1 1585.65 382.779 19
-3 5 0 1194.51 242.475 20
-3 5 0 934.719 288.278 19
-3 5 0 922.967 220.779 15
-3 5 0 674.619 219.856 10
-3 5 -1 5072.79 455.502 20
-3 5 -1 4868.8 469.69 15
-3 5 -1 4369.56 512.09 19
-3 5 -1 5550.66 515.009 10
-3 5 -2 7213.37 591.412 19
-3 5 -2 8232.19 568.5 15
-3 5 -2 8498.85 624.644 10
-3 5 -3 1487.75 282.766 10
-3 5 -3 1137.65 224.675 15
-3 5 -3 938.061 228.52 19
-3 5 -4 923.063 208.856 10
3 -5 5 2548.3 342.655 8
3 -5 6 19695.2 882.34 8
3 -5 7 4018.49 326.351 8
3 -5 7 4022.75 344.038 7
3 -5 8 42.2469 90.2578 7
-3 4 12 4914.21 322.381 10
-3 4 11 390.578 154.301 10
-3 4 10 91.7994 120.907 17
-3 4 10 12.1343 123.04 10
-3 4 9 3243.91 376.486 10
-3 4 9 3397.4 368.144 17
-3 4 8 974.219 221.857 10
-3 4 8 1021.73 231.804 17
-3 4 7 6108.9 538.699 10
-3 4 7 5717.59 500.97 17
-3 4 6 10009.4 679.359 17
-3 4 6 10172 697.197 10
-3 4 5 33614.3 3457.04 2
-3 4 5 32859.8 1338.41 17
-3 4 5 35500.4 1369.32 10
-3 4 4 91339.7 5864.25 2
-3 4 4 101846 5851.34 6
-3 4 4 94675.4 2731.47 17
-3 4 4 101156 2767.36 10
-3 4 3 43032.7 3674.66 6
-3 4 3 39737.1 1490.31 17
-3 4 3 41970 1503.91 10
-3 4 3 35612.9 3528.71 2
-3 4 2 41966.9 1522.37 10
-3 4 2 46166.2 3841.58 6
-3 4 2 43625.8 1552.4 17
-3 4 2 40214.8 3748.36 2
-3 4 1 7066.93 551.779 10
-3 4 1 7054.36 588.641 17
-3 4 1 7335.69 1523.86 6
-3 4 1 6356.25 1515.05 2
-3 4 0 3246.87 415.153 20
-3 4 0 3369.55 470.902 19
-3 4 0 3049.64 840.593 6
-3 4 0 4717.01 1271.79 2
-3 4 0 3330.45 369.514 10
-3 4 -1 7356.21 576.422 20
-3 4 -1 7608.98 665.534 19
-3 4 -1 6991.8 1524.53 2
-3 4 -1 7304.11 566.284 10
-3 4 -2 27580.6 1192 20
-3 4 -2 28208.7 3056.35 2
-3 4 -2 21392.1 2979.18 5
-3 4 -2 27142.9 1169.06 15
-3 4 -2 26324.6 1271.03 19
-3 4 -2 27710.9 1185.44 10
-3 4 -3 40651.4 1581.34 19
-3 4 -3 42846.2 1525.97 15
-3 4 -3 41106.3 1530.63 10
-3 4 -4 8896.35 644.555 19
-3 4 -4 9885.82 641.542 15
-3 4 -4 9409.31 655.64 10
-3 4 -5 8244.46 575.647 19
3 -4 5 8262.3 642.993 8
3 -4 6 2583.62 357.824 8
3 -4 7 -156.194 140.736 8
3 -4 8 581.804 189.024 7
3 -4 8 257.475 118.016 8
3 -4 9 1106.58 144.367 8
3 -4 9 1142.48 183.711 7
-3 3 12 61.0969 105.706 10
-3 3 11 2078.02 278.852 10
-3 3 11 2155.63 258.66 17
-3 3 10 33029.3 1230.58 17
-3 3 10 31824 1276.65 10
-3 3 9 8446.42 631.931 10
-3 3 9 8758.33 620.667 17
-3 3 8 3343.3 406.472 17
-3 3 8 2703.51 373.674 10
-3 3 7 353.053 167.84 10
-3 3 7 802.089 250.709 17
-3 3 6 658.896 197.182 10
-3 3 6 465.179 200.555 17
-3 3 6 721.055 626.075 2
-3 3 5 9001.98 616.024 10
-3 3 5 10343.3 656.598 17
-3 3 5 11006.3 1828.34 2
-3 3 4 11228.9 1824.33 2
-3 3 4 8454.9 1466.52 6
-3 3 4 12114.6 702.903 17
-3 3 3 488.35 386.278 6
-3 3 3 1119.26 240.2 17
-3 3 3 703.261 628.189 2
-3 3 2 7020.33 1378.68 6
-3 3 2 9056.38 590.978 17
-3 3 2 9249.26 1648.89 2
-3 3 1 2114.55 709.041 6
-3 3 1 1102.69 611.118 2
-3 3 0 4223.19 1071.21 6
-3 3 0 6169.11 480.923 17
-3 3 0 3441.54 1024.77 2
-3 3 -1 17681.1 867.666 20
-3 3 -1 19742.2 1016.02 19
-3 3 -1 18332.9 886.712 17
-3 3 -2 9859.28 1657.36 2
-3 3 -2 9785.11 643.571 15
-3 3 -2 10818.5 658.219 20
-3 3 -2 10099.2 729.962 19
-3 3 -2 8380.24 1732.18 5
-3 3 -3 519.983 199.121 20
-3 3 -3 386.999 194.524 19
-3 3 -3 714.667 625.597 5
-3 3 -3 714.833 206.512 15
-3 3 -3 815.353 460.428 2
-3 3 -4 9357.6 670.902 19
-3 3 -4 9591.49 662.168 15
-3 3 -5 288.069 184.689 19
-3 3 -6 30212.3 1192.26 19
3 -3 6 25837.5 1198.57 8
-3 3 -7 17760.2 830.989 19
3 -3 7 16172.8 876.041 8
-3 3 -8 732.919 169.273 19
3 -3 8 552.831 182.046 8
3 -3 9 12502.4 616.981 8
3 -3 9 13617.2 732.444 7
3 -3 10 245.74 123.817 7
-3 2 13 -91.374 85.5823 10
-3 2 12 1444.94 233.393 10
-3 2 12 1084.94 178.585 17
-3 2 11 6020.68 469.301 17
-3 2 11 5877.45 475.295 10
-3 2 10 46667.4 1620.97 10
-3 2 10 44777.2 1587.85 17
-3 2 9 23594.1 1103.47 10
-3 2 9 24062.6 1124.79 17
-3 2 8 4754.46 468.303 10
-3 2 8 5130.06 501.283 17
-3 2 7 830.918 227.504 10
-3 2 7 790.545 243.933 17
-3 2 7 80.7331 432.318 2
-3 2 6 1227.23 233.742 10
-3 2 6 1630.68 284.343 17
-3 2 5 5801.19 482.832 17
-3 2 5 6249.63 1307.93 2
-3 2 4 58651.8 3946.77 2
-3 2 3 312.248 318.393 6
-3 2 3 1112.25 630.972 2
-3 2 2 6638.22 1223.61 6
-3 2 2 5601.77 1168.12 2
-3 2 1 184704 7103.89 2
-3 2 1 182117 7040.72 6
-3 2 0 2543.82 812.569 6
-3 2 0 2684.96 773.64 2
-3 2 -1 3463.02 857.975 2
-3 2 -2 37237.7 2827.62 2
-3 2 -2 40136.2 3474.91 5
-3 2 -3 16.3198 236.748 2
-3 2 -3 402.985 528.16 5
-3 2 -4 81.7996 136.025 19
-3 2 -4 197.791 173.755 20
-3 2 -4 -110.713 441.038 5
-3 2 -4 230.558 122.623 15
-3 2 -5 14716.9 814.944 19
-3 2 -5 11753.9 2079.45 5
-3 2 -5 13557.5 788.744 15
-3 2 -6 6714.79 547.434 19
-3 2 -6 5005.11 1317.85 5
3 -2 6 6067 504.921 8
-3 2 -7 151524 3797.32 19
3 -2 7 147512 3768.18 8
-3 2 -8 105576 2818 19
-3 2 -9 20768.1 866.543 19
3 -2 9 17024.2 914.9 7
-3 2 -10 205.909 115.823 19
3 -2 10 237.15 145.351 7
3 -2 11 4808.07 358.884 7
-3 1 13 2155.16 207.926 10
-3 1 12 262.384 142.533 10
-3 1 12 176.875 123.776 17
-3 1 11 1593.76 260.686 10
-3 1 11 1360.37 264.582 17
-3 1 10 9.86056 170.396 17
-3 1 10 364.057 164.459 10
-3 1 9 27516.1 1158.89 21
-3 1 9 27381.9 1277.41 17
-3 1 9 26490.3 1190.19 10
-3 1 8 39516.9 1457.47 21
-3 1 8 39636.2 1475.44 10
-3 1 8 38790.7 1578.32 17
-3 1 8 43912.2 3883.79 2
-3 1 8 41934.6 1771.07 11
-3 1 7 1628.29 295.188 17
-3 1 7 2443.58 323.079 10
-3 1 7 970.302 513.86 1
-3 1 7 2258.66 405.89 11
-3 1 7 2274.26 995.784 2
-3 1 7 2142.38 292.011 21
-3 1 6 8547.61 561.241 21
-3 1 6 7455.72 1302.48 1
-3 1 6 7626.54 588.28 17
-3 1 6 10910.2 1800.24 2
-3 1 6 9634.28 689.983 11
-3 1 5 8729.41 1508.42 2
-3 1 4 149741 6321.56 2
-3 1 3 846.246 339.724 6
-3 1 3 1135.02 567.554 2
-3 1 2 1675.77 663.957 6
-3 1 2 1725.5 712.99 2
-3 1 1 15050 1604.06 2
-3 1 0 38.9595 269.271 2
-3 1 -1 208258 7716.06 5
-3 1 -1 207353 6859.51 2
-3 1 -2 20540.3 1740.53 2
-3 1 -2 26133 2505.03 5
-3 1 -3 33253.5 2973.16 5
-3 1 -4 1698.62 734.58 5
-3 1 -5 2797.98 913.705 5
-3 1 -5 3073.22 337.863 15
-3 1 -5 3139.76 360.428 19
-3 1 -6 15706.7 827.115 19
-3 1 -6 15317.8 2281.25 5
-3 1 -7 34410.4 1338.22 19
-3 1 -7 37883.4 3685.93 5
-3 1 -8 92760 2610.93 19
-3 1 -9 9517.06 621.391 19
3 -1 9 8348.19 623.245 7
-3 1 -10 9549.45 624.175 19
3 -1 10 8558.04 610.206 7
-3 1 -11 88.9399 117.797 19
3 -1 11 5.79971 123.642 7
3 -1 12 161.355 92.2833 7
-3 0 13 584.947 125.414 17
-3 0 12 20115.1 864.987 17
-3 0 12 20226.8 830.263 10
-3 0 11 32892.6 1344.16 17
-3 0 11 33601.3 1255.69 10
-3 0 10 7160.24 540.449 21
-3 0 10 7764.66 579.77 10
-3 0 10 7156.28 727.311 11
-3 0 9 5296.82 477.732 21
-3 0 9 5269.53 489.881 10
-3 0 9 5877.24 651.399 11
-3 0 8 173.077 130.932 10
-3 0 8 467.656 176.714 21
-3 0 8 644.804 272.787 11
-3 0 8 300.575 557.62 1
-3 0 7 55763.4 1836.63 21
-3 0 7 51425.7 3994.28 1
-3 0 6 -204.892 148.751 21
-3 0 6 92.5673 311.846 1
-3 0 6 -93.3955 145.134 11
-3 0 6 -36.34 404.084 2
-3 0 5 42708.2 3067.5 1
-3 0 5 53456.9 3692.14 2
-3 0 4 5209.52 1029.61 2
-3 0 4 4480.07 901.485 1
-3 0 3 20593.3 1918.4 2
-3 0 3 17573.8 1617.16 1
-3 0 2 93862.4 3683.01 5
-3 0 2 100668 4233.17 2
-3 0 2 89119.9 3676.29 1
-3 0 1 102355 4088.75 5
-3 0 1 94773.9 3943.78 2
-3 0 0 131688 5016.3 5
-3 0 0 121737 4401.7 2
-3 0 -1 40044.2 2098.64 2
-3 0 -1 41822.5 2749.79 5
-3 0 -2 44571.4 2977.94 5
-3 0 -3 1266.74 587.143 5
-3 0 -4 3163.94 868.978 5
-3 0 -5 15310.1 2044.91 5
-3 0 -6 3337.28 366.294 19
-3 0 -6 1734.35 768.71 5
-3 0 -7 3143.27 357.909 19
-3 0 -7 4058.51 1183.28 5
3 0 8 1637.2 291.747 7
-3 0 -8 1678.18 283.487 19
-3 0 -9 1237.6 252.817 19
3 0 9 883.557 221.891 7
-3 0 -10 26497 1089.64 19
3 0 10 24707.8 1069 7
-3 0 -11 520.293 179.458 19
3 0 11 480.496 168.616 7
3 0 12 1344.28 195.71 7
-3 -1 12 4508.86 334.108 10
-3 -1 12 3680.71 357.785 17
-3 -1 11 391.969 159.622 21
-3 -1 11 189.851 128.082 10
-3 -1 10 22527.1 1020.18 21
-3 -1 10 24559.4 1062.69 10
-3 -1 10 22402.3 1233.43 11
-3 -1 9 8903.46 637.203 21
-3 -1 9 10240.8 719.812 8
-3 -1 9 9825.41 793.932 11
-3 -1 8 2132.6 993.867 1
-3 -1 8 2309.41 359.097 8
-3 -1 8 1622.75 337.328 11
-3 -1 7 13615.3 2214.18 1
-3 -1 7 13449.1 767.817 8
-3 -1 7 13743.3 859.455 11
-3 -1 6 3419.77 997.041 1
-3 -1 6 2720.07 354.754 11
-3 -1 5 144949 6528.74 1
-3 -1 4 11172.9 1545.57 1
-3 -1 4 10500 1435.6 2
-3 -1 3 11183.5 1418.49 2
-3 -1 3 10747.1 1410.04 1
-3 -1 2 2348.55 699.045 1
-3 -1 2 1945.75 630.279 2
-3 -1 1 85378.1 3215.56 5
-3 -1 1 87246.2 3129.75 4
-3 -1 1 83867.2 3549.96 2
-3 -1 0 239772 6927.66 5
-3 -1 0 224376 6438.83 2
-3 -1 0 236292 6853.23 4
-3 -1 0 233732 6873.34 1
-3 -1 -1 55689.7 2924.81 5
-3 -1 -1 48036.7 2047.38 2
3 1 1 53380.9 2357.16 3
-3 -1 -2 59887.4 3314.15 5
3 1 2 61009.8 2599.04 3
-3 -1 -3 1314.09 549.477 5
3 1 3 1498.14 363.54 3
-3 -1 -4 10941.7 1558.62 5
3 1 4 11586.9 1225.39 3
3 1 5 19408 1696.9 3
-3 -1 -5 22932 2346.46 5
-3 -1 -6 12894.5 1913.87 5
-3 -1 -7 81567.7 2313.16 19
-3 -1 -8 6025.8 537.852 19
-3 -1 -9 1217.34 251.558 18
-3 -1 -9 1333.27 288.91 19
3 1 9 1422.22 242.523 7
-3 -1 -10 12698.8 778.829 19
-3 -1 -10 12508 752.661 18
3 1 10 11620.1 676.528 7
-3 -1 -11 57587.1 1799.31 19
3 1 11 49437 1612.69 7
-3 -1 -12 5968.21 519.613 19
3 1 13 174.304 110.318 9
-3 -2 11 1084.46 193.438 21
-3 -2 11 761.12 173.616 10
-3 -2 11 1190.49 302.828 11
-3 -2 10 1561.33 242.695 21
-3 -2 10 1889.88 312.625 8
-3 -2 10 1910.38 366.241 11
-3 -2 9 369.674 206.526 8
-3 -2 9 368.598 229.892 11
-3 -2 8 19435.3 989.833 8
-3 -2 8 18764.5 1074.38 11
-3 -2 7 29430.6 3413.38 1
-3 -2 7 28054.3 1185.47 8
-3 -2 7 27369.6 1288.91 11
-3 -2 6 38473.2 3679.14 1
-3 -2 6 40200.9 1399.44 8
-3 -2 6 38783.7 1500.34 11
-3 -2 5 1891.12 782.951 1
-3 -2 4 3889.51 1087.27 1
-3 -2 3 1239.8 653.343 1
-3 -2 2 4062.93 1013.95 1
-3 -2 1 20175.6 2006.91 1
-3 -2 0 12639.8 1455.03 1
-3 -2 -1 2272.34 614.097 4
-3 -2 -1 3273.62 725.632 1
3 2 1 2655.67 563.649 3
-3 -2 -2 19215.6 1799.27 4
3 2 2 19509 1598.88 3
-3 -2 -3 18089.9 1870.68 4
3 2 3 18864.4 1648.77 3
-3 -2 -4 150340 6321.59 4
3 2 4 157719 5664.79 3
-3 -2 -5 24878 2460.44 4
3 2 5 24233.4 2064.64 3
-3 -2 -6 27073.8 2733.03 4
3 2 6 25695.6 2294.35 3
-3 -2 -7 1202.65 230 19
-3 -2 -7 1427.43 246.374 18
-3 -2 -7 502.693 373.779 4
3 2 7 706.303 524.352 3
-3 -2 -8 40961.5 1493.88 19
-3 -2 -8 42812.8 1576.43 18
-3 -2 -8 44630.6 4003.17 4
-3 -2 -9 2393.93 351.206 19
-3 -2 -9 2479.29 341.406 18
-3 -2 -10 36728.7 1442.52 19
-3 -2 -10 37968.5 1421.08 18
-3 -2 -11 1623.54 322.154 19
-3 -2 -11 1791.12 261.461 18
-3 -2 -11 1114.65 205.845 12
3 2 12 16.1837 165.146 9
3 2 13 7192.71 448.261 9
-3 -3 11 2375.16 249.698 21
-3 -3 11 1913.72 277.301 11
-3 -3 10 8446.18 555.096 21
-3 -3 10 8501.5 574.056 8
-3 -3 10 8133.93 630.675 11
-3 -3 9 598.392 222.372 8
-3 -3 9 668.711 246.508 11
-3 -3 8 170.969 228.544 16
-3 -3 8 277.966 128.148 8
-3 -3 8 307.483 197.064 11
-3 -3 7 4147.58 544.059 16
-3 -3 7 5404.75 480.079 8
-3 -3 7 5051.89 537.842 11
-3 -3 6 13750.5 926.43 16
-3 -3 6 13661.7 2375.9 1
-3 -3 6 13168.5 743.901 8
-3 -3 6 11661.7 796.432 11
-3 -3 5 25121 3021.83 1
-3 -3 5 22241.4 1060.14 11
-3 -3 4 6399.32 1508.23 1
-3 -3 3 3065.69 1027.86 1
-3 -3 2 10342.2 1703.09 1
-3 -3 1 60885.5 4007.38 1
-3 -3 0 6420.54 1223.09 1
-3 -3 -1 44867.7 3044.91 1
3 3 2 108.809 305.862 3
-3 -3 -3 28501 2496.81 4
3 3 3 28782.2 2341 3
-3 -3 -4 24542.7 2377.37 4
3 3 4 26576.9 2274.79 3
-3 -3 -5 106570 5547.42 4
3 3 5 110562 5125.64 3
-3 -3 -6 20754.7 955.103 18
-3 -3 -6 20978.8 2421.92 4
3 3 6 20294.1 2140.33 3
-3 -3 -7 17488.1 889.283 18
-3 -3 -7 16993 2270.85 4
-3 -3 -7 16730.7 816.897 19
3 3 7 18543.9 2231.08 3
-3 -3 -8 9226.28 649.341 19
-3 -3 -8 10410.3 690.932 18
-3 -3 -8 11122 1954.46 4
3 3 8 9358.96 1660.84 3
-3 -3 -9 13295.1 802.57 19
-3 -3 -9 15344.9 856.045 18
-3 -3 -9 13391 778.215 12
-3 -3 -10 84170.8 2583.46 19
-3 -3 -10 90824.1 2539.1 18
-3 -3 -10 83900.9 2458.87 12
-3 -3 -11 15103.6 882.411 19
3 3 11 14409.9 812.048 9
-3 -3 -11 14424.9 722.143 12
3 3 12 11096.1 662.828 9
3 3 13 1808.7 242.514 9
-3 -4 11 6366.67 336.966 21
-3 -4 10 2631.21 279.794 8
-3 -4 10 2916.44 332.034 11
-3 -4 9 427.655 152.935 8
-3 -4 9 141.177 172.388 11
-3 -4 8 75.4197 256.401 16
-3 -4 8 -85.4286 159.797 8
-3 -4 8 -91.9761 169.465 11
-3 -4 7 9372.64 863.861 16
-3 -4 7 9950.18 652.051 8
-3 -4 7 10307.7 753.355 11
-3 -4 6 4900.68 601.815 16
-3 -4 6 5196.19 458.056 8
-3 -4 6 4945.32 537.711 11
-3 -4 5 -189.162 512.428 1
-3 -4 5 -74.4133 200.436 16
-3 -4 5 230.708 141.483 11
-3 -4 4 9804.98 2030.77 1
-3 -4 4 9453.35 683.276 16
-3 -4 4 9374.86 690.877 14
-3 -4 4 8238.94 634.475 13
-3 -4 4 9037.2 686.04 11
-3 -4 3 1103.89 727.486 1
-3 -4 3 1554.8 279.792 14
-3 -4 3 1821.25 294.476 13
-3 -4 2 351.567 480.979 1
-3 -4 1 35588.9 3334.74 1
-3 -4 0 27884.1 2790.28 1
-3 -4 -1 1978.52 828.453 1
3 4 1 807.544 587.032 3
3 4 2 30890.7 2701.31 3
3 4 3 14005.1 1778.65 3
3 4 4 89123.7 4837.98 3
-3 -4 -5 103197 2848.97 18
3 4 5 111919 5613.68 3
-3 -4 -5 110812 2852.07 12
-3 -4 -6 3966.81 369.533 19
-3 -4 -6 3578.17 403.681 18
-3 -4 -6 4028.53 394.529 12
3 4 6 4623.4 1137.76 3
-3 -4 -7 6780.41 522.281 19
-3 -4 -7 6755.53 566.485 18
3 4 7 7323.12 1505.56 3
-3 -4 -7 7069.1 542.654 12
-3 -4 -8 1826.68 335.67 19
3 4 8 2312.25 324.305 9
-3 -4 -8 2053.55 304.159 12
3 4 8 2135.6 880.169 3
-3 -4 -9 -31.7968 150.738 19
3 4 9 55.2625 143.694 9
-3 -4 -9 237.94 181.218 12
3 4 10 40808 1535.12 9
-3 -4 -10 44162.2 1493.83 12
3 4 11 914.803 242.683 9
3 4 12 11152.1 638.525 9
3 4 13 2125.79 256.594 9
-3 -5 10 -24.7048 70.3046 21
-3 -5 9 202.213 113.694 8
-3 -5 9 208.907 128.304 11
-3 -5 8 540.161 247.551 16
-3 -5 8 432.355 160.91 8
-3 -5 8 338.962 178.751 11
-3 -5 7 1314.34 409.761 16
-3 -5 7 1133.03 216.657 8
-3 -5 7 1265.23 275.037 11
-3 -5 6 251.173 318.961 16
-3 -5 6 89.6438 167.177 11
-3 -5 5 1568.38 389.283 16
-3 -5 5 2180.16 358.369 11
-3 -5 4 1002.32 318.127 16
-3 -5 4 1160.02 810.898 1
-3 -5 4 928.827 224.133 11
-3 -5 3 763.137 281.889 16
-3 -5 3 695.119 240.477 14
-3 -5 3 1181.9 280.192 13
-3 -5 2 12759.1 804.279 16
-3 -5 2 13679.4 837.579 14
-3 -5 2 12781.2 780.271 13
-3 -5 2 14370.2 2400.14 1
-3 -5 1 589.4 249.502 16
-3 -5 1 395.396 802.166 1
-3 -5 1 560.278 253.014 14
-3 -5 1 811.642 221.765 13
-3 -5 1 509.073 224.163 12
-3 -5 0 9255.04 1755.61 1
-3 -5 0 7978.1 582.324 16
-3 -5 0 7091.93 582.232 12
-3 -5 -1 374.799 163.726 16
3 5 1 664.132 561.583 3
-3 -5 -2 5287.7 477.627 12
3 5 2 4536.4 1252.68 3
3 5 3 27264.1 2883.7 3
-3 -5 -3 30268.3 1213.37 12
-3 -5 -4 2953.51 363.393 12
3 5 4 2142.23 689.872 3
3 5 5 51932.8 3961.29 3
-3 -5 -5 50442.6 1707.64 12
3 5 6 52445.9 4050.7 3
-3 -5 -6 51300.3 1729.81 12
3 5 7 2599.72 350.557 9
-3 -5 -7 3154.96 379.843 12
3 5 8 5461.35 483.801 9
-3 -5 -8 5305.69 493.553 12
3 5 9 89.5161 152.756 9
-3 -5 -9 279.67 166.004 12
3 5 10 3920.37 424.919 9
-3 -5 -10 4121.22 406.617 12
3 5 11 259.006 168.185 9
3 5 12 1221.07 242.151 9
3 5 13 231.863 120.184 9
-3 -6 8 3401.66 305.036 11
-3 -6 7 1287.24 364.292 16
-3 -6 7 1115.23 230.458 11
-3 -6 6 329.351 287.891 16
-3 -6 6 585.602 195.714 11
-3 -6 5 1537.3 422.551 16
-3 -6 5 1319.35 289.842 11
-3 -6 4 19172 1196.26 16
-3 -6 4 17414.2 995.129 11
-3 -6 3 194137 5004.23 16
-3 -6 3 190724 4945.56 14
-3 -6 3 195095 4838.83 13
-3 -6 2 435.586 288.054 16
-3 -6 2 270.343 227.178 14
-3 -6 2 299.869 219.985 13
-3 -6 1 108726 3156.16 16
-3 -6 1 107826 3161.28 14
-3 -6 1 115006 7014.79 1
-3 -6 1 111942 3082.27 13
-3 -6 0 1230.78 289.861 16
-3 -6 0 1337.88 286.246 14
-3 -6 0 1740.37 348.09 13
-3 -6 0 1754.47 412.257 12
3 6 0 1075.46 671.276 3
-3 -6 -1 23036.8 1080.67 16
3 6 1 23554.9 2891.88 3
-3 -6 -1 18889.4 1160.45 12
-3 -6 -2 702.426 219.081 16
-3 -6 -2 604.514 244.167 12
3 6 2 1374.08 838.942 3
-3 -6 -3 3118.63 414.087 12
3 6 3 4610.85 1287.09 3
-3 -6 -4 923.85 273.32 12
3 6 4 1072.06 651.268 3
-3 -6 -5 5857.54 573.154 12
3 6 5 6589.57 1549.19 3
-3 -6 -6 15600.1 912.501 12
3 6 7 4948.86 476.933 9
-3 -6 -7 5734.82 557.76 12
3 6 8 134.649 142.626 9
-3 -6 -8 239.45 172.941 12
3 6 9 35338.9 1384 9
-3 -6 -9 39147.5 1460.95 12
3 6 10 95.3505 145.587 9
-3 -6 -10 81.4389 114.129 12
3 6 11 1064.64 221.752 9
3 6 12 158.271 120.708 9
-3 -7 7 -240.08 243.41 16
-3 -7 6 4019.38 502.943 16
-3 -7 6 4866.56 377.841 11
-3 -7 5 7858.05 736.624 16
-3 -7 5 7897.51 559.253 11
-3 -7 4 2900.18 496.018 16
-3 -7 4 2427.27 344.998 11
-3 -7 3 76972.4 2592.28 16
-3 -7 2 50185.6 1911.51 16
-3 -7 2 46246.1 1780.64 14
-3 -7 2 44798.6 1732.71 13
-3 -7 1 18586.6 1102.92 16
-3 -7 1 19283.1 1059.84 14
-3 -7 1 17778.4 1014.97 13
-3 -7 0 2351.73 369.356 16
-3 -7 0 2838.84 506.65 14
-3 -7 0 2541.23 399.406 13
-3 -7 -1 49.5645 229.848 16
-3 -7 -1 -68.0894 219.584 14
-3 -7 -1 337.888 248.653 13
-3 -7 -2 295.806 220.294 16
-3 -7 -2 349.208 240.316 13
-3 -7 -2 243.321 257.551 12
-3 -7 -3 29540.7 1294.24 16
-3 -7 -3 24128.9 1376.39 12
-3 -7 -4 1727.05 333.792 16
-3 -7 -4 2164.89 420.77 12
-3 -7 -5 105.095 206.212 12
-3 -7 -6 12521 901.529 12
-3 -7 -7 2178.83 372.05 12
-3 -7 -8 2234.34 370.756 12
3 7 9 5366.55 434.285 9
-3 -7 -9 5475.85 504.48 12
3 7 10 4237.15 350.213 9
3 7 11 6477.56 404.518 9
-3 -8 5 15605.5 840.731 16
-3 -8 4 9852.16 714.225 16
-3 -8 4 10152.2 556.106 11
-3 -8 3 7386.74 642 16
-3 -8 3 6296.78 495.273 11
-3 -8 2 237.205 252.727 16
-3 -8 1 8010.26 678.322 16
-3 -8 1 8392.84 622.046 14
-3 -8 0 701.513 279.893 16
-3 -8 0 395.37 178.576 14
-3 -8 0 265.326 179.581 13
-3 -8 -1 4245.59 517.027 16
-3 -8 -1 4038.69 472.74 14
-3 -8 -1 3516.97 408.376 13
-3 -8 -2 1183.58 285.793 16
-3 -8 -2 1086.15 273.699 14
-3 -8 -2 987.733 235.42 13
-3 -8 -3 1013.73 266.552 16
-3 -8 -3 1615.24 320.101 14
-3 -8 -3 1157.94 262.848 13
-3 -8 -4 684.79 261.975 16
-3 -8 -4 649.923 221.941 13
-3 -8 -5 7117.68 564.316 16
-3 -8 -5 6282.34 521.856 13
-3 -8 -6 696.055 244.505 16
-3 -8 -7 4192.26 398.807 16
-3 -8 -8 59092.2 1750.12 16
-3 -8 -9 2103.82 245.406 16
-3 -8 -10 8112.82 416.768 16
-3 -9 3 1245.74 225.633 16
-3 -9 2 1191.13 257.192 16
-3 -9 2 840.76 148.046 11
-3 -9 1 1101.53 259.784 16
-3 -9 1 1271.34 217.254 11
-3 -9 0 75.1661 166.116 16
-3 -9 -1 582.734 201.725 16
-3 -9 -2 3789.88 405.042 16
-3 -9 -2 4006.44 362.849 14
-3 -9 -3 1448.06 280.014 16
-3 -9 -3 1158.31 205.469 14
-3 -9 -3 1066.6 190.322 13
-3 -9 -4 -104.99 165.16 16
-3 -9 -4 -23.324 109.773 13
-3 -9 -5 56.7909 131.196 16
-3 -9 -5 114.604 128.181 14
-3 -9 -6 18675.2 799.801 16
-3 -9 -6 20739.8 808.551 14
-3 -9 -7 5439.51 373.923 16
-3 -9 -7 5606.49 367.359 14
-3 -9 -8 31472.2 952.851 16
-4 6 8 1694.13 201.741 19
-4 6 7 2459.84 213.916 20
-4 6 7 2449.5 275.492 19
-4 6 6 13843.6 717.173 19
-4 6 6 14158.4 591.854 20
-4 6 5 586.825 152.898 20
-4 6 5 365.887 158.891 19
-4 6 4 1570.88 267.316 19
-4 6 4 1485.81 207.355 20
-4 6 3 611.71 148.866 20
-4 6 3 857.767 227.098 19
-4 6 3 508.881 156.863 15
-4 6 2 -170.357 116.642 20
-4 6 2 9.95602 140.682 19
-4 6 2 6.57504 95.8183 15
-4 6 1 2377.64 253.407 15
-4 6 1 2270.2 296.042 19
-4 6 0 1198.23 191.096 19
-4 6 0 1512.65 191.792 15
-4 6 -1 102.408 97.5675 19
4 -6 2 59.1141 104.621 8
4 -6 3 5887.13 368.326 8
-4 5 8 892.445 179.041 17
-4 5 7 103.41 144.355 17
-4 5 6 2262.55 315.089 17
-4 5 5 2456.43 337.391 17
-4 5 4 200.937 168.088 17
-4 5 3 1512.09 292.824 20
-4 5 3 1807.51 381.011 19
-4 5 2 8953.26 627.781 20
-4 5 2 9118.99 740.256 19
-4 5 1 11004.7 678.469 20
-4 5 1 10935.7 793.88 19
-4 5 1 10295.5 687.368 15
-4 5 0 727.229 197.801 20
-4 5 0 1064.95 272.296 19
-4 5 0 924.298 219.041 15
-4 5 -1 237.087 136.724 20
-4 5 -1 129.861 143.489 15
-4 5 -1 176.402 157.991 19
-4 5 -2 6197.64 494.894 19
-4 5 -2 7158.87 500.916 15
-4 5 -3 413.903 143.003 19
-4 5 -4 903.395 169.776 19
4 -5 4 693.505 175.74 8
4 -5 5 5963.25 383.45 8
4 -5 6 1414.95 178.89 7
-4 4 10 2077.89 216.701 17
-4 4 9 5657.96 420.356 17
-4 4 8 1322.64 250.589 17
-4 4 7 1087.13 234.25 17
-4 4 6 2926.85 366.062 17
-4 4 5 44416.7 1606.55 17
-4 4 4 3952.05 436.575 17
-4 4 3 18852.5 975.717 17
-4 4 2 7451.38 605.625 17
-4 4 1 15790.8 904.075 20
-4 4 1 15728.3 1076.5 19
-4 4 0 11536.6 767.722 20
-4 4 0 11404.1 850.78 19
-4 4 -1 820.948 243.896 20
-4 4 -1 711.08 252.4 19
-4 4 -1 843.825 233.485 15
-4 4 -2 1509.3 271.256 20
-4 4 -2 1744.69 330.432 19
-4 4 -2 1237.86 248.425 15
-4 4 -3 60432.5 1965.7 19
-4 4 -3 59845.7 1922.11 15
-4 4 -4 9401.78 625.232 19
-4 4 -5 34899.9 1212.8 19
4 -4 5 34272.3 1257.01 8
-4 4 -6 6496.57 408.192 19
4 -4 6 6719.8 435.185 8
4 -4 7 1488.9 224.044 7
4 -4 8 45.8742 92.6115 7
-4 3 11 737.605 125.118 17
-4 3 10 835.161 157.203 17
-4 3 9 3603.3 376.144 17
-4 3 8 99.6849 172.738 17
-4 3 7 1456.07 279.041 17
-4 3 6 1075.3 260.412 17
-4 3 5 1496.64 288.332 17
-4 3 4 34447.2 1387.44 17
-4 3 3 320222 11965.9 2
-4 3 3 319051 7242.24 17
-4 3 2 414.685 172.847 17
-4 3 2 225.613 637.925 2
-4 3 1 9993.22 676.85 17
-4 3 1 8660.87 1634.69 2
-4 3 0 3665.12 439.053 20
-4 3 0 3528.47 502.944 19
-4 3 0 3516.41 419.536 17
-4 3 0 2390.85 956.113 5
-4 3 0 2753.6 953.491 2
-4 3 -1 10851.4 738.244 20
-4 3 -1 10882.1 824.758 19
-4 3 -1 10427.9 730.968 15
-4 3 -2 9270.82 679.671 20
-4 3 -2 8404.67 706.384 19
-4 3 -2 8523.05 662.026 15
-4 3 -3 5692.56 523.934 20
-4 3 -3 5322.69 544.006 19
-4 3 -3 5844.66 540.37 15
-4 3 -4 848.814 259.004 19
-4 3 -4 816.331 228.645 15
-4 3 -5 24169.4 1080.44 19
4 -3 5 22690.7 1021.34 8
-4 3 -6 14946.8 773.482 19
-4 3 -7 467.545 154.836 19
-4 3 -8 14122.1 587.307 19
4 -3 8 11807.5 640.373 7
4 -3 9 1297.32 174.1 7
-4 2 11 547.94 136.908 17
-4 2 10 1342.81 251.378 17
-4 2 9 597.757 229.796 17
-4 2 8 3434.28 435.07 17
-4 2 7 4472.42 487.582 17
-4 2 6 43895.7 1640.27 17
-4 2 5 111653 3096.14 17
-4 2 5 115335 6507.71 2
-4 2 4 43861.8 1580.41 17
-4 2 4 42567.9 3688.55 2
-4 2 3 120428 6336.91 2
-4 2 3 122228 3217.48 17
-4 2 2 18059.7 2238.61 2
-4 2 2 19506.7 930.72 17
-4 2 1 16617.9 2103.42 2
-4 2 1 14150.7 2094.5 5
-4 2 1 18605.9 884.58 17
-4 2 0 659.452 274.934 19
-4 2 0 612.898 183.089 17
-4 2 0 63.9818 353.804 2
-4 2 -1 31885.3 1286.61 20
-4 2 -1 32272.8 1436.4 19
-4 2 -1 28293 3205.13 5
-4 2 -1 33295.5 1223.72 17
-4 2 -2 66371.1 2045.46 20
-4 2 -2 61767.7 2155.29 19
-4 2 -2 58440.4 4696.9 5
-4 2 -2 62735.1 2021.7 15
-4 2 -3 37942.1 1434.82 20
-4 2 -3 35333.4 1481.1 19
-4 2 -3 36718.8 1427 15
-4 2 -4 25082.5 1190.59 19
-4 2 -4 26301.7 1175.83 15
-4 2 -5 8296.94 644.037 19
-4 2 -5 8424.78 641.04 15
-4 2 -6 2326.65 345.85 19
-4 2 -7 161.779 151.287 19
-4 2 -8 3753.59 351.152 19
4 -2 8 3260.64 361.281 7
-4 2 -9 21273 806.235 19
4 -2 9 17316.9 796.163 7
-4 2 -10 289.457 117.064 19
4 -2 10 351.08 111.551 7
-4 1 12 826.141 144.713 17
-4 1 11 22809.4 918.275 17
-4 1 10 3093.01 363.889 17
-4 1 9 1218.48 308.805 17
-4 1 8 885.989 274.228 17
-4 1 7 197.058 189.365 17
-4 1 7 189.9 236.218 11
-4 1 6 1557.35 317.893 17
-4 1 6 606.795 621.104 2
-4 1 6 754.991 294.096 11
-4 1 5 24940.5 1132.23 17
-4 1 5 25466.3 2913.36 2
-4 1 5 22680.4 1154.91 11
-4 1 4 985.629 250.143 17
-4 1 4 339.965 339.98 2
-4 1 3 12812.5 722.96 17
-4 1 3 12622.9 1818.09 2
-4 1 2 -62.6678 279.48 2
-4 1 1 3509.55 924.096 5
-4 1 1 3932.63 932.52 2
-4 1 0 23231.2 2518.59 5
-4 1 0 26982.4 2310.86 2
-4 1 -1 7.863 146.775 19
-4 1 -1 -259.528 413.011 5
-4 1 -2 662.929 188.09 20
-4 1 -2 562.806 214.413 19
-4 1 -2 468.545 346.583 5
-4 1 -2 683.433 183.793 15
-4 1 -3 15860.8 812.341 20
-4 1 -3 15104.4 877.443 19
-4 1 -3 16111.5 2312.97 5
-4 1 -3 15822.9 822.753 15
-4 1 -4 578.396 185.811 20
-4 1 -4 372.397 176.517 19
-4 1 -4 893.624 616.726 5
-4 1 -4 524.69 158.07 15
-4 1 -5 13609.7 822.432 19
-4 1 -5 12910.5 2214.27 5
-4 1 -5 14606.2 817.331 15
-4 1 -6 13239.6 803.033 19
-4 1 -7 4021.08 417.906 19
-4 1 -8 17429.5 878.595 19
4 -1 8 16091.3 852.907 7
-4 1 -9 515.916 171.108 19
4 -1 9 321.9 145.735 7
-4 1 -10 12506 613.464 19
4 -1 10 11271.9 555.628 7
-4 1 -11 715.764 142.305 19
-4 0 12 1000.8 163.794 17
-4 0 11 26411.3 1040.68 17
-4 0 10 22562.4 1064.23 17
-4 0 9 4845.38 470.494 21
-4 0 9 4630.81 512.68 17
-4 0 9 5241.25 627.038 11
-4 0 8 3981.08 436.412 21
-4 0 8 4631.88 523.419 17
-4 0 8 4846.26 565.153 11
-4 0 7 1639.67 309.942 21
-4 0 7 1248.26 289.863 17
-4 0 7 1783.75 360.431 11
-4 0 6 4789.23 456.984 21
-4 0 6 4088.06 473.124 17
-4 0 6 4642.05 514.441 11
-4 0 6 5196.51 1366.33 2
-4 0 5 34153.8 1290.54 21
-4 0 5 33537.1 1387.26 17
-4 0 5 32129.5 1382.88 11
-4 0 4 808.922 201.856 21
-4 0 4 725.165 207.326 17
-4 0 4 220.443 428.042 2
-4 0 3 10484.3 1609.76 2
-4 0 2 97640.4 4808.19 2
-4 0 1 14511.9 1628.18 2
-4 0 0 16140 1849.89 5
-4 0 -1 49724.9 3516.28 5
-4 0 -2 2947.82 935.996 5
-4 0 -3 470.236 167.114 19
-4 0 -3 456.987 166.256 15
-4 0 -4 10709.4 633.034 20
-4 0 -4 10238.3 653.11 19
-4 0 -4 11141.5 1884.75 5
-4 0 -4 10037.9 615.95 15
-4 0 -5 12432.9 745.425 19
-4 0 -5 13033.6 2107.8 5
-4 0 -5 12276.3 724.267 15
-4 0 -6 206348 4995.07 19
-4 0 -6 214363 9728.31 5
-4 0 -7 120384 3243.32 19
-4 0 -8 47866.7 1665.11 19
-4 0 -9 2244.17 315.544 19
-4 0 -9 1504.69 288.451 18
-4 0 -10 9183.88 570.443 19
-4 0 -10 7049.61 513.773 18
-4 0 -11 905.585 182.038 19
-4 0 -11 692.09 142.69 18
-4 -1 12 1189.05 176.777 17
-4 -1 11 454.26 177.356 17
-4 -1 10 3339.58 355.6 21
-4 -1 10 2682.28 379.164 17
-4 -1 10 3158.27 471.748 11
-4 -1 9 17973 922.488 21
-4 -1 9 19160.4 1123.96 11
-4 -1 8 3486.35 402.127 21
-4 -1 8 3976.35 517.509 11
-4 -1 7 4903.06 483.707 21
-4 -1 7 5052.72 559.438 11
-4 -1 6 11835.4 735.651 21
-4 -1 6 11792.5 809.934 11
-4 -1 5 50282.1 1675.42 21
-4 -1 5 50315.8 1782.23 11
-4 -1 4 1488.48 237.093 21
-4 -1 4 1328.65 255.889 11
-4 -1 4 1770.55 774.336 2
-4 -1 3 355.439 269.034 2
-4 -1 2 -214.931 404.263 2
-4 -1 1 3305.71 762.582 2
-4 -1 0 125025 5198.66 5
-4 -1 -1 27269 2393.62 5
-4 -1 -1 24377.5 2185.59 4
-4 -1 -2 25889.9 2493.33 5
-4 -1 -3 795.69 427.162 5
-4 -1 -4 5811.06 465.689 19
-4 -1 -4 6103.21 1269.28 5
-4 -1 -5 15404.4 2235.43 5
-4 -1 -5 16429.9 824.867 19
-4 -1 -6 93785.6 2617.79 19
-4 -1 -7 150168 3813.37 19
-4 -1 -8 10529.9 665.241 19
-4 -1 -8 9243.91 716.391 18
-4 -1 -9 10178.2 676.944 19
-4 -1 -9 9326.57 705.171 18
-4 -1 -10 773.458 220.251 19
-4 -1 -10 615.076 172.124 18
-4 -1 -11 259.599 156.87 19
-4 -1 -11 331.155 133.699 18
-4 -1 -12 320.602 103.669 12
-4 -2 12 9035.02 440.126 17
-4 -2 11 6070.18 386.372 21
-4 -2 11 5202.53 441.542 17
-4 -2 10 8935.62 561.605 21
-4 -2 10 8343.82 690.252 11
-4 -2 9 651.958 184.456 21
-4 -2 9 900.023 278.111 11
-4 -2 8 14613.9 843.09 21
-4 -2 8 14781.3 987.897 11
-4 -2 7 14.9758 161.842 11
-4 -2 6 11705.9 2135.45 1
-4 -2 6 12437.3 848.507 11
-4 -2 5 -806.542 682.838 1
-4 -2 5 310.068 165.258 11
-4 -2 4 5138.5 485.273 11
-4 -2 4 5053.59 1317.77 1
-4 -2 3 34885.6 3213.36 1
-4 -2 2 13451.8 1866.28 1
-4 -2 1 51546.9 3463.3 1
4 2 0 49293.6 2934.48 3
-4 -2 -1 39939.5 2794.57 4
-4 -2 -2 2604.95 775.628 4
-4 -2 -3 17609.9 2117.03 4
-4 -2 -4 2269.48 757.716 4
-4 -2 -5 4641.7 391.149 19
-4 -2 -5 4776.96 1223.5 4
-4 -2 -6 7814.5 529.648 19
-4 -2 -6 8306.96 1644.5 4
-4 -2 -7 591.584 188.855 19
-4 -2 -7 546.055 197.467 18
-4 -2 -7 734.911 424.007 4
-4 -2 -8 2064.18 303.656 19
-4 -2 -8 2010.95 321.021 18
-4 -2 -9 43519.1 1517.32 19
-4 -2 -9 39944.2 1575.48 18
-4 -2 -10 3589.85 398.914 19
-4 -2 -10 3702.21 392.56 18
-4 -2 -11 255.39 161.514 19
-4 -2 -11 67.5926 122.339 12
4 2 12 2562.29 263.833 9
-4 -2 -12 1979.01 214.314 12
-4 -3 11 6043.21 338.74 21
-4 -3 11 3882.14 344.908 17
-4 -3 10 4900.8 386.407 21
-4 -3 10 4227.95 452.206 11
-4 -3 9 2858.85 336.923 21
-4 -3 9 3059.51 412.151 11
-4 -3 8 1308.64 276.855 11
-4 -3 7 50.4835 177.409 11
-4 -3 6 66725.8 2265.09 11
-4 -3 5 1728.66 773.043 1
-4 -3 5 6757.5 648.111 11
-4 -3 4 175.623 618.957 1
-4 -3 4 288.45 152.225 11
-4 -3 3 410.211 172.168 14
-4 -3 3 167.073 147.477 11
-4 -3 2 39711.8 3589.36 1
-4 -3 1 53640.8 3978.87 1
-4 -3 0 9247.28 1537.31 1
4 3 1 6132.7 1151.94 3
4 3 2 2935.97 839.071 3
-4 -3 -3 8026.94 1481.12 4
4 3 3 8652.85 1308.25 3
-4 -3 -4 12480.7 729.693 18
-4 -3 -4 14092.1 2015.27 4
4 3 4 12745.9 1660.83 3
-4 -3 -5 119.299 115.655 19
-4 -3 -5 230.59 141.792 18
-4 -3 -5 748.287 589.706 4
4 3 5 891.675 419.112 3
-4 -3 -6 69964.8 2032.14 19
-4 -3 -6 72815.7 2250.19 18
-4 -3 -7 4851.28 438.015 19
-4 -3 -7 4969.51 492.707 18
-4 -3 -7 5313.68 1346.11 4
-4 -3 -8 3146.24 381.971 19
-4 -3 -8 3227.56 407.275 18
-4 -3 -9 10492.5 659.562 19
-4 -3 -9 10831.9 714.405 18
-4 -3 -9 9517.85 643.235 12
-4 -3 -10 38009.2 1424.54 19
-4 -3 -10 39266.2 1416.54 18
-4 -3 -10 35307.5 1352.26 12
-4 -3 -11 6670.12 538.322 19
4 3 11 5907.02 451.137 9
-4 -3 -11 6318.75 449.207 12
4 3 12 3256.76 296.43 9
4 3 13 2173.34 203.363 9
-4 -4 10 129.836 85.9875 21
-4 -4 10 74.9556 113.356 11
-4 -4 9 7996.19 526.475 21
-4 -4 9 7377.04 567.05 11
-4 -4 8 12002.4 804.618 11
-4 -4 7 9217.49 710.016 11
-4 -4 6 167.63 204.07 11
-4 -4 5 1207.25 307.684 11
-4 -4 4 1741.84 287.84 13
-4 -4 4 2076.24 338.147 11
-4 -4 3 507.924 211.377 14
-4 -4 3 201.519 189.949 13
-4 -4 3 133.189 650.807 1
-4 -4 3 397.223 169.022 11
-4 -4 2 8554.71 646.049 14
-4 -4 2 9532.34 616.944 13
-4 -4 2 10996.3 2069.55 1
-4 -4 1 5295.56 490.696 14
-4 -4 1 6481.39 1417.94 1
-4 -4 0 4925.43 1352.05 1
4 4 0 2768.27 969.131 3
4 4 1 8587.74 1520.08 3
-4 -4 -2 893.435 216.381 12
4 4 2 528.168 514.034 3
-4 -4 -3 49411.9 1677.11 18
4 4 3 47810.7 3603.54 3
-4 -4 -3 52890.3 1681.96 12
-4 -4 -4 9637.76 655.289 18
4 4 4 8399.17 1489.61 3
-4 -4 -4 9978.68 644.168 12
-4 -4 -5 19925.3 1005.55 18
4 4 5 21249.8 2375.73 3
-4 -4 -5 20327.6 990.443 12
-4 -4 -6 428.772 202.519 18
-4 -4 -6 236.852 187.011 12
4 4 6 430.135 577.391 3
-4 -4 -7 26716.2 1143.17 19
-4 -4 -7 28171 1292.26 18
-4 -4 -7 28174.7 1206.37 12
-4 -4 -8 3483.51 414.231 19
-4 -4 -8 3816.55 446.126 18
-4 -4 -8 3718.94 406.934 12
-4 -4 -9 18608.2 955.317 19
4 4 9 17828.3 882.891 9
-4 -4 -9 18333.4 912.741 12
4 4 10 5815.57 474.261 9
-4 -4 -10 5784.29 446.768 12
4 4 11 66.7156 134.83 9
-4 -4 -11 244.154 141.954 12
4 4 12 9326.63 515.674 9
-4 -5 9 66.1692 98.218 21
-4 -5 9 352.257 133.332 11
-4 -5 8 1774.59 284.243 11
-4 -5 7 2415.46 409.734 16
-4 -5 7 2483.68 360.959 11
-4 -5 6 8677.48 753.143 16
-4 -5 6 8851.69 691.214 11
-4 -5 5 1076.2 324.47 16
-4 -5 5 960.118 275.071 11
-4 -5 4 -28.3039 197.235 16
-4 -5 4 128.644 165.036 11
-4 -5 3 2941.75 409.033 16
-4 -5 3 2890.77 426.184 14
-4 -5 3 2538.05 411.049 13
-4 -5 3 2877.13 397.744 11
-4 -5 2 16037.9 921.499 16
-4 -5 2 16039.6 971.889 14
-4 -5 2 18022.3 928.069 13
-4 -5 2 19202.6 2793.21 1
-4 -5 1 1500.07 278.876 16
-4 -5 1 1810.36 339.228 14
-4 -5 1 1760.39 342.164 13
-4 -5 1 2374.31 910.908 1
-4 -5 0 13827.8 2316.35 1
-4 -5 0 11034.7 704.626 16
4 5 0 12410.7 2066.56 3
-4 -5 0 11162.7 744.872 12
-4 -5 -1 1411.28 282.88 16
-4 -5 -1 1213.65 303.967 12
4 5 1 484.426 412.693 3
4 5 2 13173.7 1998.58 3
-4 -5 -2 14385.5 840.126 12
-4 -5 -3 3487.61 406.465 12
4 5 3 3839.65 1051.03 3
4 5 4 32592.3 3189.98 3
-4 -5 -4 36488 1416.24 12
4 5 5 18652 2399.65 3
-4 -5 -5 16857.2 930.928 12
-4 -5 -6 7956.34 620.738 12
-4 -5 -7 3233.74 422.319 12
4 5 8 10247.3 636.709 9
-4 -5 -8 10452.7 709.957 12
4 5 9 95572 2647 9
-4 -5 -9 103585 2762.34 12
4 5 10 14622.5 763.861 9
-4 -5 -10 17905.2 816.075 12
4 5 11 3468.47 341.543 9
-4 -5 -11 4341.16 340.172 12
4 5 12 1232.33 185.351 9
-4 -6 8 2332.47 243.161 11
-4 -6 7 1907.75 326.94 16
-4 -6 7 2472.69 314.141 11
-4 -6 6 -107.829 198.416 16
-4 -6 6 -60.1929 136.466 11
-4 -6 5 2891.04 450.905 16
-4 -6 5 2054.62 354.423 11
-4 -6 4 465.693 247.594 16
-4 -6 4 687.847 241.375 11
-4 -6 3 1192.37 305.918 16
-4 -6 3 1067.12 319.736 14
-4 -6 3 1228.59 275.025 13
-4 -6 3 859.704 256.112 11
-4 -6 2 11914.8 814.342 16
-4 -6 2 11847.8 853.614 14
-4 -6 2 11085.1 793.743 13
-4 -6 1 5387.72 566.971 16
-4 -6 1 5188.53 546.33 14
-4 -6 1 4308.24 497.977 13
-4 -6 0 2099 349.904 16
-4 -6 0 2219.96 409.582 14
-4 -6 0 2485.71 384.712 13
-4 -6 0 1481.69 342.715 12
-4 -6 -1 15898.8 899.447 16
-4 -6 -1 12657 902.314 12
-4 -6 -2 6261.27 557.525 16
-4 -6 -2 5186.9 607.437 12
-4 -6 -3 22296.6 1187.94 12
-4 -6 -4 41997.6 1692.78 12
-4 -6 -5 3532.93 485.228 12
-4 -6 -6 13712.6 854.351 12
-4 -6 -7 138.82 165.062 12
-4 -6 -8 103.038 192.856 12
-4 -6 -9 14654.9 799.291 12
4 6 10 604.053 158.485 9
-4 -6 -10 614.742 173.86 12
4 6 11 16946.4 681.628 9
-4 -6 -11 19024.9 729.172 12
-4 -7 6 147.4 175.497 16
-4 -7 6 30.1653 94.1852 11
-4 -7 5 487.181 224.554 16
-4 -7 5 175.922 146.475 11
-4 -7 4 487.086 296.88 16
-4 -7 4 366.109 182.12 11
-4 -7 3 5607.06 586.463 16
-4 -7 3 6510.08 566.385 11
-4 -7 2 1942.11 382.767 16
-4 -7 2 1440.89 292.353 14
-4 -7 2 1062.05 284.611 13
-4 -7 1 146.874 232.496 16
-4 -7 1 115.071 222.878 14
-4 -7 1 158.569 210.957 13
-4 -7 0 998.853 304.592 16
-4 -7 0 864.107 271.333 14
-4 -7 0 1039.81 280.263 13
-4 -7 -1 1767.05 302.934 16
-4 -7 -1 1957.51 365.063 14
-4 -7 -1 1404.82 340.874 13
-4 -7 -2 14651.5 863.149 16
-4 -7 -2 12963 866.597 13
-4 -7 -3 9173.95 663.603 16
-4 -7 -3 6491.85 742.737 12
-4 -7 -4 15315.1 859.115 16
-4 -7 -4 11522.9 917.97 12
-4 -7 -5 31263.6 1266.25 16
-4 -7 -5 23407.8 1322.57 12
-4 -7 -6 755.516 298.936 12
-4 -7 -7 6403.24 616.03 12
-4 -7 -8 2126.6 332.859 12
-4 -7 -9 2698.62 333.345 12
-4 -7 -10 395.082 147.987 12
-4 -8 4 33911.8 1322.56 16
-4 -8 4 39255.6 1195.95 11
-4 -8 3 795.832 268.158 16
-4 -8 3 836.963 191.314 11
-4 -8 2 39830.6 1545.2 16
-4 -8 2 39680.9 1416.23 11
-4 -8 1 1714.06 321.708 16
-4 -8 0 21547.1 1062.17 16
-4 -8 0 22308.5 1063.66 14
-4 -8 0 21707.6 988.792 13
-4 -8 -1 193.917 235.336 16
-4 -8 -1 226.287 198.541 14
-4 -8 -1 -41.1215 177.489 13
-4 -8 -2 1641.49 308.5 16
-4 -8 -2 2122.18 356.194 14
-4 -8 -2 1674.86 290.276 13
-4 -8 -3 80.1198 168.681 16
-4 -8 -3 180.715 165.606 14
-4 -8 -3 79.8713 190.21 13
-4 -8 -4 2713.12 365.982 16
-4 -8 -4 2953.58 368.206 13
-4 -8 -5 780.921 220.973 16
-4 -8 -5 1403.3 279.226 13
-4 -8 -5 793.367 297.118 12
-4 -8 -6 1183.08 240.782 16
-4 -8 -6 1204.95 282.321 12
-4 -8 -7 1790.68 258.225 16
-4 -8 -7 1788.7 315.062 12
-4 -8 -8 15262.3 699.57 16
-4 -8 -9 94.552 90.8487 16
-4 -9 1 2582.43 318.53 16
-4 -9 1 2509.06 253.603 11
-4 -9 0 -176.858 172.483 16
-4 -9 0 36.8316 95.2986 11
-4 -9 -1 148.495 141.698 16
-4 -9 -2 6980.98 490.863 16
-4 -9 -2 6894.83 453.196 14
-4 -9 -2 6138.15 410.281 13
-4 -9 -3 233.527 169.268 16
-4 -9 -3 226.978 162.098 14
-4 -9 -3 -56.5406 116.147 13
-4 -9 -4 2155.72 283.687 16
-4 -9 -4 1752.2 241.535 14
-4 -9 -4 1924 240.696 13
-4 -9 -5 7676.07 485.686 16
-4 -9 -5 8292.26 485.605 14
-4 -9 -5 7344.94 425.788 13
-4 -9 -6 2293.27 251.626 16
-4 -9 -6 2480.56 258.878 14
-4 -9 -6 2251.93 224.191 13
-4 -9 -7 35.4084 92.0496 16
-4 -9 -7 503.356 129.656 14
-5 5 7 9605.8 406.412 20
-5 5 7 7717.92 412.806 19
-5 5 6 9177.7 444.942 20
-5 5 6 8653.33 494.162 19
-5 5 5 286.097 127.162 20
-5 5 5 42.2932 108.947 19
-5 5 4 4281.42 337.131 20
-5 5 4 4301.91 380.13 19
-5 5 4 4144.23 338.195 15
-5 5 3 28.5313 111.22 20
-5 5 3 261.335 153.134 19
-5 5 3 84.3506 118.35 15
-5 5 2 1765.74 228.86 20
-5 5 2 1548.78 247.217 19
-5 5 2 1685.78 219.395 15
-5 5 1 74.0421 94.8792 20
-5 5 1 252.861 172.533 19
-5 5 1 292.863 123.258 15
-5 5 0 300.999 133.802 19
-5 5 0 361.868 138.886 15
-5 5 -1 2283.26 249.336 19
-5 5 -2 549.76 122.037 19
-5 4 8 1649.01 210.832 19
-5 4 8 1919.81 203.953 17
-5 4 7 17700.2 831.244 19
-5 4 7 22498.2 838.232 17
-5 4 6 359.26 186.533 19
-5 4 6 -9.38224 107.24 17
-5 4 5 1932.97 334.804 19
-5 4 5 2556.12 305.697 17
-5 4 4 2598.56 363.261 19
-5 4 4 2720.39 335.021 17
-5 4 3 236.629 161.957 20
-5 4 3 457.832 226.899 19
-5 4 2 6823.25 527.102 20
-5 4 2 7061.39 597.646 19
-5 4 1 168.298 147.605 20
-5 4 1 60.333 160.919 19
-5 4 1 148.751 156.83 15
-5 4 0 56.7283 164.422 20
-5 4 0 -33.7305 165.355 19
-5 4 0 115.474 146.592 15
-5 4 -1 983.073 258.288 20
-5 4 -1 553.429 190.144 19
-5 4 -1 1161.54 240.742 15
-5 4 -2 9950.63 654.234 19
-5 4 -2 11881.9 659.72 15
-5 4 -3 232.92 133.56 19
-5 4 -4 7621.07 440.775 19
-5 4 -5 3151.14 240.552 19
-5 3 9 1197.99 173.536 17
-5 3 8 69.7041 119.236 17
-5 3 7 -17.945 134.968 17
-5 3 6 1124.94 254.127 17
-5 3 5 873.107 236.439 17
-5 3 4 2103.81 400.434 19
-5 3 4 2184.85 318.958 17
-5 3 3 4600.19 530.846 19
-5 3 3 5031.69 480.133 17
-5 3 2 8782.59 767.781 19
-5 3 2 9247.84 637.728 17
-5 3 1 738.908 266.259 20
-5 3 1 518.528 231.805 19
-5 3 1 658.21 208.741 17
-5 3 0 64.5495 159.869 20
-5 3 0 56.5459 178.213 19
-5 3 0 -217.196 179.558 15
-5 3 -1 2458.94 367.037 20
-5 3 -1 2262.39 359.223 19
-5 3 -1 2377.83 354.839 15
-5 3 -2 1566.31 277.311 20
-5 3 -2 1201.7 297.132 19
-5 3 -2 1265.75 245.362 15
-5 3 -3 5113 489.001 19
-5 3 -3 5605.67 498.743 15
-5 3 -4 6461.03 518.387 19
-5 3 -5 514.738 176.346 19
-5 3 -6 272.984 125.114 19
-5 3 -7 1800.48 181.79 19
5 -3 7 1690.03 184.24 7
-5 2 10 3771.55 289.918 17
-5 2 9 2547.58 269.773 17
-5 2 8 2576.87 316.344 17
-5 2 7 1879.57 308.099 17
-5 2 6 34784.9 1370.03 17
-5 2 5 2891.11 385.433 17
-5 2 4 7060.02 567.881 17
-5 2 3 4262.5 561.787 19
-5 2 3 4024.25 434.855 17
-5 2 2 5139.31 583.378 19
-5 2 2 5010.28 473.956 17
-5 2 1 7007.17 655.182 19
-5 2 1 6861.82 542.867 17
-5 2 0 712.039 240.595 20
-5 2 0 426.397 230.711 19
-5 2 0 687.747 218.363 17
-5 2 -1 44.6691 175.882 20
-5 2 -1 -51.0983 192.064 19
-5 2 -1 221.443 203.469 15
-5 2 -2 55845.8 1876.77 20
-5 2 -2 52852.4 1944.64 19
-5 2 -2 55014.1 1880.14 15
-5 2 -3 7494.55 617.911 19
-5 2 -3 7827.55 610.578 15
-5 2 -4 56548.4 1956.75 19
-5 2 -4 61097.3 1947.31 15
-5 2 -5 2873.35 367.546 19
-5 2 -6 7795.65 544.405 19
-5 2 -7 520.284 145.658 19
5 -2 7 47.6329 99.4804 7
-5 2 -8 8878.17 434.864 19
-5 2 -8 6022.76 424.273 18
-5 1 11 70.6316 82.7255 17
-5 1 10 1491.01 213.586 17
-5 1 9 260.273 132.711 17
-5 1 8 990.247 255.293 17
-5 1 7 290.205 205.068 17
-5 1 6 423.677 242.774 17
-5 1 5 41980.7 1580.39 17
-5 1 4 254876 5959.52 17
-5 1 3 80.8032 157.928 19
-5 1 3 151.057 189.754 17
-5 1 2 13382.7 944.713 19
-5 1 2 19197.5 914.626 17
-5 1 1 846.114 273.567 19
-5 1 1 1623.02 262.832 17
-5 1 0 5597.93 517.792 20
-5 1 0 4062.56 510.537 19
-5 1 -1 18592.4 950.019 20
-5 1 -1 15969.8 972.702 19
-5 1 -1 17170 922.334 15
-5 1 -2 7442.67 588.996 20
-5 1 -2 6549.47 583.865 19
-5 1 -2 6652.86 568.1 15
-5 1 -3 1404.79 312.106 20
-5 1 -3 991.912 302.276 19
-5 1 -3 1463.04 324.676 15
-5 1 -4 18192.8 997.289 19
-5 1 -4 19743.2 985.062 15
-5 1 -5 21574.5 1043.59 19
-5 1 -6 1510.67 266.55 19
-5 1 -7 13270.1 726.323 19
-5 1 -8 3120.23 312.024 19
-5 1 -9 284.22 112.012 19
-5 1 -9 297.455 114.988 18
-5 0 11 293.677 111.161 17
-5 0 10 126.01 137.9 17
-5 0 9 1418.62 259.976 17
-5 0 8 823.846 252.31 17
-5 0 7 30741.5 1308.09 17
-5 0 7 29105.8 1379.04 11
-5 0 6 63421 2072.63 17
-5 0 6 58518.6 2113.35 11
-5 0 5 21080.1 1062.37 17
-5 0 4 138163 3620.36 17
-5 0 3 32724.3 1292.2 17
-5 0 2 22833.7 1002.14 17
-5 0 1 262.741 202.271 19
-5 0 0 12623.6 726.73 20
-5 0 0 14934.9 892.837 19
-5 0 -1 40379.5 1493.06 20
-5 0 -1 43652.7 1533.75 15
-5 0 -2 59452.1 1916.38 20
-5 0 -2 67276.4 2112.23 19
-5 0 -2 69137.9 4921.96 5
-5 0 -2 62480 1965.19 15
-5 0 -3 38985.4 1431.88 20
-5 0 -3 41953.4 1588.18 19
-5 0 -3 43968.7 3996.5 5
-5 0 -3 40498.5 1481.9 15
-5 0 -4 10343.1 695.546 19
-5 0 -4 8816.88 630.922 15
-5 0 -5 10031.4 679.614 19
-5 0 -6 494.719 216.272 19
-5 0 -7 10419.3 651.536 19
-5 0 -8 22115.9 931.444 19
-5 0 -8 17968.3 970.491 18
-5 0 -9 589.586 161.091 19
-5 0 -9 544.978 162.005 18
-5 0 -10 885.516 157.562 19
-5 0 -10 463.391 116.039 18
-5 -1 11 722.954 145.194 17
-5 -1 10 675.635 162.017 17
-5 -1 9 1379.52 267.924 17
-5 -1 9 1923.08 356.694 11
-5 -1 8 453.989 198.752 21
-5 -1 8 125.253 169.553 17
-5 -1 8 154.977 176.014 11
-5 -1 7 122.872 185.138 21
-5 -1 7 417.873 224.164 17
-5 -1 7 450.394 256.692 11
-5 -1 6 23614.6 1076.06 21
-5 -1 6 22811.5 1154.15 17
-5 -1 6 22294.4 1173.08 11
-5 -1 5 1244.09 254.74 21
-5 -1 5 1169 267.459 17
-5 -1 5 1368.2 326.137 11
-5 -1 4 3678.5 379.028 21
-5 -1 4 4121.37 435.767 17
-5 -1 4 3887.39 433.754 11
-5 -1 3 989.294 211.753 21
-5 -1 3 873.667 222.29 17
-5 -1 -1 1657.5 266.737 19
-5 -1 -2 11833.9 717.804 19
-5 -1 -2 11712.5 652.912 15
-5 -1 -3 55.1064 143.187 19
-5 -1 -3 -80.483 478.232 5
-5 -1 -3 178.496 396.612 4
-5 -1 -3 371.657 179.272 15
-5 -1 -4 1218.13 276.954 19
-5 -1 -4 1346.3 711.731 4
-5 -1 -5 8385.4 609.85 19
-5 -1 -6 11933.2 724.971 19
-5 -1 -7 17199.9 857.487 19
-5 -1 -7 14588.5 923.26 18
-5 -1 -8 160.472 137.377 19
-5 -1 -8 -30.1961 154.969 18
-5 -1 -9 7944.62 524.414 19
-5 -1 -9 7246.26 551.038 18
-5 -1 -10 295.136 120.737 19
-5 -1 -10 272.859 124.026 18
-5 -1 -11 478.725 118.451 19
-5 -1 -11 307.852 97.7909 12
-5 -2 10 2320.19 281.33 17
-5 -2 9 8702.52 537.685 21
-5 -2 9 7832.49 571.72 17
-5 -2 9 8258.56 634.865 11
-5 -2 8 6683.59 510.077 21
-5 -2 8 6353.57 560.362 17
-5 -2 8 5889.7 585.475 11
-5 -2 7 1963.21 302.324 21
-5 -2 7 1514.49 277.564 17
-5 -2 7 1638.35 323.838 11
-5 -2 6 17838 920.445 21
-5 -2 6 18122.2 1027.99 11
-5 -2 5 370.149 173.686 21
-5 -2 5 389.118 153.283 17
-5 -2 5 402.422 209.041 11
-5 -2 4 7146.73 543.696 21
-5 -2 4 6648.45 572.371 17
-5 -2 4 6177.93 567.443 11
-5 -2 3 24220.8 1016.72 21
-5 -2 3 23789.3 1101.35 11
-5 -2 -2 3965.62 405.8 18
-5 -2 -3 6011.53 1321.08 4
-5 -2 -4 12443.6 706.006 19
-5 -2 -4 13198.5 814.193 18
-5 -2 -4 14873.9 2193.42 4
-5 -2 -5 158150 3920.58 19
-5 -2 -5 162257 4197.42 18
-5 -2 -6 85708.7 2443.88 19
-5 -2 -6 88932.7 2688.17 18
-5 -2 -7 67814.1 2025.06 19
-5 -2 -7 67022.7 2225.68 18
-5 -2 -8 9284.39 590.488 19
-5 -2 -8 8696.77 648.335 18
-5 -2 -9 14339.8 711.373 19
-5 -2 -9 14311.9 775.952 18
-5 -2 -9 12440.7 742.223 12
-5 -2 -10 265.193 142.175 19
-5 -2 -10 146.299 127.693 18
-5 -2 -10 -102.922 142.836 12
-5 -2 -11 2912.26 282.561 19
5 2 11 2397.71 234.824 9
-5 -2 -11 2452.46 239.994 12
-5 -3 10 3756.58 310.669 17
-5 -3 9 2015.73 266 21
-5 -3 9 1167.95 210.801 17
-5 -3 9 1721.4 301.925 11
-5 -3 8 1835.07 273.853 21
-5 -3 8 1950.42 328.966 11
-5 -3 7 12871.6 736.642 21
-5 -3 7 12143.5 823.172 11
-5 -3 6 13359.6 775.183 21
-5 -3 6 13392.9 871.086 11
-5 -3 5 1079.06 242.024 11
-5 -3 4 485.392 205.627 11
-5 -3 3 531.786 210.209 11
-5 -3 2 8723.81 631.098 11
-5 -3 -2 625.659 209.509 12
-5 -3 -3 5601.49 483.212 18
-5 -3 -3 5272.68 476.994 12
-5 -3 -4 7771.2 596.128 18
-5 -3 -4 7222.68 1515.93 4
-5 -3 -4 7660.07 577.262 12
-5 -3 -5 104907 2969.35 18
-5 -3 -5 101950 2921.96 12
-5 -3 -6 138051 3468.75 19
-5 -3 -6 144875 3762.37 18
-5 -3 -6 138605 3715.39 12
-5 -3 -7 4324.89 393.904 19
-5 -3 -7 3761.97 435.659 18
-5 -3 -7 4046.01 416.355 12
-5 -3 -8 5055.85 420.242 19
-5 -3 -8 5064.83 480.74 18
-5 -3 -8 4273.35 408.966 12
-5 -3 -9 1339.2 221.747 19
-5 -3 -9 1260.02 255.341 18
-5 -3 -9 1254.7 229.785 12
-5 -3 -10 2036.34 266.75 19
5 3 10 1919.89 256.112 9
-5 -3 -10 1464.97 226.776 12
5 3 11 2214.61 227.256 9
-5 -3 -11 3106.4 256.214 12
-5 -4 9 1091.98 165.233 21
-5 -4 9 1162.89 223.905 11
-5 -4 8 88.2369 116.513 21
-5 -4 8 140.987 160.846 11
-5 -4 7 2201.4 273.949 21
-5 -4 7 2084.21 340.315 11
-5 -4 6 -226.485 227.544 11
-5 -4 5 613.342 242.675 11
-5 -4 4 14205.4 880.758 11
-5 -4 3 935.458 253.881 11
-5 -4 2 17017.9 947.222 14
-5 -4 2 17650.7 955.805 11
-5 -4 1 24278 1145.75 14
-5 -4 1 24492.6 1122.96 11
-5 -4 0 19069 972.929 14
-5 -4 0 20339.7 978.069 11
-5 -4 -1 1748.54 302.549 14
-5 -4 -2 13616.4 767.554 12
-5 -4 -3 698.631 239.919 18
-5 -4 -3 122.571 180.356 12
-5 -4 -4 8663.78 652.383 18
-5 -4 -4 8305.96 638.125 12
-5 -4 -5 14886.3 885.436 18
-5 -4 -5 14001.6 846.476 12
-5 -4 -6 161.395 150.849 18
-5 -4 -6 440.018 201.564 12
-5 -4 -7 9839.53 710.524 18
-5 -4 -7 9983.31 677.937 12
-5 -4 -8 43688 1442.16 19
-5 -4 -8 44275.5 1579.68 18
-5 -4 -8 41509.3 1507.36 12
-5 -4 -9 5656.88 433.17 19
5 4 9 5309.76 390.365 9
-5 -4 -9 6361.69 480.536 12
5 4 10 101.743 103.5 9
-5 -4 -10 317.766 196.615 12
5 4 11 6513.29 368.877 9
-5 -4 -11 7748.76 409.375 12
-5 -5 8 491.025 120.81 21
-5 -5 8 172.086 108.07 17
-5 -5 8 222.542 134.885 11
-5 -5 7 21367.9 871.677 21
-5 -5 7 21699.3 974.841 11
-5 -5 6 591.164 188.655 11
-5 -5 5 233.112 163.445 11
-5 -5 4 111.157 158.414 11
-5 -5 3 13245.5 779.368 13
-5 -5 3 16202.9 941.965 11
-5 -5 2 14234.2 907.823 14
-5 -5 2 14597.3 832.01 13
-5 -5 2 15678.4 921.55 11
-5 -5 1 58.9694 155.186 14
-5 -5 1 -10.1818 164.243 13
-5 -5 1 -236.287 186.416 11
-5 -5 0 146.918 173.033 14
-5 -5 0 318.119 213.236 13
-5 -5 -1 3072.26 422.603 14
-5 -5 -1 3344.69 401.114 12
-5 -5 -2 1146.32 277.089 12
-5 -5 -3 5402.89 544.995 12
-5 -5 -4 1292.53 317.456 12
-5 -5 -5 34540.8 1441.25 12
-5 -5 -6 3131.73 416.953 12
-5 -5 -7 2588.14 377.809 12
-5 -5 -8 5861.07 507.398 12
-5 -5 -9 8320.87 530.322 12
-5 -5 -10 4711.93 364.537 12
-5 -5 -11 8021.77 394.452 12
-5 -6 7 771.681 141.593 21
-5 -6 7 689.688 165.129 11
-5 -6 6 292.114 127.027 11
-5 -6 5 2742.85 346.983 11
-5 -6 4 -262.102 207.194 11
-5 -6 3 3072.78 392.856 11
-5 -6 2 1839.22 363.32 14
-5 -6 2 2062.91 316.561 13
-5 -6 2 1738.37 304.114 11
-5 -6 1 2157.64 338.661 16
-5 -6 1 2111.86 376.847 14
-5 -6 1 2455.17 354.84 13
-5 -6 1 1571.89 280.988 11
-5 -6 0 3750.18 431.784 16
-5 -6 0 3404.84 449.992 14
-5 -6 0 3158.42 425.163 13
-5 -6 -1 422.564 212.774 16
-5 -6 -1 553.073 267.029 14
-5 -6 -1 329.667 227.538 13
-5 -6 -1 361.298 224.373 12
-5 -6 -2 9084.13 635.782 16
-5 -6 -2 10285.1 733.732 14
-5 -6 -2 7892.97 680.983 12
-5 -6 -3 6164.6 507.272 16
-5 -6 -3 6140.56 588.134 12
-5 -6 -4 7028.96 551.298 16
-5 -6 -4 6780.72 650.421 12
-5 -6 -5 439.32 246.23 12
-5 -6 -6 7276.1 603.266 12
-5 -6 -7 2679.04 373.889 12
-5 -6 -8 5562.88 469.086 12
-5 -6 -9 7489.02 488.293 12
-5 -6 -10 509.102 148.738 12
-5 -7 5 565.468 142.569 11
-5 -7 4 1210.93 220.47 11
-5 -7 3 4390.51 461.991 16
-5 -7 3 5341.87 451.287 11
-5 -7 2 590.824 186.389 16
-5 -7 2 361.205 155.863 11
-5 -7 1 2745.55 369.207 16
-5 -7 1 3035.77 415.118 14
-5 -7 1 2862.73 358.31 13
-5 -7 1 2910.09 367.176 11
-5 -7 0 1221.8 269.651 16
-5 -7 0 1113.67 289.674 14
-5 -7 0 1267.36 275.288 13
-5 -7 -1 4545.48 475.238 16
-5 -7 -1 5466.08 524.123 14
-5 -7 -1 5233.45 496.897 13
-5 -7 -2 1014.18 236.046 16
-5 -7 -2 816.378 261.926 14
-5 -7 -2 859.933 268.68 13
-5 -7 -2 483.75 237.923 12
-5 -7 -3 6673.44 529.439 16
-5 -7 -3 7053.94 595.268 14
-5 -7 -3 6900.73 554.769 13
-5 -7 -3 5223.84 575.668 12
-5 -7 -4 8591.31 590.69 16
-5 -7 -4 6787.39 651.762 12
-5 -7 -5 1989.6 289.121 16
-5 -7 -5 1474.97 340.321 12
-5 -7 -6 341.684 163.495 16
-5 -7 -6 67.0318 178.988 12
-5 -7 -7 4287.03 363.364 16
-5 -7 -7 3650.98 401.457 12
-5 -7 -8 57481.6 1596.33 16
-5 -7 -8 55766 1726.45 12
-5 -7 -9 13382 553.903 16
-5 -7 -9 13386 630.181 12
-5 -8 3 5623.25 366.599 11
-5 -8 2 712.268 195.012 16
-5 -8 2 588.961 150.851 11
-5 -8 1 611.213 205.601 16
-5 -8 1 816.225 200.288 11
-5 -8 0 5043.71 435.211 16
-5 -8 0 5436.14 454.935 14
-5 -8 0 4752.57 394.506 13
-5 -8 0 4983.93 434.851 11
-5 -8 -1 2158.54 305.075 16
-5 -8 -1 2280.19 309.25 14
-5 -8 -1 1806.86 258.793 13
-5 -8 -1 2193.85 300.447 11
-5 -8 -2 5982.39 478.629 16
-5 -8 -2 6121.63 490.534 14
-5 -8 -2 5645.18 436.644 13
-5 -8 -3 16135.8 789.852 16
-5 -8 -3 17922.8 846.208 14
-5 -8 -3 15904.8 767.144 13
-5 -8 -4 2523.9 304.638 16
-5 -8 -4 2874.29 334.992 14
-5 -8 -4 2785.34 328.262 13
-5 -8 -5 8765.48 523.783 16
-5 -8 -5 9625.99 582.508 14
-5 -8 -5 8120.33 525.257 13
-5 -8 -6 682.209 169.68 16
-5 -8 -6 851.035 202.092 14
-5 -8 -6 779.581 187.438 13
-5 -8 -6 870.165 210.678 12
-5 -8 -7 903.911 171.833 16
-5 -8 -7 1019.39 182.659 14
-5 -8 -7 922.65 170.718 13
-5 -8 -8 1607.55 187.001 14
-5 -8 -8 1258.82 165.999 13
-5 -9 -2 5974.11 361.025 11
-5 -9 -3 5107.8 344.254 16
-5 -9 -3 5365.13 351.009 14
-5 -9 -3 5416.24 328.561 13
-5 -9 -4 12609.9 535.956 14
-5 -9 -4 11285.3 489.461 13
-6 4 4 2877.45 229.81 20
-6 4 4 2230.75 216.692 19
-6 4 4 2549.33 220.156 15
-6 4 3 7850.32 399.857 20
-6 4 3 6524.87 386.426 19
-6 4 3 7207.34 386.769 15
-6 4 2 19052.4 727.403 19
-6 4 2 18069.4 694.384 15
-6 4 1 2482.32 242.228 19
-6 4 1 2701.17 235.256 15
-6 4 0 1314.19 170.625 19
-6 4 0 1268.88 165.754 15
-6 4 -1 304.499 108.548 19
-6 3 7 11192.9 448.79 17
-6 3 6 98.5814 102.237 20
-6 3 6 179.089 93.6574 17
-6 3 5 150.582 106.576 20
-6 3 5 181.139 105.6 19
-6 3 5 247.222 112.762 17
-6 3 5 342.423 117.836 15
-6 3 4 14.2333 121.452 20
-6 3 4 130.868 109.078 19
-6 3 4 -187.113 124.56 15
-6 3 3 1969.93 249.195 20
-6 3 3 1504.2 249.244 19
-6 3 3 1793.07 246.54 15
-6 3 2 1178.81 206.699 20
-6 3 2 1008.94 190.303 19
-6 3 2 1420.19 229.93 15
-6 3 1 -114.987 123.192 20
-6 3 1 249.369 169.687 19
-6 3 1 107.868 123.888 15
-6 3 0 7780.53 489.568 20
-6 3 0 6727.66 482.58 19
-6 3 0 7249.52 482.597 15
-6 3 -1 272.277 144.508 19
-6 3 -1 474.53 151.876 15
-6 3 -2 169.721 124.707 19
-6 3 -3 5549.46 371.549 19
-6 3 -4 3807.85 267.338 19
-6 2 8 12500 502.418 17
-6 2 7 760.832 155.625 17
-6 2 6 1978.06 248.02 17
-6 2 5 2385.31 276.214 19
-6 2 5 3478.83 338.707 17
-6 2 4 1323.39 242.079 20
-6 2 4 867.685 208.701 19
-6 2 4 1209.85 211.053 17
-6 2 3 7685.23 534.095 20
-6 2 3 8026.87 514.278 17
-6 2 2 364.732 164.161 20
-6 2 2 -29.6909 199.463 19
-6 2 2 346.344 140.15 17
-6 2 2 181.748 120.016 15
-6 2 1 -109.902 155.654 20
-6 2 1 -16.246 145.273 19
-6 2 1 -42.9341 138.941 15
-6 2 0 875.884 227.363 20
-6 2 0 1139.94 263.059 19
-6 2 0 1142.74 237 15
-6 2 -1 16091.4 787.123 20
-6 2 -1 14426.2 814.903 19
-6 2 -1 14944.3 778.329 15
-6 2 -2 69.4223 124.506 19
-6 2 -2 249.526 148.963 15
-6 2 -3 10296.1 613.184 19
-6 2 -4 738.569 161.532 19
-6 2 -5 86.4125 87.7431 19
-6 2 -6 11627.5 480.908 19
-6 2 -6 7941.82 447.346 18
-6 1 8 680.249 135.168 17
-6 1 7 42.4641 105.471 17
-6 1 6 796.887 157.516 17
-6 1 5 1034.59 210.108 17
-6 1 4 614.776 173.943 17
-6 1 3 6724.16 540.68 20
-6 1 3 4937.57 452.118 19
-6 1 2 562.767 198.043 20
-6 1 2 349.989 180.396 19
-6 1 2 1058.25 208.53 17
-6 1 2 876.279 233.627 15
-6 1 1 807.515 229.709 20
-6 1 1 217.298 174.291 19
-6 1 1 827.705 215.371 15
-6 1 0 8.64797 131.194 20
-6 1 0 -213.214 197.337 19
-6 1 0 196.846 162.379 15
-6 1 -1 986.134 223.433 20
-6 1 -1 739.487 200.309 19
-6 1 -1 1306.79 244.069 15
-6 1 -2 8961.73 631.419 19
-6 1 -2 10397.2 640.606 15
-6 1 -3 4500.32 427.179 19
-6 1 -3 5196.66 435.177 15
-6 1 -4 219.189 139.464 19
-6 1 -5 4357.79 375.882 19
-6 1 -6 119.785 113.941 19
-6 1 -7 10901.8 484.987 19
-6 1 -7 8180.88 473.385 18
-6 0 9 1842.98 187.062 17
-6 0 8 597.468 137.715 17
-6 0 7 16209.8 755.487 17
-6 0 6 497.191 166.971 17
-6 0 5 2176.53 299.988 17
-6 0 4 1640.74 237.434 17
-6 0 3 565.387 153.883 17
-6 0 2 1210.37 233.48 20
-6 0 2 1425.01 241.011 15
-6 0 1 36.1459 108.117 20
-6 0 1 -36.1852 128.899 19
-6 0 1 -54.6952 116.818 15
-6 0 0 60.2643 113.001 20
-6 0 0 83.1969 160.494 19
-6 0 0 72.2168 114.727 15
-6 0 -1 26918.7 1107.58 20
-6 0 -1 29741.5 1249.71 19
-6 0 -1 28198.4 1156.75 15
-6 0 -2 1219.35 248.029 19
-6 0 -2 935.432 217.804 15
-6 0 -3 46231.7 1640.66 19
-6 0 -4 303.741 180.096 19
-6 0 -5 10963.4 623.983 19
-6 0 -6 152.168 109.38 19
-6 0 -6 -71.3078 154.135 18
-6 0 -7 4797.71 343.728 19
-6 0 -7 3224.08 338.933 18
-6 0 -8 4715.49 344.025 18
-6 0 -8 5439.84 357.64 12
-6 -1 9 -2.99678 73.6717 17
-6 -1 8 -58.8363 107.836 17
-6 -1 7 1643.37 261.954 17
-6 -1 6 30593.5 1159.99 17
-6 -1 5 124235 3161.18 17
-6 -1 4 942.181 227.171 17
-6 -1 -2 5721.17 484.163 19
-6 -1 -3 10499 665.586 19
-6 -1 -3 9301.65 673.826 18
-6 -1 -4 16714.5 799.233 19
-6 -1 -4 13387.2 842.338 18
-6 -1 -5 3128.84 325.666 19
-6 -1 -5 2347.02 350.353 18
-6 -1 -6 7505.5 485.745 19
-6 -1 -6 6558.26 529.803 18
-6 -1 -7 5214.95 383.942 19
-6 -1 -7 4275.1 404.043 18
-6 -1 -8 513.058 142.889 19
-6 -1 -8 381.497 128.214 18
-6 -1 -8 150.787 120.129 12
-6 -1 -9 7817.96 392.944 19
-6 -1 -9 6954.73 390.757 18
-6 -1 -9 6543.69 378.086 12
-6 -2 8 10845.4 528.652 17
-6 -2 7 24161 933.273 17
-6 -2 7 23676.7 1037 11
-6 -2 6 6875.29 493 17
-6 -2 6 6835.91 543.144 11
-6 -2 5 95456.1 2528.26 17
-6 -2 5 93416.3 2664.92 11
-6 -2 -3 2433.12 330.925 18
-6 -2 -3 3305.93 356.706 12
-6 -2 -4 16234 771.802 19
-6 -2 -4 17117.3 912.171 18
-6 -2 -4 16483.8 860.379 12
-6 -2 -5 170.125 129.887 19
-6 -2 -5 18.3633 128.457 18
-6 -2 -6 14585.5 696.491 19
-6 -2 -6 14595.3 793.853 18
-6 -2 -6 14738.7 786.924 12
-6 -2 -7 19835.2 805.087 19
-6 -2 -7 19514.4 905.091 18
-6 -2 -7 18752 890.183 12
-6 -2 -8 2219.22 242.925 19
-6 -2 -8 2169.21 268.877 18
-6 -2 -8 1914.98 258.159 12
-6 -2 -9 822.252 148.915 19
-6 -2 -9 827.932 163.638 18
-6 -2 -9 798.507 152.166 12
-6 -3 8 614.118 131.566 17
-6 -3 8 1548.83 237.969 11
-6 -3 7 10862 566.445 17
-6 -3 7 12309.7 693.693 11
-6 -3 6 1397.17 205.558 21
-6 -3 6 1325.83 231.528 17
-6 -3 6 1173.24 251.298 11
-6 -3 5 686.107 197.427 21
-6 -3 5 525.631 194.544 11
-6 -3 4 2120.81 272.147 21
-6 -3 4 1490.81 252.215 11
-6 -3 -3 2447.23 308.663 12
-6 -3 -4 3312.59 365.536 18
-6 -3 -4 2914.75 343.983 12
-6 -3 -5 14695.8 805.965 18
-6 -3 -5 14947 786.792 12
-6 -3 -6 12215.1 706.06 18
-6 -3 -6 11478.5 673.012 12
-6 -3 -7 244.7 100.99 19
-6 -3 -7 377.708 178.06 18
-6 -3 -7 147.784 136.424 12
-6 -3 -8 1311.28 184.65 19
-6 -3 -8 1451.4 226.827 18
-6 -3 -8 932.059 182.993 12
-6 -3 -9 792.916 153.412 19
-6 -3 -9 298.531 125.438 12
-6 -3 -10 1470.06 166.846 12
-6 -4 7 9518.97 452.288 21
-6 -4 7 9626.42 561.86 11
-6 -4 6 434.626 141.963 21
-6 -4 6 437.13 155.537 11
-6 -4 5 4812.9 362.613 21
-6 -4 5 4174.22 419.055 11
-6 -4 4 2642.9 278.272 21
-6 -4 4 2311.74 326.377 11
-6 -4 3 6183.35 506.473 11
-6 -4 -3 9415.7 612.287 12
-6 -4 -4 89359.4 2488.54 12
-6 -4 -5 31866.8 1229.04 12
-6 -4 -6 54558.9 1729.66 12
-6 -4 -7 15390.4 748.261 12
-6 -4 -8 13578.1 651.62 12
-6 -4 -9 1594.48 211.176 12
-6 -5 6 183.436 72.6682 21
-6 -5 6 387.026 124.235 11
-6 -5 5 459.96 109.489 21
-6 -5 5 639.657 169.527 11
-6 -5 4 262.691 136.579 11
-6 -5 3 11213.9 677.402 11
-6 -5 2 5116.28 463.818 11
-6 -5 1 8547.94 580.471 11
-6 -5 0 4796.79 440.385 14
-6 -5 -1 187.64 163.972 13
-6 -5 -2 5351.25 449.661 13
-6 -5 -3 1165.84 249.303 12
-6 -5 -4 62665.7 1939.38 12
-6 -5 -5 101163 2748.28 12
-6 -5 -6 660.5 210.529 12
-6 -5 -7 154.602 148.113 12
-6 -5 -8 792.142 170.54 12
-6 -5 -9 2940.98 247.459 12
-6 -6 5 2489.62 250.726 11
-6 -6 4 376.486 132.882 11
-6 -6 3 4148.08 365.872 11
-6 -6 2 6352.47 471.985 11
-6 -6 1 12105.2 632.503 13
-6 -6 1 11527.9 656.423 11
-6 -6 0 1394.73 247.353 14
-6 -6 0 1664.01 247.034 13
-6 -6 0 2041.09 265.722 11
-6 -6 -1 3870.43 394.888 14
-6 -6 -1 4182.39 397.266 13
-6 -6 -2 163.154 134.857 14
-6 -6 -2 681.367 198.562 13
-6 -6 -2 710.109 212.437 12
-6 -6 -3 7411.08 532.099 14
-6 -6 -3 8215.4 540.278 13
-6 -6 -3 6805.1 553.853 12
-6 -6 -4 11963.7 665.118 14
-6 -6 -4 13311 763.305 12
-6 -6 -5 2563.22 292.039 14
-6 -6 -5 3092.83 351.522 12
-6 -6 -6 9343.35 598.153 12
-6 -6 -7 25476.9 994.553 12
-6 -6 -8 3841.76 315.676 12
-6 -7 3 5742.98 357.022 11
-6 -7 2 940.225 175.116 11
-6 -7 1 971.726 162.016 11
-6 -7 0 1220.12 202.858 13
-6 -7 0 1539.17 209.114 11
-6 -7 -1 -225.763 119.703 14
-6 -7 -1 20.1098 123.824 13
-6 -7 -1 -4.18236 91.035 11
-6 -7 -2 2268.19 287.122 14
-6 -7 -2 1729.4 244.76 13
-6 -7 -3 761.903 168.309 14
-6 -7 -3 1429.22 232.372 13
-6 -7 -4 16133.8 729.964 14
-6 -7 -4 16989.5 731.267 13
-6 -7 -4 15099 785.007 12
-6 -7 -5 2043.33 232.492 14
-6 -7 -5 2487.19 259.671 13
-6 -7 -5 1620.38 259.071 12
-6 -7 -6 667.579 142.999 14
-6 -7 -6 862.705 170.624 13
-6 -7 -6 712.132 178.328 12
-6 -7 -7 1098.58 166.225 13
-6 -7 -7 1415.69 195.61 12
-6 -8 -2 5212.85 329.429 13
-6 -8 -3 1974.45 210.148 14
-6 -8 -3 1340.85 179.587 13
-6 -8 -4 -71.7178 99.4481 13
-7 1 1 5105.25 315.15 15
-7 1 0 -32.3037 91.3087 19
-7 1 -1 205.517 85.2117 19
-7 1 -2 6769.45 365.164 19
-7 1 -3 3659.54 251.693 19
-7 0 -2 5369.23 336.682 19
-7 0 -3 -242.653 105.682 19
-7 0 -4 293.954 83.1419 19
-7 -1 -5 1735.52 174.229 19
-7 -1 -5 1374.73 171.62 18
-7 -2 -5 445.615 111.804 18
-7 -2 -6 1091.83 153.37 18
-7 -2 -6 729.946 120.489 12
-7 -3 -5 2171.47 216.749 12
-7 -3 -6 5134.97 305.348 12
-7 -4 -5 12296.7 539.292 12
-7 -4 -6 14600.4 570.907 12
