#------------------------------------------------------------------------------
#$Date: 2019-11-25 05:57:00 +0200 (Mon, 25 Nov 2019) $
#$Revision: 240165 $
#$URL: file:///home/coder/svn-repositories/cod/cif/4/12/94/4129450.cif $
#------------------------------------------------------------------------------
#
# This file is available in the Crystallography Open Database (COD),
# http://www.crystallography.net/
#
# All data on this site have been placed in the public domain by the
# contributors.
#
data_4129450
loop_
_publ_author_name
'Liu, Feng'
'Espejo, Guzm\'an L'
'Qiu, Shuhai'
'Oliva, Mar\'ia Moreno'
'Pina, Jo\~ao'
'Seixas de Melo, J S\'ergio'
'Casado, Juan'
'Zhu, Xiaozhang'
_publ_section_title
;
 Multifaceted Regioregular Oligo(thieno[3,4-b]thiophene)s Enabled by
 Tunable Quinoidization and Reduced Energy Band Gap.
;
_journal_issue                   32
_journal_name_full               'Journal of the American Chemical Society'
_journal_page_first              10357
_journal_page_last               10366
_journal_paper_doi               10.1021/jacs.5b05940
_journal_volume                  137
_journal_year                    2015
_chemical_formula_moiety         'C18 H14 O4 S4'
_chemical_formula_sum            'C18 H14 O4 S4'
_chemical_formula_weight         422.53
_space_group_crystal_system      monoclinic
_space_group_IT_number           14
_space_group_name_Hall           '-P 2yn'
_space_group_name_H-M_alt        'P 1 21/n 1'
_atom_sites_solution_hydrogens   geom
_atom_sites_solution_primary     direct
_audit_creation_date             2015-03-09
_audit_creation_method
;
Olex2 1.2
(compiled 2015.01.26 svn.r3150 for OlexSys, GUI svn.r4998)
;
_cell_angle_alpha                90
_cell_angle_beta                 90.903(7)
_cell_angle_gamma                90
_cell_formula_units_Z            2
_cell_length_a                   5.053(2)
_cell_length_b                   10.020(5)
_cell_length_c                   17.645(9)
_cell_measurement_reflns_used    2642
_cell_measurement_temperature    173.1500
_cell_measurement_theta_max      27.4466
_cell_measurement_theta_min      2.0325
_cell_volume                     893.3(7)
_computing_cell_refinement       'CrystalClear (Rigaku Inc., 2007)'
_computing_data_collection       'CrystalClear (Rigaku Inc., 2007)'
_computing_data_reduction        'CrystalClear (Rigaku Inc., 2007)'
_computing_molecular_graphics    'Olex2 (Dolomanov et al., 2009)'
_computing_publication_material  'CIFTAB (Sheldrick, 2013)'
_computing_structure_refinement  'SHELXL (Sheldrick, 2014)'
_computing_structure_solution
;
'SHELXT (Sheldrick, 2014)'
;
_diffrn_ambient_temperature      173.1500
_diffrn_detector_area_resol_mean 28.5714
_diffrn_measured_fraction_theta_full 0.988
_diffrn_measured_fraction_theta_max 0.988
_diffrn_measurement_details
;
scan:
	Number of images: 360
	           Slice: -110.0000 - 70.0000
	     Image width: 0.5000
	        Exp time: 10.0000
	   Rotation axis: Omega
	           Omega: 0.0000
	             Chi: 45.0000
	             Phi: 90.0000
	             XTD: 45.0886
	          2theta: -20.2423
scan:
	Number of images: 270
	           Slice: -110.0000 - 25.0000
	     Image width: 0.5000
	        Exp time: 10.0000
	   Rotation axis: Omega
	           Omega: 0.0000
	             Chi: 45.0000
	             Phi: 270.0000
	             XTD: 45.0886
	          2theta: -20.2423
;
_diffrn_measurement_device
;
Saturn724+ (2x2 bin mode)
;
_diffrn_measurement_device_details
;
AFC10: Fixed Chi 2 circle
;
_diffrn_measurement_device_type  'Saturn724+ CCD'
_diffrn_measurement_method       '\w scans at fixed \c = 45\%'
_diffrn_orient_matrix_type       d*Trek
_diffrn_orient_matrix_UB_11      0.0123
_diffrn_orient_matrix_UB_12      0.1942
_diffrn_orient_matrix_UB_13      0.0366
_diffrn_orient_matrix_UB_21      -0.0980
_diffrn_orient_matrix_UB_22      0.0093
_diffrn_orient_matrix_UB_23      -0.0165
_diffrn_orient_matrix_UB_31      -0.0101
_diffrn_orient_matrix_UB_32      -0.0088
_diffrn_orient_matrix_UB_33      0.0551
_diffrn_radiation_detector       CCD
_diffrn_radiation_monochromator  'Graphite Monochromator'
_diffrn_radiation_type           MoK\a
_diffrn_radiation_wavelength     0.71073
_diffrn_reflns_av_R_equivalents  0.0434
_diffrn_reflns_av_unetI/netI     0.0386
_diffrn_reflns_Laue_measured_fraction_full 0.988
_diffrn_reflns_Laue_measured_fraction_max 0.988
_diffrn_reflns_limit_h_max       6
_diffrn_reflns_limit_h_min       -6
_diffrn_reflns_limit_k_max       12
_diffrn_reflns_limit_k_min       -12
_diffrn_reflns_limit_l_max       22
_diffrn_reflns_limit_l_min       -22
_diffrn_reflns_number            5843
_diffrn_reflns_point_group_measured_fraction_full 0.988
_diffrn_reflns_point_group_measured_fraction_max 0.988
_diffrn_reflns_theta_full        26.000
_diffrn_reflns_theta_max         27.446
_diffrn_reflns_theta_min         2.309
_diffrn_source                   'Sealed Tube'
_diffrn_source_current           30.0000
_diffrn_source_power             1.5000
_diffrn_source_voltage           50.0000
_exptl_absorpt_coefficient_mu    0.554
_exptl_absorpt_correction_T_max  1.0000
_exptl_absorpt_correction_T_min  0.6466
_exptl_absorpt_correction_type   multi-scan
_exptl_absorpt_process_details   'CrystalClear (Rigaku Inc., 2007)'
_exptl_crystal_colour            orange
_exptl_crystal_colour_primary    orange
_exptl_crystal_density_diffrn    1.571
_exptl_crystal_description       rod
_exptl_crystal_F_000             436
_exptl_crystal_size_max          0.52
_exptl_crystal_size_mid          0.21
_exptl_crystal_size_min          0.11
_refine_diff_density_max         0.724
_refine_diff_density_min         -0.583
_refine_diff_density_rms         0.190
_refine_ls_extinction_method     none
_refine_ls_goodness_of_fit_ref   1.232
_refine_ls_hydrogen_treatment    constr
_refine_ls_matrix_type           full
_refine_ls_number_parameters     138
_refine_ls_number_reflns         2028
_refine_ls_number_restraints     36
_refine_ls_restrained_S_all      1.221
_refine_ls_R_factor_all          0.1029
_refine_ls_R_factor_gt           0.0959
_refine_ls_shift/su_max          0.000
_refine_ls_shift/su_mean         0.000
_refine_ls_structure_factor_coef Fsqd
_refine_ls_weighting_details
'w=1/[\s^2^(Fo^2^)+(0.0958P)^2^+6.0795P] where P=(Fo^2^+2Fc^2^)/3'
_refine_ls_weighting_scheme      calc
_refine_ls_wR_factor_gt          0.2680
_refine_ls_wR_factor_ref         0.2792
_reflns_Friedel_coverage         0.000
_reflns_number_gt                1904
_reflns_number_total             2028
_reflns_threshold_expression     'I > 2\s(I)'
_cod_data_source_file            ja5b05940_si_002.cif
_cod_data_source_block           sa3950
_cod_original_cell_volume        893.2(7)
_cod_database_code               4129450
_shelx_space_group_comment
;
The symmetry employed for this shelxl refinement is uniquely defined
by the following loop, which should always be used as a source of
symmetry information in preference to the above space-group names.
They are only intended as comments.
;
_diffrn_number_total             2157
_olex2_refinement_description
;
1. Fixed Uiso
 At 1.2 times of:
  All C(H) groups, All C(H,H) groups
 At 1.5 times of:
  All C(H,H,H) groups
2. Uiso/Uaniso restraints and constraints
S1A \\sim C5 \\sim C5A \\sim S1: within 1.7A with sigma of 0.02 and sigma for
terminal atoms of 0.04
Uanis(S1A) \\sim Ueq, Uanis(C5) \\sim Ueq, Uanis(C5A) \\sim Ueq, Uanis(S1)
\\sim Ueq: with sigma of 0.01 and sigma for terminal atoms of 0.02
3. Others
 Sof(S1A)=Sof(C5A)=Sof(H5A)=1-FVAR(1)
 Sof(S1)=Sof(C5)=Sof(H5)=FVAR(1)
4.a Secondary CH2 refined with riding coordinates:
 C2(H2A,H2B)
4.b Aromatic/amide H refined with riding coordinates:
 C5(H5), C8(H8), C5A(H5A)
4.c Idealised Me refined as rotating group:
 C1(H1A,H1B,H1C)
;
_shelx_res_file
;
    sa3950.res created by SHELXL-2014/7

TITL sa3950_a.res in P2(1)/n
CELL 0.71073 5.0525 10.0198 17.6447 90 90.903 90
ZERR 2 0.0024 0.0046 0.0085 0 0.007 0
LATT 1
SYMM 0.5-X,0.5+Y,0.5-Z
SFAC C H O S
UNIT 36 28 8 8
SIMU 0.02 0.04 1.7 S1A C5 C5A S1
ISOR 0.01 0.02 S1A C5 C5A S1

L.S. 4 0 0
PLAN  20
BOND $H
LIST 6
MORE -1
CONF
fmap 2 53
acta 52
OMIT -1 2 10
OMIT 1 1 13
OMIT -2 1 10
OMIT 1 4 5
OMIT 1 4 2
OMIT 1 2 8
REM <olex2.extras>
REM <HklSrc "%.\\sa3950.hkl">
REM </olex2.extras>

WGHT    0.095800    6.079500
FVAR       0.75514   0.47919
PART 1
S1    4    0.651246    0.333688    0.485002    21.00000    0.02835    0.03053 =
         0.02055   -0.00192    0.00087   -0.00597
PART 0
S2    4    0.062915    0.108622    0.607198    11.00000    0.03702    0.03685 =
         0.02074   -0.00184    0.00638   -0.00068
O1    3    0.721664    0.224795    0.275150    11.00000    0.04711    0.05317 =
         0.02936   -0.00585    0.01266   -0.01709
O2    3    0.916747    0.378124    0.351491    11.00000    0.03356    0.03247 =
         0.03205   -0.00123    0.00546   -0.00801
C1    1    1.254088    0.528886    0.317351    11.00000    0.03324    0.03449 =
         0.05113    0.00414   -0.00120   -0.00534
AFIX 137
H1A   2    1.364746    0.559989    0.277300    11.00000   -1.50000
H1B   2    1.362741    0.494302    0.357926    11.00000   -1.50000
H1C   2    1.149348    0.601584    0.335763    11.00000   -1.50000
AFIX   0
C2    1    1.075987    0.421288    0.287919    11.00000    0.03318    0.04648 =
         0.03270    0.01087    0.00616   -0.01197
AFIX  23
H2A   2    0.963382    0.455056    0.247224    11.00000   -1.20000
H2B   2    1.179131    0.347367    0.268688    11.00000   -1.20000
AFIX   0
C3    1    0.749011    0.277323    0.336109    11.00000    0.02801    0.03066 =
         0.02928    0.00532    0.00253   -0.00095
C4    1    0.589492    0.241098    0.402201    11.00000    0.03154    0.02724 =
         0.02224   -0.00070    0.00171    0.00221
PART 1
C5    1    0.411340    0.148090    0.404613    21.00000    0.03082    0.02581 =
         0.02557    0.00490   -0.00058    0.00243
AFIX  43
H5    2    0.372866    0.095589    0.362394    21.00000   -1.20000
AFIX   0
PART 0
C6    1    0.270794    0.128199    0.477040    11.00000    0.04756    0.03788 =
         0.01983    0.00377    0.00350    0.02248
C7    1    0.083408    0.053234    0.513901    11.00000    0.04535    0.03588 =
         0.01702   -0.00208    0.00236    0.01536
C8    1    0.302787    0.228031    0.598032    11.00000    0.03412    0.04064 =
         0.02803    0.00136    0.00473    0.00072
AFIX  43
H8    2    0.360968    0.284987    0.636432    11.00000   -1.20000
AFIX   0
C9    1    0.397504    0.226893    0.524334    11.00000    0.03381    0.04064 =
         0.03191    0.00876    0.00829    0.00752
PART 2
S1A   4    0.358589    0.110577    0.383646   -21.00000    0.03151    0.02937 =
         0.02313    0.00048    0.00172   -0.00306
C5A   1    0.573603    0.286289    0.477302   -21.00000    0.03108    0.03372 =
         0.02368   -0.00149   -0.00146   -0.00251
AFIX  43
H5A   2    0.681256    0.355482    0.494645   -21.00000   -1.20000
AFIX   0
HKLF 4

REM  sa3950_a.res in P2(1)/n
REM R1 =  0.0959 for    1904 Fo > 4sig(Fo)  and  0.1029 for all    2028 data
REM    138 parameters refined using     36 restraints

END

WGHT      0.0958      6.0785

REM Highest difference peak  0.724,  deepest hole -0.583,  1-sigma level  0.190
Q1    1   0.7754  0.3767  0.2358  11.00000  0.05    0.72
Q2    1   1.4823  0.5997  0.3232  11.00000  0.05    0.59
Q3    1   0.8955  0.0956  0.2831  11.00000  0.05    0.57
Q4    1   1.1231  0.2241  0.2765  11.00000  0.05    0.55
Q5    1   1.5968  0.4680  0.2957  11.00000  0.05    0.53
Q6    1   0.6543  0.4603  0.2844  11.00000  0.05    0.51
Q7    1   1.1700  0.2054  0.2969  11.00000  0.05    0.51
Q8    1  -0.0620  0.1388  0.6611  11.00000  0.05    0.49
Q9    1   1.3363  0.6781  0.2614  11.00000  0.05    0.48
Q10   1   0.7831  0.1211  0.2196  11.00000  0.05    0.47
Q11   1   0.9523  0.3683  0.2380  11.00000  0.05    0.47
Q12   1   1.4784  0.3626  0.3144  11.00000  0.05    0.47
Q13   1   0.0561  0.1795  0.7006  11.00000  0.05    0.47
Q14   1   0.4758  0.2405  0.6843  11.00000  0.05    0.47
Q15   1   1.3183  0.3060  0.2790  11.00000  0.05    0.45
Q16   1   0.2290 -0.0370  0.3141  11.00000  0.05    0.45
Q17   1   0.2231  0.1073  0.3023  11.00000  0.05    0.45
Q18   1   0.9156  0.2729  0.2284  11.00000  0.05    0.44
Q19   1   0.7003  0.3388  0.2750  11.00000  0.05    0.43
Q20   1   0.5072  0.2931  0.2162  11.00000  0.05    0.43
;
_shelx_res_checksum              61246
_shelx_hkl_file
;
   0   0  -1   -0.44    0.14
   0   0   1   -0.55    0.13
   0   0  -1   -0.54    0.12
   0   0   2    0.21    0.39
   0   0  -2   -0.17    0.35
   0   0   3   12.71    0.82
   0   0  -3    6.67    0.71
   0   0  -3    8.00    0.76
   0   0   3    8.75    0.89
   0   0   4  483.62    4.38
   0   0   4  500.38    4.49
   0   0   5   23.42    2.00
   0   0  -5   18.24    1.87
   0   0  -5   18.62    1.57
   0   0   6  159.41    3.20
   0   0  -6  142.41    2.76
   0   0  -6  155.53    3.26
   0   0   7   11.52    1.60
   0   0  -7   13.94    1.68
   0   0  -7   13.14    1.89
   0   0   7   11.73    1.17
   0   0   8 3262.01   87.04
   0   0  -8 3649.64   97.44
   0   0   9    8.59    2.30
   0   0  -9    0.10    1.71
   0   0  10 2431.77   73.88
   0   0 -11   15.63    2.82
   0   0  12    4.65    2.09
   0   0 -12    6.76    3.30
   0   0  13   17.63    2.52
   0   0 -13   19.93    3.06
   0   0  14  538.68   19.32
   0   0 -14  517.89   18.85
   0   0  15   31.86    2.95
   0   0 -15   25.66    3.38
   0   0  16  469.13   17.32
   0   0 -16  456.00   17.01
   0   0  17   10.98    2.92
   0   0 -17    9.47    3.22
   0   0  18  269.15    9.46
   0   0 -18  256.82    9.58
   0   0  19    1.67    1.80
   0   0 -19    7.54    3.08
   0   0  20    4.23    1.99
   0   0 -20    4.50    2.24
   0   0  21    6.58    2.96
   0   0  22  248.37   19.33
   0   0 -22  182.29   14.55
   0   1   0    1.11    0.36
   0  -1   0    0.02    0.18
   0   1   0    0.26    0.21
   0  -1   0    0.95    0.29
   0  -1  -3 1010.05    6.64
   0  -1   3 1045.53    6.98
   0  -1   3 1030.22    6.91
   0  -1  -3 1049.36    6.97
   0  -1  -4  958.23    6.83
   0  -1   4  970.10    7.21
   0  -1   4  909.78    6.75
   0  -1  -4  946.17    7.02
   0  -1  -5 3207.50   18.91
   0   1  -5 3080.44   18.73
   0  -1   5 3164.66   18.99
   0  -1  -5 3257.84   19.35
   0  -1  -6  485.68    4.97
   0  -1   6  507.26    5.17
   0   1  -6  528.83    5.75
   0  -1  -6  477.37    5.42
   0  -1   7   10.03    1.71
   0  -1  -7    9.50    1.12
   0   1  -7   11.76    1.80
   0  -1  -7   13.54    1.81
   0   1   7    7.73    1.23
   0  -1   8  144.01    3.65
   0   1  -8  155.71    4.14
   0  -1  -8  140.93    3.91
   0  -1   9 1582.92   21.85
   0   1  -9 1719.77   23.79
   0  -1  10  349.30   10.70
   0   1 -10  333.27   10.34
   0  -1 -10  325.35   10.23
   0  -1  11  101.84    4.53
   0   1 -11  114.89    5.24
   0  -1 -11  122.52    5.45
   0  -1  12  204.63    5.49
   0   1 -12  228.58    8.68
   0  -1 -12  193.70    5.68
   0  -1  13  507.47   10.36
   0   1 -13  489.76   10.02
   0  -1 -13  496.56   10.17
   0  -1  14  248.75   10.13
   0   1 -14  219.99    9.33
   0  -1 -14  253.26   10.41
   0  -1  15  240.27    9.68
   0   1 -15  221.51    9.36
   0  -1 -15  236.34    9.67
   0  -1  16  128.98    6.87
   0   1 -16  120.15    6.19
   0  -1 -16  110.01    5.86
   0  -1  17  127.57    7.46
   0   1 -17  122.73    7.56
   0  -1 -17  132.15    7.88
   0  -1  18   64.29    4.22
   0   1 -18   39.19    3.35
   0  -1 -18   48.65    3.93
   0  -1  19   74.00    6.02
   0   1 -19   71.72    6.18
   0  -1 -19   56.08    4.87
   0  -1  20   24.40    3.74
   0   1 -20   21.60    4.99
   0  -1 -20   17.85    4.29
   0  -1  21   17.59    3.31
   0   1 -21   15.69    3.19
   0  -1 -21   21.34    3.71
   0  -1  22    5.36    2.66
   0   1 -22   13.36    2.78
   0  -1 -22    4.59    3.09
   0  -2   0 2277.29   12.81
   0  -2   0 2338.71   13.24
   0   2   0 2268.45   13.41
   0  -2   0 2293.14   13.12
   0  -2  -1  918.05    5.92
   0  -2   1  930.74    6.04
   0  -2  -1  941.74    6.28
   0   2  -1  940.91    6.30
   0  -2   1  952.54    6.27
   0  -2  -2  435.85    3.56
   0  -2   2  450.37    3.92
   0  -2   2  437.00    3.84
   0  -2   3  454.91    4.57
   0  -2   3  433.17    4.16
   0  -2   4   85.98    2.42
   0   2  -4   81.10    2.34
   0  -2   4   87.04    2.21
   0  -2   5   54.64    2.10
   0   2  -5   51.95    1.84
   0   2  -5   55.85    2.11
   0  -2   5   57.33    1.99
   0  -2   6  118.74    2.96
   0   2  -6  128.42    2.85
   0  -2   6  120.37    2.74
   0  -2   7    5.89    1.36
   0   2  -7    6.01    1.32
   0  -2  -7    5.40    2.07
   0  -2   8   93.09    3.16
   0  -2  -8   96.20    3.50
   0   2   9   84.22    3.52
   0   2  -9   65.51    3.37
   0  -2  -9   75.57    3.49
   0   2  10    3.93    1.71
   0  -2  10    7.18    2.37
   0   2 -10    8.27    2.85
   0  -2 -10    3.17    1.80
   0   2  11  128.74    5.36
   0  -2  11  130.94    5.53
   0   2 -11  127.19    5.64
   0  -2 -11  115.13    5.05
   0   2  12   91.81    3.84
   0  -2  12   89.60    4.32
   0   2 -12   79.52    3.73
   0  -2 -12   73.28    3.71
   0   2  13  210.38    8.40
   0  -2  13  220.89    9.10
   0   2 -13  221.48    9.23
   0  -2 -13  206.70    8.62
   0   2  14    2.30    1.81
   0  -2  14    8.39    3.25
   0   2 -14    1.75    1.98
   0  -2 -14    3.53    2.48
   0   2  15  162.03    7.05
   0  -2  15  149.18    6.81
   0   2 -15  138.70    6.67
   0  -2 -15  144.85    6.85
   0   2  16  301.22   11.66
   0  -2  16  310.88   12.45
   0   2 -16  301.24   12.24
   0  -2 -16  308.25   12.25
   0   2  17   43.63    3.51
   0  -2  17   47.79    4.31
   0   2 -17   30.11    5.40
   0  -2 -17   34.84    6.16
   0   2  18    5.66    2.17
   0  -2  18    6.30    3.29
   0   2 -18   10.21    3.34
   0  -2 -18    0.08    1.98
   0   2  19    4.77    2.27
   0  -2  19    6.95    3.09
   0   2 -19    2.49    1.88
   0  -2 -19    3.43    2.17
   0   2  20    7.92    3.25
   0  -2  20    8.89    2.57
   0   2 -20    7.92    3.23
   0  -2 -20    7.31    3.26
   0   2  21  323.45   27.06
   0  -2  21  339.51   28.53
   0   2 -21  266.70   22.61
   0  -2 -21  313.57   26.48
   0  -2  22    5.82    2.68
   0   2 -22    9.92    3.55
   0  -2 -22   10.00    3.44
   0  -3   0    0.91    0.87
   0  -3   0    1.15    1.14
   0   3   0    1.83    0.51
   0  -3   0   -0.06    0.79
   0   3   1  131.05    2.59
   0  -3  -1  119.03    2.11
   0  -3   1  122.05    2.43
   0   3  -1  129.73    2.22
   0   3   1  123.75    2.67
   0  -3  -1  125.98    2.44
   0   3  -1  124.32    3.20
   0   3   2  127.49    3.93
   0  -3  -2  127.75    2.14
   0  -3   2  130.54    2.59
   0   3  -2  120.86    2.30
   0  -3  -2  128.00    2.78
   0   3   3  619.30    6.46
   0  -3  -3  610.95    5.06
   0  -3   3  606.63    5.66
   0   3  -3  575.17    5.00
   0  -3  -3  625.32    5.11
   0   3   4   13.19    1.19
   0  -3  -4   12.05    1.08
   0  -3   4   10.52    1.35
   0   3  -4   11.01    1.23
   0   3  -4   11.19    1.37
   0  -3   4    9.74    1.05
   0   3   6    0.90    1.04
   0  -3  -6    1.80    1.01
   0  -3   6    4.31    2.12
   0   3  -6    0.66    1.17
   0   3   7  926.54   13.37
   0  -3   7  887.52   13.19
   0  -3  -7  976.52   14.46
   0   3   8  469.57   13.47
   0  -3   8  438.20   12.73
   0   3  -8  470.96   13.74
   0  -3  -8  454.52   13.28
   0   3   9  436.97   12.69
   0  -3   9  412.56   12.37
   0   3  -9  436.92   13.12
   0  -3  -9  416.55   12.60
   0   3  10   40.81    2.78
   0  -3  10   47.20    3.31
   0   3 -10   31.29    2.91
   0  -3 -10   34.54    2.92
   0   3  11   28.69    2.05
   0  -3  11   24.34    2.76
   0   3 -11   21.06    2.22
   0  -3 -11   25.86    2.65
   0   3  12  124.01    4.20
   0  -3  12  123.55    4.67
   0   3 -12  121.50    4.46
   0  -3 -12  111.30    4.55
   0   3  13  499.21   18.11
   0  -3  13  495.38   18.16
   0   3 -13  475.97   17.37
   0  -3 -13  480.89   17.71
   0   3  14   99.83    5.10
   0  -3  14   96.89    4.80
   0   3 -14   84.23    5.04
   0  -3 -14  109.55    5.79
   0   3  15  165.99    7.14
   0  -3  15  150.74    6.72
   0   3 -15  172.08    7.89
   0  -3 -15  138.90    6.80
   0   3  16  295.74   14.98
   0  -3  16  300.91   15.38
   0   3 -16  282.90   14.58
   0  -3 -16  295.39   15.36
   0   3  17   33.33    5.49
   0  -3  17   29.93    5.36
   0   3 -17   28.81    4.84
   0  -3 -17   32.77    5.66
   0   3  18   10.67    3.17
   0  -3  18    3.44    2.32
   0   3 -18   12.94    3.53
   0  -3 -18    6.65    2.51
   0   3  19   10.74    2.90
   0  -3  19   18.82    4.59
   0   3 -19    7.96    3.02
   0  -3 -19   18.15    5.19
   0   3  20   28.17    2.97
   0  -3  20   38.84    4.24
   0   3 -20   31.56    3.35
   0  -3 -20   39.66    4.22
   0   3  21    4.27    1.85
   0  -3  21    9.96    3.31
   0   3 -21    3.71    1.84
   0  -3 -21   -1.01    1.96
   0   3  22   74.63    5.59
   0  -3  22   89.22    7.11
   0   3 -22   57.55    5.06
   0  -3 -22   65.72    5.43
   0  -4   0  574.31    4.70
   0  -4   0  634.82    5.74
   0   4   0  622.53    6.12
   0  -4   0  616.14    5.69
   0  -4   1   49.19    1.42
   0   4   1   51.58    1.60
   0  -4  -1   44.58    3.37
   0  -4   1   48.64    1.99
   0   4   1   52.35    5.05
   0   4  -1   43.57    2.95
   0  -4  -1   47.03    3.27
   0  -4   1   46.68    1.56
   0   4   2  359.74    4.34
   0  -4  -2  333.40    3.89
   0  -4   2  343.98    3.96
   0   4  -2  360.87    4.03
   0   4   2  344.51    3.84
   0  -4  -2  346.23    4.37
   0   4  -2  352.90    5.10
   0  -4   2  346.76    3.89
   0   4   3   94.11    4.62
   0  -4  -3   77.13    2.00
   0  -4   3   77.44    2.54
   0   4  -3   90.53    2.60
   0  -4  -3   81.24    4.71
   0   4  -3   77.52    2.40
   0  -4   3   83.46    2.34
   0   4   4 1212.21   18.23
   0  -4  -4 1169.52   15.82
   0  -4   4 1222.62   16.79
   0   4  -4 1147.43   15.64
   0  -4  -4 1217.56   16.44
   0   4  -4 1188.60   16.50
   0   4   5   79.78    4.51
   0  -4  -5   56.09    1.87
   0  -4   5   60.60    2.54
   0   4  -5   54.07    2.09
   0   4  -5   65.45    2.59
   0   4   6   11.92    1.38
   0  -4   6   15.67    2.04
   0   4  -6   11.41    1.55
   0   4   7  511.56   14.52
   0  -4   7  506.99   14.65
   0   4  -7  524.03   15.08
   0   4   8  934.47   25.77
   0  -4   8  947.09   26.48
   0   4  -8  916.68   25.44
   0  -4  -8  941.01   26.23
   0   4   9   93.24    4.04
   0  -4   9   84.57    4.27
   0   4  -9   99.28    4.66
   0  -4  -9   91.93    4.60
   0   4  10  155.07    4.36
   0  -4  10  148.84    4.80
   0  -4 -10  153.49    5.05
   0   4  11   17.04    2.48
   0  -4  11   11.60    2.48
   0  -4 -11   10.83    3.07
   0   4  12  181.99    7.40
   0  -4  12  173.03    7.63
   0  -4 -12  161.38    7.33
   0   4  13  121.78    5.24
   0  -4  13  106.20    5.37
   0   4 -13  117.45    5.57
   0  -4 -13  105.04    5.39
   0   4  14  105.74    5.52
   0  -4  14   69.86    8.53
   0   4 -14   94.19    5.12
   0  -4 -14   98.98    6.20
   0   4  15   23.27    3.94
   0  -4  15   12.52    2.65
   0   4 -15   16.01    3.27
   0  -4 -15   10.91    3.30
   0   4  16   22.55    4.41
   0  -4  16   30.60    5.85
   0   4 -16   16.41    3.42
   0  -4 -16   15.88    3.88
   0   4  17   90.85    5.04
   0  -4  17   87.57    5.48
   0   4 -17   82.52    5.26
   0  -4 -17   91.88    5.70
   0   4  18  104.21    7.63
   0  -4  18  114.09    8.19
   0   4 -18   80.04    6.28
   0  -4 -18   80.48    6.42
   0   4  19   11.41    3.46
   0  -4  19   11.82    3.89
   0   4 -19    6.30    2.81
   0  -4 -19   14.92    4.80
   0   4  20   21.18    3.70
   0  -4  20   21.79    6.65
   0   4 -20   19.06    3.62
   0  -4 -20   19.56    4.56
   0   4  21    1.42    1.92
   0  -4  21    3.91    2.50
   0   4 -21    3.84    2.66
   0  -4 -21    2.19    2.36
   0  -5   0    2.72    0.86
   0  -5   0    2.82    1.16
   0   5   0    2.51    0.69
   0  -5   0    1.02    0.80
   0  -5  -1  875.99   13.57
   0  -5   1  968.94   13.64
   0  -5  -1 1030.48   14.47
   0   5   1  968.53   13.58
   0   5  -1  979.30   13.83
   0  -5  -1  942.79   14.92
   0  -5   1  933.55   13.08
   0   5   2   91.69    2.51
   0  -5   2   86.03    2.74
   0   5   2   88.02    2.57
   0  -5  -2   73.45    5.44
   0   5  -2  106.16    8.94
   0   5   3   14.40    1.82
   0  -5  -3   10.84    0.91
   0  -5   3   12.64    1.79
   0   5  -3    8.09    1.29
   0  -5  -3    5.73    0.78
   0   5  -3   10.81    1.84
   0   5   4  146.67    7.23
   0  -5  -4  121.04    3.98
   0  -5   4  133.66    4.67
   0   5  -4  116.31    3.97
   0  -5  -4  115.65    5.06
   0   5  -4  141.63    4.92
   0   5   5  521.37   15.10
   0  -5   5  525.77   14.94
   0   5  -5  516.04   14.75
   0   5   6   49.23    5.09
   0  -5   6   38.11    2.79
   0   5  -6   42.41    2.55
   0   5   7  331.70   12.20
   0  -5   7  329.41   11.28
   0   5  -7  336.96   11.32
   0   5   8  824.06   26.60
   0  -5   8  840.34   26.54
   0   5  -8  816.26   25.68
   0   5   9  341.90    7.18
   0  -5   9  325.80    7.45
   0   5  -9  321.20    7.36
   0   5  10  118.63    5.23
   0  -5  10   91.59    4.55
   0   5 -10   94.21    4.85
   0  -5 -10  116.58    5.89
   0   5  11  231.85    8.93
   0  -5  11  219.41    8.88
   0   5 -11  235.79    9.55
   0  -5 -11  237.46    9.92
   0   5  12  225.10    8.09
   0  -5  12  213.56    8.41
   0   5 -12  203.04    8.09
   0  -5 -12  218.95    8.65
   0   5  13  567.75   19.74
   0  -5  13  576.42   20.56
   0   5 -13  607.49   21.45
   0  -5 -13  598.14   21.19
   0   5  14   75.86    4.39
   0  -5  14   75.23    4.79
   0   5 -14   84.71    4.74
   0  -5 -14   73.00    4.83
   0   5  15   84.20    5.34
   0  -5  15   89.95    5.97
   0  -5 -15   75.16    5.48
   0   5  16  226.10   10.08
   0  -5  16  219.40   10.15
   0  -5 -16  248.25   11.41
   0   5  17  236.77   15.05
   0  -5  17  208.96   13.43
   0  -5 -17  235.05   15.21
   0   5  18  149.88    6.74
   0  -5  18  132.80    6.44
   0   5 -18  136.04    6.73
   0  -5 -18  136.42    6.84
   0   5  19   57.09    4.96
   0  -5  19   48.22    4.70
   0   5 -19   51.03    5.01
   0  -5 -19   46.01    4.60
   0   5  20   11.38    2.34
   0  -5  20   10.63    3.66
   0   5 -20    3.27    1.96
   0  -5 -20    4.62    2.67
   0   5  21   66.00    5.72
   0  -5  21   70.31    6.06
   0   5 -21   35.48    3.75
   0  -5 -21   45.11    4.97
   0  -6   0 1015.90   31.14
   0  -6   0  869.13   23.76
   0   6   0 1155.78   35.49
   0  -6   1  162.11    5.29
   0  -6  -1  147.86    6.80
   0  -6   1  183.28    5.94
   0  -6  -1  173.52    5.82
   0   6   1  178.25    7.15
   0   6  -1  184.65   10.08
   0   6   2   78.07    3.02
   0  -6   2   71.67    2.66
   0  -6  -2   54.98    5.51
   0  -6   2   66.90    3.02
   0   6   2   71.55    2.85
   0   6  -2   88.77    8.54
   0   6   3   65.28    7.39
   0  -6   3   42.96    2.49
   0   6  -3   71.84    6.85
   0   6   4  511.80   16.96
   0  -6   4  531.11   17.04
   0   6  -4  521.66   17.25
   0   6   5  143.14    6.13
   0  -6   5  145.50    6.14
   0   6  -5  155.13    6.05
   0   6   6  408.56   10.80
   0  -6   6  390.21    7.83
   0   6  -6  400.21    8.07
   0   6   7  273.61    5.89
   0  -6   7  258.87    6.22
   0   6  -7  255.16    6.01
   0   6   8   74.93    6.92
   0  -6   8   62.07    3.81
   0   6  -8   56.59    3.33
   0   6   9  139.91    7.31
   0  -6   9  128.84    6.21
   0   6  -9  121.96    5.76
   0   6  10  124.07   11.19
   0  -6  10  105.54    5.14
   0   6 -10   96.34    4.84
   0  -6 -10  122.16    5.91
   0   6  11   73.40    5.67
   0  -6  11   67.03    7.32
   0   6 -11   58.57    6.19
   0  -6 -11   65.51    6.97
   0   6  12  103.53    6.88
   0  -6  12   80.97    4.94
   0   6 -12   78.33    4.37
   0  -6 -12   78.90    4.85
   0   6  13   58.29    4.12
   0  -6  13   51.00    4.40
   0   6 -13   47.69    3.98
   0  -6 -13   42.32    3.94
   0   6  14  138.21    7.68
   0  -6  14  139.36    8.28
   0   6 -14  128.85    7.52
   0  -6 -14  124.51    7.45
   0   6  15   42.12    3.30
   0  -6  15   52.22    4.38
   0   6 -15   26.65    6.59
   0  -6 -15   34.64    3.81
   0   6  16   83.39    6.24
   0  -6  16   62.21    5.19
   0   6 -16   63.82    5.47
   0  -6 -16   67.49    5.68
   0   6  17  150.23    6.48
   0  -6  17  147.85    7.23
   0   6 -17  146.41    7.17
   0  -6 -17  143.27    7.44
   0   6  18  116.23    7.33
   0  -6  18  117.65    7.52
   0   6 -18  112.79    7.48
   0  -6 -18  128.33    8.40
   0   6  19   40.69    4.34
   0  -6  19   41.88    5.38
   0   6 -19   33.82    4.21
   0  -6 -19   31.52    4.00
   0   6  20   10.59    2.53
   0  -6  20   12.02    3.38
   0   6 -20    3.16    1.82
   0  -6 -20    6.62    2.48
   0  -7   0    1.06    1.90
   0   7   0    3.74    1.26
   0  -7   1   65.26    3.10
   0  -7  -1   64.67    3.01
   0   7   1   82.41    6.24
   0   7  -1   83.26    5.77
   0  -7   2   24.76    2.16
   0  -7  -2   26.01    2.24
   0   7   2   29.66    2.06
   0   7  -2   26.94    2.82
   0   7   3   35.30    2.02
   0  -7   3   34.90    2.90
   0   7  -3   37.06    3.65
   0   7   4  302.76    7.04
   0  -7   4  279.61    6.43
   0   7  -4  287.51    9.24
   0   7   5   16.67    2.32
   0  -7   5   15.93    2.43
   0   7  -5   19.44    2.84
   0   7   6   10.86    1.60
   0  -7   6   10.24    3.10
   0   7  -6    4.63    2.15
   0   7   7   20.81    2.63
   0  -7   7   13.80    2.55
   0   7  -7   13.52    1.82
   0   7   8   62.93    5.88
   0  -7   8   65.79    4.25
   0   7  -8   43.45    3.01
   0   7   9   65.47    8.79
   0  -7   9   59.19    6.58
   0   7  -9   49.38    5.24
   0   7  10    7.07    1.57
   0  -7  10    3.89    2.47
   0   7 -10   13.03    2.70
   0   7  11    1.28    1.24
   0  -7  11    3.48    2.47
   0   7 -11    2.47    1.66
   0  -7 -11    4.48    2.34
   0   7  12  168.41   15.72
   0  -7  12  178.34    9.74
   0   7 -12  169.11    9.32
   0  -7 -12  150.14    8.78
   0   7  13   25.49    4.53
   0  -7  13   24.76    4.24
   0   7 -13   16.40    3.34
   0  -7 -13   11.13    2.49
   0   7  14   11.39    3.28
   0  -7  14   24.56    6.36
   0   7 -14    7.24    2.35
   0  -7 -14    8.37    3.33
   0   7  15    4.40    2.03
   0  -7  15    6.69    3.04
   0   7 -15    1.81    1.65
   0  -7 -15    2.53    2.06
   0   7  16    9.26    2.47
   0  -7  16   13.75    4.43
   0   7 -16   13.00    3.81
   0  -7 -16    4.32    2.27
   0   7  17    2.99    1.78
   0  -7  17    4.92    2.83
   0   7 -17    4.58    3.04
   0  -7 -17    0.64    2.13
   0   7  18   13.44    2.52
   0  -7  18   20.98    3.63
   0   7 -18   17.39    3.00
   0  -7 -18   10.61    4.78
   0   7  19    2.13    1.25
   0  -7  19    7.33    2.34
   0   7 -19    1.84    1.63
   0  -7 -19    5.47    3.17
   0  -8   0  725.02   24.94
   0   8   0  729.81   25.62
   0  -8   1   89.54    4.56
   0  -8  -1   83.10    4.05
   0   8   1   98.50    4.40
   0   8  -1  103.28    9.34
   0  -8   2   10.72    3.46
   0  -8  -2    6.48    2.00
   0   8  -2    5.09    1.73
   0  -8   3  111.80    4.82
   0  -8  -3   99.93    4.64
   0   8  -3  109.95    9.15
   0   8   4  918.06   27.43
   0  -8   4  890.07   26.97
   0   8  -4  813.45   25.67
   0   8   5   52.62    2.80
   0  -8   5   54.07    3.64
   0   8  -5   67.37    5.12
   0   8   6  162.30   12.26
   0  -8   6  150.93    6.44
   0   8  -6  163.79   12.97
   0   8   7    2.19    0.77
   0  -8   7    4.07    2.30
   0   8  -7    3.38    2.07
   0   8   8  105.09    9.21
   0  -8   8  110.30    5.61
   0   8  -8  107.21    9.49
   0   8   9   77.33    8.30
   0  -8   9   75.22    5.34
   0   8  -9   82.65    5.23
   0   8  10   30.23    5.72
   0  -8  10   29.46    5.63
   0   8 -10   36.89    6.25
   0   8  11    8.56    1.90
   0  -8  11   13.24    3.06
   0   8 -11   12.35    3.19
   0   8  12   21.64    5.20
   0  -8  12   16.20    4.09
   0   8 -12   15.62    3.65
   0  -8 -12   25.98    6.77
   0   8  13   49.11    7.16
   0  -8  13   49.72    5.09
   0   8 -13   49.74    4.41
   0  -8 -13   39.90    4.29
   0   8  14  178.90   19.05
   0  -8  14  213.87    8.70
   0   8 -14  168.27    7.62
   0  -8 -14  208.48    9.00
   0   8  15   13.33    4.27
   0  -8  15   20.24    3.49
   0   8 -15   10.45    3.63
   0  -8 -15   11.86    4.48
   0   8  16   29.61    4.72
   0  -8  16   26.72    3.85
   0   8 -16   24.03    3.28
   0  -8 -16   25.11    3.80
   0   8  17   56.36    8.53
   0  -8  17   81.90    7.59
   0   8 -17   71.69    6.70
   0  -8 -17   76.26    7.03
   0   8  18    9.88    2.25
   0  -8  18   20.63    3.82
   0   8 -18   10.49    2.31
   0  -8 -18   21.50    3.07
   0  -9   0    2.65    2.00
   0   9   0    1.00    0.86
   0  -9   1  462.94   16.19
   0  -9  -1  479.91   16.74
   0   9   1  483.53   16.83
   0   9  -1  512.96   18.46
   0  -9   2   14.85    2.59
   0  -9  -2   13.59    2.42
   0   9  -2   18.20    3.25
   0  -9   3    3.37    1.87
   0  -9  -3    3.29    1.61
   0   9  -3    3.85    1.30
   0  -9   4   41.02    5.22
   0  -9  -4   33.94    4.86
   0   9  -4   41.04    6.26
   0   9   5  198.51    7.70
   0  -9   5  194.82    7.90
   0   9  -5  169.43   13.60
   0   9   6   58.05    3.72
   0  -9   6   61.52    4.27
   0   9  -6   55.14    5.41
   0   9   7    9.77    2.63
   0  -9   7   14.80    3.85
   0   9  -7   12.51    3.41
   0   9   8    7.02    1.65
   0  -9   8    6.03    2.35
   0   9  -8   10.90    2.37
   0   9   9  833.47   24.17
   0  -9   9  872.88  163.65
   0   9  -9  827.36   27.04
   0   9  10    2.57    1.94
   0  -9  10   11.03    4.38
   0   9 -10    3.40    1.66
   0   9  11   28.34    4.06
   0  -9  11   50.70    5.15
   0   9 -11   25.98    3.43
   0   9  12    2.33    1.39
   0  -9  12    4.53    2.54
   0   9 -12    4.59    2.60
   0  -9 -12    7.10    3.29
   0   9  13  207.18   14.07
   0  -9  13  234.23   13.02
   0   9 -13  205.05   11.50
   0  -9 -13  211.17   12.07
   0   9  14   21.23    3.98
   0  -9  14   35.99    5.10
   0   9 -14   26.17    3.65
   0  -9 -14   20.57    4.14
   0   9  15   56.79   10.53
   0  -9  15   72.81    6.95
   0   9 -15   75.02    6.86
   0  -9 -15   81.62    7.54
   0   9  16    5.78    2.18
   0  -9  16   -0.99    2.06
   0   9 -16    8.28    2.65
   0  -9 -16    5.87    3.59
   0 -10   0   24.37    3.88
   0  10   0   23.34    3.87
   0 -10   1    0.30    1.69
   0 -10  -1    4.91    2.16
   0  10   1    2.68    1.18
   0  10  -1    2.16    0.86
   0 -10   2   20.32    3.49
   0 -10  -2   10.70    2.17
   0  10  -2   20.06    3.89
   0 -10   3   48.31    3.60
   0 -10  -3   55.55    3.65
   0  10  -3   53.71    5.85
   0 -10   4  245.89    8.55
   0 -10  -4  229.89    8.07
   0  10  -4  215.28   19.73
   0 -10   5   60.78    4.36
   0 -10  -5   53.47    3.94
   0  10  -5   60.91    7.62
   0 -10   6   52.59    4.45
   0  10  -6   47.51    5.85
   0  10   7    8.74    2.09
   0 -10   7   11.48    4.12
   0  10  -7   12.14    2.93
   0  10   8   35.49    3.07
   0 -10   8   30.01    3.45
   0  10  -8   26.87    3.79
   0  10   9    2.04    1.45
   0 -10   9    8.09    3.25
   0  10  -9    1.49    1.00
   0  10  10    3.33    1.22
   0 -10  10   12.10    4.26
   0  10 -10    3.58    1.48
   0  10  11   42.36    6.96
   0 -10  11   47.16    4.40
   0  10 -11   46.30    5.85
   0  10  12   55.07    7.81
   0 -10  12   77.82    7.51
   0  10 -12   58.64    7.29
   0 -10 -12   63.74    6.82
   0  10  13    2.60    1.38
   0 -10  13    9.79    3.73
   0  10 -13    2.45    1.95
   0 -10 -13    8.34    3.72
   0  10  14   19.77    3.96
   0 -10  14   28.63    3.44
   0  10 -14   25.52    5.08
   0 -11   0    7.02    2.84
   0  11   0    2.87    1.81
   0 -11   1   26.02    3.00
   0 -11  -1   28.36    2.96
   0  11  -1   41.92    3.80
   0 -11   2   19.83    2.67
   0 -11  -2   11.13    3.23
   0  11  -2   10.39    3.72
   0 -11   3  105.81    7.22
   0 -11  -3   86.87    6.08
   0  11  -3   85.08   11.20
   0 -11   4   15.05    3.58
   0 -11  -4    6.97    1.91
   0  11  -4   14.77    3.97
   0 -11   5   32.91    3.21
   0 -11  -5   22.62    4.78
   0  11  -5   25.70    3.77
   0 -11   6    3.35    2.33
   0 -11  -6    6.30    2.43
   0  11  -6    2.94    1.18
   0 -11   7   11.10    3.58
   0 -11  -7    8.48    2.74
   0  11  -7   18.60    3.44
   0 -11   8   67.86    4.80
   0 -11   9   58.04    6.05
   0  11  -9   38.46    5.76
   0 -11  10   15.71    3.22
   0  11 -10    3.16    1.43
   0  11 -11    2.79    1.34
   0  11 -12   57.35    9.51
   0  12  -1    2.66    1.23
   0  12  -2    2.48    1.28
   0  12  -3    2.71    1.10
   0  12  -4   35.35    5.86
   0  12  -5    3.11    2.12
   0  12  -6    3.15    1.74
   0  12  -7   47.22    8.91
   0  12  -8    2.67    1.92
  -1   0  22    4.68    2.24
   1   0 -22    5.68    2.46
  -1   0  21  128.69   11.58
   1   0 -21  125.22   11.25
  -1   0  20    8.55    3.16
   1   0 -20    6.21    2.91
  -1   0  19  333.53   62.64
   1   0 -19  305.56   19.03
  -1   0  18    7.64    3.08
   1   0 -18   11.03    3.10
  -1   0  17   37.50    6.42
   1   0 -17   42.87    3.81
  -1   0  16   18.13    3.38
   1   0 -16   12.92    2.53
  -1   0  15  391.70   14.56
   1   0 -15  381.89   14.21
  -1   0  14    2.19    2.20
   1   0 -14    1.44    1.85
  -1   0  13  264.09   10.22
   1   0 -13  253.53    9.88
  -1   0  12    8.04    1.94
   1   0 -12    2.75    1.66
  -1   0  11    1.67    1.73
   1   0 -11    5.10    2.39
  -1   0  10    6.10    2.62
   1   0 -10    2.43    1.60
  -1   0   9  194.84    6.38
   1   0  -9  204.10    6.62
  -1   0   8   14.00    1.86
   1   0  -8   10.78    1.30
  -1   0   8   10.21    1.18
  -1   0   7   62.18    2.61
   1   0  -7   58.24    2.45
  -1   0   7   57.14    2.10
  -1   0   6   15.99    1.48
   1   0  -6   13.55    1.31
  -1   0   6   14.29    1.12
  -1   0   5   56.73    2.08
   1   0  -5   50.97    1.88
  -1   0   5   47.38    1.77
  -1   0   4    5.20    1.98
   1   0  -4    2.43    1.57
  -1   0   4    2.18    1.13
  -1   0   3  845.73    6.27
  -1   0   3  784.57    5.47
  -1   0   2    4.35    0.64
   1   0  -2    3.95    0.52
  -1   0   2    4.22    0.88
  -1   0   1  413.86    3.15
  -1   0  -1 1109.72    7.08
   1   0   2   17.66    1.39
  -1   0  -2   19.90    1.29
  -1   0  -3 3033.46   17.69
  -1   0  -4    3.76    1.55
  -1   0  -5  256.53    3.55
   1   0   6    4.54    2.64
  -1   0  -6    5.06    1.43
  -1   0  -6    1.66    1.98
  -1   0  -7   77.85    3.14
   1   0   8    5.95    1.36
   1   0   9  117.57    4.57
  -1   0  -9  113.40    5.17
   1   0  10    0.96    1.73
  -1   0 -10    9.71    4.08
   1   0  11   18.03    3.00
  -1   0 -11   12.39    2.49
   1   0  12    0.78    1.97
  -1   0 -12    4.81    2.78
   1   0  13  316.02   12.00
  -1   0 -13  312.68   12.31
   1   0  14    5.00    2.83
  -1   0 -14    4.32    2.38
   1   0  15  378.63   14.14
  -1   0 -15  366.21   14.10
   1   0  16    3.67    2.06
  -1   0 -16    6.42    2.39
   1   0  17  105.63    6.44
  -1   0 -17   82.65    5.67
   1   0  18    2.21    1.92
  -1   0 -18    3.98    2.24
   1   0  19  175.64   11.74
  -1   0 -19  157.67   10.89
   1   0  20    6.35    2.99
  -1   0 -20    5.37    3.24
   1   0  21   32.44    4.09
  -1   0 -21   24.21    3.79
   1   0  22   13.05    2.94
  -1   0 -22    7.36    2.78
  -1   1  22    1.33    2.25
  -1  -1  22    4.32    2.50
   1   1 -22    2.79    1.91
   1  -1 -22    7.05    3.15
  -1  -1  21  114.84   10.53
  -1   1  21  128.20   11.63
   1   1 -21  107.43    9.85
   1  -1 -21  109.00    9.93
  -1   1  20    4.00    2.18
  -1  -1  20    4.72    2.28
   1   1 -20    2.63    1.96
   1  -1 -20    6.09    2.36
  -1   1  19   46.59    4.88
  -1  -1  19   30.44    3.70
   1   1 -19   47.64    4.41
   1  -1 -19   37.62    3.61
  -1   1  18   23.40    6.10
  -1  -1  18   26.13    6.75
   1   1 -18   16.49    4.07
   1  -1 -18   21.37    5.01
  -1   1  17   32.31    5.71
  -1  -1  17   25.75    4.67
   1   1 -17   24.57    4.67
   1  -1 -17   23.99    4.52
  -1   1  16   32.52    4.79
  -1  -1  16   32.73    4.69
   1   1 -16   32.17    4.53
   1  -1 -16   27.82    4.59
  -1   1  15   41.09    4.99
  -1  -1  15   40.02    4.88
   1   1 -15   40.84    4.76
   1  -1 -15   37.41    4.32
  -1   1  14  202.35    7.74
  -1  -1  14  203.88    7.63
   1   1 -14  216.66    8.22
   1  -1 -14  199.41    7.55
  -1   1  13 1645.17   55.59
  -1  -1  13 1569.79   53.08
   1   1 -13 1572.47   53.21
   1  -1 -13 1514.51   51.25
  -1   1  12   54.18    2.90
  -1  -1  12   47.29    2.59
   1   1 -12   43.15    2.76
   1  -1 -12   44.90    2.98
  -1   1  11  443.22   14.63
  -1  -1  11  433.97   14.31
   1   1 -11  436.84   14.58
   1  -1 -11  434.53   14.38
  -1   1  10  201.83    6.90
  -1  -1  10  188.55    6.64
   1   1 -10  190.17    6.72
   1  -1 -10  177.97    6.19
  -1   1   9  342.58   10.22
   1  -1  -9  329.09    9.77
  -1   1   8  160.47    4.28
   1  -1  -8  155.48    3.80
  -1   1   8  144.33    3.45
  -1   1   7  784.49   11.49
   1   1  -7  741.72   10.75
  -1  -1   7  735.75   10.69
   1  -1  -7  802.40   11.50
  -1   1   7  735.05   10.46
  -1   1   6  100.04    2.58
   1  -1  -6   91.50    2.30
   1   1  -6   92.40    2.27
   1   1  -6  101.65    2.52
  -1  -1   6   97.52    2.46
   1  -1  -6  102.14    2.34
  -1   1   6   94.38    2.09
  -1   1   5 1890.61   12.45
   1   1  -5 1793.04   11.52
   1   1  -5 1911.57   12.46
  -1  -1   5 1840.44   11.94
   1  -1  -5 1930.95   11.96
  -1   1   5 1881.74   11.58
  -1   1   4  214.36    3.26
   1  -1  -4  208.61    3.09
   1   1  -4  215.86    2.87
   1   1  -4  219.81    3.33
   1  -1  -4  220.99    2.63
  -1   1   4  212.45    2.54
  -1   1   3  837.01    7.36
   1  -1  -3  789.46    6.14
   1   1  -3  805.03    5.72
   1   1  -3  797.30    6.22
   1  -1  -3  779.55    5.10
  -1   1   3  765.44    5.01
  -1   1   2 1355.75    8.95
   1   1  -2 1316.24    7.92
   1   1  -2 1367.44    9.06
   1  -1  -2 1304.34    7.39
  -1  -1   2 1285.64    8.31
  -1   1   2 1331.74    7.53
  -1   1   0   28.63    1.28
   1  -1   0   26.46    2.13
   1   1   0   24.67    1.63
   1   1   0   24.52    0.81
   1   1   0   27.22    3.25
   1   1   1  538.19    3.81
  -1  -1  -1  521.33    3.63
   1  -1   1  540.38    4.86
  -1   1  -1  551.91    4.72
  -1   1  -1  517.79    3.88
   1   1   2  909.03    6.11
  -1  -1  -2  918.42    6.10
   1  -1   2  891.19    6.84
  -1   1  -2  922.45    6.89
  -1   1  -2  954.05    6.74
   1   1   3 2637.95   15.37
  -1  -1  -3 2647.11   15.39
   1  -1   3 2768.14   16.89
  -1   1  -3 2608.32   15.75
   1   1   4  427.91    4.32
  -1  -1  -4  414.64    4.21
   1  -1   4  442.22    5.22
  -1   1  -4  424.82    4.62
   1   1   5 1150.17    8.49
  -1  -1  -5 1106.08    8.19
   1  -1   5 1176.05    9.22
  -1   1  -5 1118.86    8.51
   1  -1   5 1147.06    8.68
   1   1   6  168.82    3.08
  -1  -1  -6  165.04    3.21
   1  -1   6  176.81    3.65
  -1   1  -6  171.06    3.11
  -1   1  -6  169.29    3.58
   1  -1   6  172.79    3.26
  -1  -1  -6  165.05    4.12
   1   1   7  790.18   11.67
   1  -1   7  791.63   12.06
  -1  -1  -7  762.66   11.28
  -1   1  -7  782.38   11.86
  -1  -1  -7  780.23   12.09
   1   1   8  750.31   11.37
   1  -1   8  692.44   10.85
  -1  -1  -8  690.57   11.06
   1   1   9   72.38    3.21
   1  -1   9   87.32    4.07
  -1  -1  -9   65.58    3.71
   1   1  10  627.72   17.81
   1  -1  10  655.14   18.78
  -1   1 -10  621.66   18.06
  -1  -1 -10  621.88   18.26
   1   1  11  849.36   26.70
   1  -1  11  795.05   25.09
  -1   1 -11  876.32   27.78
  -1  -1 -11  834.74   26.45
   1   1  12   21.88    3.11
   1  -1  12   26.06    3.35
  -1   1 -12   26.07    2.78
  -1  -1 -12   26.45    3.64
   1   1  13  279.46   11.22
   1  -1  13  270.57   10.76
  -1   1 -13  246.14   10.12
  -1  -1 -13  253.75   10.75
   1   1  14  100.39    5.14
   1  -1  14  105.32    5.22
  -1   1 -14  101.06    5.30
  -1  -1 -14   84.27    5.05
   1   1  15   52.18    5.84
   1  -1  15   58.07    6.38
  -1   1 -15   38.88    4.98
  -1  -1 -15   46.42    5.88
   1   1  16   26.63    4.17
   1  -1  16   39.06    5.85
  -1   1 -16   32.06    4.88
  -1  -1 -16   33.99    5.54
   1   1  17   43.57    4.07
   1  -1  17   40.87    3.83
  -1   1 -17   23.67    4.99
  -1  -1 -17   42.72    4.91
   1   1  18   98.90    5.73
  -1   1 -18   81.79    5.16
  -1  -1 -18   84.80    5.60
   1   1  19   76.54    6.01
   1  -1  19   59.40    5.34
  -1   1 -19   59.62    5.30
  -1  -1 -19   60.28    5.25
   1   1  20   32.10    3.17
   1  -1  20   28.35    3.30
  -1  -1 -20   39.05    4.31
   1   1  21   56.61    5.87
   1  -1  21   69.76    7.25
  -1   1 -21   65.44    7.40
  -1  -1 -21   63.43    7.01
   1   1  22   27.57    3.78
   1  -1  22   19.22    3.24
  -1   1 -22    8.64    2.60
  -1  -1 -22    7.63    2.87
  -1   2  22  282.27   16.22
  -1  -2  22  267.25   15.45
   1   2 -22  299.59   17.39
   1  -2 -22  260.10   14.90
  -1   2  21    1.44    1.88
  -1  -2  21    1.50    2.04
   1   2 -21   13.99    4.09
   1  -2 -21   -0.02    1.58
  -1   2  20  126.07    8.15
  -1  -2  20  131.95    8.19
   1   2 -20  130.13    8.12
   1  -2 -20  127.60    7.81
  -1   2  19   10.99    3.59
  -1  -2  19    4.64    2.09
   1   2 -19    6.28    2.99
   1  -2 -19   11.64    3.83
  -1   2  18  202.48    9.28
  -1  -2  18  172.17    8.21
   1   2 -18  176.75    8.35
   1  -2 -18  182.05    8.58
  -1   2  17   13.59    3.24
  -1  -2  17    7.31    3.13
   1   2 -17    9.83    3.48
   1  -2 -17    9.29    2.75
  -1   2  16  281.77   11.14
  -1  -2  16  272.71   10.89
   1   2 -16  251.69   10.20
   1  -2 -16  267.00   10.68
  -1   2  15  209.12    8.48
  -1  -2  15  211.97    8.86
   1   2 -15  202.55    8.50
   1  -2 -15  201.29    8.21
  -1   2  14  123.93    5.63
  -1  -2  14  129.50    6.23
   1   2 -14  111.33    5.52
   1  -2 -14  124.78    5.63
  -1   2  13  126.42    5.63
  -1  -2  13  123.27    6.10
   1   2 -13  120.05    5.82
   1  -2 -13  113.99    5.43
  -1   2  12  115.04    4.04
  -1  -2  12   97.88    3.67
   1   2 -12  117.90    4.45
   1  -2 -12   98.83    3.69
  -1   2  11   34.90    3.00
  -1  -2  11   29.95    2.84
   1   2 -11   37.24    3.10
   1  -2 -11   32.04    2.65
  -1   2  10  130.01    5.61
  -1  -2  10  124.94    5.20
   1   2 -10  117.98    5.13
   1  -2 -10  111.64    4.70
  -1   2   9  481.61   14.10
  -1  -2   9  453.45   13.04
   1   2  -9  466.78   13.63
   1  -2  -9  446.26   12.78
  -1   2   8 2579.97   34.24
  -1  -2   8 2605.52   34.47
   1  -2  -8 2496.53   32.85
  -1   2   8 2435.45   31.87
  -1  -2   7   19.83    1.62
   1   2  -7   18.05    1.66
   1   2  -7   23.02    1.85
   1  -2  -7   18.44    1.65
  -1   2   7   14.60    1.28
  -1  -2   6 2929.87   78.11
   1   2  -6 2813.77   36.54
   1   2  -6 2943.19   78.61
   1  -2  -6 2985.89   79.47
  -1   2   6 2889.37   37.22
   1  -2  -5   34.64    1.78
  -1  -2   5   40.63    1.64
   1   2  -5   37.66    1.73
   1   2  -5   37.71    2.00
  -1  -2   5   38.11    1.70
   1  -2  -5   41.30    1.56
  -1   2   5   38.28    1.37
   1  -2  -4  349.00    4.02
  -1  -2   4  359.60    3.56
   1   2  -4  364.00    3.66
   1   2  -4  358.46    4.23
   1  -2  -4  374.44    3.28
   1  -2  -3  184.33    2.84
  -1  -2   3  195.68    2.44
   1   2  -3  195.44    2.57
   1   2  -3  194.96    4.01
   1  -2  -3  196.90    1.91
   1  -2   0 6269.13   34.66
   1  -2   0 6282.16   33.35
   1   2   1 9372.87   49.37
  -1  -2  -1 9301.60   50.68
  -1  -2  -2 9982.15   54.34
   1  -2   2 9999.00  126.45
   1   2   3  287.20    2.93
  -1  -2  -3  279.58    2.97
   1  -2   3  293.73    4.47
  -1   2  -3  295.40    3.68
   1  -2   3  286.92    3.41
   1   2   4  301.90    3.41
  -1  -2  -4  289.38    3.35
   1  -2   4  294.66    4.65
  -1   2  -4  295.11    4.22
   1  -2   4  290.74    3.72
   1   2   5   93.50    2.21
  -1  -2  -5   88.09    2.09
   1  -2   5   96.95    3.28
  -1   2  -5   93.78    2.57
   1  -2   5   97.48    2.50
   1   2   6  669.64    9.88
  -1  -2  -6  664.46    9.80
   1  -2   6  690.20   10.88
  -1   2  -6  668.56   10.43
   1  -2   6  639.69    9.68
   1   2   7   91.29    2.77
  -1  -2  -7   84.73    2.69
   1  -2   7   99.35    3.39
  -1   2  -7   96.59    3.38
   1   2   8  430.94   12.47
   1  -2   8  455.72   13.53
  -1  -2  -8  446.17   13.51
   1   2   9  351.13   10.61
   1  -2   9  352.90   11.05
  -1   2  -9  336.03   10.40
  -1  -2  -9  345.04   11.10
   1   2  10  754.97   23.72
   1  -2  10  738.45   23.57
  -1   2 -10  732.87   23.33
  -1  -2 -10  715.39   22.98
   1   2  11  208.30    7.52
   1  -2  11  208.97    7.92
  -1  -2 -11  202.05    8.11
   1   2  12  191.29    5.39
   1  -2  12  203.43    6.03
  -1  -2 -12  181.50    5.79
   1   2  13   80.58    4.30
   1  -2  13   90.80    5.50
  -1  -2 -13   80.47    5.10
   1   2  14  244.13    8.79
   1  -2  14  231.96    9.39
  -1   2 -14  243.21    9.12
  -1  -2 -14  233.13    9.20
   1   2  15   58.25    6.40
   1  -2  15   56.04    6.35
  -1   2 -15   44.99    5.35
  -1  -2 -15   46.67    5.57
   1   2  16  268.13   13.75
   1  -2  16  232.70   12.50
  -1   2 -16  242.25   12.92
  -1  -2 -16  273.29   14.40
   1   2  17   80.04    4.17
   1  -2  17   87.74    5.72
  -1   2 -17   76.40    4.74
  -1  -2 -17  102.29    5.88
   1   2  18   54.89    3.94
   1  -2  18   58.77    4.87
  -1   2 -18   58.15    4.37
  -1  -2 -18   49.36    4.53
   1   2  19   37.76    3.89
   1  -2  19   25.03    3.07
  -1   2 -19   17.50    4.14
  -1  -2 -19   24.05    6.67
   1   2  20   77.03    5.64
   1  -2  20   73.78    5.91
  -1   2 -20   62.03    5.07
  -1  -2 -20   56.76    4.98
   1   2  21    6.68    2.53
   1  -2  21    3.10    2.21
  -1   2 -21    7.99    2.95
  -1  -2 -21    2.80    2.50
   1   2  22   38.11    3.83
   1  -2  22   64.66    6.00
  -1   2 -22   35.34    5.01
  -1   3  22   13.79    2.44
  -1  -3  22   26.08    3.53
   1   3 -22   13.01    2.67
   1  -3 -22   17.29    3.18
  -1   3  21  330.16   18.71
  -1  -3  21  300.10   22.74
   1   3 -21  269.55   20.61
   1  -3 -21  301.81   17.08
  -1   3  20   18.05    3.22
  -1  -3  20   31.19    3.95
   1   3 -20   20.26    3.05
   1  -3 -20   12.76    4.06
  -1   3  19   42.23    4.03
  -1  -3  19   30.09    3.77
   1   3 -19   38.72    4.11
   1  -3 -19   12.38    3.58
  -1   3  18   53.66    4.96
  -1  -3  18   36.22    3.65
   1   3 -18   49.13    4.90
   1  -3 -18   26.21    3.25
  -1   3  17  165.59    6.66
  -1  -3  17  149.25    6.25
   1   3 -17  156.88    6.54
   1  -3 -17  147.45    6.09
  -1   3  16   76.84    5.22
  -1  -3  16   73.26    5.30
   1   3 -16   90.18    6.08
   1  -3 -16   70.72    4.90
  -1  -3  15   84.18    5.01
   1   3 -15  107.47    5.88
   1  -3 -15   77.07    4.37
  -1  -3  14  131.56    6.03
   1   3 -14  137.21    6.60
   1  -3 -14  132.08    5.88
  -1  -3  13  409.62   13.54
   1   3 -13  414.66   13.90
   1  -3 -13  401.80   13.00
  -1  -3  12  133.50    5.89
   1   3 -12  160.07    7.01
   1  -3 -12  156.06    6.67
  -1  -3  11  785.96   13.65
   1   3 -11  818.40   14.42
   1  -3 -11  810.89   13.96
  -1  -3  10   52.43    3.55
   1   3 -10   65.99    3.91
   1  -3 -10   53.77    3.22
  -1  -3   9  592.17   16.90
   1   3  -9  620.60   17.80
   1  -3  -9  595.37   16.75
  -1  -3   8  702.53   19.54
   1   3  -8  704.62   19.82
   1  -3  -8  666.66   18.47
  -1  -3   7  217.42    4.39
   1   3  -7  217.75    6.76
   1   3  -7  253.04    8.01
   1  -3  -7  220.48    6.61
  -1   3   6   81.82    6.40
  -1  -3   6   70.93    2.14
   1   3  -6   71.57    2.21
   1   3  -6   74.85    2.59
   1  -3  -6   75.49    2.12
  -1   3   5   15.95    2.08
  -1  -3   5   13.50    1.36
   1   3  -5    7.22    0.91
   1   3  -5    7.35    1.22
   1  -3  -5   11.97    0.97
  -1   3   4  128.66    3.06
   1  -3  -4  120.58    2.46
  -1  -3   4  111.49    1.93
   1   3  -4  119.32    2.13
   1   3  -4  122.01    2.95
   1  -3  -4  116.05    1.80
   1  -3  -2  211.99    3.14
  -1  -3   2  211.44    2.08
   1   3  -2  195.46    2.04
   1  -3  -2  211.54    3.62
  -1  -3   2  230.81    3.31
   1  -3  -1  513.22    6.69
  -1  -3   1  506.80    3.16
   1   3  -1  474.35    3.02
  -1   3   1  475.33    3.57
   1  -3  -1  495.38    3.38
   1  -3   0   39.44    4.77
   1  -3   0   42.61    2.42
   1   3   0   50.86    4.62
  -1  -3   0   47.53    4.47
  -1   3   0   51.05    3.36
   1  -3   0   42.08    1.06
   1  -3   1  551.98    5.07
  -1  -3  -1  524.69    3.20
   1  -3   1  571.01    6.13
   1   3   1  564.60    5.55
  -1  -3  -1  567.25    5.44
  -1   3  -1  534.42    4.18
   1   3   2  561.55    3.78
  -1  -3  -2  552.11    3.81
   1  -3   2  583.44    6.21
  -1   3  -2  593.07    5.83
  -1  -3  -2  594.06    5.54
  -1   3  -2  595.50    4.86
   1  -3   2  553.83    4.58
   1   3   3 1045.87    6.76
  -1  -3  -3 1025.15    6.70
   1  -3   3 1013.88    8.69
  -1   3  -3 1002.36    8.12
  -1  -3  -3 1023.76    7.99
  -1   3  -3 1040.28    7.70
   1  -3   3 1018.19    7.48
   1   3   4   32.74    1.36
  -1  -3  -4   33.43    1.51
   1  -3   4   34.73    2.62
  -1   3  -4   27.85    1.73
  -1   3  -4   30.31    1.70
   1  -3   4   30.45    1.57
   1   3   5    7.55    0.95
  -1  -3  -5    9.68    1.06
   1  -3   5    9.12    1.90
  -1   3  -5    6.05    1.02
   1  -3   5    6.43    1.06
   1   3   6   11.02    1.21
  -1  -3  -6    9.77    1.15
   1  -3   6   13.76    2.35
  -1   3  -6   12.52    1.79
   1   3   7  477.79   13.56
  -1  -3  -7  399.61   11.34
   1  -3   7  473.99   14.05
  -1   3  -7  463.19   13.36
   1   3   8  886.91   24.45
   1  -3   8  822.95   23.28
  -1   3  -8  833.07   23.30
   1   3   9  789.42   21.98
   1  -3   9  785.69   22.46
  -1   3  -9  726.39   20.53
  -1  -3  -9  802.45   22.98
   1   3  10  182.85    6.79
   1  -3  10  178.12    7.32
  -1   3 -10  179.11    7.23
  -1  -3 -10  180.64    7.64
   1   3  11  448.36    8.99
   1  -3  11  443.25    9.55
  -1   3 -11  456.70    9.89
  -1  -3 -11  453.64   10.48
   1   3  12  125.04    5.66
   1  -3  12  125.44    6.53
  -1   3 -12  109.68    5.69
  -1  -3 -12  113.08    6.32
   1   3  13  172.87    6.76
   1  -3  13  170.48    7.40
  -1   3 -13  165.41    7.22
  -1  -3 -13  181.01    8.20
   1   3  14   22.20    2.99
   1  -3  14   19.82    4.06
  -1   3 -14   10.43    1.89
  -1  -3 -14   43.45    5.17
   1   3  15  418.76   15.36
   1  -3  15  414.06   15.42
  -1   3 -15  422.49   15.67
  -1  -3 -15  437.64   16.51
   1   3  16  101.77    6.11
   1  -3  16  114.40    8.13
  -1   3 -16   84.42    5.46
  -1  -3 -16   88.12    6.31
   1   3  17   34.06    5.55
   1  -3  17   26.64    4.86
  -1  -3 -17   21.77    4.67
   1   3  18  150.07    9.93
   1  -3  18  147.08   10.17
  -1  -3 -18  132.60    9.55
   1   3  19  203.56    8.26
   1  -3  19  188.41    8.51
  -1   3 -19  182.68    8.26
  -1  -3 -19  190.58    8.87
   1   3  20   36.92    4.34
   1  -3  20   43.54    5.60
  -1   3 -20   31.48    3.96
  -1  -3 -20   29.05    4.50
  -1   3 -21   12.89    3.07
  -1   4  21   75.83    6.09
  -1  -4  21   76.13    6.17
   1   4 -21   61.84    5.26
   1  -4 -21   61.02    5.08
  -1   4  20  142.43   12.57
  -1  -4  20  153.07   13.64
   1   4 -20  137.34   12.29
   1  -4 -20  146.80   13.02
  -1   4  19   57.57    4.80
  -1  -4  19   47.96    4.45
   1   4 -19   35.49    3.94
   1  -4 -19   38.89    3.87
  -1   4  18    7.22    2.98
  -1  -4  18   15.07    4.72
   1   4 -18    4.87    2.47
   1  -4 -18    3.36    1.96
  -1   4  17   16.47    3.74
  -1  -4  17   13.67    3.99
   1   4 -17   15.67    4.07
   1  -4 -17    9.92    3.04
  -1   4  16   14.80    3.62
  -1  -4  16   11.41    2.59
   1   4 -16    7.70    2.30
   1  -4 -16    7.24    2.51
  -1   4  15  325.08   16.30
  -1  -4  15  330.09   16.62
   1   4 -15  346.61   17.55
   1  -4 -15  302.84   15.15
  -1   4  14   72.78    4.64
  -1  -4  14   66.24    4.24
   1   4 -14   70.40    4.49
   1  -4 -14   56.35    3.64
  -1   4  13   45.74    4.86
  -1  -4  13   45.02    5.09
   1   4 -13   50.86    5.64
   1  -4 -13   40.22    4.45
  -1   4  12  510.11   18.31
  -1  -4  12  489.45   17.54
   1   4 -12  494.30   17.94
   1  -4 -12  478.56   17.03
  -1   4  11   53.15    3.71
  -1  -4  11   45.61    3.08
   1   4 -11   50.49    3.66
   1  -4 -11   47.51    3.45
  -1   4  10  384.08    8.41
  -1  -4  10  358.20    7.40
   1   4 -10  347.83    7.53
   1  -4 -10  357.36    7.41
  -1   4   9   69.74    6.78
  -1  -4   9   62.79    3.36
   1   4  -9   64.04    3.57
   1  -4  -9   71.35    3.55
  -1   4   8   14.69    2.17
  -1  -4   8   10.99    1.65
   1   4  -8   12.24    1.67
   1  -4  -8    8.53    1.51
  -1   4   7   65.60    5.81
  -1  -4   7   47.89    2.58
   1   4  -7   35.01    2.18
   1   4  -7   51.60    3.13
   1  -4  -7   40.60    2.13
  -1   4   6  262.81    8.36
  -1  -4   6  253.96    7.50
   1   4  -6  242.14    7.16
   1   4  -6  257.50    8.13
   1  -4  -6  260.34    7.63
  -1  -4   5  871.46   12.07
   1   4  -5  849.27   11.72
  -1   4   4  167.68    4.05
  -1  -4   4  169.25    3.23
   1   4  -4  158.29    2.98
   1  -4  -4  155.10    3.64
   1   4  -4  167.70    3.93
  -1   4   3  719.99   11.12
  -1  -4   3  729.50    9.99
   1   4  -3  692.61    9.46
   1  -4  -3  684.58    9.88
  -1   4   2 1328.50   20.87
  -1  -4   2 1274.54   16.61
   1   4  -2 1244.43   16.20
   1  -4  -2 1176.90   15.46
   1  -4  -1  353.80   11.31
  -1  -4   1  319.53    4.50
   1  -4   0   10.64    1.75
  -1  -4   0   11.62    0.54
  -1  -4   0    7.03    0.55
   1  -4   0   13.24    1.99
   1   4   0   18.64    2.38
  -1   4   0   16.17    1.53
   1  -4   0   12.20    0.93
   1  -4   1 1794.29   24.20
  -1  -4  -1 1769.84   22.61
   1  -4   1 1939.28   26.03
  -1  -4  -1 1826.30   23.36
   1   4   1 1834.20   24.56
  -1   4  -1 1890.21   24.62
   1  -4   1 1804.10   23.46
  -1  -4  -2  205.57    3.18
   1  -4   2  197.99    4.62
  -1   4  -2  202.06    3.75
   1  -4   2  223.52    3.84
   1   4   3  319.38    4.79
  -1  -4  -3  327.76    4.85
   1  -4   3  328.33    6.38
  -1   4  -3  353.18    5.89
   1  -4   3  328.29    5.36
   1   4   4   28.29    1.32
  -1  -4  -4   30.01    1.29
   1  -4   4   34.15    2.68
  -1   4  -4   30.46    1.89
   1  -4   4   35.55    1.75
   1   4   5  154.73    3.17
  -1  -4  -5  154.46    3.14
   1  -4   5  142.36    4.63
  -1   4  -5  155.78    3.65
   1  -4   5  150.42    3.48
   1   4   6   68.63    2.72
  -1  -4  -6   56.42    2.35
   1  -4   6   64.07    3.87
  -1   4  -6   62.80    3.07
   1   4   7   70.10    2.87
  -1  -4  -7   48.93    2.19
   1  -4   7   65.68    3.92
  -1   4  -7   66.31    3.22
   1   4   8    3.28    1.15
   1  -4   8    4.47    2.86
  -1   4  -8    8.69    1.66
   1   4   9  191.88    6.81
   1  -4   9  165.46    6.76
  -1   4  -9  163.12    6.31
   1   4  10  311.15    6.58
   1  -4  10  323.69    8.45
  -1   4 -10  301.75    6.95
   1   4  11   91.94    4.27
   1  -4  11  105.39    6.23
  -1   4 -11   92.68    5.06
  -1  -4 -11   92.12    5.69
   1   4  12  162.35    6.35
   1  -4  12  150.45    7.24
  -1   4 -12  150.27    6.80
  -1  -4 -12  151.40    7.59
   1   4  13   15.85    2.65
   1  -4  13   17.06    4.34
  -1   4 -13   16.85    2.99
  -1  -4 -13   21.77    5.05
   1   4  14   14.91    3.00
   1  -4  14   14.62    4.17
  -1   4 -14   18.86    3.84
  -1  -4 -14   17.04    4.11
   1   4  15  152.99    8.63
   1  -4  15  129.76    8.26
  -1   4 -15  125.90    7.66
  -1  -4 -15  128.78    8.14
   1   4  16   47.41    2.99
   1  -4  16   54.82    5.01
  -1   4 -16   41.18    3.62
  -1  -4 -16   53.90    4.53
   1   4  17   83.67    5.31
   1  -4  17   77.39    5.00
  -1   4 -17   75.97    5.16
  -1  -4 -17   80.81    6.14
   1   4  18   62.88    3.97
   1  -4  18   58.98    4.73
  -1   4 -18   53.80    4.40
  -1  -4 -18   63.35    5.32
   1   4  19  168.48    9.63
   1  -4  19  145.61    8.87
  -1   4 -19  163.25    9.53
  -1  -4 -19  159.47    9.80
   1   4  20   88.86    8.21
   1  -4  20   79.57    8.20
  -1   4 -20   73.71    7.41
  -1  -4 -20   83.87    8.57
   1   4  21    7.36    2.60
   1  -4  21   23.11    4.54
  -1   4 -21    3.00    2.57
  -1  -4 -21    6.60    2.72
  -1   5  20  102.89    9.08
  -1  -5  20  118.32    9.98
   1   5 -20   99.26    8.67
   1  -5 -20  117.16    9.67
  -1   5  19   15.28    3.67
  -1  -5  19   11.66    3.00
   1   5 -19    8.25    2.76
   1  -5 -19    4.51    1.84
  -1   5  18   29.29    2.72
  -1  -5  18   30.01    3.42
   1   5 -18   17.04    4.32
   1  -5 -18   25.69    3.22
  -1   5  17   40.93    4.04
  -1  -5  17   36.90    4.09
   1   5 -17   34.81    4.04
   1  -5 -17   33.36    3.92
  -1   5  16   16.67    4.10
  -1  -5  16   15.18    3.78
   1   5 -16    8.96    2.56
   1  -5 -16    7.00    2.58
  -1   5  15   33.16    5.27
  -1  -5  15   37.84    7.73
   1   5 -15   35.93    5.93
   1  -5 -15   27.49    4.48
  -1   5  14  185.13   11.71
  -1  -5  14  192.68   10.29
   1   5 -14  183.71   10.30
   1  -5 -14  197.51   10.45
  -1   5  13   65.62    6.70
  -1  -5  13   63.99    3.98
   1   5 -13   63.34    4.20
   1  -5 -13   58.63    3.71
  -1   5  12   19.74    4.24
  -1  -5  12   13.68    2.64
   1   5 -12   14.66    2.35
   1  -5 -12   16.09    2.53
  -1   5  11  199.44   10.98
  -1  -5  11  178.71    6.60
   1   5 -11  183.35    7.02
   1  -5 -11  179.09    6.68
  -1   5  10  110.52    8.33
  -1  -5  10  109.84    5.04
   1   5 -10   94.54    4.90
   1  -5 -10  101.19    5.03
  -1   5   9   10.91    1.48
  -1  -5   9    9.82    1.80
   1   5  -9    3.48    1.51
   1  -5  -9    5.90    1.76
  -1   5   8   52.99    6.22
  -1  -5   8   47.40    2.53
   1   5  -8   52.80    2.83
   1  -5  -8   46.12    2.43
  -1   5   7  101.18    5.66
  -1  -5   7   92.86    4.00
   1   5  -7   92.95    4.40
   1  -5  -7   97.01    4.17
  -1   5   6  360.45   12.70
  -1  -5   6  362.45   11.78
   1   5  -6  313.88   10.12
   1  -5  -6  352.05   11.06
  -1   5   5  123.12    7.70
  -1  -5   5  109.67    4.00
   1   5  -5   81.11    2.94
   1  -5  -5   79.25    5.34
  -1   5   4   95.34    5.60
  -1  -5   4   92.45    3.35
   1   5  -4   77.48    2.78
   1  -5  -4   77.69    4.02
  -1   5   3  532.39   16.11
  -1  -5   3  547.12   15.00
   1   5  -3  520.87   14.26
   1   5  -3  533.08   15.72
   1  -5  -3  509.71   14.36
  -1   5   2   48.83    2.67
  -1  -5   2   39.08    1.51
  -1  -5   2   45.49    1.96
   1   5  -2   50.52    4.46
   1  -5  -2   44.05    1.79
  -1  -5   1   17.99    1.29
  -1  -5   1   18.98    1.21
   1  -5  -1   19.46    2.66
  -1   5   1   19.12    1.66
   1   5  -1   15.44    2.44
   1  -5  -1   16.29    1.05
  -1  -5   0    1.29    0.46
  -1  -5   0    2.40    0.86
   1  -5   0    0.08    1.63
  -1   5   0    1.47    0.80
   1  -5   0    2.40    1.13
  -1  -5  -1    9.62    0.71
   1  -5   1   13.15    1.79
  -1  -5  -1   11.32    0.97
   1   5   1    8.48    1.18
  -1   5  -1   14.24    1.32
   1  -5   1   14.14    1.15
   1   5   2  306.49    8.46
  -1  -5  -2  292.21    8.09
   1  -5   2  285.68    8.91
   1   5   2  310.07    9.27
  -1   5  -2  298.93    8.72
   1  -5   2  301.86    8.66
   1   5   3  316.94    9.65
  -1  -5  -3  316.96    8.83
   1  -5   3  284.73    9.05
  -1   5  -3  323.96    9.44
   1  -5   3  300.23    8.69
   1   5   4  111.77    5.45
  -1  -5  -4  108.43    3.50
   1  -5   4  100.56    4.46
  -1   5  -4  107.27    3.90
   1   5   5   30.66    2.32
  -1  -5  -5   18.65    1.33
   1  -5   5   20.90    2.44
  -1   5  -5   20.65    1.81
   1   5   6  335.81   10.72
  -1  -5  -6  302.73    9.71
   1  -5   6  354.56   12.29
  -1   5  -6  336.85   11.23
   1   5   7  190.04    6.52
   1  -5   7  180.65    7.00
  -1   5  -7  199.94    7.28
   1   5   8    9.09    1.46
   1  -5   8   11.75    2.39
  -1   5  -8    5.76    1.49
   1   5   9   10.26    1.63
   1  -5   9   13.93    3.72
  -1   5  -9   12.26    1.91
   1   5  10  396.22   14.13
   1  -5  10  364.82   13.81
  -1   5 -10  360.48   13.40
   1   5  11  104.56    4.57
   1  -5  11  113.95    6.59
  -1   5 -11  101.15    4.93
  -1  -5 -11  117.67    6.87
   1   5  12    5.56    1.50
   1  -5  12    5.39    2.78
  -1   5 -12    7.98    2.57
  -1  -5 -12    8.37    3.39
   1   5  13    9.08    2.10
   1  -5  13   17.45    4.25
  -1   5 -13   18.21    3.86
  -1  -5 -13    1.35    2.69
   1   5  14  321.18   15.85
   1  -5  14  289.15   14.96
  -1   5 -14  294.47   15.09
  -1  -5 -14  278.91   14.70
   1   5  15   96.27    4.55
   1  -5  15   85.28    5.41
  -1   5 -15   82.96    4.68
  -1  -5 -15   79.32    5.12
   1   5  16   14.45    3.24
   1  -5  16   11.98    3.57
  -1   5 -16   13.45    3.63
  -1  -5 -16   14.48    4.29
   1   5  17   17.57    2.84
   1  -5  17   21.77    3.36
  -1   5 -17   15.96    2.82
  -1  -5 -17    8.22    3.12
   1   5  18   62.13    4.47
   1  -5  18   60.66    4.90
  -1   5 -18   67.03    5.16
  -1  -5 -18   54.43    4.88
   1   5  19    3.43    1.52
   1  -5  19    8.19    3.73
  -1   5 -19    3.80    2.14
  -1  -5 -19    7.44    4.08
   1   5  20    9.41    3.18
   1  -5  20   11.41    3.65
  -1   5 -20    8.74    3.20
  -1  -5 -20   12.10    4.78
  -1   6  20   31.58    5.52
  -1  -6  20   22.93    3.24
   1   6 -20   19.89    3.10
   1  -6 -20   32.41    3.65
  -1   6  19    5.44    2.70
  -1  -6  19    2.65    1.94
   1   6 -19    9.31    3.63
   1  -6 -19   14.87    3.32
  -1   6  18   79.41   11.70
  -1  -6  18   77.63    7.62
   1   6 -18   72.13    7.17
   1  -6 -18   79.00    7.68
  -1   6  17   68.22    7.38
  -1  -6  17   66.65    4.66
   1   6 -17   47.63    3.98
   1  -6 -17   56.91    4.41
  -1   6  16   83.64   10.13
  -1  -6  16   94.77    6.99
   1   6 -16   69.87    5.58
  -1   6  15    6.36    2.32
  -1  -6  15    1.63    2.05
   1   6 -15    3.56    1.74
   1  -6 -15    3.74    1.73
  -1   6  14   14.59    3.00
  -1  -6  14   11.57    2.96
   1   6 -14    7.40    2.66
   1  -6 -14    9.28    2.52
  -1   6  13   21.71    4.22
  -1  -6  13   11.77    2.77
   1   6 -13   19.44    4.02
   1  -6 -13   24.76    4.84
  -1   6  12  459.07   17.41
  -1  -6  12  444.30   16.05
   1   6 -12  466.71   17.00
   1  -6 -12  484.12   17.26
  -1   6  11   11.73    2.24
  -1  -6  11    5.08    2.68
   1   6 -11    5.52    1.34
   1  -6 -11   16.72    3.41
  -1   6  10   61.23    5.63
  -1  -6  10   58.57    3.51
   1  -6 -10   49.72    3.04
  -1   6   9   49.16    4.22
  -1  -6   9   34.52    2.57
   1  -6  -9   41.92    3.49
  -1   6   8  360.17   14.56
  -1  -6   8  346.40   12.49
   1   6  -8  356.76   13.17
   1  -6  -8  402.12   14.45
  -1   6   7   26.61    2.69
  -1  -6   7   16.33    1.70
   1  -6  -7   13.34    1.61
   1   6  -7   23.69    2.86
  -1   6   6  208.78   10.33
  -1  -6   6  173.81    4.47
   1   6  -6  198.77   11.18
  -1   6   5   16.03    2.14
  -1  -6   5   16.19    1.93
   1   6  -5   14.66    1.30
   1  -6  -5   12.10    1.48
   1   6  -5   19.72    2.38
  -1   6   4  246.75    8.61
  -1  -6   4  245.54    8.08
   1   6  -4  249.21    8.14
   1   6  -4  250.51   11.49
   1  -6  -4  217.11    9.89
  -1   6   3   28.10    2.31
  -1  -6   3   25.53    1.75
   1   6  -3   24.95    3.06
   1  -6  -3   18.62    1.80
  -1   6   2  944.70   29.37
  -1  -6   2  827.00   25.31
  -1  -6   2  895.65   27.36
   1   6  -2  885.82   27.63
   1  -6  -2  879.12   26.87
  -1  -6   1  332.58   11.24
  -1  -6   1  404.26   12.59
   1  -6  -1  407.61   13.86
  -1   6   1  369.23   11.98
   1   6  -1  380.69   13.11
   1  -6  -1  385.00   12.09
  -1  -6   0  132.36    5.33
  -1  -6   0  154.33    5.20
   1  -6   0  173.98    7.45
   1   6   0  148.76   10.21
  -1   6   0  159.46    7.13
   1  -6   0  149.18    5.10
  -1  -6  -1   65.58    2.44
   1  -6   1   63.92    3.88
  -1  -6  -1   62.07    2.54
   1   6   1   79.37    3.77
  -1   6  -1   71.29    4.43
   1  -6   1   67.86    2.77
  -1  -6  -2  771.75   23.53
   1  -6   2  792.89   25.17
  -1  -6  -2  754.87   23.13
   1   6   2  807.52   25.22
  -1   6  -2  858.52   26.80
   1  -6   2  628.06   19.44
   1   6   3   11.45    1.31
  -1  -6  -3   16.74    1.07
   1  -6   3   21.21    3.23
  -1   6  -3   19.81    1.98
   1   6   4   45.74    3.18
  -1  -6  -4   36.94    1.84
   1  -6   4   34.84    3.08
  -1   6  -4   37.26    2.46
   1   6   5   28.31    3.13
  -1  -6  -5   23.24    1.50
   1  -6   5   27.77    2.55
  -1   6  -5   29.87    1.95
   1   6   6  846.44   14.75
  -1   6  -6  842.47   14.20
   1   6   7   82.16    5.77
   1  -6   7   71.30    3.81
  -1   6  -7   73.87    3.21
   1   6   8  126.06    9.88
   1  -6   8  136.31    7.00
  -1   6  -8  112.54    5.28
   1   6   9  206.68    7.82
   1  -6   9  213.24    9.15
  -1   6  -9  186.66    7.55
   1   6  10  172.32    6.19
   1  -6  10  155.01    7.18
  -1   6 -10  140.78    5.93
   1   6  11   66.95    6.51
   1  -6  11   63.18    7.56
  -1   6 -11   60.81    6.26
   1   6  12   66.00    3.64
   1  -6  12   66.32    4.47
  -1   6 -12   82.25    4.71
  -1  -6 -12   74.87    5.30
   1   6  13   18.37    3.45
   1  -6  13   21.02    4.36
  -1   6 -13   27.39    5.16
  -1  -6 -13   10.60    3.21
   1   6  14    1.41    1.60
   1  -6  14    2.24    2.69
  -1   6 -14    1.82    2.07
  -1  -6 -14    9.60    3.93
   1   6  15    8.91    2.53
   1  -6  15   11.19    4.13
  -1   6 -15   10.03    2.91
  -1  -6 -15   12.97    4.15
   1   6  16   95.64    6.75
   1  -6  16   96.21    7.54
  -1   6 -16  101.69    7.67
  -1  -6 -16   87.17    7.72
   1   6  17   71.58    4.84
   1  -6  17   71.62    6.29
  -1   6 -17   66.81    5.20
  -1  -6 -17   72.03    6.00
   1  -6  18   13.04    4.17
  -1   6 -18    4.69    2.56
  -1  -6 -18    6.08    3.83
   1   6  19   73.17    6.40
   1  -6  19   97.93    9.21
  -1   6 -19   75.67    7.56
  -1  -6 -19   72.37    7.03
  -1   7  19    2.91    2.48
  -1  -7  19    8.24    3.35
   1   7 -19    6.55    2.61
  -1   7  18    3.36    1.91
  -1  -7  18    4.81    3.07
   1   7 -18    1.84    1.92
  -1   7  17  289.22   28.98
  -1  -7  17  329.30   27.39
   1   7 -17  326.82   27.38
   1  -7 -17  357.10   91.03
  -1   7  16   49.75    6.01
  -1  -7  16   59.21    4.93
   1   7 -16   36.18    3.93
   1  -7 -16   42.12    3.73
  -1   7  15  184.33   20.25
  -1  -7  15  189.46    7.74
   1  -7 -15  216.47    8.52
  -1   7  14   72.10    9.07
  -1  -7  14   72.53    4.40
   1  -7 -14   83.43    5.26
  -1   7  13  281.30   15.19
  -1  -7  13  307.70   10.05
   1   7 -13  262.07    9.23
   1  -7 -13  308.16   10.44
  -1   7  12   63.46    7.79
  -1  -7  12   51.67    4.14
   1   7 -12   58.81    4.29
   1  -7 -12   50.24    3.99
  -1   7  11   71.00    7.45
  -1  -7  11   63.52    4.67
   1   7 -11   75.29    4.91
   1  -7 -11   73.94    4.94
  -1   7  10   93.10    7.99
  -1  -7  10   93.28    4.66
   1   7 -10   95.12    4.98
   1  -7 -10  110.39    5.46
  -1   7   9  545.98   19.21
  -1  -7   9  563.90   19.34
   1   7  -9  558.21   19.79
  -1   7   8   18.41    3.32
  -1  -7   8   15.57    2.26
   1   7  -8   10.87    2.01
   1  -7  -8   16.93    2.94
  -1   7   7 1024.18   92.37
  -1  -7   7  965.22   28.76
   1   7  -7  987.79   31.18
  -1   7   6  125.58    8.91
  -1  -7   6  123.72    5.13
   1   7  -6  124.78   10.56
  -1   7   5   20.70    2.26
  -1  -7   5    7.84    1.44
   1   7  -5    7.75    1.91
   1   7  -5   18.12    2.46
   1  -7  -5    7.31    1.04
  -1   7   4   33.00    2.71
  -1  -7   4   22.57    1.91
   1   7  -4   27.95    3.47
   1  -7  -4   12.22    1.66
  -1  -7   3  168.07    7.12
  -1  -7   3  220.13    4.63
   1   7  -3  239.38   16.94
   1  -7  -3  189.85    3.96
  -1  -7   2   55.75    3.30
  -1  -7   2   81.66    2.57
   1  -7  -2   88.26    4.65
   1   7  -2   87.89    7.03
   1  -7  -2   67.78    2.11
  -1  -7   1  148.56    3.56
   1  -7  -1  159.12    5.33
  -1   7   1  149.28    3.60
   1   7  -1  163.58    9.41
   1  -7  -1  135.25    3.23
  -1  -7   0    7.39    0.83
  -1  -7   0    7.93    1.13
   1  -7   0    7.67    2.20
   1   7   0   13.06    1.94
  -1   7   0   10.76    1.42
  -1  -7  -1  643.60   10.08
  -1  -7  -1  706.82   11.29
   1  -7   1  716.99   12.84
   1   7   1  743.64   12.90
  -1   7  -1  737.39   13.73
  -1  -7  -2   32.98    1.43
   1  -7   2   35.29    2.94
  -1  -7  -2   37.64    1.98
   1   7   2   32.95    2.22
  -1   7  -2   39.25    2.57
  -1  -7  -3  315.00    5.58
   1  -7   3  312.76    7.32
  -1   7  -3  344.38    7.96
   1   7   4  113.96    6.38
  -1  -7  -4   94.08    3.73
   1  -7   4  116.17    5.99
  -1   7  -4  124.76   11.53
   1   7   5   69.68    5.95
  -1  -7  -5   51.81    2.51
   1  -7   5   50.61    4.41
  -1   7  -5   62.05    3.30
   1   7   6   39.67    3.60
   1  -7   6   31.48    3.75
  -1   7  -6   31.90    2.43
   1   7   7  564.56   17.15
   1  -7   7  585.27   19.08
  -1   7  -7  580.54   18.18
   1   7   8   42.20    5.16
   1  -7   8   47.97    5.81
  -1   7  -8   48.07    5.14
   1   7   9   94.52    6.82
   1  -7   9   89.06    5.64
  -1   7  -9  104.29    5.09
   1   7  10  316.97   15.01
   1  -7  10  315.56   12.37
  -1   7 -10  342.22   12.92
   1   7  11  300.51   20.73
   1  -7  11  320.26   16.35
  -1   7 -11  293.83   14.76
   1   7  12   16.11    3.51
   1  -7  12   14.03    3.51
  -1   7 -12   15.78    3.26
   1   7  13   90.22    4.80
   1  -7  13   85.93    5.49
  -1   7 -13   87.90    5.21
  -1  -7 -13   80.67    6.14
   1   7  14   48.31    3.94
   1  -7  14   65.67    6.61
  -1   7 -14   50.42    4.64
  -1  -7 -14   40.45    4.45
   1   7  15  343.52   12.08
   1  -7  15  325.32   12.34
  -1   7 -15  327.85   12.22
  -1  -7 -15  332.34   13.02
   1   7  16   22.17    2.57
   1  -7  16   18.79    3.60
  -1   7 -16   17.03    5.02
  -1  -7 -16   18.79    4.57
   1   7  17  104.27    9.32
   1  -7  17  106.01   10.45
  -1   7 -17   89.86    8.40
  -1  -7 -17   85.85    8.84
   1   7  18   16.29    2.69
   1  -7  18    2.03    2.42
  -1   7 -18   18.80    3.65
  -1  -7 -18   13.83    3.75
  -1   8  17   33.07    6.76
  -1  -8  17   52.32    5.54
   1   8 -17   59.23    5.80
  -1   8  16   28.69    4.97
  -1  -8  16   41.72    4.66
   1   8 -16   47.12    5.64
  -1   8  15    9.39    3.13
  -1  -8  15   11.02    3.55
   1   8 -15    4.68    2.76
  -1   8  14   28.81    4.17
  -1  -8  14   25.79    2.89
   1   8 -14   22.66    5.00
   1  -8 -14   20.23    4.36
  -1   8  13    4.09    1.80
  -1  -8  13    5.69    2.58
   1   8 -13    3.88    2.04
   1  -8 -13   12.26    4.09
  -1   8  12   53.49    6.81
  -1  -8  12   61.82    4.22
   1   8 -12   58.01    6.93
   1  -8 -12   48.38    3.62
  -1   8  11   52.73    5.64
  -1  -8  11   44.09    3.18
   1   8 -11   43.98    5.11
   1  -8 -11   49.35    3.09
  -1   8  10   66.43    7.79
  -1  -8  10   61.79    3.33
   1   8 -10   71.55    8.15
   1  -8 -10   74.58    4.09
  -1   8   9   71.01    7.50
  -1  -8   9   72.31    4.77
   1   8  -9   66.12    6.75
   1  -8  -9   81.54    5.28
  -1   8   8  181.23   11.24
  -1  -8   8  187.92    7.43
   1   8  -8  176.52   12.07
  -1   8   7   18.31    3.14
  -1  -8   7   10.57    2.82
   1   8  -7   21.29    3.70
  -1   8   6   56.48    7.18
  -1  -8   6   55.98    5.63
   1   8  -6   59.49    8.05
  -1   8   5   66.10    6.49
  -1  -8   5   69.97    8.20
   1   8  -5   69.39   10.78
  -1   8   4  402.29   14.29
  -1  -8   4  385.62   13.42
   1   8  -4  358.66   13.43
  -1  -8   3   15.16    1.82
  -1  -8   3   38.96    2.60
   1  -8  -3   30.79    3.58
   1   8  -3   32.30    3.35
  -1  -8   2  114.97    4.55
   1  -8  -2  116.39    5.90
   1   8  -2  118.50    8.87
  -1  -8   1   16.03    1.58
  -1  -8   1   25.41    1.97
   1  -8  -1   33.12    3.31
  -1   8   1   31.98    2.03
   1   8  -1   30.68    3.00
  -1  -8   0    2.51    0.80
  -1  -8   0    1.59    1.02
   1  -8   0    2.90    2.12
  -1   8   0    3.66    1.20
   1   8   0    1.83    1.21
  -1  -8  -1    8.29    0.82
  -1  -8  -1    7.17    1.17
   1  -8   1   14.94    2.76
   1   8   1   11.96    1.89
  -1   8  -1   17.94    2.28
  -1  -8  -2  200.45    6.35
   1  -8   2  200.69    7.71
  -1  -8  -2  221.81    7.27
  -1   8  -2  257.74   14.03
  -1  -8  -3   16.01    1.19
   1  -8   3   26.77    3.32
  -1  -8  -3   17.19    1.95
  -1   8  -3   22.34    2.25
   1  -8   4  291.78   11.37
  -1   8  -4  331.65   15.55
   1   8   5   12.62    1.66
   1  -8   5    9.02    2.92
  -1   8  -5   11.81    1.88
   1   8   6  177.22   11.11
   1  -8   6  183.86    8.49
  -1   8  -6  207.68   16.33
   1   8   7   93.30    8.32
   1  -8   7  112.78    6.30
  -1   8  -7   97.04    4.66
   1   8   8   62.76    5.98
   1  -8   8   61.16    4.97
  -1   8  -8   57.30    3.39
   1   8   9   31.32    5.84
   1  -8   9   38.90    6.44
  -1   8  -9   34.68    5.88
   1   8  10   23.97    4.43
   1  -8  10   33.91    5.93
  -1   8 -10   31.24    4.88
   1   8  11   41.13    4.54
   1  -8  11   48.44    4.54
  -1   8 -11   42.97    3.24
   1   8  12   15.48    3.77
   1  -8  12   18.52    4.93
  -1   8 -12   19.07    4.08
   1   8  13    9.26    2.71
   1  -8  13    8.27    4.58
  -1   8 -13    6.49    2.64
  -1  -8 -13   12.04    4.83
   1   8  14   73.31    8.39
   1  -8  14   92.15    5.90
  -1   8 -14   80.12    4.56
  -1  -8 -14   86.68    5.43
   1   8  15    6.21    2.43
   1  -8  15    3.12    2.84
  -1   8 -15    7.53    3.51
  -1  -8 -15    6.33    3.10
   1   8  16   37.02    6.06
   1  -8  16   52.18    5.67
  -1   8 -16   52.73    5.52
  -1  -8 -16   55.25    6.43
   1   8  17   44.98    7.40
   1  -8  17   57.09    4.95
  -1   8 -17   72.76    5.63
  -1  -8 -17   53.88    5.70
  -1   9  16    2.08    1.23
  -1  -9  16    7.44    2.41
   1   9 -16    6.45    1.83
  -1   9  15   10.48    3.35
  -1  -9  15   14.26    2.82
   1   9 -15   11.89    3.37
  -1   9  14    8.10    3.79
  -1  -9  14    7.56    1.88
   1   9 -14   17.10    3.99
  -1   9  13    2.90    2.21
  -1  -9  13    4.55    1.91
   1   9 -13    2.65    1.93
  -1   9  12   10.32    2.45
  -1  -9  12    9.71    2.76
   1   9 -12    8.58    2.45
  -1   9  11   11.11    3.06
  -1  -9  11    8.09    2.46
   1   9 -11   12.70    3.59
  -1   9  10   64.33    8.08
  -1  -9  10   64.33    4.77
   1   9 -10   66.15    8.38
   1  -9 -10   66.70    4.89
  -1   9   9   27.46    7.28
  -1  -9   9   25.37    6.39
   1   9  -9   22.95    6.53
   1  -9  -9   24.26    6.00
  -1   9   8  145.14   15.47
  -1  -9   8  160.70    5.90
   1   9  -8  146.84   12.24
  -1   9   7   31.49    4.84
  -1  -9   7   27.49    4.41
   1   9  -7   25.15    4.77
  -1   9   6   74.01    4.78
  -1  -9   6   71.50    4.70
   1   9  -6   63.31    6.35
  -1   9   5   22.58    3.93
  -1  -9   5   29.63    5.03
   1   9  -5   29.72    6.08
  -1  -9   4   26.81    4.50
   1  -9  -4   36.85    6.52
   1   9  -4   29.02    5.88
  -1  -9   3   67.17    3.26
   1  -9  -3   68.65    4.48
   1   9  -3   69.37    7.76
  -1  -9   2   29.01    3.67
   1  -9  -2   32.72    4.69
   1   9  -2   39.00    6.18
  -1  -9   1   11.96    2.02
   1  -9  -1    6.64    2.10
  -1   9   1    9.91    1.73
   1   9  -1   10.33    2.38
  -1  -9   0   20.94    2.74
   1  -9   0   27.05    4.15
   1   9   0   18.93    3.04
  -1   9   0   18.95    3.00
  -1  -9  -1    8.07    1.36
   1  -9   1    5.66    2.08
   1   9   1   26.00    3.78
  -1   9  -1   18.22    3.02
   1  -9   2   16.40    3.09
  -1  -9  -2   10.62    1.89
  -1   9  -2   12.73    2.47
   1  -9   3   44.18    6.04
  -1  -9  -3   38.32    4.62
  -1   9  -3   45.68    6.73
   1  -9   4  196.35   10.83
  -1  -9  -4  174.27    8.73
  -1   9  -4  189.04   14.16
   1  -9   5    8.27    2.68
  -1  -9  -5    2.53    1.01
  -1   9  -5   11.31    2.50
   1   9   6  224.86   10.88
   1  -9   6  239.57   12.74
  -1   9  -6  232.79   14.58
   1   9   7    2.78    0.87
   1  -9   7    8.73    3.52
  -1   9  -7    6.76    1.55
   1   9   8   35.56    5.86
   1  -9   8   45.79    4.17
  -1   9  -8   44.51    5.06
   1  -9   9   25.10    6.54
  -1   9  -9   19.06    4.22
   1   9  10   11.37    3.18
   1  -9  10    5.09    3.34
  -1   9 -10   12.77    3.54
   1   9  11    2.32    1.03
   1  -9  11    7.11    4.06
  -1   9 -11    5.99    2.68
   1   9  12   35.67    4.54
   1  -9  12   34.36    4.02
  -1   9 -12   26.23    2.35
   1   9  13    1.91    0.91
   1  -9  13   17.17    5.62
  -1   9 -13    7.75    2.59
   1   9  14   93.00   14.21
   1  -9  14  156.81   14.18
  -1   9 -14  131.18   11.61
  -1  -9 -14  129.71   12.15
   1   9  15    1.53    1.23
   1  -9  15    7.85    4.08
  -1   9 -15    5.32    2.60
  -1  -9 -15   13.16    4.77
   1  -9  16    1.64    2.50
  -1   9 -16    6.96    2.24
  -1  -9 -16   11.16    3.89
  -1  10  14   47.40    7.27
   1  10 -14   44.20    7.13
  -1  10  13    7.51    2.81
   1  10 -13    6.66    2.76
  -1  10  12   20.86    4.45
   1  10 -12   22.65    6.48
  -1  10  11    1.67    0.99
   1  10 -11    4.41    1.73
  -1  10  10    3.95    1.53
   1  10 -10   10.63    3.47
  -1  10   9   34.60    2.83
   1  10  -9   22.49    5.70
  -1  10   8    4.17    1.72
   1  10  -8    3.05    1.27
  -1  10   7    6.10    2.26
   1  10  -7    7.61    2.22
   1  10  -6  115.89   12.24
   1 -10  -5   96.54    5.51
   1  10  -5   91.42    9.56
   1 -10  -4  166.43    8.05
   1  10  -4  157.46   12.81
   1 -10  -3   12.20    2.65
   1  10  -3   22.94    5.08
   1 -10  -2  109.70    5.08
   1  10  -2  102.27   10.57
   1 -10  -1   38.64    7.83
   1  10  -1   36.36    6.54
   1 -10   0  111.21    4.97
  -1  10   0  114.73    4.26
   1  10   0  135.74    5.64
   1 -10   1   47.92    3.74
   1  10   1   52.94    3.37
  -1  10  -1   42.30    4.62
   1 -10   2   61.60    4.30
  -1  10  -2   61.68    6.54
   1 -10   3   11.81    3.56
  -1  10  -3   13.95    3.14
   1 -10   4   89.36    5.26
  -1  10  -4   83.83    9.09
   1 -10   5   43.36    4.05
  -1  10  -5   41.90    4.83
   1 -10   6   74.48    4.97
  -1  10  -6   61.76    5.84
   1 -10   7    8.72    2.98
  -1  10  -7   12.73    3.46
   1 -10   8   11.79    4.30
  -1  10  -8    4.91    1.48
   1 -10   9   66.49    5.37
  -1  10  -9   60.61    6.51
   1 -10  10   13.89    5.05
  -1  10 -10    0.80    1.40
   1 -10  11   59.81    6.81
  -1  10 -11   44.73    6.43
   1 -10  12    4.22    2.55
  -1  10 -12    3.91    1.97
   1 -10  13   10.30    4.53
  -1  10 -13    1.91    1.46
   1 -10  14   18.93    3.42
  -1  10 -14   17.40    2.81
  -1 -10 -14   25.73    4.17
  -1  11  11   32.29    3.15
   1  11 -11   22.65    4.72
  -1  11  10    3.39    1.91
   1  11 -10    9.04    3.06
  -1  11   9  144.67   12.42
   1  11  -9  101.45   15.53
  -1  11   8   21.44    3.51
   1  11  -8   22.99    4.44
   1 -11  -7  149.38    9.05
   1  11  -7   99.20   17.39
   1 -11  -6    6.02    2.39
   1  11  -6    8.39    3.30
   1 -11  -5   21.28    4.72
   1  11  -5   15.05    4.06
   1 -11  -4   24.29    6.62
   1  11  -4   28.73    4.44
   1 -11  -3    6.65    2.73
   1  11  -3   10.33    2.80
   1 -11  -2    4.90    1.93
   1  11  -2    2.82    1.55
   1 -11  -1   12.96    3.17
   1  11  -1   22.12    4.94
   1 -11   0   34.46    3.19
  -1  11   0   28.16    2.14
   1  11   0   36.76    3.10
   1 -11   1  119.05    6.33
  -1  11  -1  116.62    4.88
   1 -11   2    5.70    2.93
  -1  11  -2    4.55    1.78
   1 -11   3   61.43    4.53
  -1  11  -3   50.21    7.34
   1 -11   4    5.75    2.38
  -1  11  -4    5.86    2.29
   1 -11   5   64.85    5.07
  -1  11  -5   38.03    6.01
   1 -11   6    8.67    3.79
  -1  11  -6    0.78    1.24
   1 -11   7   33.84    3.52
  -1  11  -7   26.51    4.22
   1 -11   8    9.58    3.49
  -1  11  -8    7.70    1.98
   1 -11   9   74.09    8.01
  -1  11  -9   35.48    6.21
   1 -11  10   14.43    3.32
  -1  11 -10   13.51    2.32
   1 -11  11   58.86    5.49
  -1  11 -11   41.27    5.42
   1 -12  -8    9.53    2.52
   1  12  -8   15.68    3.09
   1 -12  -7    6.40    1.92
   1  12  -7    3.61    1.41
   1 -12  -6   13.23    2.82
   1  12  -6   17.72    3.53
   1 -12  -5   17.73    3.45
   1  12  -5    5.68    2.38
   1 -12  -4   27.31    3.55
   1  12  -4   35.93    5.97
   1 -12  -3    8.34    3.15
   1  12  -3    9.12    1.92
   1 -12  -2   78.33    7.67
   1  12  -2  107.23    9.84
   1 -12  -1   41.87    5.02
   1  12  -1   26.43    3.43
   1 -12   0   14.01    3.48
   1 -12   1   20.02    3.79
   1 -12   2   21.80    6.30
   1 -12   3   15.76    4.01
   1 -12   4   10.71    4.11
   1 -12   5   12.99    3.17
  -1  12  -5    0.77    1.56
   1 -12   6   68.76    6.33
  -1  12  -6   46.70    9.19
   1 -12   7   16.74    3.00
  -1  12  -7    8.25    2.05
   1 -12   8    1.43    2.00
  -1  12  -8    1.99    0.91
  -2   0  21   -0.20    2.18
   2   0 -21    1.56    1.66
  -2   0  20  336.46   27.93
   2   0 -20  351.21   89.52
  -2   0  19    1.87    1.79
   2   0 -19    5.20    2.41
  -2   0  18    6.85    3.21
   2   0 -18    1.91    1.46
  -2   0  17    4.67    2.80
   2   0 -17    1.42    1.45
  -2   0  16  395.08   19.64
   2   0 -16  384.13   18.91
  -2   0  15    4.95    2.74
   2   0 -15    5.59    2.36
  -2   0  14  475.65   16.99
   2   0 -14  480.82   17.04
  -2   0  13    1.56    2.00
   2   0 -13    1.72    1.48
  -2   0  12   13.64    2.04
   2   0 -12   15.77    2.09
  -2   0  11    2.10    1.65
   2   0 -11    1.49    1.18
  -2   0  10   99.15    4.22
   2   0 -10  106.27    4.45
  -2   0   9   28.01    2.28
   2   0  -9   27.49    2.21
  -2   0   8   65.65    3.12
   2   0  -8   74.40    3.22
  -2   0   7    7.41    1.53
   2   0  -7    7.85    1.44
  -2   0   7    6.06    0.90
  -2   0   6 4068.27  108.99
   2   0  -6 3980.12  105.88
  -2   0   6 3834.50  102.01
  -2   0   5   13.10    1.63
   2   0  -5   10.54    1.26
   2   0  -5   11.90    1.49
  -2   0   5    8.52    0.87
  -2   0   4  580.54   11.57
   2   0  -4  546.53    8.07
   2   0  -4  555.11    8.13
  -2   0   4  554.19    7.98
  -2   0   3    6.24    0.89
   2   0  -3    6.24    1.03
   2   0  -3    8.43    1.21
  -2   0   3    4.27    0.96
  -2   0   2 1753.80   12.54
   2   0  -2 1767.60   11.67
   2   0  -2 1876.97   12.79
  -2   0   2 1892.32   11.70
  -2   0   1   30.50    1.64
   2   0  -1   32.51    2.56
   2   0  -1   28.94    1.41
  -2   0   1   36.66    2.11
   2   0   0   75.04    3.32
   2   0   0   69.92    2.23
  -2   0   0   77.08    3.83
   2   0   1   12.23    1.13
   2   0   1    5.59    2.18
  -2   0  -1   11.23    0.87
   2   0   2  223.26    3.65
  -2   0  -2  197.67    3.33
   2   0   3   -1.07    1.43
  -2   0  -3    2.70    1.15
   2   0   4  499.46    8.07
  -2   0  -4  465.69    7.41
   2   0   5    6.37    2.34
  -2   0  -5    5.22    1.72
   2   0   6 1296.89   18.37
  -2   0  -6 1439.67   20.40
   2   0   7   23.56    2.38
  -2   0  -7   42.37    3.33
   2   0   8  288.70    9.15
  -2   0  -8  272.93    9.03
   2   0   9   28.53    3.20
  -2   0  -9   22.58    3.31
   2   0  10   74.87    4.18
  -2   0 -10   67.77    3.85
   2   0  11    2.72    1.87
   2   0  12   59.58    4.17
  -2   0 -12   37.33    3.30
   2   0  13    4.66    3.26
  -2   0 -13   13.68    4.33
   2   0  14  141.65    7.46
   2   0  15    5.07    2.34
  -2   0 -15    0.87    2.21
   2   0  16  245.52   13.11
  -2   0 -16  254.53   13.85
   2   0  17   13.90    3.78
   2   0  18   11.63    3.86
  -2   0 -18   19.18    3.30
   2   0  19    7.59    3.79
  -2   0 -19   11.12    4.97
  -2   0 -20   42.23    5.61
   2   0  21    5.36    2.62
  -2   0 -21    9.55    4.10
  -2   1  21  158.59   12.60
  -2  -1  21  188.19   14.72
   2   1 -21  170.89   13.63
   2  -1 -21  158.16   12.46
  -2   1  20   59.36    6.43
  -2  -1  20   63.11    6.62
   2   1 -20   44.94    5.24
   2  -1 -20   35.53    4.06
  -2   1  19  292.96   10.88
  -2  -1  19  314.25   11.68
   2   1 -19  284.24   10.72
   2  -1 -19  306.88   11.25
  -2   1  18    9.48    3.59
  -2  -1  18    9.66    3.15
   2   1 -18    6.52    2.89
   2  -1 -18   11.59    3.64
  -2   1  17   24.88    6.37
  -2  -1  17   29.97    3.25
   2   1 -17   31.20    3.06
   2  -1 -17   25.49    6.29
  -2   1  16   32.22    5.89
  -2  -1  16   28.93    5.46
   2   1 -16   12.10    3.02
   2  -1 -16   20.71    4.21
  -2   1  15  128.24    6.03
  -2  -1  15  123.95    5.99
   2   1 -15  128.60    6.04
   2  -1 -15  138.28    6.06
  -2   1  14   56.56    5.96
  -2  -1  14   75.87    4.99
   2   1 -14   68.60    6.91
   2  -1 -14   65.93    6.81
  -2   1  13   64.98    4.56
  -2  -1  13   51.32    3.83
   2   1 -13   67.69    4.38
   2  -1 -13   54.34    3.40
  -2   1  12   11.15    2.97
  -2  -1  12    9.74    2.82
   2   1 -12    4.40    1.53
   2  -1 -12    5.57    2.00
  -2   1  11 1994.45   31.18
  -2  -1  11 1998.67   30.99
   2   1 -11 2059.23   69.04
   2  -1 -11 2029.01   67.89
  -2   1  10  147.90    4.45
  -2  -1  10  140.13    4.39
   2   1 -10  147.37    4.39
   2  -1 -10  131.56    3.90
  -2   1   9   38.91    2.62
  -2  -1   9   41.70    2.59
   2   1  -9   41.66    2.56
   2  -1  -9   38.90    2.15
  -2   1   8   10.89    1.84
  -2  -1   8   14.93    1.88
   2   1  -8    9.24    1.41
   2  -1  -8   14.44    1.49
  -2   1   8   10.54    1.03
  -2   1   7  183.88    5.95
  -2  -1   7  205.38    6.42
   2   1  -7  208.26    6.58
   2  -1  -7  211.10    6.33
  -2   1   7  195.81    5.87
  -2   1   6  239.51    7.11
  -2  -1   6  246.70    4.67
   2   1  -6  218.32    4.06
   2   1  -6  249.29    4.71
   2  -1  -6  244.22    4.13
  -2   1   6  234.29    4.00
  -2   1   5   40.55    2.91
   2  -1  -5   29.37    1.38
   2   1  -5   42.89    4.04
  -2  -1   5   23.05    1.31
  -2   1   5   27.25    1.21
  -2   1   4  636.38   11.13
  -2  -1   4  624.24    9.61
   2   1  -4  604.00    8.72
   2  -1  -4  623.05    9.01
   2   1  -4  620.29    9.74
  -2  -1   4  617.56    8.99
  -2   1   4  620.87    8.57
  -2   1   3  348.57   10.83
   2  -1  -3  275.12    6.68
   2   1  -3  280.48    4.57
   2  -1  -3  257.40    4.30
  -2  -1   3  255.00    4.40
  -2   1   3  277.82    4.19
  -2   1   2   66.32    4.00
  -2  -1   2   54.27    3.60
   2  -1  -2   42.76    4.22
   2   1  -2   51.90    1.58
   2  -1  -2   42.68    1.21
   2   1  -2   73.58    6.17
  -2  -1   2   42.43    4.37
  -2   1   2   43.59    1.12
  -2  -1   1  747.21    5.54
   2  -1  -1  751.01    6.40
   2   1  -1  784.50    6.05
   2   1  -1  754.08    6.71
  -2  -1   1  771.25    6.15
  -2   1   1  756.35    5.22
   2  -1   0   68.82    1.90
   2   1   0   81.28    4.58
   2   1   0   76.80    1.97
   2  -1   0   69.56    2.58
  -2   1   0   71.22    1.50
  -2  -1   0   78.10    4.30
  -2  -1  -1   76.73    5.33
   2   1   2  178.23    3.04
   2  -1   2  169.21    3.39
  -2   1  -2  175.24    3.05
  -2  -1  -2  176.24    2.66
  -2  -1  -2  158.47    2.69
   2   1   3  758.77   10.89
   2  -1   3  740.97   11.10
  -2  -1  -3  744.58   10.53
  -2   1  -3  731.26   10.67
  -2   1  -3  768.66   11.18
   2   1   4  265.18    5.07
   2  -1   4  252.53    5.40
  -2  -1  -4  265.12    4.85
  -2   1  -4  283.06    5.63
   2   1   5  207.61    4.51
   2  -1   5  193.59    4.66
  -2  -1  -5  201.92    4.03
  -2   1  -5  196.19    4.45
   2   1   6   40.52    2.57
   2  -1   6   51.98    3.60
  -2  -1  -6   40.50    2.38
  -2   1  -6   43.35    3.11
   2   1   7  226.38    7.25
   2  -1   7  243.58    8.17
  -2   1  -7  219.61    7.53
   2   1   8   27.33    2.66
   2  -1   8   26.99    2.54
  -2   1  -8   28.12    2.57
  -2  -1  -8   35.39    3.47
   2   1   9   41.64    3.39
   2  -1   9   32.92    3.65
  -2   1  -9   22.73    2.25
   2   1  10  846.57   14.70
   2  -1  10  893.22   15.84
  -2   1 -10  858.04   15.23
   2   1  11  513.65   10.15
   2  -1  11  544.73   11.14
  -2   1 -11  518.93   11.50
   2   1  12   71.99    4.12
   2  -1  12   66.81    4.63
  -2   1 -12   55.02    3.99
  -2  -1 -12   66.45    4.54
   2   1  13  294.18   10.20
   2  -1  13  310.34   11.06
  -2   1 -13  282.58   10.44
  -2  -1 -13  296.72   10.74
   2   1  14   23.62    3.09
   2  -1  14   26.70    3.88
  -2   1 -14   17.73    3.30
  -2  -1 -14   19.93    3.65
   2   1  15   20.94    4.29
  -2  -1 -15   20.55    4.83
   2   1  16   82.10    4.75
   2  -1  16   60.44    4.46
  -2   1 -16   47.21    3.62
  -2  -1 -16   51.46    4.15
   2   1  17   87.78    5.71
   2  -1  17   55.99    4.59
  -2   1 -17   57.99    4.80
  -2  -1 -17   52.94    4.37
   2   1  18   83.76    6.37
   2  -1  18   91.33    6.96
  -2  -1 -18   71.81    5.80
   2   1  19   97.23    7.35
   2  -1  19   51.63    4.60
  -2  -1 -19   41.42    4.72
   2   1  20  106.94    9.73
   2  -1  20  101.89    9.60
  -2  -1 -20   93.09    9.14
   2   1  21   53.60    5.95
   2  -1  21   46.14    4.85
  -2   1 -21   31.78    4.07
  -2  -1 -21   39.98    4.82
  -2   2  21    6.99    3.32
  -2  -2  21    9.95    4.04
   2   2 -21    9.52    3.61
   2  -2 -21    9.86    3.45
  -2   2  20   20.47    3.68
  -2  -2  20   24.85    3.90
   2   2 -20   24.98    3.64
   2  -2 -20   21.56    3.64
  -2   2  19   15.16    4.49
  -2  -2  19   17.44    5.03
   2   2 -19   12.07    4.08
   2  -2 -19   24.14    2.80
  -2   2  18  129.79    8.97
  -2  -2  18  140.73    9.62
   2   2 -18  131.37    9.09
   2  -2 -18  135.03    8.98
  -2   2  17   28.86    3.26
  -2  -2  17   37.57    3.90
   2   2 -17   28.98    3.15
   2  -2 -17   30.38    2.67
  -2   2  16   36.99    7.50
  -2  -2  16   39.44    3.09
   2   2 -16   26.68    4.52
   2  -2 -16   43.31    3.10
  -2   2  15   13.12    3.28
  -2  -2  15   13.73    3.44
   2   2 -15    8.42    2.72
   2  -2 -15    7.76    2.22
  -2   2  14  327.83   12.52
  -2  -2  14  311.23   11.71
   2   2 -14  316.85   12.14
   2  -2 -14  339.06   12.47
  -2   2  13   12.16    2.64
  -2  -2  13   17.57    3.13
   2   2 -13   12.18    3.35
   2  -2 -13    6.76    2.19
  -2   2  12  322.28   12.02
  -2  -2  12  319.53   11.89
   2   2 -12  330.78   12.40
   2  -2 -12  358.46   12.85
  -2   2  11  299.11   11.33
  -2  -2  11  303.71   11.18
   2   2 -11  309.61   11.57
   2  -2 -11  305.66   11.08
  -2   2  10  330.62    9.80
  -2  -2  10  328.24    6.79
   2   2 -10  345.52    7.37
   2  -2 -10  332.47    6.39
  -2   2   9  224.51    9.55
  -2  -2   9  202.18    7.11
   2   2  -9  213.39    7.64
   2  -2  -9  189.78    6.48
  -2   2   9  178.85    6.11
  -2   2   8  118.24    6.43
  -2  -2   8  119.54    4.53
   2   2  -8  114.99    4.78
   2  -2  -8  115.88    4.19
  -2   2   8  105.26    3.94
  -2   2   7  157.62    9.57
  -2  -2   7  141.36    4.64
   2   2  -7  145.25    5.05
   2  -2  -7  152.17    4.66
  -2   2   7  139.81    4.42
  -2   2   6   41.38    4.30
  -2  -2   6   37.82    2.01
   2   2  -6   31.79    1.84
   2   2  -6   36.76    4.12
   2  -2  -6   35.03    1.61
  -2   2   6   40.37    1.78
  -2   2   5  265.81    5.64
  -2  -2   5  273.70    4.76
   2   2  -5  263.53    4.57
   2   2  -5  276.37    5.37
   2  -2  -5  267.00    4.11
  -2   2   5  264.51    4.12
  -2   2   4  526.02    8.84
  -2  -2   4  521.42    9.34
   2   2  -4  479.80    7.02
   2  -2  -4  481.39    7.00
   2   2  -4  497.40    9.34
  -2   2   4  501.81    6.81
  -2   2   3 1019.93   14.50
  -2  -2   3 1020.07   13.88
   2   2  -3 1000.65   13.35
   2  -2  -3  992.80   12.85
  -2   2   3 1033.77   13.32
  -2  -2   2  312.01    5.33
  -2   2   2  297.28    4.03
  -2   2   1 1109.68   15.43
  -2  -2   1 1006.28   13.21
   2   2  -1 1065.14   13.97
  -2  -2   1 1069.69   14.89
  -2   2   1 1031.65   13.30
   2   2   0  534.67    7.58
   2   2   0  538.87    7.48
   2  -2   0  557.95    9.27
   2   2   0  603.00    9.26
  -2   2   0  528.87    7.12
  -2  -2   0  583.60    9.08
  -2   2   0  584.63    7.99
   2   2   1  449.19    6.50
   2  -2   1  447.95    7.82
   2   2   2 1167.06   15.48
   2  -2   2 1160.36   16.49
  -2  -2  -2 1161.97   15.35
  -2   2  -2 1150.99   15.46
   2   2   3  151.10    3.17
   2  -2   3  122.83    3.98
   2   2   4  196.52    4.01
  -2  -2  -4  185.40    3.62
  -2   2  -4  196.76    4.39
   2   2   5  335.83    5.71
  -2  -2  -5  338.40    5.80
  -2   2  -5  333.12    6.19
   2   2   6   55.30    2.92
   2  -2   6   47.35    2.81
  -2  -2  -6   46.98    2.21
  -2   2  -6   41.69    2.45
   2   2   7   57.58    2.97
  -2   2  -7   44.59    3.09
   2   2   8   59.98    3.28
   2  -2   8   48.86    3.49
  -2   2  -8   48.03    3.53
   2   2   9   51.31    3.39
  -2   2  -9   43.35    3.50
  -2  -2  -9   40.89    4.09
   2   2  10  209.78    5.59
  -2   2 -10  207.49    6.11
  -2  -2 -10  208.76    6.91
   2   2  11  279.24   10.51
  -2   2 -11  257.21   10.29
  -2  -2 -11  304.30   12.38
   2   2  12  223.85    8.43
  -2   2 -12  181.30    7.58
  -2  -2 -12  198.36    8.86
   2   2  13   42.20    4.59
   2  -2  13   48.31    5.46
  -2   2 -13   30.38    4.11
  -2  -2 -13   52.95    6.80
   2   2  14  123.19    6.20
   2  -2  14   98.77    5.96
  -2   2 -14  109.20    5.91
  -2  -2 -14   82.11    5.66
   2   2  15   59.52    4.20
   2  -2  15   62.42    4.52
  -2   2 -15   60.61    4.86
  -2  -2 -15   50.14    4.65
   2   2  16   59.71    4.24
   2  -2  16   49.10    3.94
  -2   2 -16   50.50    3.91
  -2  -2 -16   50.83    4.44
   2   2  17   51.69    4.44
   2  -2  17   45.95    4.04
  -2   2 -17   30.06    3.38
  -2  -2 -17   42.80    4.18
   2   2  18   19.97    4.78
   2  -2  18   10.59    3.10
  -2   2 -18   10.53    4.34
  -2  -2 -18    9.58    3.12
   2   2  19   85.75    5.90
   2  -2  19  109.44    7.20
  -2   2 -19   80.11    5.73
  -2  -2 -19  112.11    8.27
   2   2  20   10.22    2.69
   2  -2  20   12.36    3.55
  -2   2 -20    7.65    2.39
  -2  -2 -20   14.59    4.32
   2   2  21  158.93   10.18
   2  -2  21  168.55   11.27
  -2   2 -21  154.44    9.87
  -2  -2 -21  159.24   10.52
  -2   3  21   44.75    4.77
  -2  -3  21   43.98    4.33
   2   3 -21   38.99    3.77
   2  -3 -21   39.40    3.68
  -2   3  20    7.71    3.66
  -2  -3  20    1.10    1.64
   2   3 -20    7.95    3.19
   2  -3 -20    2.60    2.06
  -2   3  19  224.87   12.40
  -2  -3  19  206.21   11.40
   2   3 -19  239.34   13.13
   2  -3 -19  208.56   11.33
  -2   3  18   27.23    3.39
  -2  -3  18   25.55    2.84
   2   3 -18   20.38    4.75
   2  -3 -18   22.06    4.68
  -2   3  17    9.99    3.28
  -2  -3  17    5.28    1.95
   2   3 -17   14.75    4.31
   2  -3 -17    4.98    1.77
  -2   3  16    8.40    2.88
  -2  -3  16   10.36    2.94
   2   3 -16    4.38    1.86
   2  -3 -16    7.87    2.68
  -2   3  15   38.16    6.15
  -2  -3  15   29.07    4.94
   2   3 -15   25.95    4.59
   2  -3 -15   32.32    5.39
  -2   3  14   15.12    2.84
  -2  -3  14   20.28    3.35
   2   3 -14   15.09    2.74
   2  -3 -14   13.05    2.36
  -2   3  13   79.44    7.08
  -2  -3  13   70.51    8.42
   2   3 -13   55.77    5.90
   2  -3 -13   75.79    3.76
  -2   3  12  652.30   21.44
  -2  -3  12  637.99   19.73
   2   3 -12  661.55   20.79
   2  -3 -12  654.85   19.87
  -2   3  11  509.80   18.31
  -2  -3  11  476.95   16.76
   2   3 -11  495.73   17.70
   2  -3 -11  509.79   17.69
  -2   3  10   78.91    8.43
  -2  -3  10   89.19    3.41
   2   3 -10   83.46    3.76
   2  -3 -10   81.31    2.75
  -2   3   9   45.84    4.98
  -2  -3   9   27.86    2.23
   2   3  -9   24.62    2.22
   2  -3  -9   34.50    1.66
  -2   3   8  117.25    9.19
  -2  -3   8  100.42    4.20
   2   3  -8  115.71    4.99
   2  -3  -8   97.67    3.58
  -2   3   7   90.67    8.04
  -2  -3   7   64.98    2.94
   2   3  -7   52.27    2.66
   2   3  -7   65.47    6.35
   2  -3  -7   63.21    2.46
  -2   3   6  414.85   14.27
  -2  -3   6  410.46   11.57
   2   3  -6  386.80   10.93
   2   3  -6  417.21   12.66
   2  -3  -6  416.50   11.38
  -2   3   5  120.34    6.06
  -2  -3   5  111.55    3.76
   2   3  -5  105.48    3.62
   2   3  -5  118.79    9.73
   2  -3  -5  104.93    3.04
  -2   3   4  677.99   21.21
  -2  -3   4  667.54   18.13
   2   3  -4  677.75   18.43
   2   3  -4  623.00   17.75
  -2   3   3  223.90    6.01
  -2  -3   3  202.70    3.89
   2   3  -3  210.12    3.40
   2   3  -3  191.73    4.30
   2   3  -2   27.76    2.60
  -2   3   1   18.87    2.00
   2   3  -1   37.17    3.67
   2   3   0   15.14    0.48
   2   3   0   13.54    0.59
   2   3   0   15.09    1.69
  -2   3   0   11.86    0.65
   2   3   1   78.76    2.06
   2   3   1   80.95    1.49
   2   3   1   75.80    2.64
  -2   3  -1   85.38    1.85
   2   3   2  299.17    4.33
  -2  -3  -2  319.87    4.65
  -2   3  -2  316.71    4.99
   2   3   3  128.89    2.55
  -2  -3  -3  117.93    2.45
   2  -3   3  137.25    4.59
  -2   3  -3  139.79    3.39
   2   3   4 2122.05   64.08
  -2  -3  -4 2054.27   62.03
   2  -3   4 2145.05   65.40
  -2   3  -4 2136.42   64.78
   2  -3   4 1876.15   56.84
   2   3   5  288.74    8.32
  -2  -3  -5  284.26    8.21
   2  -3   5  288.14    9.55
  -2   3  -5  287.84    8.63
   2  -3   5  294.54    8.67
   2   3   6  426.02   12.06
   2  -3   6  444.73   13.68
  -2  -3  -6  410.09   11.61
  -2   3  -6  429.77   12.55
   2   3   7   68.87    3.05
  -2  -3  -7   62.83    2.85
   2  -3   7   65.65    4.70
  -2   3  -7   55.98    3.26
   2   3   8  132.41    5.14
   2  -3   8  126.12    5.81
  -2   3  -8  122.86    5.21
   2   3   9    5.86    1.89
   2  -3   9    6.59    2.80
  -2   3  -9    8.13    2.49
   2   3  10  349.76   12.61
   2  -3  10  380.26   14.34
  -2   3 -10  351.79   13.12
   2   3  11  205.90    8.29
   2  -3  11  196.64    8.68
  -2   3 -11  192.76    8.47
  -2  -3 -11  202.07    9.94
   2   3  12  552.79   17.57
   2  -3  12  560.11   18.30
  -2   3 -12  497.16   16.20
  -2  -3 -12  558.64   19.41
   2   3  13  114.96    5.29
   2  -3  13  134.04    7.24
  -2   3 -13  126.37    6.34
  -2  -3 -13  100.04    5.69
   2   3  14   14.87    2.53
   2  -3  14   18.14    3.75
  -2   3 -14    9.21    2.35
  -2  -3 -14   10.57    3.19
   2   3  15    2.28    2.12
   2  -3  15    1.42    2.56
  -2   3 -15    5.40    2.11
  -2  -3 -15   14.32    4.83
   2   3  16   62.44    4.35
   2  -3  16   54.74    4.96
  -2   3 -16   46.77    4.22
  -2  -3 -16   53.24    4.86
   2   3  17    5.17    2.01
   2  -3  17    2.04    2.12
  -2   3 -17    3.33    2.04
  -2  -3 -17    7.50    3.44
   2   3  18    2.42    2.21
   2  -3  18    3.40    2.30
  -2   3 -18    6.58    2.78
  -2  -3 -18    5.08    3.78
   2   3  19   14.00    2.99
   2  -3  19   24.33    3.94
  -2  -3 -19   17.12    4.61
   2   3  20   35.28    3.80
   2  -3  20   39.92    5.71
  -2   3 -20   29.87    4.11
  -2  -3 -20   45.71    5.83
   2   3  21   22.67    3.54
   2  -3  21   13.06    3.24
  -2   3 -21    9.69    2.05
  -2  -3 -21    8.08    3.21
  -2   4  20  123.23   20.62
  -2  -4  20  127.42   10.39
   2   4 -20  133.24   11.01
   2  -4 -20  121.37    9.81
  -2   4  19   13.64    2.87
  -2  -4  19   12.89    2.83
   2   4 -19   15.17    3.49
   2  -4 -19   11.44    2.74
  -2   4  18   28.27    4.95
  -2  -4  18   28.47    3.19
   2   4 -18   12.96    4.18
  -2   4  17    5.43    2.01
  -2  -4  17    4.96    2.15
   2  -4 -17    3.38    2.14
  -2  -4  16  380.51   15.64
   2   4 -16  382.06   15.97
   2  -4 -16  380.79   15.45
  -2   4  15    9.37    2.28
  -2  -4  15    7.41    2.55
   2   4 -15    3.20    1.94
   2  -4 -15   11.10    2.99
  -2   4  14   22.99    5.55
  -2  -4  14   19.12    3.71
   2   4 -14   13.59    3.05
   2  -4 -14   12.24    2.61
  -2   4  13   72.10   11.36
  -2  -4  13   63.53    3.83
   2   4 -13   75.12    4.55
   2  -4 -13   66.76    3.46
  -2   4  12  277.38   10.83
  -2  -4  12  260.38    9.66
   2   4 -12  281.83   10.81
  -2   4  11   57.86    6.69
  -2  -4  11   45.71    2.74
   2   4 -11   54.83    3.79
   2  -4 -11   45.73    2.72
  -2   4  10  345.48   12.85
  -2  -4  10  317.83   11.37
   2   4 -10  345.03   12.94
   2  -4 -10  350.78   12.32
  -2   4   9  160.50   13.54
  -2  -4   9  120.52    4.98
   2   4  -9  133.36    5.92
   2  -4  -9  126.75    4.85
  -2   4   8  215.89    7.41
  -2  -4   8  204.45    4.50
   2   4  -8  220.86   13.74
   2  -4  -8  211.42    4.06
  -2   4   7  268.39   10.77
  -2  -4   7  245.77    8.12
   2   4  -7  216.41    7.21
   2   4  -7  259.05   11.94
   2  -4  -7  247.11    7.82
  -2   4   6 1204.08   37.27
  -2  -4   6 1259.85   19.28
   2   4  -6 1217.03   37.05
   2   4  -6 1290.41   22.28
   2  -4  -6 1200.11   36.23
  -2   4   5  211.19    7.15
  -2  -4   5  203.23    6.01
   2   4  -5  188.09    5.60
   2   4  -5  207.82    7.08
  -2   4   4  254.97   10.43
  -2  -4   4  264.67    7.48
   2   4  -4  234.23    6.73
   2   4  -4  307.08   13.17
  -2   4   3  287.60   12.91
  -2  -4   3  209.32    6.19
   2   4  -3  218.90    6.14
   2   4  -3  285.25    8.91
  -2  -4   2  617.30   16.41
   2  -4  -1  159.82    6.11
   2  -4   0  742.08   21.22
   2   4   0  685.52   19.21
  -2   4   0  601.99   16.13
   2  -4   1 1337.13   41.21
   2   4   1 1322.42   40.61
  -2   4  -1 1171.23   35.43
   2  -4   1 1299.77   39.32
   2  -4   2 4143.60  125.45
  -2   4  -2 3905.26  117.68
   2  -4   2 3842.34  115.71
   2   4   3  957.52   25.55
  -2  -4  -3  988.02   29.88
   2  -4   3 1020.21   31.84
  -2   4  -3  973.14   26.32
   2  -4   3  994.07   30.37
   2   4   4 1183.85   35.87
  -2  -4  -4 1097.60   33.27
   2  -4   4 1223.92   37.95
  -2   4  -4 1199.54   36.62
   2  -4   4 1016.46   31.07
   2   4   5   37.04    1.86
  -2  -4  -5   25.85    1.64
   2  -4   5    8.86    2.66
  -2   4  -5   28.29    2.20
   2   4   6  461.82   14.52
  -2  -4  -6  422.96   13.36
   2  -4   6  437.85   14.97
  -2   4  -6  465.49   15.12
   2   4   7  258.58    5.26
  -2  -4  -7  207.11    4.47
   2  -4   7  247.75    6.86
  -2   4  -7  232.84    5.64
   2   4   8  187.04    4.43
   2  -4   8  167.00    5.67
  -2   4  -8  173.59    4.96
   2   4   9   38.28    2.42
   2  -4   9   40.74    3.99
  -2   4  -9   33.59    2.94
   2   4  10  102.90    4.75
   2  -4  10   80.04    5.84
  -2   4 -10   80.39    4.64
   2   4  11  223.70    7.75
   2  -4  11  229.54    9.23
  -2   4 -11  211.93    7.99
   2   4  12  164.70    6.84
   2  -4  12  174.60    8.95
  -2   4 -12  163.41    7.44
  -2  -4 -12  170.52    9.46
   2   4  13  133.31    6.15
   2  -4  13  129.78    7.32
  -2   4 -13  121.33    5.89
  -2  -4 -13  108.57    6.68
   2   4  14   33.75    5.66
   2  -4  14   40.86    4.97
  -2   4 -14   33.56    5.89
  -2  -4 -14   35.52    6.94
   2   4  15   16.47    3.29
   2  -4  15   24.81    5.27
  -2   4 -15   12.41    2.71
  -2  -4 -15    9.28    4.31
   2   4  16  113.82    5.99
   2  -4  16   98.77    6.03
  -2   4 -16   91.92    5.67
  -2  -4 -16  102.50    7.22
   2   4  17   10.71    2.62
   2  -4  17   12.01    3.47
  -2   4 -17    4.49    2.10
  -2  -4 -17    6.40    3.22
   2   4  18  247.59   13.30
   2  -4  18  250.61   13.93
  -2   4 -18  235.21   13.28
  -2  -4 -18  263.19   32.46
   2   4  19    0.70    1.34
   2  -4  19   10.29    3.73
  -2   4 -19    5.92    2.00
  -2  -4 -19   11.41    4.04
   2   4  20   10.85    2.59
   2  -4  20    8.98    2.72
  -2   4 -20    6.55    2.09
  -2  -4 -20    6.88    2.97
  -2   5  20    6.65    2.81
  -2  -5  20    8.34    2.44
   2   5 -20   13.73    2.39
  -2   5  19  120.64   15.63
  -2  -5  19  128.59   10.51
   2   5 -19  132.99   10.91
  -2   5  18    3.04    2.33
  -2  -5  18    2.43    1.60
   2   5 -18    1.20    1.59
  -2   5  17   58.53   11.86
  -2  -5  17   69.16    4.10
   2   5 -17   65.70    4.62
  -2   5  16   11.90    4.27
  -2  -5  16   13.38    3.63
   2   5 -16   14.16    4.53
   2  -5 -16    4.27    2.09
  -2   5  15  410.93   94.32
  -2  -5  15  373.80   15.24
   2   5 -15  404.97   92.81
   2  -5 -15  384.83   15.46
  -2   5  14   11.58    2.60
  -2  -5  14    6.66    2.12
   2   5 -14    8.41    2.73
   2  -5 -14    5.84    1.88
  -2   5  13   10.07    2.58
  -2  -5  13    2.83    1.48
   2   5 -13   11.06    3.21
   2  -5 -13   11.71    2.88
  -2   5  12  168.22    9.33
  -2  -5  12  146.75    6.22
   2   5 -12  166.30    7.46
   2  -5 -12  163.61    6.37
  -2   5  11  519.49   18.87
  -2  -5  11  436.24   15.15
   2   5 -11  478.22   17.13
   2  -5 -11  496.78   16.88
  -2   5  10   11.45    1.92
  -2  -5  10    7.88    1.55
   2   5 -10    5.66    2.17
   2  -5 -10    8.40    1.60
  -2   5   9  129.05    8.25
  -2  -5   9  132.51    5.52
   2   5  -9  128.08   10.95
   2  -5  -9  136.47    5.30
  -2   5   8   49.23    5.19
  -2  -5   8   39.54    2.32
   2   5  -8   51.31    6.03
   2  -5  -8   45.43    2.18
  -2   5   7 1202.97   19.97
  -2  -5   7 1068.80   16.62
   2  -5  -7 1012.54   15.31
   2   5  -7 1171.06   20.95
   2  -5  -7 1119.47   16.79
  -2   5   6   31.64    4.19
  -2  -5   6   21.90    1.37
   2   5  -6   23.77    1.59
   2  -5  -6   17.30    1.65
   2   5  -6   28.80    3.69
   2  -5  -6   19.18    0.76
  -2   5   5  345.41   11.84
  -2  -5   5  365.34    6.25
   2   5  -5  315.04    5.53
   2   5  -5  344.25   10.02
  -2   5   3  316.50   10.89
  -2  -5   3  271.31    8.30
   2   5  -3  282.39    8.67
   2   5  -3  304.12   12.59
  -2   5   2   47.15    3.10
   2   5  -2   58.45    5.36
   2  -5  -1  323.27   11.51
   2   5  -1  344.84   12.20
   2  -5  -1  331.05   10.10
   2  -5   0  100.02    5.87
   2   5   0  106.40   10.98
  -2   5   0   78.60    3.77
   2  -5   0   86.17    2.96
   2  -5   1  299.77   11.09
   2   5   1  299.74   10.33
  -2   5  -1  266.15    8.42
   2  -5   1  278.87    8.82
   2  -5   2  228.77    8.55
  -2   5  -2  218.59    7.11
   2  -5   2  216.50    7.04
   2   5   3  257.24    7.84
  -2  -5  -3  257.99    7.90
   2  -5   3  291.43   10.67
  -2   5  -3  296.34    9.59
   2  -5   3  282.78    9.16
   2   5   4  215.19    6.75
  -2  -5  -4  226.19    7.18
   2  -5   4  207.28    7.95
  -2   5  -4  230.79    7.71
   2  -5   4  198.75    6.73
   2   5   5  288.65    4.98
  -2  -5  -5  285.05    5.18
   2  -5   5  290.24    7.54
   2   5   6   11.41    1.12
  -2  -5  -6   12.52    1.75
   2  -5   6   12.86    3.79
  -2   5  -6    7.26    1.68
   2   5   7  354.38   12.37
   2  -5   7  354.09   14.09
  -2   5  -7  351.73   12.96
   2   5   8   27.67    1.94
   2  -5   8   36.88    4.44
  -2   5  -8   23.51    2.17
   2   5   9  450.20   13.91
   2  -5   9  466.22   15.75
  -2   5  -9  465.63   14.98
   2   5  10    2.85    1.60
   2  -5  10    4.10    3.05
  -2   5 -10    9.35    2.77
   2   5  11  363.02   12.95
   2  -5  11  325.54   13.00
  -2   5 -11  335.28   12.68
   2   5  12  215.08    8.36
   2  -5  12  217.83    9.87
  -2   5 -12  177.69    7.67
   2   5  13   83.80    5.05
   2  -5  13   73.35    5.49
  -2   5 -13   76.92    5.06
  -2  -5 -13   78.82    6.41
   2   5  14   15.11    2.80
   2  -5  14   17.89    4.53
  -2   5 -14   12.88    3.02
  -2  -5 -14    4.81    3.30
   2   5  15   83.47    4.87
   2  -5  15   74.73    6.49
  -2   5 -15  105.22    6.80
  -2  -5 -15   73.45    5.95
   2   5  16    8.62    2.54
   2  -5  16    7.88    3.86
  -2   5 -16   11.69    3.68
  -2  -5 -16    7.43    4.26
   2   5  17  168.99    9.38
   2  -5  17  174.16   10.52
  -2   5 -17  185.84   10.85
  -2  -5 -17  173.99   11.03
   2   5  18    8.71    2.25
   2  -5  18    5.14    4.13
  -2   5 -18    3.18    1.80
  -2  -5 -18   13.05    4.67
   2   5  19    6.74    2.57
   2  -5  19   16.95    3.82
  -2   5 -19   12.75    3.05
  -2  -5 -19    7.55    3.59
  -2   6  19   15.18    4.13
  -2  -6  19   14.80    2.73
   2   6 -19   16.20    2.76
  -2   6  18   70.32   11.90
  -2  -6  18   84.47    7.25
   2   6 -18   94.58    8.40
  -2   6  17   12.61    3.55
  -2  -6  17    3.69    1.64
   2   6 -17   12.72    3.09
  -2   6  16    6.36    2.93
  -2  -6  16    5.35    2.56
   2   6 -16    0.82    1.76
  -2   6  15    9.18    2.50
  -2  -6  15    3.73    1.67
   2   6 -15   13.67    3.97
  -2   6  14   34.88    4.74
  -2  -6  14   26.94    6.57
   2   6 -14   29.44    3.20
  -2   6  13   62.18    7.34
  -2  -6  13   51.05    2.99
   2   6 -13   57.14    3.98
   2  -6 -13   62.37    2.91
  -2   6  12   45.32    6.61
  -2  -6  12   33.36    5.72
   2   6 -12   40.82    5.42
   2  -6 -12   36.60    5.95
  -2   6  11    7.20    2.03
  -2  -6  11    9.56    1.93
   2   6 -11    4.67    1.39
   2  -6 -11    6.25    1.27
  -2   6  10  278.33   11.12
  -2  -6  10  235.95    8.61
   2   6 -10  300.04   19.76
   2  -6 -10  290.00   10.20
  -2   6   9   23.20    3.73
   2   6  -9   28.79    4.10
   2  -6  -9   21.65    2.41
  -2   6   8  127.45   10.89
  -2  -6   8   84.15    3.24
   2  -6  -8   62.36    3.90
   2   6  -8  117.24   10.00
   2  -6  -8   98.19    3.41
  -2   6   7  137.69   10.37
  -2  -6   7  117.67    4.09
   2   6  -7  101.59    3.75
   2   6  -7  136.43   12.92
   2  -6  -7   97.66    4.07
   2  -6  -7  137.60    4.50
  -2   6   6   61.34    5.00
  -2  -6   6   46.74    2.20
   2   6  -6   41.77    2.13
   2   6  -6   47.43    4.65
   2  -6  -6   47.36    1.87
   2  -6  -6   52.73    2.15
  -2   6   5  103.68    8.97
  -2  -6   5   79.36    3.19
   2   6  -5   68.45    2.86
   2   6  -5   89.67    7.82
   2  -6  -5   77.57    2.76
   2  -6  -5   82.60    2.97
  -2   6   4   28.22    2.55
  -2  -6   4   22.33    1.03
   2   6  -4   19.33    1.03
   2   6  -4   32.02    3.83
   2  -6  -4   19.34    0.60
   2   6  -3  637.29   14.63
   2  -6  -3  554.69    8.22
   2  -6  -2   83.81    4.11
   2   6  -2   98.03    9.05
   2  -6  -2   76.19    1.57
   2  -6  -1    2.45    3.52
   2   6  -1   19.03    2.51
   2  -6  -1   16.27    0.86
   2  -6   0   78.11    5.02
  -2   6   0   69.65    4.12
   2  -6   0   72.84    1.88
   2  -6   1  118.09    4.90
  -2   6  -1  122.16    3.26
   2  -6   1  106.68    2.52
   2  -6   2    7.53    2.71
  -2   6  -2   19.67    2.22
   2  -6   2   16.02    1.24
   2  -6   3  305.57    8.17
  -2   6  -3  304.21    6.03
   2  -6   3  262.49    5.23
   2   6   4    7.83    0.82
  -2  -6  -4   14.64    1.01
   2  -6   4   12.42    2.83
  -2   6  -4   14.02    1.63
   2   6   5  129.74    6.04
  -2  -6  -5  141.28    5.20
   2  -6   5  135.66    6.64
  -2   6  -5  143.63    5.74
   2   6   6   76.20    5.56
  -2  -6  -6   62.81    2.87
   2  -6   6   74.03    5.55
  -2   6  -6   86.91    4.10
   2   6   7   73.22    2.93
  -2  -6  -7   48.69    2.37
   2  -6   7   53.85    4.61
  -2   6  -7   57.20    3.20
   2   6   8   19.11    1.52
   2  -6   8   23.52    4.13
  -2   6  -8   15.81    2.03
   2   6   9    7.07    1.60
   2  -6   9   13.65    4.39
  -2   6  -9    5.70    2.56
   2   6  10   37.11    4.64
   2  -6  10   45.39    6.79
  -2   6 -10   38.02    5.14
   2   6  11   22.42    3.82
   2  -6  11   21.28    4.60
  -2   6 -11   24.67    4.37
   2   6  12  103.88    5.75
   2  -6  12   97.49    6.42
  -2   6 -12   91.29    5.68
   2   6  13   43.65    2.64
   2  -6  13   50.72    4.66
  -2   6 -13   43.69    3.26
  -2  -6 -13   48.75    4.88
   2   6  14    6.78    2.12
   2  -6  14    3.88    2.62
  -2   6 -14    7.82    2.54
  -2  -6 -14    8.57    3.35
   2   6  15   37.48    2.81
   2  -6  15   44.95    4.53
  -2   6 -15   31.81    3.08
   2   6  16    3.68    1.83
   2  -6  16    7.61    4.85
  -2   6 -16    1.75    1.70
  -2  -6 -16    1.77    2.73
   2  -6  17  138.25   12.88
  -2   6 -17  108.94   10.21
  -2  -6 -17  128.93   12.33
   2   6  18   43.28    4.26
   2  -6  18   49.54    5.45
  -2   6 -18   37.74    4.06
  -2  -6 -18   55.23    6.13
  -2   7  18   15.81    3.01
  -2  -7  18   17.09    2.55
   2   7 -18   30.64    3.85
  -2   7  17    4.22    1.74
  -2  -7  17    8.55    3.36
   2   7 -17    6.67    3.39
  -2   7  16   30.95    7.71
  -2  -7  16   23.51    3.26
  -2   7  15    3.28    1.85
  -2  -7  15    5.93    2.42
   2   7 -15    4.46    2.48
  -2   7  14   18.02    4.74
  -2  -7  14    7.95    2.20
   2   7 -14   20.81    4.68
  -2   7  13   67.20    8.59
  -2  -7  13   63.51    4.84
   2   7 -13   57.71    8.63
  -2   7  12   58.32    6.66
  -2  -7  12   61.54    3.75
   2   7 -12   61.41    7.00
  -2   7  11   31.79    5.85
  -2  -7  11   21.02    3.39
   2   7 -11   22.76    4.28
  -2   7  10   14.32    3.32
  -2  -7  10    8.06    1.88
   2   7 -10   12.98    3.03
  -2   7   9   86.05    8.70
  -2  -7   9   58.84    3.40
   2   7  -9   90.28    9.31
   2  -7  -9   74.17    3.97
  -2   7   8   22.44    3.51
  -2  -7   8   13.37    1.90
   2   7  -8   20.52    3.42
   2  -7  -8   13.67    1.86
  -2   7   7  251.63   14.92
   2   7  -7  264.46   14.96
   2  -7  -7  233.76    8.01
  -2   7   6  220.79   11.62
   2   7  -6  221.43   17.44
   2  -7  -6  209.60    7.22
  -2   7   5   59.04    4.18
  -2  -7   5   47.76    1.96
   2   7  -5   34.97    1.65
   2   7  -5   59.69    5.41
   2  -7  -5   38.28    1.49
   2  -7  -5   46.91    1.92
  -2   7   4   41.79    3.10
  -2  -7   4   21.48    2.75
  -2  -7   4   41.60    1.62
   2  -7  -4   40.29    1.57
   2  -7  -4   46.06    1.99
   2  -7  -3   41.92    1.63
   2  -7  -2  379.15   14.54
   2  -7  -2  309.14   10.51
   2  -7  -1    7.28    2.99
   2   7  -1   10.19    2.06
   2  -7  -1    3.21    0.90
   2  -7   0   72.64    5.60
   2   7   0   57.01    3.62
  -2   7   0   51.47    4.28
   2  -7   0   50.78    2.26
   2  -7   1    3.12    2.85
   2   7   1    9.74    2.20
  -2   7  -1    6.14    1.06
   2  -7   1    5.50    0.78
   2  -7   2   64.86    5.47
  -2   7  -2   56.56    4.53
   2  -7   2   59.77    2.75
   2  -7   3   51.72    4.27
  -2   7  -3   58.59    5.76
  -2  -7  -4   49.45    1.80
   2  -7   4   58.51    4.84
  -2  -7  -4   45.13    1.72
  -2   7  -4   49.47    2.55
   2   7   5   23.67    2.99
   2  -7   5   35.20    4.65
  -2   7  -5   38.27    4.00
   2   7   6  414.53   13.95
   2  -7   6  423.68   16.10
  -2   7  -6  426.06   14.90
   2   7   7   53.28    7.39
   2  -7   7   74.56    5.38
  -2   7  -7   84.85    4.30
   2   7   8  103.46    9.30
   2  -7   8  120.41    6.46
  -2   7  -8  144.30    6.01
   2   7   9   60.75    6.73
   2  -7   9   80.06    6.50
  -2   7  -9   66.92    4.26
   2   7  10   47.15    3.57
   2  -7  10   61.07    5.71
  -2   7 -10   46.24    3.48
   2   7  11   24.38    3.73
   2  -7  11   17.40    3.80
  -2   7 -11   25.26    4.08
   2   7  12   63.91    3.45
   2  -7  12   63.33    5.50
  -2   7 -12   60.71    4.05
   2   7  13   70.65    4.97
   2  -7  13   78.93    6.83
  -2   7 -13   63.81    5.07
   2   7  14   46.26    2.77
   2  -7  14   87.83    6.59
  -2   7 -14   54.85    3.74
  -2  -7 -14   52.97    5.38
   2   7  15    3.49    1.60
   2  -7  15    9.31    3.28
  -2   7 -15    1.52    1.58
  -2  -7 -15    5.55    4.13
   2   7  16  169.26   14.32
   2  -7  16  186.67   16.61
  -2   7 -16  177.34   15.29
  -2  -7 -16  166.01   14.97
   2   7  17    4.79    2.02
   2  -7  17    4.67    3.20
  -2   7 -17    3.48    1.90
  -2  -7 -17    4.76    3.16
  -2   8  16   11.54    3.12
   2   8 -16    9.38    2.91
  -2   8  15    3.42    1.96
   2   8 -15    6.61    2.38
  -2   8  14   41.48    5.18
   2   8 -14   38.78    4.57
  -2   8  13   18.34    3.81
   2   8 -13   24.48    4.77
  -2   8  12   39.20    5.29
   2   8 -12   29.70    4.43
  -2   8  11   34.05    5.54
   2   8 -11   40.23    5.40
  -2   8  10   76.08    9.62
  -2  -8  10   59.11    3.16
  -2   8   9    8.60    2.08
  -2  -8   9    5.61    1.71
   2   8  -9    5.53    1.85
  -2   8   8    7.72    2.40
  -2  -8   8    5.45    1.37
  -2   8   7  138.40   14.06
   2   8  -7  121.77   10.80
  -2   8   6  171.38    9.36
   2   8  -6  152.69   13.87
  -2   8   5   69.50    3.83
   2   8  -5   76.68    8.26
   2   8  -4  120.12   12.14
   2  -8  -3    4.17    2.64
   2   8  -3    4.67    1.88
   2  -8  -2  190.97    8.76
   2   8  -2  194.08   15.42
   2  -8  -1    4.47    2.71
   2   8  -1    8.97    2.39
   2  -8   0   10.52    3.89
   2   8   0    5.52    2.18
  -2   8   0    5.36    0.94
   2  -8   1   41.57    5.15
   2   8   1   45.20    4.91
  -2   8  -1   39.03    4.87
   2  -8   2  137.05    7.14
  -2   8  -2  133.08   10.75
   2  -8   3   15.43    3.23
  -2   8  -3   22.57    3.72
   2  -8   4   74.84    5.18
  -2   8  -4   62.45    6.25
   2  -8   5   27.35    5.02
  -2   8  -5   32.68    4.70
   2  -8   6   44.18    4.94
  -2   8  -6   50.94    3.54
   2  -8   7   53.95    5.21
  -2   8  -7   74.65    4.61
   2  -8   8   12.78    4.34
  -2   8  -8    6.70    1.88
   2  -8   9   43.00    5.06
  -2   8  -9   38.15    7.66
   2  -8  10   15.61    4.25
  -2   8 -10   25.23    6.24
   2  -8  11  204.13   13.82
  -2   8 -11  208.85   13.25
   2  -8  12    9.65    4.41
  -2   8 -12    7.90    2.47
   2  -8  13   11.20    4.87
  -2   8 -13    3.42    1.61
   2  -8  14   11.79    3.40
  -2   8 -14    6.85    2.16
  -2  -8 -14    1.43    3.24
   2  -8  15    5.65    4.35
  -2   8 -15    3.36    1.64
  -2  -8 -15    5.94    3.49
   2  -8  16    9.11    4.34
  -2   8 -16    2.21    1.94
  -2  -8 -16    3.18    3.22
  -2   9  15  322.69   19.86
   2   9 -15  305.11   25.47
  -2   9  14    4.04    2.22
   2   9 -14    6.99    2.73
  -2   9  13   70.08   11.86
  -2   9  12    4.49    1.82
   2   9 -12    7.45    1.76
  -2   9  11   51.96    7.09
   2   9 -11   56.92    6.81
  -2   9  10   22.89    5.35
   2   9 -10   19.49    4.81
  -2   9   9   43.06    6.10
   2   9  -9   41.55    7.20
  -2   9   8   16.84    2.87
   2   9  -8   12.64    3.92
  -2   9   7  290.41   12.55
   2   9  -7  260.52   21.86
  -2   9   6   35.74    2.91
   2   9  -6   32.72    4.61
   2  -9  -5  259.02   10.12
   2   9  -5  225.64   18.60
   2  -9  -4    4.93    2.48
   2   9  -4    7.58    2.67
   2  -9  -3   12.98    3.35
   2   9  -3   25.28    5.95
   2  -9  -2   22.84    4.62
   2   9  -2   36.45    6.55
   2  -9  -1    6.39    2.76
   2   9  -1    3.93    1.76
   2  -9   0   24.87    5.68
  -2   9   0   28.34    4.50
   2   9   0   27.36    4.78
   2  -9   1    9.38    3.73
  -2   9  -1   11.85    2.36
   2  -9   2   24.04    4.63
  -2   9  -2   14.50    2.81
   2  -9   3  136.41    6.38
  -2   9  -3  143.23    8.28
   2  -9   4    8.70    3.90
  -2   9  -4    2.18    0.70
   2  -9   5   39.69    4.08
  -2   9  -5   38.24    8.23
   2  -9   6    9.66    3.15
  -2   9  -6    6.90    2.08
   2  -9   7  206.63   10.42
  -2   9  -7  169.87   13.36
   2  -9   8    8.41    3.36
  -2   9  -8    5.74    1.88
   2  -9   9   21.35    4.24
  -2   9  -9   15.55    3.44
   2  -9  10   24.23    6.93
  -2   9 -10   23.25    4.80
   2  -9  11    4.88    2.98
  -2   9 -11    7.11    2.50
   2  -9  12    5.45    3.67
  -2   9 -12    2.05    1.30
   2  -9  13    9.32    3.95
  -2   9 -13   11.48    2.46
   2  -9  14    5.42    3.29
  -2   9 -14    4.65    1.80
  -2  10  12   26.80    4.43
  -2  10  11   26.48    4.83
   2  10 -11   15.94    2.79
  -2  10  10   64.66    6.18
   2  10 -10   49.59    9.70
  -2  10   9   11.71    3.48
   2  10  -9   10.32    4.31
  -2  10   8   16.26    4.52
   2  10  -8   18.37    3.95
  -2  10   7    2.19    1.48
   2  10  -7    5.56    1.84
   2 -10  -6  113.60    6.89
   2  10  -6  112.95   12.67
   2 -10  -5    3.87    2.65
   2  10  -5    4.55    1.83
   2 -10  -4    5.64    3.60
   2  10  -4    8.73    2.78
   2 -10  -3    8.50    3.07
   2  10  -3    6.41    2.19
   2 -10  -2  124.58    8.94
   2  10  -2  127.93   15.06
   2 -10  -1    4.20    2.30
   2  10  -1    3.26    1.65
   2 -10   0    6.10    3.04
   2  10   0   12.19    3.10
   2 -10   1   38.61    4.46
   2 -10   2  127.71    9.01
   2 -10   3   14.66    5.24
   2 -10   4   35.24    4.60
   2 -10   5   18.22    4.39
  -2  10  -5   13.05    3.67
   2 -10   6   55.91    4.17
  -2  10  -6   46.01    5.37
   2 -10   7    2.78    3.00
  -2  10  -7    3.58    1.26
   2 -10   8   47.83    4.35
  -2  10  -8   42.49    5.83
   2 -10   9   38.35    5.69
  -2  10  -9   24.04    4.98
   2 -10  10   16.61    3.92
  -2  10 -10   12.21    2.46
   2 -10  11   58.86    6.61
  -2  10 -11   43.34    4.29
   2 -10  12   47.46    5.40
  -2  10 -12   32.75    3.18
  -2  11  10    9.62    2.53
   2  11 -10   17.92    3.94
  -2  11   9   28.92    3.14
   2  11  -9   16.11    2.88
   2 -11  -8   18.82    4.46
   2  11  -8   16.88    3.47
   2 -11  -7   18.56    3.71
   2  11  -7    3.31    1.48
   2 -11  -6    4.84    2.35
   2  11  -6   15.36    3.05
   2 -11  -5    8.11    2.56
   2  11  -5    3.54    2.13
   2 -11  -4   22.76    3.62
   2  11  -4   25.72    4.25
   2 -11  -3    8.94    3.33
   2  11  -3   17.72    3.77
   2 -11  -2   58.63    5.78
   2  11  -2   48.23    3.91
   2 -11  -1   39.69    4.18
   2  11  -1   38.92    3.64
   2 -11   0   62.31    5.31
   2 -11   1   13.89    4.65
   2 -11   2   20.28    3.64
   2 -11   3    7.50    4.90
   2 -11   4    4.95    3.96
   2 -11   5    8.02    3.88
   2 -11   6   83.88    8.36
   2 -11   7   11.72    4.50
   2 -11   8  126.74   11.09
   2 -11   9   11.62    3.68
   2 -12  -5   14.85    3.38
   2  12  -5   12.37    2.64
   2 -12  -4    6.09    3.09
   2  12  -4    4.24    1.93
   2 -12  -3   38.70    4.08
   2  12  -3   37.22    3.91
   2 -12  -2   99.27    8.75
   2  12  -2   72.04    6.52
   2 -12  -1   11.34    2.96
   2 -12   0   12.22    3.13
   2 -12   1   32.76    4.19
   2 -12   2   19.49    3.61
   2 -12   3   54.27    5.23
   2 -12   4    8.03    2.66
   2 -12   5   18.03    3.44
  -3   0  20    1.67    1.66
   3   0 -20    2.95    1.47
  -3   0  19   12.60    2.86
   3   0 -19    8.67    2.37
  -3   0  18    2.29    1.72
   3   0 -18    3.26    1.62
  -3   0  17  100.22    5.11
   3   0 -17   92.69    4.56
  -3   0  16    3.96    1.77
   3   0 -16    5.25    2.15
  -3   0  15   43.41    3.37
   3   0 -15   41.41    2.63
  -3   0  14   16.36    3.50
   3   0 -14   13.42    2.72
  -3   0  13  305.73   18.25
   3   0 -13  318.23   11.75
  -3   0  12   12.93    2.17
   3   0 -12    8.98    2.22
  -3   0  11  644.89   24.53
   3   0 -11  652.95   22.18
  -3   0  10   -0.39    1.66
   3   0 -10    2.14    1.61
  -3   0   9 1681.80   57.69
   3   0  -9 1715.38   50.26
  -3   0   8    8.64    1.92
   3   0  -8   11.44    1.66
  -3   0   7  184.51   11.35
   3   0  -7  156.30    4.53
  -3   0   6    1.22    1.10
   3   0  -6    5.15    1.16
  -3   0   5   83.69    6.28
   3   0  -5   63.95    2.93
  -3   0   5   57.97    2.53
  -3   0   4    5.27    1.48
   3   0  -4    2.07    0.63
  -3   0   4    4.10    1.02
  -3   0   3 1204.67   37.36
   3   0  -3 1125.18   34.38
  -3   0   3  984.66   26.68
  -3   0   2    4.16    1.45
  -3   0   2    1.35    0.47
   3   0  -1 1779.54   54.22
  -3   0   1 1548.61   47.22
   3   0   0    4.61    2.21
  -3   0   0    1.60    0.62
   3   0   1  876.91   24.21
   3   0   2    5.20    2.32
   3   0   3 1062.15   32.89
   3   0   4    3.08    2.84
   3   0   5   19.38    2.66
   3   0   6   16.39    2.09
   3   0   7   10.22    2.20
  -3   0  -7   14.06    2.86
   3   0   8    9.13    1.91
  -3   0  -8   10.60    2.76
   3   0   9  341.67   13.14
  -3   0  -9  401.04   15.54
   3   0  10   12.63    3.35
  -3   0 -10    8.84    2.77
   3   0  11  221.76    9.34
  -3   0 -11  209.19    9.44
   3   0  12    2.97    2.11
  -3   0 -12    5.05    3.86
   3   0  13  752.88  101.27
  -3   0 -13  714.48   34.41
   3   0  14   17.69    3.71
  -3   0 -14   15.22    4.49
   3   0  15   71.79    5.70
  -3   0 -15   39.29    4.42
   3   0  16   14.48    4.58
  -3   0 -16    6.97    2.79
  -3   0 -17    9.55    4.33
   3   0  18    4.03    2.53
  -3   0 -18    4.93    2.86
   3   0  19    1.53    1.96
  -3   0 -19    6.71    4.08
   3   0  20    9.24    3.46
  -3   0 -20    4.45    2.45
  -3   1  20   76.50   10.97
  -3  -1  20   78.84    5.73
   3  -1 -20   82.50    5.55
   3   1 -20   82.13    5.92
  -3   1  19  227.90   25.51
  -3  -1  19  229.60   19.40
   3  -1 -19  240.68   20.16
   3   1 -19  237.68   19.97
  -3   1  18    5.14    2.40
  -3  -1  18   12.35    3.78
   3  -1 -18   16.97    4.82
   3   1 -18   10.68    3.36
  -3  -1  17  279.92   10.24
   3   1 -17  274.96    9.96
   3  -1 -17  255.02    9.21
  -3   1  16   11.03    3.18
  -3  -1  16    4.86    1.90
   3   1 -16    4.50    1.78
   3  -1 -16    7.69    2.37
  -3   1  15   17.44    4.41
  -3  -1  15   26.06    4.25
   3   1 -15   11.30    2.73
   3  -1 -15   15.87    3.54
  -3  -1  14   36.82    6.34
  -3   1  14   39.35    4.80
   3   1 -14   22.74    4.04
   3  -1 -14   25.55    4.30
  -3  -1  13   39.55    5.28
  -3   1  13   45.98    7.51
   3   1 -13   43.92    5.52
   3  -1 -13   35.76    4.56
  -3   1  12   51.98   11.14
  -3  -1  12   75.74    4.29
   3  -1 -12   81.94    4.04
   3   1 -12   76.20    4.19
  -3   1  11   20.11    3.08
  -3  -1  11   18.38    3.23
   3   1 -11   12.70    1.94
   3  -1 -11   18.68    2.30
  -3   1  10  250.75   10.36
  -3  -1  10  257.34   12.11
   3  -1 -10  261.23    8.47
   3   1 -10  266.56    8.96
  -3   1   9  497.20   17.88
  -3  -1   9  497.99   19.20
   3   1  -9  471.56   16.56
   3  -1  -9  500.10   17.30
  -3   1   8   34.14    4.40
  -3  -1   8   45.69    4.35
   3  -1  -8   34.59    3.09
   3   1  -8   33.65    3.69
  -3  -1   7   19.03    2.97
  -3   1   7   10.43    1.48
   3  -1  -7   17.17    2.16
   3   1  -7   14.47    2.68
  -3   1   6   78.80    7.12
  -3  -1   6   67.94    6.09
   3  -1  -6   63.41    5.50
   3   1  -6   67.93    7.21
  -3   1   6   61.18    2.55
  -3   1   5   24.74    2.43
  -3  -1   5   21.27    2.83
   3  -1  -5   20.85    2.30
   3   1  -5   23.84    2.71
  -3   1   5   21.26    1.32
  -3  -1   4  104.06    5.05
  -3   1   4  126.98    7.99
   3  -1  -4   79.81    5.44
   3   1  -4   95.35    8.23
  -3   1   4   69.06    2.72
  -3  -1   3  281.61    9.35
  -3   1   3  300.92    9.63
   3   1  -3  246.34    8.55
  -3   1   3  290.29    8.24
  -3   1   2   21.89    2.09
  -3  -1   2   18.62    1.58
   3   1  -2   14.50    1.65
   3   1  -2   20.93    1.58
  -3   1   2   16.54    2.39
   3   1  -1   65.58    6.43
   3  -1  -1   95.47    4.07
   3   1  -1   76.04    3.16
  -3   1   1   79.06    4.22
   3   1   0   93.61    3.75
   3   1   0   90.40    3.60
   3  -1   0  104.68    4.47
  -3   1   0  100.31    4.86
   3   1   1    4.52    0.94
   3   1   1    2.70    1.53
   3  -1   1    1.26    2.01
  -3   1  -1    3.96    0.65
   3   1   2    5.94    1.37
   3   1   2   12.12    2.39
   3  -1   2    5.37    2.05
  -3   1  -2    6.68    0.83
   3   1   3   73.69    3.47
   3  -1   3   88.70    4.95
   3   1   4  770.19   24.18
   3  -1   4  745.65   23.69
  -3   1  -4  767.87   24.24
   3   1   5   10.59    2.74
   3  -1   5   14.50    4.30
  -3   1  -5    1.73    1.81
   3   1   6  104.99    3.72
   3  -1   6  106.09    4.47
  -3   1  -6   93.51    3.88
   3   1   7  123.15    4.08
   3  -1   7  123.82    4.61
  -3   1  -7  119.55    4.53
   3   1   8  212.08    8.46
   3  -1   8  214.58    8.93
  -3   1  -8  217.19    9.09
   3   1  10   44.96    3.80
   3  -1  10   54.47    4.12
  -3   1 -10   28.55    2.87
  -3  -1 -10   49.75    5.14
   3   1  11   37.39    4.60
   3  -1  11   36.62    4.47
  -3   1 -11   37.98    4.89
  -3  -1 -11   53.44    6.72
   3   1  12  258.47   10.17
   3  -1  12  260.35   10.65
  -3   1 -12  239.28   10.04
  -3  -1 -12  255.09   11.25
   3   1  13   14.17    2.99
   3  -1  13   26.05    5.50
  -3   1 -13   18.70    4.25
  -3  -1 -13   23.20    4.93
   3   1  14   96.55    4.77
   3  -1  14  112.61    5.37
  -3   1 -14  111.51    5.71
  -3  -1 -14  109.68    6.20
   3   1  15   76.01    5.05
   3  -1  15   78.02    4.95
  -3   1 -15   60.54    4.27
  -3  -1 -15   94.54    6.32
   3   1  16   12.20    4.05
   3  -1  16    5.39    2.80
  -3   1 -16   10.65    4.39
  -3  -1 -16    3.75    2.81
   3   1  17   19.12    4.59
   3  -1  17   29.05    4.04
  -3   1 -17   -0.45    2.03
  -3  -1 -17    4.02    2.52
   3   1  18   46.43    5.54
   3  -1  18   50.78    5.57
  -3   1 -18   40.54    4.97
  -3  -1 -18   42.87    5.66
   3   1  19    9.17    3.51
   3  -1  19   25.50    4.02
  -3   1 -19    4.84    2.67
  -3  -1 -19   12.37    2.99
   3   1  20   70.54    6.57
   3  -1  20   45.82    4.33
  -3   1 -20   55.25    5.34
  -3  -1 -20   39.19    5.28
  -3   2  20   15.18    3.61
  -3  -2  20   16.92    3.31
   3   2 -20   15.23    2.84
  -3   2  19   27.12    4.03
  -3  -2  19   27.09    3.58
   3   2 -19   22.22    2.79
   3  -2 -19   29.17    3.41
  -3   2  18  115.50    9.74
  -3  -2  18  118.18    7.12
   3   2 -18  104.67    6.50
   3  -2 -18  125.80    7.15
  -3   2  17   14.09    3.82
  -3  -2  17    7.47    2.25
   3   2 -17    9.96    2.89
   3  -2 -17    6.15    2.17
  -3   2  16   35.49    4.62
  -3  -2  16   33.78    3.48
   3   2 -16   20.80    2.44
   3  -2 -16   21.16    2.16
  -3   2  15    4.27    2.26
  -3  -2  15    2.32    1.59
   3   2 -15    6.67    2.28
   3  -2 -15    4.26    1.84
  -3   2  14  382.26   14.97
  -3  -2  14  374.47   11.54
   3   2 -14  363.52   11.53
   3  -2 -14  365.70   10.93
  -3   2  13    9.22    2.07
  -3  -2  13   10.29    2.77
   3   2 -13    7.88    2.31
   3  -2 -13    9.41    1.97
  -3   2  12  111.05   10.37
  -3  -2  12   91.02    4.27
   3   2 -12   77.93    4.12
   3  -2 -12   93.58    4.05
  -3   2  11   72.88    6.28
  -3  -2  11   64.58    6.42
   3   2 -11   64.95    9.00
   3  -2 -11   57.08    5.47
  -3   2  10  145.76    6.96
  -3  -2  10  164.65   10.83
   3   2 -10  150.07   12.09
   3  -2 -10  157.62    5.57
  -3   2   9  112.95    9.59
  -3  -2   9  104.04    7.42
   3   2  -9  113.77   11.20
   3  -2  -9   88.13    3.84
  -3   2   9   64.38    2.79
  -3   2   8  459.83   17.82
  -3  -2   8  447.36   18.23
   3  -2  -8  450.42   16.42
   3   2  -8  458.13   16.90
  -3   2   8  430.41   14.76
  -3   2   7   24.78    3.01
  -3  -2   7   23.22    2.88
   3   2  -7   27.93    2.85
   3  -2  -7   22.30    2.99
  -3   2   7   22.40    1.27
  -3   2   6  179.37    9.17
  -3  -2   6  155.18    4.21
   3  -2  -6  161.08    3.60
   3   2  -6  173.07    4.51
  -3   2   6  160.18    3.19
  -3   2   5  168.53   12.21
  -3  -2   5  150.01    9.32
   3  -2  -5  135.70    4.61
   3   2  -5  132.52    5.46
  -3   2   5  138.28    4.60
  -3   2   4  805.65   26.23
  -3  -2   4  719.12   22.98
   3   2  -4  698.29   21.51
   3   2  -4  701.79   21.96
  -3   2   4  785.87   23.91
  -3  -2   3  139.03    6.42
  -3   2   3  136.69    5.48
   3   2  -3  130.56    4.53
   3   2  -3  133.73    5.01
  -3   2   3  145.38    4.74
  -3   2   2  102.74    4.41
   3   2  -2   88.80    3.30
   3   2  -2  108.84    8.40
  -3   2   2   95.64    3.28
   3   2  -1   25.27    2.96
   3   2  -1   35.44    2.29
   3  -2  -1   48.49    3.25
  -3   2   1   25.40    2.78
   3   2   0  947.94   26.17
   3   2   0  981.74   26.63
   3  -2   0 1011.61   31.54
  -3   2   0  889.83   24.05
   3   2   1  440.76   14.16
   3   2   1  475.73   14.97
   3  -2   1  457.27   15.00
  -3   2  -1  441.84   13.71
  -3   2  -1  479.26   15.03
   3   2   2   67.94    5.25
   3   2   2   71.64    3.18
   3  -2   2   91.22    4.62
  -3   2  -2   77.69    3.47
   3   2   3    1.95    0.51
   3   2   3    3.16    1.29
   3  -2   3    4.04    2.03
  -3   2  -3   12.62    1.52
   3   2   4  387.63   12.55
   3  -2   4  351.78   12.14
  -3  -2  -4  322.41   10.43
  -3   2  -4  410.28   13.62
   3   2   5    8.15    1.46
   3  -2   5    9.46    3.14
  -3   2  -5   19.59    2.18
   3  -2   6   12.75    2.25
  -3   2  -6   25.22    2.51
   3   2   7    0.85    1.48
   3  -2   7    3.94    2.58
  -3   2  -7    9.11    2.89
   3   2   8  551.53   19.47
   3  -2   8  534.96   19.68
  -3   2  -8  505.26   18.34
   3   2   9   15.97    2.24
   3  -2   9   15.44    3.11
  -3   2  -9   12.82    2.54
   3   2  10   92.12    4.52
   3  -2  10   99.98    5.98
  -3   2 -10   89.45    5.44
  -3  -2 -10   94.08    5.94
   3   2  11   24.82    3.59
   3  -2  11   15.54    4.36
  -3   2 -11    7.36    2.47
  -3  -2 -11   10.87    3.23
   3   2  12   37.22    5.49
   3  -2  12   22.45    4.28
  -3   2 -12   18.09    3.06
  -3  -2 -12   23.37    5.04
   3   2  13   37.35    6.38
   3  -2  13   33.44    6.55
  -3   2 -13   25.86    4.93
  -3  -2 -13   30.51    5.78
  -3   2 -14   41.75    4.10
   3   2  15   11.39    2.82
   3  -2  15   30.74    4.62
  -3   2 -15   20.98    5.20
   3   2  16    3.92    2.08
   3  -2  16   10.11    3.81
  -3   2 -16    6.57    2.98
   3   2  17   20.87    2.51
   3  -2  17   16.38    5.22
  -3   2 -17   25.31    4.91
   3   2  18   32.47    4.43
   3  -2  18   32.14    4.25
  -3   2 -18   21.38    3.88
  -3  -2 -18   18.06    3.83
   3   2  19   13.52    2.88
   3  -2  19    7.27    3.14
  -3   2 -19    1.23    2.13
  -3  -2 -19   15.63    4.29
  -3   3  19  165.89   20.76
  -3  -3  19  178.15   13.86
   3   3 -19  178.14   13.96
  -3   3  18    4.85    1.71
  -3  -3  18    8.29    2.38
   3   3 -18    3.21    1.74
  -3   3  17   96.94    9.63
  -3  -3  17   81.82    5.20
   3   3 -17   89.62    5.92
  -3   3  16   80.07    6.00
  -3  -3  16   83.91    4.31
   3   3 -16   78.02    4.51
   3  -3 -16   67.76    3.28
  -3   3  15   63.30    9.36
  -3  -3  15   47.02    3.17
   3   3 -15   56.61    3.83
   3  -3 -15   50.12    2.77
  -3   3  14   94.07    8.84
  -3  -3  14   89.22    4.00
   3   3 -14   85.07    4.45
   3  -3 -14   90.39    3.59
  -3   3  13  284.09   17.85
  -3  -3  13  276.25   13.81
   3   3 -13  289.78   14.80
   3  -3 -13  285.08   13.86
  -3   3  12   28.84    6.57
  -3  -3  12   28.36    4.27
   3   3 -12   25.47    6.05
  -3   3  11  429.63   19.71
  -3  -3  11  452.21   16.01
   3   3 -11  442.82   16.39
   3  -3 -11  479.79   16.48
  -3   3  10   22.24    3.79
  -3  -3  10   17.27    2.45
   3   3 -10   20.97    3.06
   3  -3 -10   17.14    2.01
  -3   3   9  820.01   25.98
  -3  -3   9  875.82   26.41
   3   3  -9  828.90   25.25
   3  -3  -9  833.86   24.73
  -3   3   9  656.91   19.38
  -3   3   8    7.00    1.76
  -3  -3   8    7.41    1.64
   3   3  -8    6.02    1.75
   3  -3  -8    7.30    1.07
  -3   3   8    4.64    0.86
  -3   3   7   85.89    8.99
  -3  -3   7   62.59    5.19
   3  -3  -7   54.35    3.55
   3   3  -7   72.72    6.90
  -3   3   7   51.04    2.11
  -3   3   6  170.31    5.95
  -3  -3   6  157.29    6.69
   3  -3  -6  149.80    3.00
   3   3  -6  183.43    4.94
  -3   3   6  156.38    2.84
  -3   3   5  815.09   16.83
  -3  -3   5  765.69   13.26
   3   3  -5  738.98   11.80
   3   3  -5  777.20   15.26
  -3   3   4  198.75    9.38
  -3  -3   4  157.72    6.03
   3   3  -4  165.52    3.49
   3   3  -4  163.71    4.63
  -3   3   3   12.05    1.62
  -3  -3   3   15.39    1.13
   3   3  -3   17.92    1.18
   3   3  -3   10.50    1.99
  -3   3   2   35.21    2.73
   3   3  -2   27.58    1.42
   3   3  -2   24.75    1.49
   3   3  -2   23.03    3.04
   3   3  -1  280.73    8.83
   3   3  -1  262.72    8.41
   3  -3  -1  304.36   11.11
   3   3  -1  309.94   10.60
  -3   3   1  260.94    8.02
  -3   3   1  269.13    8.33
   3   3   0   41.14    3.11
   3   3   0   49.31    2.29
   3  -3   0   49.69    4.45
  -3   3   0   37.94    2.88
  -3   3   0   40.58    1.80
   3   3   1  210.86    7.02
   3   3   1  230.91    7.55
   3  -3   1  241.05    9.29
  -3   3  -1  217.96    6.97
  -3   3  -1  247.26    8.00
   3   3   2   57.81    3.47
   3   3   2   68.93    2.88
   3  -3   2   64.63    4.67
  -3   3  -2   76.49    3.21
   3   3   3  123.08    2.60
   3   3   3  127.55    3.17
   3  -3   3  127.70    4.69
  -3   3  -3  120.55    3.31
   3   3   4  198.69    4.50
   3  -3   4  186.49    6.06
  -3  -3  -4  155.85    3.64
  -3   3  -4  171.22    4.26
   3   3   5  513.45    9.06
   3  -3   5  487.30   10.64
  -3  -3  -5  483.02    8.46
   3   3   6  108.23    3.40
   3  -3   6  119.18    5.64
  -3   3  -6  109.28    4.10
   3   3   7   57.52    3.15
   3  -3   7   44.80    3.76
  -3   3  -7   58.99    3.60
   3   3   8    6.36    1.80
   3  -3   8   16.08    3.88
  -3   3  -8    9.08    2.40
   3   3   9  501.50   15.84
   3  -3   9  450.02   15.42
  -3   3  -9  465.85   15.30
   3   3  10   43.10    4.61
   3  -3  10   47.67    6.24
  -3   3 -10   38.36    4.62
   3   3  11  185.89    7.74
   3  -3  11  174.30    8.75
  -3   3 -11  172.11    7.58
   3   3  12  157.79    8.44
   3  -3  12  130.20    7.76
  -3   3 -12  138.72    7.93
   3   3  13  259.15    8.81
   3  -3  13  272.84   10.35
  -3   3 -13  232.10    8.55
  -3  -3 -13  265.38   10.89
   3   3  14   14.98    3.47
   3  -3  14   15.91    4.66
  -3   3 -14   19.82    4.81
   3   3  15   14.09    4.00
   3  -3  15    8.42    3.23
  -3   3 -15    8.29    3.35
  -3  -3 -15   16.33    3.61
   3   3  16   27.66    2.84
   3  -3  16   29.28    3.95
  -3   3 -16   22.75    4.96
  -3  -3 -16   23.14    5.59
   3   3  17    8.97    3.69
   3  -3  17   13.14    5.58
  -3   3 -17   11.82    4.33
  -3  -3 -17    7.16    3.29
   3   3  18   13.40    2.86
   3  -3  18   17.30    3.58
  -3   3 -18   16.33    3.41
  -3  -3 -18   14.88    4.53
   3   3  19   52.09    4.64
  -3   3 -19   39.89    4.39
  -3  -3 -19   48.48    5.95
  -3   4  19   28.66    4.64
  -3  -4  19   19.46    2.27
   3   4 -19   23.33    2.88
  -3   4  18   92.72   12.40
  -3  -4  18   74.81    6.36
   3   4 -18   84.53    7.46
  -3   4  17   14.22    3.84
  -3  -4  17   13.12    2.87
   3   4 -17    8.85    2.24
  -3   4  16   38.15    6.24
  -3  -4  16   36.91    2.75
   3   4 -16   32.94    3.40
  -3   4  15    3.94    1.77
  -3  -4  15    1.18    1.40
   3   4 -15    3.84    2.39
  -3   4  14   24.18    6.95
  -3  -4  14    8.78    2.43
   3   4 -14   16.91    3.88
  -3   4  13   35.50    6.64
  -3  -4  13   37.69    7.53
   3   4 -13   33.32    7.18
  -3   4  12  103.71   11.68
  -3  -4  12  104.97    5.85
   3   4 -12  101.31   11.43
   3  -4 -12   92.10    4.80
  -3   4  11   15.09    3.20
  -3  -4  11   10.83    2.21
   3   4 -11   15.76    3.06
   3  -4 -11    9.42    1.39
  -3   4  10   51.47    5.86
  -3  -4  10   48.02    7.59
   3   4 -10   48.49    8.11
   3  -4 -10   46.29    5.28
  -3   4   9  243.40   14.57
  -3  -4   9  251.79    9.10
   3  -4  -9  234.10    8.24
   3   4  -9  251.49   15.10
  -3   4   8  164.35   10.06
  -3  -4   8  171.69    6.04
   3  -4  -8  140.01    4.29
   3   4  -8  177.46   15.85
  -3   4   7   21.76    2.95
   3   4  -7   35.58    3.52
  -3   4   6    8.27    2.08
  -3  -4   6    2.59    0.67
   3   4  -6    4.38    0.92
   3   4  -6    3.83    1.32
  -3   4   5  280.67   13.56
  -3  -4   5  239.11    9.98
   3   4  -5  227.79    8.02
   3   4  -5  256.65   10.75
  -3   4   4  180.64    5.45
   3   4  -4  149.63    3.19
   3   4  -4  177.60   12.07
  -3   4   3   61.15    3.21
   3   4  -3   54.99    1.65
   3   4  -3   73.24    7.12
   3   4  -2   98.49    2.00
   3   4  -2   96.19    2.11
   3  -4  -2  101.19    5.52
   3   4  -2  120.51    9.46
   3   4  -1  478.08    7.23
   3   4  -1  520.22    7.90
   3   4  -1  495.73    9.39
   3   4   0    3.46    0.45
   3   4   0    2.16    0.55
   3  -4   0    5.84    2.73
   3   4   0    3.03    1.55
  -3   4   0    0.79    0.27
  -3   4   0    1.93    0.43
   3  -4   1   17.49    4.64
   3  -4   2   12.77    2.41
   3   4   3   14.31    2.42
   3   4   3   31.21    1.39
   3  -4   3   25.08    3.25
  -3   4  -3   24.85    1.46
   3   4   4  318.29   10.99
  -3   4  -4  324.51   11.60
   3  -4   5   23.19    2.88
  -3   4  -5   32.20    2.28
   3   4   6   20.16    1.63
   3  -4   6   23.87    3.23
  -3  -4  -6    9.23    1.15
  -3   4  -6   13.53    1.85
   3   4   7  194.26    6.49
  -3   4  -7  201.05    7.26
   3  -4   8   12.67    2.54
  -3   4  -8   21.78    2.49
   3   4  10    8.24    1.78
  -3   4 -10    8.50    2.15
   3   4  11    2.82    1.16
  -3   4 -11    4.24    1.81
   3   4  12    7.15    2.07
  -3   4 -12   14.17    3.52
  -3  -4 -12   10.13    4.68
   3   4  13  103.48    4.42
  -3   4 -13   92.64    4.56
  -3  -4 -13  117.41    7.06
   3   4  14   76.41    5.54
  -3   4 -14   66.61    5.21
  -3  -4 -14   53.80    5.92
   3   4  15    2.03    1.24
  -3   4 -15    4.01    2.52
  -3  -4 -15   11.55    5.09
   3   4  16    8.32    2.80
  -3   4 -16    6.50    2.48
  -3  -4 -16   15.52    5.91
   3   4  17  134.74   11.73
  -3   4 -17   93.22    8.76
  -3  -4 -17  123.53   11.97
   3  -4  18   -2.11    2.48
  -3   4 -18    5.00    2.88
  -3  -4 -18   12.26    4.54
  -3   5  18   16.39    3.67
  -3  -5  18   15.24    2.20
   3   5 -18   12.88    2.52
  -3   5  17   48.12    9.23
  -3  -5  17   39.68    3.93
   3   5 -17   37.27    5.57
  -3   5  16    5.79    2.31
  -3  -5  16    6.26    2.14
   3   5 -16    2.96    1.85
  -3   5  15    4.02    1.77
  -3  -5  15    1.98    1.16
   3   5 -15    4.38    2.79
  -3   5  14   33.23    4.99
   3   5 -14   22.53    4.52
  -3   5  13    8.59    3.30
  -3  -5  13    7.07    2.21
   3   5 -13   13.93    3.62
  -3   5  12   65.60   10.85
  -3  -5  12   76.91    3.98
   3   5 -12   59.77    9.33
  -3   5  11  174.37   11.17
  -3  -5  11  191.25    9.64
   3   5 -11  202.69   17.27
  -3   5  10  209.92   10.87
  -3  -5  10  250.74   12.27
   3   5 -10  261.83   20.51
  -3   5   9  129.47    6.60
  -3  -5   9  156.90    6.07
   3   5  -9  149.06   11.70
  -3   5   8  106.15   12.53
  -3  -5   8  122.67    6.32
   3   5  -8  122.43   11.22
  -3   5   7   33.69    5.96
  -3  -5   7   19.12    4.52
   3   5  -7   44.71    6.45
  -3   5   6   25.39    3.60
  -3  -5   6   15.17    2.52
   3   5  -6   14.84    1.10
   3   5  -6   30.48    3.68
  -3   5   5  649.63   22.42
  -3  -5   5  612.13   18.00
   3   5  -5  528.96   15.64
   3   5  -5  714.64   22.37
  -3   5   4   69.16    4.04
  -3  -5   4   53.89    2.08
   3   5  -4   64.82    2.55
   3   5  -4   87.84    8.23
  -3   5   3   54.41    3.51
   3   5  -3   68.31    7.92
   3  -5  -2  109.39    5.64
   3   5  -2  122.69    7.78
   3  -5  -1   38.21    3.34
   3   5  -1   44.21    3.01
   3  -5   0  202.77    8.85
   3   5   0  220.68    8.92
   3  -5   1   45.79    3.90
  -3   5  -1   40.78    1.73
   3  -5   2   18.36    3.90
  -3   5  -2    8.76    0.96
   3  -5   3   81.64    4.97
  -3   5  -3   81.24    3.41
   3   5   4  195.85    6.66
   3   5   4  216.38    7.36
   3  -5   4  234.68    9.81
  -3   5  -4  244.82    8.84
   3   5   5  739.40   21.73
   3  -5   5  735.16   23.30
  -3  -5  -5  716.99   21.08
  -3   5  -5  783.78   23.45
   3   5   6   35.37    1.86
   3  -5   6   28.87    4.22
  -3  -5  -6   22.38    1.41
  -3   5  -6   29.41    2.20
   3   5   7  167.82    6.07
   3  -5   7  186.60    8.64
  -3   5  -7  170.09    6.73
   3   5   8  588.02   20.08
   3  -5   8  580.89   21.26
  -3   5  -8  573.20   20.04
   3  -5   9   10.10    2.53
  -3   5  -9   16.79    2.60
   3  -5  11   10.80    3.29
  -3   5 -11   24.88    4.14
   3   5  12  215.92    9.14
   3  -5  12  204.55    9.97
  -3   5 -12  196.60    8.91
   3   5  13  134.71    8.70
   3  -5  13  146.11   10.40
  -3   5 -13  125.42    8.54
  -3  -5 -13  130.52    9.79
   3   5  14   44.25    3.29
   3  -5  14   39.70    5.33
  -3   5 -14   36.38    3.42
  -3  -5 -14   22.23    5.65
   3   5  15   39.48    3.15
   3  -5  15   37.44    4.99
  -3   5 -15   38.73    3.53
  -3  -5 -15   46.03    6.00
   3   5  16   49.56    4.93
   3  -5  16   48.89    5.47
  -3   5 -16   48.27    5.33
  -3  -5 -16   56.97    6.70
   3   5  17   12.85    2.24
   3  -5  17   12.66    4.18
  -3   5 -17   19.61    3.46
  -3  -5 -17   11.47    3.10
   3   5  18   20.75    2.53
   3  -5  18   27.47    4.73
  -3   5 -18   30.40    3.59
  -3  -5 -18   24.92    4.48
   3   6 -17    4.92    2.76
  -3  -6  16    1.05    1.02
   3   6 -16    2.64    1.55
  -3  -6  15   35.34    3.46
   3   6 -15   47.15    6.38
  -3  -6  14   99.76    5.67
   3   6 -14  100.78   14.86
  -3   6  13    7.40    2.80
  -3  -6  13    6.77    2.00
   3   6 -13    9.71    2.70
  -3   6  12   16.57    2.69
  -3  -6  12   23.11    2.58
   3   6 -12   25.74    2.97
  -3   6  11    6.91    2.16
  -3  -6  11    2.39    1.32
   3   6 -11   10.25    2.99
  -3   6  10  113.43   12.34
  -3  -6  10  112.26    4.16
   3   6 -10   97.62    8.19
  -3   6   9   24.16    4.53
  -3  -6   9   17.93    3.11
   3   6  -9   26.51    5.01
  -3   6   8   12.10    3.17
  -3  -6   8    6.04    1.42
   3   6  -8    9.76    2.40
  -3   6   7  284.40   16.54
  -3  -6   7  231.11    8.13
   3   6  -7  266.23   10.46
  -3   6   6   59.46    7.46
  -3  -6   6   29.06    4.07
   3   6  -6   53.95    6.07
  -3   6   5  216.52    8.71
  -3  -6   5  142.63    4.94
   3   6  -5  205.22   18.31
  -3   6   4 1035.02   35.15
   3   6  -4  945.08   35.01
   3  -6  -3  102.72    6.64
   3   6  -3  109.14    7.74
   3  -6  -2   11.33    4.35
   3   6  -2   16.31    2.33
   3  -6  -1    8.89    2.99
   3   6  -1    7.41    1.74
   3  -6   0  269.74   10.74
   3   6   0  287.61   10.16
   3  -6   1    4.57    4.31
  -3   6  -1    1.32    0.33
   3  -6   2  110.36    5.89
  -3   6  -2  115.95    3.92
   3  -6   3  678.36   24.16
  -3   6  -3  684.84   22.76
   3  -6   4 1168.33  129.63
  -3   6  -4 1111.36   36.82
   3  -6   5  230.71   10.40
  -3   6  -5  227.09    8.37
   3   6   6    8.27    1.10
   3  -6   6   22.51    4.97
  -3   6  -6   15.89    2.39
   3  -6   7   24.99    4.44
  -3   6  -7   37.64    4.71
   3   6   8    2.05    1.00
   3  -6   8    6.25    3.02
  -3   6  -8    1.74    1.42
   3   6   9   15.54    2.71
   3  -6   9   22.80    5.40
  -3   6  -9   13.79    2.76
   3   6  10    7.33    1.62
   3  -6  10   13.92    5.03
  -3   6 -10   20.01    3.43
   3   6  11   41.50    2.55
   3  -6  11   42.09    4.02
  -3   6 -11   43.51    3.06
   3   6  12    2.33    1.17
   3  -6  12    8.19    3.30
  -3   6 -12    2.42    1.46
   3  -6  13  132.78    7.55
  -3   6 -13  119.39    5.53
   3  -6  14   50.66    6.16
  -3   6 -14   27.19    2.79
  -3  -6 -14   34.33    4.45
   3  -6  15    2.35    2.69
  -3   6 -15    4.79    1.66
  -3  -6 -15    1.25    3.09
   3  -6  16    2.90    2.87
  -3   6 -16    7.55    2.86
  -3  -6 -16    6.57    3.94
   3  -6  17   22.60    3.73
  -3   6 -17   30.00    3.44
  -3  -6 -17   34.00    5.79
  -3   7  16    8.22    2.30
   3   7 -16    3.99    2.14
  -3   7  15  109.58   13.98
   3   7 -15   85.85   12.14
  -3   7  14   13.19    3.30
   3   7 -14    8.50    2.36
  -3   7  13  240.81   13.03
   3   7 -13  219.01   19.69
  -3   7  12   15.25    3.52
   3   7 -12   17.71    4.38
  -3   7  11   17.36    2.91
   3   7 -11   11.37    3.19
  -3   7  10    5.19    1.99
   3   7 -10    3.15    1.24
  -3   7   9  168.11   15.52
   3   7  -9  154.81   13.13
  -3   7   8   50.53    6.94
   3   7  -8   56.62    6.50
  -3   7   7   31.55    5.58
   3   7  -7   35.19    6.74
  -3   7   6    1.37    1.56
   3   7  -6    2.70    1.26
  -3   7   5  187.22   10.00
   3   7  -5  190.19   14.58
   3  -7  -4    4.17    2.92
   3   7  -4   11.79    2.47
   3  -7  -3   36.72    6.47
   3   7  -3   37.05    6.38
   3  -7  -2  101.39    6.28
   3   7  -2   98.55   10.92
   3  -7  -1   41.00    6.09
   3   7  -1   31.71    4.54
   3  -7   0   21.44    3.93
   3   7   0   15.30    2.71
   3  -7   1   10.11    3.25
   3  -7   2   28.91    5.72
  -3   7  -2   15.26    2.42
   3  -7   3    5.53    3.05
  -3   7  -3    1.95    0.57
   3  -7   4   28.25    5.95
  -3   7  -4   29.55    4.79
   3  -7   5   54.99    6.11
  -3   7  -5   64.43    3.84
   3  -7   6    1.36    3.13
  -3   7  -6    0.35    0.89
   3  -7   7    8.75    3.12
  -3   7  -7    9.63    1.98
   3  -7   8   28.04    6.43
  -3   7  -8   17.45    2.97
   3  -7   9  159.21    8.35
  -3   7  -9  144.78    6.79
   3  -7  10    8.83    3.26
  -3   7 -10   16.36    2.29
   3  -7  11    2.63    2.63
  -3   7 -11   10.71    3.25
   3  -7  12    3.58    2.61
  -3   7 -12    6.32    2.54
   3  -7  14    6.32    3.41
  -3   7 -14    5.31    2.33
   3  -7  15   13.40    4.60
  -3   7 -15    1.60    1.39
  -3  -7 -15   13.48    3.99
   3  -7  16   13.06    2.99
  -3   7 -16    9.31    2.35
  -3  -7 -16   10.52    5.31
  -3   8  14   35.94    8.23
   3   8 -14   32.93    4.89
  -3   8  13   18.93    3.96
   3   8 -13   14.96    2.92
  -3   8  12   45.72    7.73
   3   8 -12   40.38    5.37
  -3   8  11   19.81    3.36
   3   8 -11   15.24    4.51
  -3   8  10   61.86    7.70
   3   8 -10   80.89    8.42
  -3   8   9   22.09    5.34
   3   8  -9   27.70    3.71
  -3   8   8   73.73    5.65
   3   8  -8   65.04    8.63
  -3   8   7   28.00    3.26
   3   8  -7   16.13    4.26
  -3   8   6   10.79    3.73
   3   8  -6    7.97    2.43
   3  -8  -5  139.19    7.01
   3   8  -5  109.44   12.37
   3  -8  -4   18.47    4.13
   3   8  -4   26.99    5.08
   3  -8  -3   13.64    3.52
   3   8  -3   20.39    4.14
   3  -8  -2    4.64    3.03
   3   8  -2    2.93    1.57
   3  -8  -1  154.19    7.45
   3   8  -1  150.70    6.21
   3  -8   0   50.73    4.93
   3   8   0   50.20    4.30
   3  -8   1    5.90    3.13
   3  -8   2    6.59    4.23
   3  -8   3  157.29    7.65
   3  -8   4   14.91    4.68
   3  -8   5   39.77    5.18
   3  -8   6   12.60    3.81
  -3   8  -6   16.54    3.44
   3  -8   7   11.41    4.70
  -3   8  -7    4.16    1.60
   3  -8   8   10.40    4.37
  -3   8  -8    8.12    2.40
   3  -8   9   28.13    3.79
  -3   8  -9   29.50    2.51
   3  -8  10    7.21    3.21
  -3   8 -10    9.99    2.78
   3  -8  11   23.97    5.03
  -3   8 -11   12.68    3.54
   3  -8  12   13.65    3.58
  -3   8 -12   24.20    3.06
   3  -8  13   46.86    6.53
  -3   8 -13   27.58    3.04
   3  -8  14   30.79    4.16
  -3   8 -14   25.40    2.89
  -3   9  12   44.81    8.49
   3   9 -12   33.83    5.02
  -3   9  11    1.46    1.76
   3   9 -11    6.74    3.47
  -3   9  10   61.31    6.19
   3   9 -10   43.69    8.31
  -3   9   9   23.65    3.75
   3   9  -9    8.25    3.29
  -3   9   8   83.14    6.10
   3   9  -8   50.73    8.88
  -3   9   7    1.35    1.77
   3   9  -7   10.57    3.13
   3  -9  -6   37.25    4.80
   3   9  -6   20.91    5.09
   3  -9  -5   10.69    4.84
   3   9  -5    7.00    2.53
   3  -9  -4    7.00    4.32
   3   9  -4    9.13    2.58
   3  -9  -3    2.10    3.01
   3   9  -3    5.37    1.91
   3  -9  -2  155.15   11.05
   3  -9  -1    0.47    2.97
   3   9  -1    8.49    3.11
   3  -9   0  318.12   20.36
   3  -9   1   11.89    4.07
   3  -9   2    7.55    4.49
   3  -9   3    4.68    3.05
   3  -9   4   45.11    5.13
   3  -9   5    9.75    4.52
   3  -9   6    9.63    4.53
   3  -9   7   10.40    5.49
   3  -9   8  125.22    8.38
   3  -9  10  104.72   11.00
   3  -9  11    5.34    3.45
   3  -9  12   94.04    7.42
  -3  10  10   32.45    3.70
   3  10 -10   21.19    3.31
  -3  10   9    0.62    1.69
   3  10  -9    6.24    2.77
   3 -10  -7   21.24    4.62
   3 -10  -6   16.53    4.20
   3  10  -6    4.03    1.64
   3 -10  -5   85.16    8.95
   3  10  -5   59.89    9.50
   3 -10  -4    5.95    3.25
   3  10  -4    3.93    2.96
   3 -10  -3    7.82    3.55
   3  10  -3   13.94    4.15
   3 -10  -2   -1.99    2.87
   3  10  -2    3.28    2.25
   3 -10  -1    2.24    2.90
   3  10  -1    3.00    2.50
   3 -10   0   12.42    4.96
   3 -10   1    7.67    4.48
   3 -10   2    7.07    4.38
   3 -10   3   67.65    5.99
   3 -10   4    1.46    2.65
   3 -10   5   37.25    5.09
   3 -10   6   36.13    5.28
   3 -10   7   14.60    3.41
   3 -10   8   13.58    4.29
   3 -10   9   15.61    3.64
   3 -10  10    7.18    3.07
   3 -11  -6    8.50    3.59
   3  11  -6   10.06    2.69
   3 -11  -5  115.92    8.11
   3  11  -5   85.13   13.98
   3 -11  -4   35.35    4.52
   3  11  -4   22.22    2.72
   3 -11  -3   14.07    3.47
   3  11  -3   24.17    3.74
   3 -11  -2    1.25    2.55
   3  11  -2    9.21    3.58
   3 -11  -1   19.00    3.39
   3 -11   0   33.14    4.81
   3 -11   1   27.33    4.37
   3 -11   2   21.67    4.25
   3 -11   3   14.83    4.77
   3 -11   4    9.05    4.33
   3 -11   5   20.81    4.68
   3 -11   6    6.48    3.08
  -4   0  18    2.82    2.01
  -4   0  17    2.15    1.35
   4   0 -17    5.01    2.02
  -4   0  16   62.61   10.46
   4   0 -16   68.25   11.21
  -4   0  15   15.45    5.06
   4   0 -15    8.27    2.61
  -4   0  14   87.58   12.31
   4   0 -14   79.37    9.80
  -4   0  13    5.08    1.86
   4   0 -13    4.74    1.44
  -4   0  12  178.30   10.98
   4   0 -12  169.36   13.94
  -4   0  11    3.36    2.28
   4   0 -11    2.76    1.36
  -4   0  10   13.58    3.88
   4   0 -10   13.98    3.74
  -4   0   9    3.50    1.36
   4   0  -9    1.77    0.78
  -4   0   8  557.86   20.22
   4   0  -8  562.14   19.56
  -4   0   7   26.94    3.60
   4   0  -7   25.50    3.86
  -4   0   6  193.82   10.40
   4   0  -6  193.47   10.60
  -4   0   5    7.23    1.67
   4   0  -5    3.44    0.91
  -4   0   4   79.22    3.53
   4   0  -2   20.08    3.36
   4   0  -1   -0.17    1.99
   4   0   0  162.75    6.84
   4   0   1   20.48    2.51
   4   0   2 1018.07   34.75
   4   0   3    7.79    2.04
   4   0   4    9.88    3.09
   4   0   5   14.10    4.16
   4   0   6  149.61    6.97
   4   0   7    4.79    2.10
  -4   0  -7    7.73    3.25
   4   0   8  108.92    6.03
  -4   0  -8  154.24    7.91
   4   0   9   -0.06    1.88
  -4   0  -9    4.91    3.66
   4   0  10  129.96    7.59
  -4   0 -10  116.85    7.40
   4   0  11    6.50    3.17
  -4   0 -11   11.25    3.79
   4   0  12    6.62    2.32
  -4   0 -12   15.55    4.84
   4   0  13    6.25    2.53
  -4   0 -13    6.77    3.29
   4   0  14   59.38    5.14
  -4   0 -14   27.56    3.35
   4   0  15    5.19    2.55
  -4   0 -15   13.97    5.52
   4   0  16   11.41    3.51
  -4   0 -16    4.45    2.44
   4   0  17    0.72    1.96
  -4   0 -17    7.58    4.09
  -4  -1  18   19.39    4.84
  -4   1  18   21.73    5.70
   4   1 -18   26.64    4.33
  -4   1  17  161.97   21.32
  -4  -1  17  159.31   17.89
   4   1 -17  161.07   17.64
  -4   1  16    8.90    2.00
  -4  -1  16    6.44    1.56
   4   1 -16    9.97    2.31
  -4   1  15    7.12    2.24
  -4  -1  15    4.85    2.06
   4   1 -15    3.23    1.41
  -4   1  14   86.10   11.49
  -4  -1  14   77.36    8.69
   4  -1 -14   71.58    8.96
   4   1 -14   84.05   11.64
  -4  -1  13  151.99   13.74
  -4   1  13  150.10   11.66
   4  -1 -13  147.75   11.93
   4   1 -13  144.32   14.57
  -4  -1  12  109.48   10.69
  -4   1  12  108.58    9.72
   4  -1 -12  131.02    8.46
   4   1 -12  106.02   10.79
  -4   1  11   60.09    8.94
  -4  -1  11   47.16    7.23
   4   1 -11   58.12    5.20
   4  -1 -11   43.23    5.66
  -4   1  10  196.10   15.60
  -4  -1  10  199.60   11.04
   4  -1 -10  185.15   11.43
   4   1 -10  199.18   11.20
  -4  -1   9  105.62    8.79
  -4   1   9  100.65   10.15
   4   1  -9   95.53    9.00
   4  -1  -9   91.66    5.79
  -4   1   8  110.32    8.14
  -4  -1   8   85.79    8.59
   4  -1  -8   84.34    5.92
   4   1  -8   97.75   10.04
  -4  -1   7   90.00    8.06
  -4   1   7  104.19    9.45
   4  -1  -7   92.26    7.59
   4   1  -7   99.11    7.97
  -4  -1   6   37.80    4.97
  -4  -1   5   82.81    8.87
  -4   1   5   94.00    4.25
   4   1  -5   93.68    6.94
  -4  -1   4  468.29   14.42
  -4   1   4  518.53   16.29
   4   1  -4  495.94   15.26
   4   1  -3  166.76    6.82
   4   1  -2   10.12    1.63
   4  -1  -2   10.82    3.18
   4  -1  -1   23.97    2.60
   4   1  -1   26.20    2.46
   4  -1   0   90.34    4.83
   4   1   0   85.60    4.22
   4   1   1   64.95    3.72
   4  -1   1   61.30    3.87
   4   1   2  121.16    5.47
   4  -1   2  122.98    5.78
   4   1   3    6.06    1.88
   4  -1   3   12.58    3.42
   4   1   4   81.82    4.65
   4  -1   4   70.57    4.72
  -4   1  -4  106.13    5.46
   4   1   5   10.56    3.05
   4  -1   5   15.35    3.02
  -4   1  -5   12.00    2.08
   4   1   6  441.95   15.84
   4  -1   6  469.91   17.16
  -4   1  -6  482.53   17.51
   4   1   7   89.99    4.68
   4  -1   7   81.85    5.43
  -4   1  -7   85.61    5.09
   4   1   8    8.17    2.78
   4  -1   8    7.80    2.64
  -4   1  -8    2.53    1.87
   4   1   9   44.35    4.05
   4  -1   9   38.06    6.33
  -4   1  -9   27.98    5.19
  -4  -1  -9   38.05    6.65
   4   1  10  214.86   11.37
   4  -1  10  230.00   12.74
  -4   1 -10  209.89   11.30
  -4  -1 -10  222.01   12.58
   4   1  11  142.59    6.64
   4  -1  11  158.65    7.06
  -4   1 -11  132.01    6.16
  -4  -1 -11  142.22    7.21
   4  -1  12    8.08    2.91
  -4   1 -12   17.59    4.91
  -4  -1 -12   13.59    5.18
   4   1  13    2.74    3.00
   4  -1  13   15.19    5.21
  -4   1 -13    8.59    3.90
  -4  -1 -13   11.85    4.32
   4   1  14  149.71    6.86
   4  -1  14  148.83    7.22
  -4   1 -14  144.65    7.16
  -4  -1 -14  137.25    8.00
   4   1  15   17.28    5.64
   4  -1  15    5.35    2.85
  -4   1 -15    7.36    3.42
  -4  -1 -15   21.72    5.67
   4   1  16    8.09    3.54
   4  -1  16    4.30    2.41
  -4   1 -16   10.00    3.47
  -4  -1 -16    1.00    2.43
   4   1  17    7.76    2.89
   4  -1  17   16.83    3.61
  -4   1 -17   12.96    3.49
  -4  -1 -17    9.42    4.65
  -4   2  18   33.20    5.73
  -4  -2  18   13.76    4.70
   4   2 -18   18.96    3.53
  -4   2  17  113.90   12.44
  -4  -2  17  116.88   13.58
   4   2 -17  102.17   13.44
  -4   2  16    3.66    1.55
  -4  -2  16    1.99    1.83
   4   2 -16    3.42    1.64
  -4   2  15   34.05    8.09
  -4  -2  15   20.83    3.91
   4   2 -15   18.20    3.98
  -4   2  14   12.42    3.62
  -4  -2  14    5.32    2.78
   4   2 -14    6.93    2.19
  -4   2  13   16.27    2.66
  -4  -2  13   10.09    2.97
   4   2 -13    8.20    2.50
  -4   2  12   52.53    5.23
  -4  -2  12   53.18    6.41
   4   2 -12   49.74    5.59
  -4   2  11   79.18    7.78
  -4  -2  11   64.71    7.36
   4   2 -11   84.37    8.20
   4  -2 -11   61.64    6.88
  -4   2  10   24.27    4.92
  -4  -2  10   26.12    5.08
   4  -2 -10   24.63    4.50
   4   2 -10   29.12    5.70
  -4   2   9  525.75   28.04
  -4  -2   9  510.17   24.45
   4  -2  -9  472.22   22.31
   4   2  -9  536.01   25.87
  -4   2   8   30.51    5.14
  -4  -2   8   23.25    4.18
   4  -2  -8   17.21    2.74
   4   2  -8   31.11    5.06
  -4   2   7  763.52  116.92
  -4  -2   7  740.68  112.48
   4  -2  -7  697.11   23.39
   4   2  -7  748.64  113.97
  -4   2   6    5.57    1.76
  -4  -2   6    1.85    0.85
   4   2  -6    3.93    1.55
  -4   2   5   81.83    4.68
  -4  -2   5   39.52    6.57
   4   2  -5   58.76    9.20
  -4   2   4  105.39    4.90
  -4  -2   4   99.85    3.85
   4   2  -4   96.78    4.06
  -4   2   4   93.06    3.27
   4  -2  -3   89.25    4.71
   4   2  -3   91.21    4.00
   4   2  -3   87.08    3.86
  -4   2   3   97.36    3.44
   4   2  -2   89.79    3.98
   4  -2  -2   91.81    4.82
  -4   2   2   77.67    2.83
   4   2  -1  497.76   15.36
   4  -2  -1  508.90   16.49
  -4   2   1  404.72   12.49
   4   2   0   10.07    2.58
   4  -2   0    4.96    2.53
  -4   2   0    2.82    0.71
   4   2   1  522.47   16.13
   4  -2   1  465.85   15.19
   4   2   2   73.35    3.80
   4  -2   2   61.89    3.88
  -4   2  -2   87.30    4.26
   4   2   3    6.03    1.68
   4  -2   3    2.57    2.47
  -4   2  -3    9.33    1.78
   4   2   4   15.17    2.04
   4  -2   4    5.45    2.58
  -4   2  -4    9.97    2.26
   4   2   5  391.69   13.93
   4  -2   5  429.58   16.12
  -4   2  -5  379.55   13.72
   4   2   6   36.83    4.40
   4  -2   6   38.79    5.27
  -4   2  -6   27.11    3.40
   4  -2   7    8.60    3.56
   4   2   8   35.57    4.92
   4  -2   8   30.22    4.59
  -4   2  -8   27.59    4.02
   4   2   9   89.64    5.50
   4  -2   9   71.52    5.67
  -4   2  -9   73.90    5.09
   4   2  10   11.45    3.06
   4  -2  10   11.90    3.89
  -4   2 -10    4.41    2.54
  -4  -2 -10    9.95    3.27
   4   2  11   15.80    4.18
   4  -2  11   14.21    4.19
  -4   2 -11   11.21    3.20
  -4  -2 -11   12.02    3.86
   4   2  12   13.39    3.17
   4  -2  12   13.18    4.34
  -4   2 -12   20.56    4.85
  -4  -2 -12   17.14    4.97
   4   2  13   94.13    6.78
   4  -2  13   98.40    8.07
  -4   2 -13   76.03    6.00
  -4  -2 -13   99.27    8.15
   4   2  14   18.62    4.29
   4  -2  14   22.03    5.10
  -4   2 -14   15.19    3.97
  -4  -2 -14   17.97    5.29
   4   2  15  234.89   12.77
   4  -2  15  265.80   32.61
  -4   2 -15  249.31   13.85
  -4  -2 -15  253.43   31.49
   4   2  16   11.46    2.65
   4  -2  16   14.17    3.62
  -4   2 -16    6.94    2.84
  -4  -2 -16    6.90    4.46
   4   2  17    5.98    2.93
   4  -2  17   18.28    4.40
  -4   2 -17    5.61    3.04
  -4  -2 -17    2.74    2.75
  -4   3  17  109.73   15.38
  -4  -3  17   57.57   12.52
   4   3 -17   87.12   11.11
  -4   3  16   30.87    5.15
  -4  -3  16   24.40    4.93
   4   3 -16   25.00    5.32
  -4   3  15   26.80    5.51
  -4  -3  15   22.68    5.14
   4   3 -15   30.96    3.37
  -4   3  14   24.72    4.32
  -4  -3  14   14.32    4.71
   4   3 -14   18.17    3.62
  -4  -3  13   16.11    4.65
   4   3 -13   22.80    5.37
  -4   3  12   42.97    5.40
  -4  -3  12   28.07    5.62
   4   3 -12   38.57    5.29
  -4   3  11    9.91    2.96
  -4  -3  11    5.87    2.09
   4   3 -11    3.51    1.31
  -4   3  10   49.91    5.83
  -4  -3  10   41.52    8.96
   4   3 -10   47.45    4.57
  -4   3   9   71.45    8.61
  -4  -3   9   49.19    6.33
   4   3  -9   60.95    5.71
  -4   3   8   63.07    6.40
  -4  -3   8   55.27    7.52
   4   3  -8   67.57    7.56
  -4   3   7  104.48   10.33
  -4  -3   7   93.39    7.63
   4   3  -7  111.20   10.96
  -4  -3   6    2.92    0.93
  -4   3   6    8.39    1.94
   4   3  -6   11.01    2.18
  -4  -3   5  171.28    6.34
  -4   3   5  187.53    7.78
   4   3  -5  187.46    8.31
  -4   3   4   80.03    4.49
   4   3  -4   83.82    9.19
   4   3  -3   70.62    8.18
   4  -3  -3   76.36    4.75
   4   3  -3   62.33    6.27
  -4   3   3   65.31    5.95
   4   3  -2  117.57    4.12
   4   3  -2  125.18    4.53
   4  -3  -2  138.49    6.52
   4   3  -2  123.65    5.23
  -4   3   2  128.53    4.14
   4   3  -1   14.90    1.10
   4   3  -1   24.66    1.84
   4  -3  -1   27.49    3.74
  -4   3   1   19.83    1.01
  -4   3   1   24.18    1.51
   4   3   0  173.93    6.96
   4   3   0  213.00    6.99
   4  -3   0  215.26    8.50
  -4   3   0  157.72    5.55
  -4   3   0  218.38    7.00
   4   3   1    8.43    1.45
   4   3   1   22.30    1.86
   4  -3   1   21.02    4.00
  -4   3  -1   11.25    1.70
  -4   3  -1   20.29    1.74
   4   3   2  128.13    5.12
   4  -3   2  112.04    5.93
  -4   3  -2  124.13    4.97
   4   3   3   13.95    2.57
   4  -3   3    5.66    2.51
  -4   3  -3    5.97    1.18
   4   3   4   66.84    6.64
   4  -3   4   72.06    4.79
  -4   3  -4   55.38    5.61
   4   3   5  147.55    6.04
   4  -3   5  127.88    6.96
  -4   3  -5  123.20    5.28
   4   3   6   43.66    5.38
   4  -3   6   39.74    6.37
  -4   3  -6   37.86    5.06
   4   3   7  169.90    6.89
   4  -3   7  190.56    8.94
  -4   3  -7  169.93    7.11
   4   3   8   84.37    5.15
   4  -3   8   62.18    5.55
  -4   3  -8   66.45    4.44
   4   3   9   91.93    5.59
   4  -3   9  102.69    6.68
  -4   3  -9   78.38    5.03
   4   3  10  147.75    5.71
   4  -3  10  149.01    6.84
  -4   3 -10  160.13    6.52
   4   3  11    8.41    2.90
   4  -3  11    1.34    2.83
  -4   3 -11    5.88    2.08
  -4  -3 -11    7.39    3.44
   4   3  12   92.47    6.66
   4  -3  12   75.29    6.86
  -4   3 -12   69.51    5.55
  -4  -3 -12   70.49    6.34
   4   3  13    1.07    1.42
   4  -3  13   16.05    6.14
  -4   3 -13    4.90    2.07
  -4  -3 -13    8.24    3.16
   4   3  14   40.44    3.73
   4  -3  14   55.89    5.77
  -4   3 -14   32.27    3.58
  -4  -3 -14   40.92    5.30
   4   3  15   34.66    3.98
   4  -3  15   34.16    4.58
  -4   3 -15   41.84    5.24
  -4  -3 -15   46.65    6.50
   4   3  16    2.43    1.66
   4  -3  16   12.12    4.06
  -4   3 -16    7.58    3.22
  -4  -3 -16    1.88    2.84
   4   3  17   15.94    2.58
   4  -3  17   23.36    4.22
  -4   3 -17   22.43    3.29
  -4  -3 -17   27.81    5.27
  -4   4  16   46.49    6.60
  -4  -4  16   25.61    6.00
   4   4 -16   33.71    4.61
  -4   4  15   44.85    6.32
  -4  -4  15   22.26    7.05
   4   4 -15   26.73    3.88
  -4   4  14   11.50    3.71
  -4  -4  14    1.77    1.74
   4   4 -14    4.84    2.23
  -4   4  13   21.67    5.83
  -4  -4  13   10.12    3.02
   4   4 -13   21.38    4.54
  -4   4  12  115.90   12.60
  -4  -4  12   78.57   11.23
   4   4 -12  104.31   10.76
  -4   4  11   61.90    9.27
  -4  -4  11   39.55    6.19
   4   4 -11   56.34    5.88
  -4   4  10    2.01    2.37
  -4  -4  10    3.00    1.21
   4   4 -10    3.46    1.35
  -4   4   9   15.65    3.65
  -4  -4   9    4.64    1.91
   4   4  -9    8.67    2.37
  -4   4   8   28.37    5.33
  -4  -4   8   20.95    5.03
   4   4  -8   33.09    6.98
  -4   4   7   29.61    5.57
  -4  -4   7   14.95    3.73
   4   4  -7   22.96    4.97
  -4   4   6  167.26    7.37
  -4  -4   6  138.12    7.04
   4   4  -6  170.75   15.14
  -4  -4   5  165.29    6.01
  -4   4   5  168.23    7.59
   4   4  -5  164.62   11.67
  -4   4   4  176.07    7.49
   4   4  -4  163.31    6.02
   4   4  -4  188.67   13.31
   4   4  -3   11.86    1.60
   4  -4  -3   10.38    2.14
   4   4  -3   15.74    2.62
   4   4  -2  413.35   13.90
   4  -4  -2  427.29   15.74
   4   4  -2  442.05   15.80
   4   4  -1    8.40    1.33
   4  -4  -1   11.57    2.70
   4   4   0  200.07    7.06
   4  -4   0  173.10    7.77
  -4   4   0  155.08    5.27
   4   4   1    3.30    0.88
   4  -4   1    5.09    2.41
  -4   4  -1    5.00    0.93
   4   4   2   69.10    7.88
   4  -4   2   37.53    5.19
  -4   4  -2   33.26    3.40
   4   4   3    3.47    1.16
   4  -4   3    4.00    2.47
  -4   4  -3    3.07    1.21
   4   4   4   19.04    2.49
   4  -4   4    7.17    3.65
  -4   4  -4    8.06    1.83
   4   4   5   19.04    2.54
   4  -4   5   11.49    4.09
  -4   4  -5   25.10    3.55
   4   4   6   44.17    3.04
   4  -4   6   36.02    6.59
  -4   4  -6   39.68    3.18
   4   4   7    7.03    1.75
   4  -4   7   10.45    3.54
  -4   4  -7    5.54    1.46
   4   4   8    3.53    1.61
   4  -4   8    4.97    3.15
  -4   4  -8    9.90    2.46
   4   4   9   56.67    2.83
   4  -4   9   62.80    4.94
  -4   4  -9   46.03    2.95
   4   4  10    3.22    1.27
   4  -4  10    5.63    2.82
  -4   4 -10   11.47    3.25
   4   4  11   27.70    2.75
   4  -4  11   25.89    3.71
  -4   4 -11   30.43    3.23
   4   4  12   53.39    3.37
   4  -4  12   69.55    6.14
  -4   4 -12   56.21    3.68
  -4  -4 -12   51.56    4.92
   4   4  13    5.34    1.98
   4  -4  13    8.54    4.00
  -4   4 -13   13.20    4.25
  -4  -4 -13   11.33    4.42
   4   4  14   12.60    2.47
   4  -4  14   13.75    4.37
  -4   4 -14    7.98    2.85
  -4  -4 -14   12.85    4.75
   4  -4  15    3.26    2.88
  -4   4 -15    9.41    3.65
  -4  -4 -15   13.21    5.45
   4  -4  16    2.92    2.60
  -4   4 -16    6.06    2.34
  -4  -4 -16   10.00    4.74
  -4   5  16    8.21    2.34
   4   5 -16    4.80    1.21
  -4   5  15   20.91    4.02
   4   5 -15   15.11    3.04
  -4   5  14   81.26   12.39
   4   5 -14   60.54   10.11
  -4   5  13   73.86   11.60
   4   5 -13   81.23    8.15
  -4   5  12   29.35    4.24
   4   5 -12   32.57    4.78
  -4   5  11  123.93    8.39
   4   5 -11  116.09   11.05
  -4   5  10  103.39   11.31
   4   5 -10  105.38   11.30
  -4   5   9  233.08   17.66
   4   5  -9  216.74   16.51
  -4   5   8   53.80    4.59
   4   5  -8   44.14    5.28
  -4   5   7   58.15    3.85
   4   5  -7   56.40    6.79
  -4   5   6   30.10    5.57
   4   5  -6   29.64    5.70
  -4   5   5   65.69    5.02
   4   5  -5   67.32    7.43
   4  -5  -4    1.44    2.30
   4   5  -4   12.11    3.03
   4  -5  -3   21.12    4.06
   4   5  -3   18.52    3.62
   4  -5  -2   47.71    7.95
   4   5  -2   50.41    3.36
   4  -5  -1    1.33    2.35
   4  -5   0   34.83    5.20
   4  -5   1   20.84    3.75
   4  -5   2    4.62    2.41
   4  -5   3   50.68    4.25
  -4   5  -3   47.34    2.71
   4  -5   4    2.23    2.39
  -4   5  -4    0.46    0.70
   4  -5   5   19.02    4.37
  -4   5  -5    8.41    1.77
   4  -5   6   10.85    3.73
  -4   5  -6    9.82    2.15
   4  -5   7   55.06    5.25
  -4   5  -7   41.21    2.54
   4  -5   8    9.69    4.12
  -4   5  -8   16.48    3.55
   4  -5   9   40.68    4.55
  -4   5  -9   40.61    3.19
   4  -5  10   14.90    5.30
   4  -5  11   42.00    4.99
  -4   5 -11   40.50    3.15
   4  -5  12   21.35    3.43
  -4   5 -12    9.82    3.30
   4  -5  13    5.67    3.84
  -4   5 -13   11.58    2.77
   4  -5  14    6.84    3.21
  -4   5 -14    3.93    2.26
  -4  -5 -14    4.69    3.62
   4  -5  15   10.85    3.78
  -4   5 -15    1.10    1.43
  -4  -5 -15    4.08    3.39
  -4   6  14    3.98    1.70
   4   6 -14    3.43    1.74
  -4   6  13   39.80    6.25
   4   6 -13   34.84    4.81
  -4   6  12   28.72    4.69
   4   6 -12   34.82    5.33
  -4   6  11  117.56   12.76
   4   6 -11  104.76   11.97
  -4   6  10    9.80    3.76
   4   6 -10    4.22    1.80
  -4   6   9   75.48   11.38
   4   6  -9   66.46    8.06
  -4   6   8   22.82    2.90
   4   6  -8   20.08    3.34
  -4   6   7   54.69    4.09
   4   6  -7   45.79    5.51
  -4   6   6    8.97    2.52
   4   6  -6   10.68    3.19
   4   6  -5   56.75    5.91
   4  -6  -4   43.36    4.06
   4   6  -4   43.92    5.56
   4  -6  -3   58.54    4.35
   4   6  -3   67.79    4.07
   4  -6  -2   30.78    5.44
   4   6  -2   21.16    3.86
   4  -6  -1   31.06    6.43
   4  -6   0    5.15    2.91
   4  -6   1  136.79    8.71
   4  -6   2    2.00    2.79
   4  -6   3   35.48    5.99
   4  -6   4   23.12    4.79
   4  -6   5   18.29    4.85
   4  -6   7    2.71    2.74
  -4   6  -7    2.90    1.15
   4  -6   8   17.13    3.92
  -4   6  -8   13.05    3.47
   4  -6   9   31.24    4.93
  -4   6  -9   12.88    2.85
   4  -6  10    4.68    2.63
  -4   6 -10   -0.33    1.13
   4  -6  11   14.61    5.26
  -4   6 -11    5.18    2.45
   4  -6  12   10.70    4.06
  -4   6 -12   12.91    2.53
   4  -6  13   24.05    4.29
  -4   6 -13   15.20    2.45
   4  -6  14   21.39    4.20
  -4   6 -14    4.28    1.77
  -4  -6 -14   17.87    5.45
  -4   7  13    4.97    1.52
   4   7 -13    4.71    1.66
  -4   7  12    2.10    2.08
   4   7 -12    3.19    1.56
  -4   7  11    2.99    1.48
   4   7 -11    5.21    2.97
  -4   7  10  130.15   19.69
  -4   7   9   47.61    4.58
   4   7  -9   34.86    5.12
  -4   7   8  254.69    9.81
   4   7  -8  234.46   21.02
  -4   7   7   41.16    3.84
   4   7  -7   32.01    5.61
   4   7  -6   22.20    2.84
   4  -7  -5    8.81    3.42
   4   7  -5   10.52    3.87
   4  -7  -4  189.68   12.95
   4   7  -4  149.05   10.10
   4  -7  -3   34.95    5.18
   4   7  -3   32.90    3.26
   4  -7  -2    6.55    2.88
   4   7  -2    7.47    2.14
   4  -7  -1    8.18    3.77
   4  -7   0  169.38    8.66
   4  -7   1  119.65    7.28
   4  -7   2   79.01    5.27
   4  -7   3   18.04    4.52
   4  -7   4   63.13    5.52
   4  -7   5   40.96    5.23
   4  -7   6  316.65   12.40
   4  -7   7  106.54    6.45
   4  -7   8    0.99    2.86
   4  -7   9   15.12    5.42
   4  -7  10  171.60   15.19
   4  -7  11   18.32    3.84
   4  -7  12   15.22    4.37
   4  -7  13   -0.59    2.83
  -4   8  11   19.05    2.68
   4   8 -11    6.76    2.55
   4   8 -10    7.74    2.78
  -4   8   9   25.38    3.33
   4   8  -9    7.98    3.22
   4   8  -8   49.99    6.80
   4   8  -7    4.99    2.50
   4  -8  -6    5.77    3.24
   4   8  -6    1.14    1.55
   4  -8  -5  165.66   10.56
   4   8  -5  119.97   16.06
   4  -8  -4   41.45    4.63
   4   8  -4   36.56    3.33
   4  -8  -3  187.95    8.82
   4   8  -3  158.70    6.92
   4  -8  -2   73.02    6.73
   4   8  -2   70.33    4.47
   4  -8  -1   10.62    4.55
   4  -8   0    7.47    3.11
   4  -8   1   12.88    4.67
   4  -8   2    8.39    4.30
   4  -8   3   27.63    4.37
   4  -8   4  125.47    7.51
   4  -8   5  453.39   55.03
   4  -8   6   67.13    6.63
   4  -8   7    6.86    4.13
   4  -8   8   16.33    4.66
   4  -8   9    8.43    3.61
   4  -8  10    8.79    4.65
   4  -8  11   21.17    4.29
  -4   9   9   19.02    2.83
   4   9  -9   16.06    2.94
   4  -9  -8   10.36    4.04
   4   9  -8    4.02    1.91
   4  -9  -7   79.41    7.78
   4   9  -7   72.92   10.91
   4  -9  -6   13.19    3.23
   4   9  -6   11.29    2.83
   4  -9  -5   18.38    3.73
   4   9  -5   18.47    3.53
   4  -9  -4   -0.04    2.80
   4   9  -4    5.60    2.60
   4  -9  -3   25.17    4.92
   4   9  -3   12.57    2.98
   4  -9  -2    6.06    2.89
   4  -9  -1    3.75    2.69
   4  -9   0    7.34    2.92
   4  -9   1   51.30    5.93
   4  -9   2   38.34    4.70
   4  -9   3   13.47    4.41
   4  -9   4   11.20    5.04
   4  -9   5   -1.98    3.43
   4  -9   6    9.46    4.27
   4  -9   7    9.24    5.38
   4  -9   8    3.46    3.33
   4 -10  -4   41.42    5.71
   4  10  -4   24.09    3.25
   4 -10  -3  119.41    9.30
   4  10  -3  101.04    7.11
   4 -10  -2   49.23    5.54
   4 -10  -1    5.88    3.51
   4 -10   0    0.69    2.53
   4 -10   1    9.26    2.76
   4 -10   2    8.76    3.74
   4 -10   3   24.86    4.82
   4 -10   4   10.67    3.34
  -5   0  15   74.12   12.78
  -5   0  14    2.32    1.77
  -5   0  13    2.33    1.42
  -5   0  12    3.19    1.44
  -5   0  11   32.65    5.72
  -5   0  10    1.26    1.23
  -5   0   9   24.78    3.43
   5   0  -9   18.71    2.53
  -5   0   8    3.88    1.34
   5   0  -8    1.81    1.19
  -5   0   7  419.77   96.13
  -5   0   6    3.71    1.83
   5   0  -5  174.56    6.61
   5   0  -4    5.65    3.46
   5   0  -3  379.12   11.92
   5   0  -2   11.44    2.76
   5   0  -1   65.11    4.52
   5   0   0   10.03    4.13
   5   0   1  230.60   11.85
   5   0   2    3.96    2.70
   5   0   3   27.30    4.62
   5   0   4    8.39    3.35
   5   0   5   44.60    3.68
   5   0   6   11.18    4.11
  -5   0  -6    9.68    3.76
   5   0   7  309.42   13.56
  -5   0  -7  276.98   12.71
   5   0   8    4.71    2.40
  -5   0  -8   10.62    3.94
   5   0   9   11.32    4.44
  -5   0  -9    7.77    3.50
   5   0  10    1.06    2.29
  -5   0 -10   -3.54    2.08
   5   0  11    4.34    2.46
  -5   0 -11    2.47    2.40
   5   0  12    0.44    2.13
  -5   0 -12    0.60    2.40
   5   0  13   12.40    3.18
  -5   0 -13    8.22    3.26
   5   0  14   11.46    3.11
  -5   0 -14    2.75    2.37
  -5   1  14    3.98    1.64
  -5  -1  14    6.25    2.66
  -5   1  13   13.16    3.52
  -5  -1  13   13.71    3.28
  -5  -1  12   85.28   13.75
  -5   1  12   92.12   14.57
   5   1 -12   98.34   12.33
  -5  -1  11   59.74   10.11
  -5   1  11   72.11   10.10
   5   1 -11   67.28    7.37
  -5   1  10   21.32    5.70
  -5  -1  10   20.69    4.85
   5   1 -10   21.32    4.85
   5   1  -9    7.02    2.32
  -5  -1   8  101.56   11.09
  -5   1   8  143.38    9.51
   5   1  -8  103.30   11.54
  -5   1   7   98.35    5.15
  -5  -1   7   99.13    5.01
   5   1  -7   82.41    4.34
  -5  -1   6   19.90    4.21
  -5   1   6   19.91    4.28
   5   1  -6   13.92    3.16
   5  -1  -5    2.32    2.37
   5   1  -5    4.78    2.29
   5  -1  -4   12.46    3.63
   5   1  -4    2.08    1.61
   5  -1  -3  417.77   13.16
   5   1  -3  395.34   12.00
   5   1  -2   61.97    3.28
   5  -1  -2   72.45    4.17
   5   1  -1   19.93    3.76
   5  -1  -1   19.48    3.73
   5  -1   0    2.65    1.75
   5   1   0    3.48    1.57
   5   1   1   21.36    4.19
   5  -1   1   15.55    3.46
   5   1   2  306.51    9.83
   5  -1   2  298.75    9.95
   5   1   3   12.61    3.02
   5  -1   3   10.02    3.06
   5   1   4   11.82    3.48
   5  -1   4   17.80    3.74
  -5   1  -4   18.10    4.16
   5   1   5    7.11    2.30
   5  -1   5    7.68    3.28
  -5   1  -5    6.55    2.92
   5   1   6   18.82    4.36
   5  -1   6   19.21    4.70
  -5   1  -6   29.89    3.28
   5   1   7   95.16    6.93
   5  -1   7   90.92    7.33
  -5   1  -7   92.31    6.93
   5   1   8   22.08    3.31
   5  -1   8   25.63    4.08
  -5   1  -8   20.59    3.52
  -5  -1  -8   14.96    4.65
   5   1   9  167.50    7.28
   5  -1   9  164.04    7.76
  -5   1  -9  166.85    7.57
  -5  -1  -9  154.86    7.69
   5   1  10   88.76    6.63
   5  -1  10   91.17    6.79
  -5   1 -10   69.53    5.33
  -5  -1 -10   64.70    5.98
   5   1  11    5.10    2.35
   5  -1  11    7.53    3.11
  -5   1 -11    3.38    2.30
  -5  -1 -11    5.87    3.11
   5  -1  12  135.61   12.46
  -5   1 -12  109.82   10.30
  -5  -1 -12  111.16   10.54
   5   1  13   59.37    6.07
   5  -1  13   61.76    6.35
  -5   1 -13   32.98    4.41
  -5  -1 -13   56.77    6.42
   5   1  14   13.60    2.61
   5  -1  14   14.09    3.50
  -5   1 -14   13.82    3.51
  -5  -1 -14    7.72    2.69
  -5   2  14   34.06    6.58
  -5  -2  14   23.80    6.01
   5   2 -14   31.93    5.39
  -5   2  13   15.91    4.75
  -5  -2  13   14.60    3.65
   5   2 -13   18.93    3.47
  -5  -2  12   15.08    4.70
  -5   2  12   26.06    4.14
   5   2 -12   13.75    2.69
  -5   2  11    7.12    3.18
  -5  -2  11    6.04    2.31
   5   2 -11    8.95    2.79
  -5   2  10    8.67    2.48
  -5  -2  10    1.89    1.13
   5   2 -10    9.24    2.43
  -5  -2   9    8.83    2.27
  -5   2   9   11.76    3.81
   5   2  -9   12.97    3.13
  -5  -2   8   42.50    3.55
  -5   2   8   44.45    4.16
   5   2  -8   44.75    5.75
  -5  -2   7   47.65    3.90
  -5   2   7   50.87    4.35
   5   2  -7   46.82    3.68
  -5   2   6  131.17    6.50
   5   2  -6  117.21    5.66
   5  -2  -5    8.65    3.17
   5   2  -5    5.37    2.12
   5   2  -4   85.54    3.86
   5  -2  -4   91.00    4.77
   5   2  -3    4.11    1.30
   5  -2  -3    8.36    2.85
   5   2  -2   85.84    3.74
   5  -2  -2   85.86    4.65
   5   2  -1   98.48    4.03
   5  -2  -1  102.28    5.07
   5   2   0    5.69    1.94
   5  -2   0    9.77    2.49
  -5   2   0   10.77    2.35
   5   2   1    1.49    1.35
   5  -2   1    3.39    1.99
  -5   2  -1    3.92    1.89
   5   2   2   99.26    4.25
   5  -2   2  107.39    5.21
  -5   2  -2  106.60    4.45
   5   2   3   70.23    3.63
   5  -2   3   60.07    3.90
  -5   2  -3   76.93    4.04
   5  -2   4   65.79    4.56
   5   2   5    9.76    2.89
   5  -2   5   14.49    3.58
  -5   2  -5   10.09    2.68
   5   2   6    8.99    2.84
   5  -2   6    6.04    2.49
  -5   2  -6   10.07    2.73
   5   2   7   13.84    3.92
   5  -2   7   16.97    3.85
  -5   2  -7    8.07    2.64
   5   2   8    2.76    1.63
   5  -2   8   11.14    4.58
  -5   2  -8   12.13    3.93
   5   2   9   12.29    3.24
   5  -2   9   12.98    3.88
  -5   2  -9   18.91    4.42
   5   2  10    2.29    2.15
   5  -2  10    6.74    4.06
  -5   2 -10    8.62    2.92
  -5  -2 -10   13.08    5.32
   5   2  11   44.65    5.05
   5  -2  11   47.74    6.06
  -5   2 -11   28.59    3.80
  -5  -2 -11   35.80    4.87
   5   2  12   -0.29    1.42
   5  -2  12   12.37    4.11
  -5   2 -12    2.40    1.84
  -5  -2 -12    8.26    4.47
   5   2  13    0.89    1.54
   5  -2  13    5.15    2.97
  -5   2 -13    0.61    1.90
  -5  -2 -13    5.75    3.13
   5   2  14   21.09    2.81
   5  -2  14   34.44    4.62
  -5   2 -14   21.34    3.36
  -5  -2 -14   26.09    4.35
  -5   3  14    3.67    2.00
   5   3 -14    1.71    1.51
  -5   3  13    7.02    2.84
   5   3 -13    3.93    1.81
  -5   3  12   38.85    6.20
   5   3 -12   43.84    7.09
  -5   3  11   68.63    9.65
   5   3 -11   51.44    7.85
  -5   3  10   44.58    6.72
   5   3 -10   38.11    4.46
  -5   3   9  113.49    5.98
   5   3  -9   97.15   10.38
  -5   3   8   28.61    2.88
   5   3  -8   31.12    4.28
  -5   3   7   13.21    3.74
   5   3  -7   14.65    4.58
  -5   3   6   10.97    3.44
   5   3  -6    9.37    2.80
   5   3  -5    7.51    2.38
   5  -3  -5   10.93    4.34
   5   3  -5    3.95    1.44
   5  -3  -4   31.45    4.43
   5   3  -3    4.51    1.62
   5  -3  -3    5.89    2.87
   5  -3  -2   13.28    3.94
   5  -3  -1   38.42    4.14
   5  -3   0    4.65    3.52
   5  -3   1   57.37    4.71
   5  -3   2   10.84    4.00
   5  -3   3   17.37    4.86
   5  -3   4   60.63    4.98
  -5   3  -4   44.26    3.00
   5  -3   5    3.12    2.87
  -5   3  -5    3.29    1.37
   5  -3   6   37.76    4.70
  -5   3  -6   35.49    3.64
   5  -3   7    7.44    3.35
  -5   3  -7    5.67    2.82
   5  -3   8   27.85    3.74
  -5   3  -8   22.14    4.79
   5  -3   9    7.83    3.30
  -5   3  -9    1.23    1.73
   5  -3  10   86.43    6.99
  -5   3 -10   64.33    4.99
   5  -3  11    5.77    2.79
  -5   3 -11    3.57    1.73
  -5  -3 -11    3.81    2.85
   5  -3  12   15.40    4.36
  -5   3 -12   10.80    3.72
  -5  -3 -12   18.07    4.49
   5  -3  13    4.86    2.66
  -5   3 -13    3.34    1.68
  -5  -3 -13    9.22    5.14
  -5   4  13    3.61    1.93
   5   4 -13    6.00    2.03
  -5   4  12   12.60    3.81
   5   4 -12   15.34    2.49
  -5   4  11   48.03    7.06
   5   4 -11   41.26    6.86
  -5   4  10  180.45   15.70
   5   4 -10  134.27   13.96
  -5   4   9   20.52    2.88
   5   4  -9   20.08    3.95
  -5   4   8   37.79    3.67
   5   4  -8   34.77    3.66
  -5   4   7  394.14   97.83
   5   4  -7  369.34   16.35
   5  -4  -6   19.86    4.91
   5   4  -6   29.26    2.74
   5  -4  -5   59.53    5.93
   5   4  -5   62.57    4.86
   5  -4  -4   15.43    3.92
   5  -4  -3   94.52    7.38
   5  -4  -2   65.16    5.23
   5  -4  -1    5.45    3.51
   5  -4   0   48.50    4.71
   5  -4   1  147.46    7.46
   5  -4   2   14.40    3.85
   5  -4   3   59.06    4.98
   5  -4   4   22.23    3.71
   5  -4   5   54.55    6.05
   5  -4   6   16.30    5.34
   5  -4   7  105.91    7.11
   5  -4   8   10.35    5.04
   5  -4   9    9.11    3.51
   5  -4  10    2.69    2.49
   5  -4  11   19.64    3.78
  -5   4 -11    9.69    3.27
   5  -4  12   -0.15    2.58
  -5  -4 -12   13.38    5.22
  -5   5  12   27.70    4.17
   5   5 -12   20.55    3.23
  -5   5  11   34.20    4.09
   5   5 -11   23.26    5.21
  -5   5  10   -0.38    1.78
   5   5 -10    1.53    1.19
  -5   5   9    4.22    2.42
   5   5  -9    2.79    1.33
  -5   5   8   74.75    7.13
   5   5  -8   69.81    9.55
  -5   5   7   12.99    4.68
   5   5  -7    2.39    1.38
   5   5  -6  154.61    8.85
   5  -5  -5   16.44    4.18
   5   5  -5   25.47    2.99
   5  -5  -4   11.87    4.06
   5   5  -4    5.41    2.04
   5  -5  -3    3.15    2.41
   5  -5  -2   43.75    4.49
   5  -5  -1   37.50    4.31
   5  -5   0    2.54    3.26
   5  -5   1   32.45    4.42
   5  -5   2  227.88    9.32
   5  -5   3   33.47    4.24
   5  -5   4   11.22    3.23
   5  -5   5    3.13    2.38
   5  -5   7   12.26    4.70
   5  -5   8   41.23    5.31
   5  -5   9    4.17    2.77
   5  -5  10   20.96    4.17
   5  -5  11   27.34    4.52
  -5   6  10   38.52    4.09
   5   6 -10   29.47    4.40
  -5   6   9    6.48    3.14
   5   6  -9    4.69    1.82
  -5   6   8    9.19    3.11
   5   6  -8    3.64    1.57
   5  -6  -7   13.32    4.20
   5   6  -7    4.36    2.20
   5  -6  -6   92.48    9.56
   5   6  -6   75.48    7.29
   5  -6  -5    4.87    3.91
   5   6  -5    0.21    1.64
   5  -6  -4    4.19    3.99
   5   6  -4    3.54    2.29
   5  -6  -3  119.49    8.08
   5  -6  -2   21.80    3.98
   5  -6  -1   34.73    3.81
   5  -6   0   12.23    4.69
   5  -6   1   29.40    3.70
   5  -6   2   13.07    4.92
   5  -6   3   16.44    5.15
   5  -6   4    8.06    4.49
   5  -6   5   11.89    4.30
   5  -6   6   13.73    3.48
   5  -6   7   22.98    4.08
   5  -6   8   12.86    4.87
   5  -6   9   32.52    5.04
   5  -6  10   14.80    4.67
   5  -7  -8   20.29    4.08
   5   7  -8   19.60    3.95
   5   7  -7  131.42    8.39
   5  -7  -6   10.60    3.88
   5   7  -6    9.89    3.42
   5  -7  -5   37.88    5.41
   5   7  -5   17.72    2.67
   5  -7  -4    4.34    3.73
   5  -7  -3    5.74    3.72
   5  -7  -2    3.61    2.47
   5  -7  -1    6.75    3.60
   5  -7   0    4.96    2.48
   5  -7   1    7.61    2.75
   5  -7   2    7.30    2.62
   5  -7   3   73.74    7.90
   5  -7   4   24.54    4.32
   5  -7   5    1.71    2.60
   5  -7   6    7.04    3.35
   5  -7   7   12.30    3.21
   5  -8  -4    0.14    2.78
   5  -8  -3   85.00    7.77
   5  -8  -2   98.90    7.79
   5  -8  -1   22.94    3.80
   5  -8   0   13.40    4.07
   5  -8   1   18.15    4.16
   5  -8   2    6.02    2.80
   5  -8   3    8.78    3.00
   5  -8   4    4.77    3.98
  -6   0   9    2.88    1.55
   6   0  -8   13.01    2.80
   6   0  -7    4.63    2.15
   6   0  -6    4.91    2.10
   6   0  -5    6.50    3.02
   6   0  -4   69.74    6.71
   6   0  -3    4.99    2.33
   6   0  -2    4.87    1.75
   6   0  -1    3.65    1.92
   6   0   0  205.03   11.16
   6   0   1    3.90    1.82
   6   0   2    3.27    2.24
   6   0   3    7.10    2.42
   6   0   4    3.86    1.73
   6   0   5    2.17    2.79
  -6   0  -5    3.43    1.65
   6   0   6    2.23    1.75
  -6   0  -6    9.68    3.60
   6   0   7    7.98    2.83
  -6   0  -7    9.66    3.57
   6   0   8    4.94    2.63
  -6   0  -8    5.52    2.51
  -6   1   9   55.31    4.57
   6  -1  -8   16.19    3.06
   6  -1  -7    5.20    2.45
   6  -1  -6   16.04    2.89
   6  -1  -5   10.12    3.11
   6  -1  -4    6.08    2.10
   6  -1  -3   35.19    4.39
   6  -1  -2   10.53    3.04
   6  -1  -1   11.00    3.02
   6  -1   0   15.00    3.85
   6  -1   1   12.50    2.53
   6  -1   2   -0.60    1.88
   6  -1   3   62.57    6.23
   6  -1   4   38.51    4.12
   6  -1   5    6.09    3.31
   6  -1   6    8.63    3.72
   6  -1   7    2.46    2.22
  -6  -1  -7    4.78    2.41
   6  -1   8   15.23    3.67
  -6  -1  -8    9.27    3.62
   6  -2  -8   21.17    3.09
   6  -2  -7   15.95    3.28
   6  -2  -6    8.43    3.70
   6  -2  -5  173.90   13.78
   6  -2  -4   13.18    3.86
   6  -2  -3    7.33    2.98
   6  -2  -2   16.07    3.97
   6  -2  -1  200.83   17.18
   6  -2   0    8.56    2.89
   6  -2   1    5.26    2.12
   6  -2   2    8.47    3.24
   6  -2   3   57.18    6.36
   6  -2   4    7.13    2.29
   6  -2   5    0.45    2.22
   6  -2   6    9.80    4.02
   6  -2   7   48.93    4.59
   6  -2   8    9.73    3.70
  -6  -2  -8    8.35    2.55
   6  -3  -7    3.20    3.13
   6  -3  -6  157.22   12.89
   6  -3  -5   20.72    3.73
   6  -3  -4   60.41    6.18
   6  -3  -3    2.08    2.23
   6  -3  -2   88.56    8.52
   6  -3  -1   20.31    4.14
   6  -3   0   42.15    5.20
   6  -3   1   12.40    3.49
   6  -3   2   40.75    4.76
   6  -3   3   10.01    3.83
   6  -3   4  140.32   11.52
   6  -3   5    9.16    4.04
   6  -3   6   -0.50    2.30
   6  -4  -6   10.69    3.61
   6  -4  -5   12.70    3.63
   6  -4  -4   24.88    3.92
   6  -4  -3    9.18    4.13
   6  -4  -2   16.79    3.89
   6  -4  -1   10.47    4.25
   6  -4   0    3.37    2.45
   6  -4   1    3.67    2.46
   6  -4   2    1.24    2.33
   6  -4   3   15.79    3.51
   6  -4   4    9.11    4.19
   6  -4   5   51.59    5.41
   6  -5  -3    9.32    2.70
   6  -5  -2    1.27    2.45
   6  -5  -1    5.55    4.19
   6  -5   0    3.39    2.43
   6  -5   1    8.62    2.54
   6  -5   2   14.36    3.62

_computing_structure_solution     'SHELXT 2014/4 (Sheldrick, 2014)'
;
_shelx_hkl_checksum              2778
_shelx_shelxl_version_number     2014/7
_olex2_submission_special_instructions 'No special instructions were received'
loop_
_space_group_symop_operation_xyz
'x, y, z'
'-x+1/2, y+1/2, -z+1/2'
'-x, -y, -z'
'x-1/2, -y-1/2, z-1/2'
loop_
_atom_site_label
_atom_site_type_symbol
_atom_site_fract_x
_atom_site_fract_y
_atom_site_fract_z
_atom_site_U_iso_or_equiv
_atom_site_adp_type
_atom_site_occupancy
_atom_site_site_symmetry_order
_atom_site_calc_flag
_atom_site_refinement_flags_posn
_atom_site_refinement_flags_adp
_atom_site_refinement_flags_occupancy
_atom_site_disorder_assembly
_atom_site_disorder_group
S1 S 0.6512(8) 0.3337(4) 0.4850(2) 0.0265(12) Uani 0.479(10) 1 d . U P A 1
S2 S 0.0629(3) 0.10862(17) 0.60720(8) 0.0315(5) Uani 1 1 d . . . . .
O1 O 0.7217(10) 0.2248(6) 0.2751(3) 0.0431(13) Uani 1 1 d . . . . .
O2 O 0.9167(9) 0.3781(4) 0.3515(2) 0.0326(10) Uani 1 1 d . . . . .
C1 C 1.2541(13) 0.5289(7) 0.3174(4) 0.0396(15) Uani 1 1 d . . . . .
H1A H 1.3647 0.5600 0.2773 0.059 Uiso 1 1 calc GR . . . .
H1B H 1.3627 0.4943 0.3579 0.059 Uiso 1 1 calc GR . . . .
H1C H 1.1493 0.6016 0.3358 0.059 Uiso 1 1 calc GR . . . .
C2 C 1.0760(13) 0.4213(8) 0.2879(4) 0.0374(15) Uani 1 1 d . . . . .
H2A H 0.9634 0.4551 0.2472 0.045 Uiso 1 1 calc R . . . .
H2B H 1.1791 0.3474 0.2687 0.045 Uiso 1 1 calc R . . . .
C3 C 0.7490(12) 0.2773(6) 0.3361(3) 0.0293(13) Uani 1 1 d . . . . .
C4 C 0.5895(12) 0.2411(6) 0.4022(3) 0.0270(12) Uani 1 1 d . . . . .
C5 C 0.411(4) 0.1481(18) 0.4046(10) 0.027(3) Uani 0.479(10) 1 d . U P A 1
H5 H 0.3729 0.0956 0.3624 0.033 Uiso 0.479(10) 1 calc R . P A 1
C6 C 0.2708(14) 0.1282(7) 0.4770(3) 0.0351(15) Uani 1 1 d . . . . .
C7 C 0.0834(13) 0.0532(7) 0.5139(3) 0.0327(14) Uani 1 1 d . . . . .
C8 C 0.3028(13) 0.2280(7) 0.5980(4) 0.0342(14) Uani 1 1 d . . . . .
H8 H 0.3610 0.2850 0.6364 0.041 Uiso 1 1 calc R . . . .
C9 C 0.3975(13) 0.2269(7) 0.5243(4) 0.0354(14) Uani 1 1 d . . . . .
S1A S 0.3586(8) 0.1106(4) 0.3836(2) 0.0280(11) Uani 0.521(10) 1 d . U P A 2
C5A C 0.574(3) 0.2863(19) 0.4773(8) 0.030(3) Uani 0.521(10) 1 d . U P A 2
H5A H 0.6813 0.3555 0.4946 0.035 Uiso 0.521(10) 1 calc R . P A 2
loop_
_atom_site_aniso_label
_atom_site_aniso_U_11
_atom_site_aniso_U_22
_atom_site_aniso_U_33
_atom_site_aniso_U_23
_atom_site_aniso_U_13
_atom_site_aniso_U_12
S1 0.0284(19) 0.031(2) 0.0206(15) -0.0019(13) 0.0009(12) -0.0060(16)
S2 0.0370(9) 0.0368(9) 0.0207(7) -0.0018(6) 0.0064(5) -0.0007(7)
O1 0.047(3) 0.053(3) 0.029(2) -0.006(2) 0.013(2) -0.017(2)
O2 0.034(2) 0.032(2) 0.032(2) -0.0012(18) 0.0055(18) -0.0080(19)
C1 0.033(3) 0.034(3) 0.051(4) 0.004(3) -0.001(3) -0.005(3)
C2 0.033(3) 0.046(4) 0.033(3) 0.011(3) 0.006(3) -0.012(3)
C3 0.028(3) 0.031(3) 0.029(3) 0.005(2) 0.003(2) -0.001(2)
C4 0.032(3) 0.027(3) 0.022(3) -0.001(2) 0.002(2) 0.002(2)
C5 0.031(6) 0.026(6) 0.026(6) 0.005(5) -0.001(5) 0.002(5)
C6 0.048(4) 0.038(3) 0.020(3) 0.004(2) 0.003(2) 0.022(3)
C7 0.045(3) 0.036(3) 0.017(2) -0.002(2) 0.002(2) 0.015(3)
C8 0.034(3) 0.041(4) 0.028(3) 0.001(3) 0.005(2) 0.001(3)
C9 0.034(3) 0.041(4) 0.032(3) 0.009(3) 0.008(3) 0.008(3)
S1A 0.0315(18) 0.029(2) 0.0231(19) 0.0005(14) 0.0017(13) -0.0031(14)
C5A 0.031(6) 0.034(6) 0.024(5) -0.001(5) -0.001(5) -0.003(5)
loop_
_atom_type_symbol
_atom_type_description
_atom_type_scat_dispersion_real
_atom_type_scat_dispersion_imag
_atom_type_scat_source
C C 0.0033 0.0016 'International Tables Vol C Tables 4.2.6.8 and 6.1.1.4'
H H 0.0000 0.0000 'International Tables Vol C Tables 4.2.6.8 and 6.1.1.4'
O O 0.0106 0.0060 'International Tables Vol C Tables 4.2.6.8 and 6.1.1.4'
S S 0.1246 0.1234 'International Tables Vol C Tables 4.2.6.8 and 6.1.1.4'
loop_
_geom_angle_atom_site_label_1
_geom_angle_atom_site_label_2
_geom_angle_atom_site_label_3
_geom_angle
_geom_angle_site_symmetry_1
_geom_angle_site_symmetry_3
C4 S1 C9 83.6(4) . .
C8 S2 C7 94.6(3) . .
C3 O2 C2 115.0(5) . .
H1A C1 H1B 109.5 . .
H1A C1 H1C 109.5 . .
H1B C1 H1C 109.5 . .
C2 C1 H1A 109.5 . .
C2 C1 H1B 109.5 . .
C2 C1 H1C 109.5 . .
O2 C2 C1 106.5(5) . .
O2 C2 H2A 110.4 . .
O2 C2 H2B 110.4 . .
C1 C2 H2A 110.4 . .
C1 C2 H2B 110.4 . .
H2A C2 H2B 108.6 . .
O1 C3 O2 124.9(6) . .
O1 C3 C4 122.9(6) . .
O2 C3 C4 112.1(5) . .
C3 C4 S1 115.9(5) . .
C3 C4 S1A 113.6(4) . .
C5 C4 S1 117.8(9) . .
C5 C4 C3 126.3(10) . .
C5A C4 C3 135.1(10) . .
C5A C4 S1A 111.3(9) . .
C4 C5 H5 121.1 . .
C4 C5 C6 117.8(16) . .
C6 C5 H5 121.1 . .
C7 C6 C5 145.1(10) . .
C7 C6 C9 113.8(5) . .
C7 C6 S1A 125.8(6) . .
C9 C6 C5 101.1(10) . .
C9 C6 S1A 120.4(6) . .
C6 C7 S2 108.9(5) . .
C6 C7 C7 130.1(7) . 3_556
C7 C7 S2 121.0(6) 3_556 .
S2 C8 H8 125.2 . .
C9 C8 S2 109.7(5) . .
C9 C8 H8 125.2 . .
C6 C9 S1 119.6(5) . .
C8 C9 S1 127.4(6) . .
C8 C9 C6 113.0(6) . .
C5A C9 C6 103.6(10) . .
C5A C9 C8 143.3(10) . .
C6 S1A C4 85.8(4) . .
C4 C5A H5A 120.6 . .
C9 C5A C4 118.8(16) . .
C9 C5A H5A 120.6 . .
loop_
_geom_bond_atom_site_label_1
_geom_bond_atom_site_label_2
_geom_bond_distance
_geom_bond_site_symmetry_2
S1 C4 1.754(7) .
S1 C9 1.816(8) .
S2 C7 1.742(6) .
S2 C8 1.713(7) .
O1 C3 1.203(8) .
O2 C2 1.456(7) .
O2 C3 1.343(8) .
C1 H1A 0.9600 .
C1 H1B 0.9600 .
C1 H1C 0.9600 .
C1 C2 1.492(9) .
C2 H2A 0.9700 .
C2 H2B 0.9700 .
C3 C4 1.473(8) .
C4 C5 1.30(2) .
C4 S1A 1.779(7) .
C4 C5A 1.404(16) .
C5 H5 0.9300 .
C5 C6 1.485(17) .
C6 C7 1.379(10) .
C6 C9 1.438(10) .
C6 S1A 1.722(7) .
C7 C7 1.441(14) 3_556
C8 H8 0.9300 .
C8 C9 1.393(8) .
C9 C5A 1.363(18) .
C5A H5A 0.9300 .
loop_
_geom_torsion_atom_site_label_1
_geom_torsion_atom_site_label_2
_geom_torsion_atom_site_label_3
_geom_torsion_atom_site_label_4
_geom_torsion
_geom_torsion_site_symmetry_4
S1 C4 C5 C6 0.7(15) .
S2 C8 C9 S1 179.8(4) .
S2 C8 C9 C6 0.1(7) .
S2 C8 C9 C5A -179.8(12) .
O1 C3 C4 S1 -177.7(6) .
O1 C3 C4 C5 2.6(13) .
O1 C3 C4 S1A 1.2(8) .
O1 C3 C4 C5A -178.0(10) .
O2 C3 C4 S1 -0.4(7) .
O2 C3 C4 C5 179.9(10) .
O2 C3 C4 S1A 178.5(4) .
O2 C3 C4 C5A -0.7(12) .
C2 O2 C3 O1 -1.2(9) .
C2 O2 C3 C4 -178.5(5) .
C3 O2 C2 C1 -177.8(5) .
C3 C4 C5 C6 -179.5(8) .
C3 C4 S1A C6 179.7(5) .
C3 C4 C5A C9 -179.7(8) .
C4 S1 C9 C6 -0.9(5) .
C4 S1 C9 C8 179.5(7) .
C4 C5 C6 C7 -178.5(9) .
C4 C5 C6 C9 -1.2(14) .
C5 C6 C7 S2 178.0(13) .
C5 C6 C7 C7 -3.1(19) 3_556
C5 C6 C9 S1 1.3(9) .
C5 C6 C9 C8 -179.0(8) .
C6 C9 C5A C4 -0.5(13) .
C7 S2 C8 C9 0.4(5) .
C7 C6 C9 S1 179.6(5) .
C7 C6 C9 C8 -0.7(8) .
C7 C6 C9 C5A 179.2(8) .
C7 C6 S1A C4 -178.7(6) .
C8 S2 C7 C6 -0.8(5) .
C8 S2 C7 C7 -179.8(7) 3_556
C8 C9 C5A C4 179.3(9) .
C9 S1 C4 C3 -179.7(5) .
C9 S1 C4 C5 0.0(9) .
C9 C6 C7 S2 1.0(7) .
C9 C6 C7 C7 179.8(8) 3_556
C9 C6 S1A C4 0.7(6) .
S1A C4 C5A C9 1.1(13) .
S1A C6 C7 S2 -179.6(4) .
S1A C6 C7 C7 -0.8(12) 3_556
S1A C6 C9 C8 179.8(5) .
S1A C6 C9 C5A -0.3(9) .
C5A C4 S1A C6 -0.9(7) .
