#------------------------------------------------------------------------------
#$Date: 2019-11-25 08:12:16 +0200 (Mon, 25 Nov 2019) $
#$Revision: 240465 $
#$URL: file:///home/coder/svn-repositories/cod/cif/4/12/98/4129812.cif $
#------------------------------------------------------------------------------
#
# This file is available in the Crystallography Open Database (COD),
# http://www.crystallography.net/
#
# All data on this site have been placed in the public domain by the
# contributors.
#
data_4129812
loop_
_publ_author_name
'Guo, Yunlong'
'Shoyama, Kazutaka'
'Sato, Wataru'
'Matsuo, Yutaka'
'Inoue, Kento'
'Harano, Koji'
'Liu, Chao'
'Tanaka, Hideyuki'
'Nakamura, Eiichi'
_publ_section_title
;
 Chemical Pathways Connecting Lead(II) Iodide and Perovskite via Polymeric
 Plumbate(II) Fiber.
;
_journal_issue                   50
_journal_name_full               'Journal of the American Chemical Society'
_journal_page_first              15907
_journal_page_last               15914
_journal_paper_doi               10.1021/jacs.5b10599
_journal_volume                  137
_journal_year                    2015
_chemical_formula_moiety         'C2 H6 I2 O Pb S'
_chemical_formula_sum            'C2 H6 I2 O Pb S'
_chemical_formula_weight         539.13
_chemical_name_common            INT-2
_space_group_crystal_system      orthorhombic
_space_group_IT_number           62
_space_group_name_Hall           '-P 2ac 2n'
_space_group_name_H-M_alt        'P n m a'
_atom_sites_solution_hydrogens   geom
_atom_sites_solution_primary     direct
_atom_sites_solution_secondary   difmap
_audit_creation_method           SHELXL-2014/7
_cell_angle_alpha                90
_cell_angle_beta                 90
_cell_angle_gamma                90
_cell_formula_units_Z            4
_cell_length_a                   17.9494(9)
_cell_length_b                   4.5326(2)
_cell_length_c                   11.2165(6)
_cell_measurement_reflns_used    9143
_cell_measurement_temperature    293(2)
_cell_measurement_theta_max      68.226
_cell_measurement_theta_min      4.649
_cell_volume                     912.55(8)
_computing_cell_refinement       'Rapid Auto (Rigaku)'
_computing_data_collection       'Rapid Auto (Rigaku)'
_computing_data_reduction        'Rapid Auto (Rigaku)'
_computing_molecular_graphics    Mercury
_computing_publication_material  Mercury
_computing_structure_refinement  'SHELXL-2014/7 (Sheldrick, 2014)'
_computing_structure_solution    'SHELXT-2014/5 (Sheldrick, 2014)'
_diffrn_ambient_temperature      293(2)
_diffrn_measured_fraction_theta_full 0.996
_diffrn_measured_fraction_theta_max 0.996
_diffrn_measurement_device_type  'Rigaku Rapid II'
_diffrn_measurement_method       'rotation method'
_diffrn_radiation_type           CuK\a
_diffrn_radiation_wavelength     1.54187
_diffrn_reflns_av_R_equivalents  0.1011
_diffrn_reflns_av_unetI/netI     0.0661
_diffrn_reflns_Laue_measured_fraction_full 0.996
_diffrn_reflns_Laue_measured_fraction_max 0.996
_diffrn_reflns_limit_h_max       21
_diffrn_reflns_limit_h_min       -20
_diffrn_reflns_limit_k_max       5
_diffrn_reflns_limit_k_min       -5
_diffrn_reflns_limit_l_max       13
_diffrn_reflns_limit_l_min       -12
_diffrn_reflns_number            9143
_diffrn_reflns_point_group_measured_fraction_full 0.996
_diffrn_reflns_point_group_measured_fraction_max 0.996
_diffrn_reflns_theta_full        67.687
_diffrn_reflns_theta_max         68.226
_diffrn_reflns_theta_min         4.649
_diffrn_source                   'fine-focus sealed tube'
_exptl_absorpt_coefficient_mu    90.585
_exptl_absorpt_correction_T_max  1.0000
_exptl_absorpt_correction_T_min  0.3576
_exptl_absorpt_correction_type   multi-scan
_exptl_absorpt_process_details
'Empirical Absorption Correction March 2001 T Higashi'
_exptl_crystal_colour            'pale yellow'
_exptl_crystal_density_diffrn    3.924
_exptl_crystal_density_method    'not measured'
_exptl_crystal_description       needle
_exptl_crystal_F_000             920
_exptl_crystal_size_max          0.400
_exptl_crystal_size_mid          0.010
_exptl_crystal_size_min          0.010
_refine_diff_density_max         2.076
_refine_diff_density_min         -2.074
_refine_diff_density_rms         0.369
_refine_ls_extinction_coef       0.00016(4)
_refine_ls_extinction_expression Fc^*^=kFc[1+0.001xFc^2^\l^3^/sin(2\q)]^-1/4^
_refine_ls_extinction_method     'SHELXL-2014/7 (Sheldrick 2014'
_refine_ls_goodness_of_fit_ref   1.187
_refine_ls_hydrogen_treatment    constr
_refine_ls_matrix_type           full
_refine_ls_number_parameters     47
_refine_ls_number_reflns         955
_refine_ls_number_restraints     0
_refine_ls_restrained_S_all      1.187
_refine_ls_R_factor_all          0.0766
_refine_ls_R_factor_gt           0.0646
_refine_ls_shift/su_max          0.000
_refine_ls_shift/su_mean         0.000
_refine_ls_structure_factor_coef Fsqd
_refine_ls_weighting_details
'w=1/[\s^2^(Fo^2^)+(0.0416P)^2^+18.7748P] where P=(Fo^2^+2Fc^2^)/3'
_refine_ls_weighting_scheme      calc
_refine_ls_wR_factor_gt          0.1360
_refine_ls_wR_factor_ref         0.1428
_reflns_Friedel_coverage         0.000
_reflns_number_gt                826
_reflns_number_total             955
_reflns_threshold_expression     'I > 2\s(I)'
_cod_data_source_file            ja5b10599_si_004.cif
_cod_data_source_block           Pb2I4DMSO2
_cod_database_code               4129812
_shelx_shelxl_version_number     2014/7
_shelx_space_group_comment
;
The symmetry employed for this shelxl refinement is uniquely defined
by the following loop, which should always be used as a source of
symmetry information in preference to the above space-group names.
They are only intended as comments.
;
_shelx_res_file
;

    ydkr_a.res created by SHELXL-2014/7

TITL ydkr_a.res in Pnma
REM  Yadorkari-X generated
CELL 1.54187 17.9494 4.5326 11.2165 90.0000 90.0000 90.0000
ZERR 2.0 0.0009 0.0002 0.0006 0.0000 0.0000 0.0000
LATT 1
SYMM 1/2-X, -Y, 1/2+Z
SYMM 1/2+X, 1/2-Y, 1/2-Z
SYMM -X, 1/2+Y, -Z
REM  SPGR Pnma orthorhombic
SFAC Pb I S O C H
UNIT 4 8 4 4 8 24
L.S. 10
FMAP 2
PLAN -20
ACTA
CONF
LIST 4
BOND $H
OMIT   20    1    0
OMIT    6    2    0

WGHT    0.041600   18.774799
EXTI    0.000160
FVAR       0.17458
PB1   1    0.459565    0.750000    0.683410    10.50000    0.04409    0.04115 =
         0.04786    0.00000    0.00149    0.00000
I1    2    0.607258    0.750000    0.507638    10.50000    0.04242    0.05020 =
         0.04414    0.00000   -0.00227    0.00000
I2    2    0.534238    0.250000    0.838837    10.50000    0.04573    0.04735 =
         0.05132    0.00000   -0.00939    0.00000
S1    3    0.329150    1.250000    0.810333    10.50000    0.03962    0.04675 =
         0.04985    0.00000    0.00493    0.00000
O1    4    0.342971    0.906310    0.793206    10.50000    0.04221    0.03858 =
         0.08202    0.00634    0.00971    0.02505
C1    5    0.314690    1.250000    0.964630    10.50000    0.09564    0.06676 =
         0.03035    0.00000    0.00721    0.00000
AFIX  33
H1    6    0.305171    1.447779    0.991193    10.50000   -1.50000
H1A   6    0.272709    1.127270    0.983403    10.50000   -1.50000
H1B   6    0.358257    1.174951    1.003934    10.50000   -1.50000
AFIX   0
C2    5    0.236804    1.250000    0.759655    10.50000    0.06449    0.09327 =
         0.04658    0.00000    0.00559    0.00000
AFIX  33
H2    6    0.217226    1.446916    0.763069    10.50000   -1.50000
H2A   6    0.235267    1.180244    0.678879    10.50000   -1.50000
H2B   6    0.207329    1.122839    0.809253    10.50000   -1.50000

AFIX   0
HKLF 4

REM  ydkr_a.res in Pnma
REM R1 =  0.0646 for     826 Fo > 4sig(Fo)  and  0.0766 for all     955 data
REM     47 parameters refined using      0 restraints

END

WGHT      0.0416     18.7599

REM Highest difference peak  2.076,  deepest hole -2.074,  1-sigma level  0.369
Q1    1   0.5086  0.9080  0.7545  11.00000  0.05    2.08
Q2    1   0.4158  0.8804  0.6115  11.00000  0.05    1.59
Q3    1   0.4940  1.0990  0.3973  11.00000  0.05    1.53
Q4    1   0.4176  0.8872  0.7580  11.00000  0.05    1.47
Q5    1   0.4752  1.0780  0.7591  11.00000  0.05    1.43
Q6    1   0.4616  0.2500  0.8535  10.50000  0.05    1.37
Q7    1   0.4543  1.0891  0.5782  11.00000  0.05    1.36
Q8    1   0.4409  1.0882  0.4207  11.00000  0.05    1.34
Q9    1   0.6831  0.2500  0.8608  10.50000  0.05    1.31
Q10   1   0.4581  1.0558  0.6828  11.00000  0.05    1.25
Q11   1   0.5422  0.7500  0.6609  10.50000  0.05    1.24
Q12   1   0.5799  1.1114  0.7639  11.00000  0.05    1.19
Q13   1   0.4252  0.2500  0.6254  10.50000  0.05    1.19
Q14   1   0.4682  0.8925  0.5047  11.00000  0.05    1.19
Q15   1   0.5654  1.1408  0.7749  11.00000  0.05    1.18
Q16   1   0.2860  0.7500  0.7168  10.50000  0.05    1.17
Q17   1   0.3096  0.7500  0.5060  10.50000  0.05    1.16
Q18   1   0.6044  0.2500  1.0019  10.50000  0.05    1.13
Q19   1   0.7093  0.7500  0.3424  10.50000  0.05    1.08
Q20   1   0.4611  0.2500  0.9942  10.50000  0.05    1.06
;
_shelx_res_checksum              10067
_shelx_hkl_file
;
  -2   0   0 3590.68  439.68
   2   0   0 4294.75  438.13
  -2   0   0 4054.88  436.65
   2   0   0 3799.90  409.50
  -2   0   0 4066.12  448.28
   2   0   0 3737.58  418.26
  -2   0   0 3933.41  434.19
  -2   0   0 4547.57  472.87
   2   0   0 4341.99  452.96
  -3   0   0    7.35    4.10
   3   0   0   -0.63    4.04
  -3   0   0    0.33    4.04
   3   0   0    0.94    4.40
  -3   0   0    9.27    6.78
  -3   0   0    0.13    4.63
  -3   0   0    2.54    3.76
   3   0   0    5.79    3.55
  -4   0   0  253.46   31.49
   4   0   0  213.36   21.33
   4   0   0  211.57   28.55
  -4   0   0  198.78   28.81
   4   0   0  194.22   30.69
  -4   0   0  184.43   27.51
  -4   0   0  150.75   32.15
  -4   0   0  222.76   28.88
  -4   0   0  209.95   27.25
   4   0   0  204.14   25.86
   5   0   0    1.56    3.67
   5   0   0    3.81    5.72
  -5   0   0    4.88    5.04
  -6   0   0   27.24    7.64
   6   0   0    5.63    5.69
   6   0   0   24.18    8.18
  -6   0   0    9.98    8.16
   6   0   0    7.03    9.39
  -6   0   0   17.63    8.78
  -6   0   0   31.04    8.84
  -6   0   0   25.01    8.04
  -6   0   0   14.35    7.78
   6   0   0    3.20    7.56
  -7   0   0    8.03    4.79
   7   0   0   -0.14    3.63
  -7   0   0   -0.22    6.13
   7   0   0   13.93    6.66
  -7   0   0    9.91    6.14
  -7   0   0   -1.92    6.35
  -7   0   0    4.78    8.25
  -7   0   0    5.37    5.54
   7   0   0    3.23    5.46
  -8   0   0   94.58   13.90
   8   0   0   80.46   11.20
   8   0   0   79.37   16.40
  -8   0   0   88.18   17.82
   8   0   0   88.25   16.93
  -8   0   0   74.46   18.47
  -8   0   0   79.20   18.60
  -8   0   0   48.09   12.31
  -8   0   0   86.83   16.89
   8   0   0   80.94   15.94
  -9   0   0    6.67    4.02
   9   0   0    0.14    5.06
  -9   0   0   10.60    5.79
  -9   0   0   -1.62    5.51
  -9   0   0    1.15    3.46
  10   0   0  417.65   42.04
  10   0   0  452.96   49.93
  10   0   0  455.94   55.26
  10   0   0  483.13   57.17
 -10   0   0  511.21   69.22
 -10   0   0  469.22   71.89
 -10   0   0  490.40   56.64
  10   0   0  472.94   56.85
  11   0   0    0.09    3.47
  11   0   0    1.62    4.75
  11   0   0    3.48    5.27
  11   0   0   -1.63    5.25
 -11   0   0    3.01    6.45
 -11   0   0   -1.21   10.23
 -11   0   0    4.58    3.56
  11   0   0    2.29    9.21
  12   0   0 1337.93  160.67
  12   0   0 1499.01  185.74
  12   0   0 1417.15  183.18
 -12   0   0 1544.97  234.04
  12   0   0 1389.11  166.28
 -13   0   0    4.16    6.00
 -13   0   0   -0.49    3.60
  13   0   0   -2.02    5.42
  14   0   0 2210.79  282.70
 -14   0   0 1431.05  311.36
  14   0   0 2392.76  291.32
  15   0   0   -2.23    5.22
 -15   0   0   -2.25    7.24
  16   0   0  410.16   58.47
  16   0   0  545.52   67.57
  17   0   0   13.97   15.28
  17   0   0    8.41    8.66
  18   0   0   -2.08    7.53
  18   0   0    7.02    6.46
  19   0   0   -2.62    5.91
  19   0   0   -0.85    5.25
  20   0   0   24.75   10.29
  21   0   0    1.75    4.58
   0   0  -1   -0.71    1.70
   0   0  -1    0.56    1.21
   0   0  -1   -0.57    1.25
   0   0   1    0.13    1.45
  -1   0   1  641.81   36.49
   1   0  -1  620.69   29.99
   1   0   1  567.47   43.91
  -1   0   1  614.75   34.29
   1   0  -1  590.61   33.40
   1   0   1  563.21   31.11
  -1   0  -1  583.25   32.67
  -1   0  -1  587.96   43.57
   1   0   1  584.22   42.85
   1   0  -1  597.69   33.78
  -1   0   1  595.90   27.14
  -1   0   1  611.18   43.97
   1   0  -1  531.30   41.02
   1   0   1  589.24   29.80
  -1   0  -1  599.54   25.08
   1   0   1  602.54   33.90
  -1   0   1  606.48   32.69
   1   0  -1  635.10   34.84
   1   0   1  577.31   36.61
   2   0   1  420.41   42.25
  -2   0   1  406.30   18.94
   2   0  -1  404.18   19.46
  -2   0   1  421.25   29.09
   2   0  -1  454.05   31.79
   2   0   1  408.22   29.94
  -2   0  -1  410.60   30.73
   2   0   1  349.46   42.48
  -2   0  -1  392.55   44.63
   2   0  -1  457.97   24.03
  -2   0   1  398.05   20.80
   2   0  -1  355.51   38.60
  -2   0   1  389.92   41.66
  -2   0  -1  403.44   18.87
   2   0   1  428.74   20.27
   2   0   1  367.48   28.39
  -2   0  -1  429.66   31.86
  -2   0   1  410.02   27.21
   2   0  -1  387.09   25.79
  -3   0  -1   39.23   12.32
   3   0   1   41.24   11.73
  -3   0   1   24.17    3.23
   3   0  -1   23.58    3.58
   3   0  -1   35.55    7.42
   3   0   1   29.54    7.57
  -3   0  -1   27.70    8.07
   3   0  -1   26.49    8.33
   3   0   1   29.73   11.69
  -3   0  -1   36.14   11.70
   3   0  -1   24.73    5.40
  -3   0   1   31.38    4.58
  -3   0   1   23.38   11.75
  -3   0  -1   25.97    4.45
  -3   0  -1   26.70    8.18
   3   0   1   28.18    7.59
  -3   0   1   24.62    6.24
   3   0  -1   29.85    6.43
  -4   0  -1   20.96   17.40
   4   0   1   27.70   26.27
  -4   0   1   36.65    5.37
   4   0  -1   38.94    5.02
   4   0  -1   42.01    9.60
   4   0   1   27.33   11.09
  -4   0  -1   28.30   11.78
   4   0  -1   36.91   11.06
   4   0   1   27.55   15.84
   4   0  -1   35.06    8.26
  -4   0  -1   26.47   14.59
  -4   0   1   38.70    8.43
  -4   0   1   29.87   15.50
  -4   0  -1   30.84    6.89
  -4   0   1   38.33   12.73
   4   0   1   28.70   11.36
  -4   0   1   31.88    8.55
   4   0  -1   33.99    9.02
  -5   0  -1 1413.13  157.12
   5   0   1 1250.19  127.89
  -5   0   1 1358.19  100.16
   5   0  -1 1218.58   90.85
   5   0  -1 1215.24  121.80
   5   0   1 1193.07  125.72
  -5   0  -1 1208.67  123.00
   5   0  -1 1216.94  127.21
   5   0   1 1169.17  153.03
   5   0  -1 1223.65  112.98
  -5   0  -1 1207.84  150.15
  -5   0   1 1430.26  125.44
  -5   0   1 1002.89  153.57
  -5   0  -1 1251.78  109.84
  -5   0   1 1249.46  143.49
  -5   0  -1 1332.73  183.19
   5   0   1 1293.18  136.18
  -5   0   1 1201.76  112.81
   5   0  -1 1241.15  117.75
  -6   0   1  190.35   33.69
  -6   0  -1  267.89   35.23
   6   0   1  242.48   27.80
   6   0  -1  224.36   16.79
   6   0  -1  220.83   30.01
   6   0   1  233.03   28.50
  -6   0  -1  222.28   28.32
   6   0  -1  230.05   30.32
   6   0   1  215.07   39.63
   6   0  -1  210.62   26.25
  -6   0  -1  219.20   38.46
  -6   0   1  265.02   27.21
  -6   0   1  195.35   41.66
  -6   0  -1  223.36   26.57
  -6   0  -1  205.65   21.39
  -6   0   1  244.74   35.52
  -6   0  -1  219.65   46.68
  -6   0   1  234.59   40.42
   6   0   1  197.40   27.60
   6   0  -1  158.39   26.55
  -7   0  -1   36.90   11.28
  -7   0   1   40.61    7.23
   7   0   1   25.97    8.90
   7   0  -1   27.13    5.10
   7   0  -1   32.54   10.29
   7   0  -1   33.06   11.50
   7   0   1   27.65    9.55
  -7   0  -1   30.80    9.68
   7   0   1   38.18   13.29
   7   0  -1   26.62    8.92
  -7   0  -1   18.49   12.61
  -7   0   1   32.44    9.84
  -7   0   1   38.39   14.60
  -7   0  -1   36.31    8.90
  -7   0  -1   21.08    6.13
  -7   0   1   36.13   12.10
  -7   0  -1   36.80   16.28
  -7   0   1   32.96    9.94
   7   0   1   32.86    9.61
   7   0  -1   29.69    9.89
  -8   0   1  485.27   39.33
   8   0   1  426.84   44.67
   8   0  -1  394.65   30.72
   8   0  -1  411.94   49.77
   8   0  -1  437.58   55.59
   8   0   1  406.80   43.80
  -8   0  -1  433.16   46.86
   8   0   1  433.56   59.16
   8   0  -1  418.37   45.61
  -8   0  -1  405.82   59.13
  -8   0   1  457.71   50.86
  -8   0   1  413.96   67.02
  -8   0  -1  371.64   49.18
  -8   0   1  467.32   57.80
  -8   0  -1  401.00   48.84
  -8   0   1  449.11   49.65
   8   0   1  398.51   46.68
   8   0  -1  405.44   47.56
  -9   0   1  390.35   32.14
   9   0   1  390.38   39.05
   9   0  -1  309.91   27.35
   9   0  -1  356.37   45.39
   9   0  -1  376.50   51.40
   9   0   1  362.93   55.75
  -9   0  -1  368.23   41.63
   9   0   1  367.70   52.45
   9   0  -1  369.77   42.46
  -9   0  -1  371.32   55.52
  -9   0   1  314.40   55.25
  -9   0  -1  255.79   46.01
  -9   0   1  386.94   62.34
  -9   0   1  400.17   51.67
  -9   0  -1  360.03   44.29
  -9   0   1  396.87   44.64
   9   0   1  356.42   41.72
   9   0  -1  361.33   43.87
 -10   0   1   25.33    5.45
  10   0   1   15.53    7.09
  10   0  -1    8.69    7.17
  10   0  -1   15.08    9.79
  10   0   1   24.45    8.31
  10   0  -1    8.96   11.02
 -10   0  -1   27.15    8.69
  10   0   1   22.79   10.11
  10   0  -1   34.44    8.04
 -10   0  -1   32.50   11.99
 -10   0   1   10.72    7.95
 -10   0   1   52.63   13.10
 -10   0  -1   11.00    9.16
 -10   0   1   13.19    7.87
 -10   0  -1   33.65    9.03
 -10   0   1   23.41    9.80
  10   0   1   21.25    9.28
  10   0  -1   18.34    9.52
  11   0   1    2.98    4.75
  11   0   1    7.45    4.81
  11   0  -1    4.44    6.48
  11   0   1   -0.33    5.56
  11   0  -1    8.07    7.15
  11   0   1    4.48    6.81
 -11   0  -1   11.54    8.26
 -11   0   1   13.10    5.50
 -11   0  -1    1.85    9.92
 -11   0   1    3.74    7.61
 -11   0   1    4.60    5.11
 -11   0  -1    1.08    3.43
 -11   0  -1   17.39    6.30
 -11   0   1    1.76    6.84
  11   0   1    1.52    6.33
  11   0  -1   13.38    6.51
  12   0   1    5.79    6.83
  12   0  -1   10.93    9.16
  12   0   1   20.00    7.16
  12   0   1   17.36    8.34
  12   0  -1   19.63   10.50
  12   0  -1   17.33    8.22
  12   0   1   12.86    9.82
 -12   0  -1   22.79   12.44
 -12   0   1   16.04    8.67
 -12   0   1   13.81    7.59
  12   0   1   22.17    9.88
  12   0  -1   27.06    9.65
  13   0   1  187.69   25.63
  13   0  -1  185.37   30.26
 -13   0  -1  185.59   45.20
 -13   0   1  107.94   31.23
 -13   0   1   98.62   42.91
  13   0   1  234.16   33.32
  13   0  -1  203.42   31.84
  14   0  -1   35.00   11.69
  14   0   1   32.03    9.64
 -14   0  -1   -1.44   28.15
 -14   0   1    6.02   12.52
 -14   0   1   20.67   17.01
  14   0   1   38.14   12.12
  14   0  -1   40.71   13.31
  15   0  -1   43.85   14.75
  15   0   1   60.35   12.41
 -15   0  -1   34.38   20.26
 -15   0   1   29.69   22.47
  15   0   1   61.93   16.08
  15   0  -1   57.86   17.32
  16   0   1   81.64   18.14
  16   0  -1   82.48   31.06
 -16   0  -1   74.04   31.71
  16   0   1  129.02   23.17
  16   0  -1  132.25   24.35
  17   0   1   24.32    8.38
  17   0  -1   34.50   15.11
 -17   0  -1   16.01   15.72
  17   0   1   26.44   11.96
  17   0  -1   32.69   12.70
  18   0  -1   35.88   18.31
  18   0  -1   56.35   14.79
  18   0   1   40.64   13.90
  19   0  -1   65.28   25.89
  19   0   1  112.29   19.50
  19   0  -1  121.73   24.30
  20   0  -1   -2.97    6.28
  20   0   1    3.95    5.23
  20   0  -1   13.11    6.36
  21   0   1   13.33    6.23
  21   0  -1    6.25    6.41
   0   0   2  597.49   45.50
   0   0  -2  648.23   52.96
   0   0  -2  561.17   55.74
   0   0   2  612.57   41.56
   0   0  -2  628.51   40.16
   0   0  -2  664.54   53.55
   0   0   2  614.36   41.71
   0   0   2  640.70   47.63
   0   0  -2  726.40   56.03
  -1   0   2   13.03    4.22
  -1   0  -2    1.95    7.04
   1   0   2   20.22    7.08
  -1   0   2   15.82    4.80
   1   0  -2   16.40    4.51
   1   0   2   18.62    6.55
  -1   0  -2   12.02    4.54
   1   0  -2    9.60    3.30
  -1   0  -2   17.36    5.06
   1   0  -2   10.89    7.28
  -1   0   2   16.85    5.35
  -1   0  -2   13.45    3.38
   1   0   2   16.11    3.06
   1   0  -2   20.76    5.25
  -1   0   2   18.43    5.28
  -1   0  -2   13.64    5.80
   1   0   2   14.02    5.88
   2   0   2  783.11   90.03
  -2   0   2  723.77   45.76
   2   0  -2  728.08   47.73
   2   0   2  704.47   81.35
  -2   0   2  746.99   60.62
   2   0  -2  738.64   60.51
   2   0   2  714.36   54.91
  -2   0  -2  702.06   57.15
  -2   0  -2  734.84   83.32
   2   0   2  758.84   79.81
   2   0  -2  742.09   45.89
  -2   0   2  719.46   42.51
  -2   0   2  805.45   84.96
   2   0  -2  658.53   77.01
  -2   0  -2  669.98   38.12
   2   0   2  763.55   41.94
   2   0   2  730.65   60.40
  -2   0   2  757.71   58.47
   2   0  -2  749.46   59.27
   2   0   2  710.63   65.70
   3   0   2 1452.17  184.27
  -3   0   2 1417.71  100.35
   3   0  -2 1507.71  108.40
   3   0   2 1277.78  172.48
  -3   0   2 1433.44  127.92
   3   0  -2 1450.13  135.00
   3   0   2 1268.69  114.19
  -3   0  -2 1379.84  126.58
   3   0   2 1303.74  164.15
  -3   0  -2 1448.68  184.17
   3   0  -2 1303.51   94.76
  -3   0   2 1502.24  106.87
   3   0  -2 1247.12  157.54
  -3   0   2 1466.74  177.41
  -3   0  -2 1431.35   95.50
   3   0   2 1475.28   97.76
   3   0   2 1328.04  128.27
  -3   0   2 1499.39  128.38
   3   0  -2 1331.10  117.60
   4   0   2 2609.17  334.57
  -4   0   2 2300.56  200.83
   4   0  -2 2867.46  266.81
   4   0  -2 2448.74  268.01
   4   0   2 2419.81  265.76
  -4   0  -2 2455.94  266.97
   4   0  -2 2480.36  278.62
   4   0   2 2127.92  300.69
  -4   0  -2 2374.84  325.65
   4   0  -2 2612.80  243.07
  -4   0   2 2483.33  226.19
  -4   0   2 2280.75  328.43
  -4   0  -2 2496.30  219.08
  -4   0   2 2216.83  287.23
  -4   0  -2 2680.70  301.41
   4   0   2 2238.67  257.64
  -4   0   2 2435.20  250.45
   4   0  -2 2308.40  242.41
   5   0   2 4014.80  534.82
  -5   0   2 3501.04  356.02
   5   0  -2 3528.78  363.44
   5   0  -2 3386.28  423.20
   5   0   2 3428.68  425.21
  -5   0  -2 3577.46  435.32
   5   0  -2 3465.56  436.74
   5   0   2 3237.15  471.93
  -5   0  -2 3441.31  502.25
   5   0  -2 3456.74  381.48
  -5   0   2 3427.32  369.03
  -5   0   2 3173.77  502.67
  -5   0  -2 3466.66  363.73
  -5   0   2 3312.18  466.68
  -5   0  -2 3647.99  455.94
   5   0   2 3269.91  406.52
  -5   0   2 3450.24  403.81
   5   0  -2 3438.70  407.99
   6   0   2  596.72   65.28
  -6   0   2  590.07   35.63
   6   0  -2  600.80   37.80
   6   0  -2  582.86   62.44
   6   0   2  594.11   57.71
  -6   0  -2  657.67   86.71
   6   0  -2  560.24   63.94
   6   0   2  596.69   82.45
   6   0  -2  615.41   48.12
  -6   0  -2  612.34   83.47
  -6   0   2  568.18   43.88
  -6   0   2  571.21   94.52
  -6   0  -2  530.34   37.77
  -6   0   2  611.52   78.22
  -6   0  -2  615.32   65.53
  -6   0   2  601.27   55.96
   6   0  -2  592.83   59.66
   7   0   2 2116.57  241.23
  -7   0   2 2167.00  186.87
   7   0  -2 1988.52  175.80
   7   0  -2 1994.76  233.90
   7   0   2 2049.00  220.62
   7   0  -2 2005.43  238.24
  -7   0  -2 1987.23  212.52
   7   0   2 2064.78  272.13
   7   0  -2 1998.04  200.33
  -7   0  -2 2194.06  289.52
  -7   0   2 2073.49  206.07
  -7   0  -2 1479.91  219.48
  -7   0   2 1973.63  305.20
  -7   0   2 2219.02  278.71
  -7   0   2 2065.40  218.00
   7   0  -2 2151.33  231.45
  -8   0   2  881.09   63.50
   8   0   2  733.70   77.85
   8   0  -2  675.08   49.12
   8   0  -2  709.71   81.95
   8   0   2  692.67   69.64
  -8   0  -2  728.02   69.58
   8   0  -2  691.09   82.35
   8   0   2  787.90   99.89
  -8   0  -2  779.37  107.73
   8   0  -2  716.99   65.29
  -8   0   2  665.17   63.84
  -8   0   2  743.70  119.62
  -8   0   2  803.79  103.26
  -8   0  -2  734.46   79.49
   8   0  -2  764.49   79.52
  -9   0   2 1361.60  118.33
   9   0   2 1401.45  151.06
   9   0  -2 1117.39  102.85
   9   0  -2 1354.49  158.82
   9   0   2 1321.40  139.95
   9   0  -2 1459.37  180.07
  -9   0  -2 1367.19  137.81
   9   0   2 1472.01  185.29
   9   0  -2 1397.92  142.82
  -9   0  -2 1443.69  194.96
  -9   0   2 1283.00  138.85
  -9   0   2 1591.14  300.18
  -9   0   2 1573.71  199.48
  -9   0  -2 1367.09  154.98
  -9   0   2 1448.18  155.86
   9   0   2 1227.53  141.30
   9   0  -2 1439.15  155.78
  10   0   2 1815.08  214.55
  10   0  -2 1712.48  221.13
  10   0   2 1799.28  206.30
  10   0  -2 1927.01  253.17
 -10   0  -2 1793.51  197.02
  10   0   2 2038.20  267.61
  10   0  -2 1755.32  209.47
 -10   0  -2 1978.13  282.59
 -10   0   2 1508.25  203.89
 -10   0   2 1854.03  282.03
 -10   0   2 2128.59  278.98
 -10   0  -2 1814.13  221.19
 -10   0   2 1957.58  227.56
  10   0   2 1742.53  204.02
  10   0  -2 1835.82  220.60
  11   0   2  349.08   47.33
  11   0  -2  359.10   52.80
  11   0   2  383.41   45.46
  11   0  -2  456.56   65.84
 -11   0  -2  405.96   42.31
  11   0  -2  342.82   44.51
  11   0   2  449.13   64.00
 -11   0  -2  421.01   69.61
 -11   0   2  289.06   45.67
 -11   0   2  366.66   69.35
 -11   0   2  371.28   72.13
 -11   0  -2  422.33   52.54
 -11   0   2  472.59   56.22
  11   0   2  377.84   48.42
  11   0  -2  388.35   53.13
  12   0   2  174.81   25.64
  12   0   2  181.51   21.35
  12   0  -2  193.92   32.43
  12   0   2  213.72   28.40
  12   0  -2  160.82   27.09
 -12   0  -2  218.25   44.63
 -12   0   2  113.56   28.01
 -12   0   2  197.45   46.97
  12   0   2  205.69   30.96
  12   0  -2  197.64   32.77
  13   0   2   -1.48    4.79
  13   0   2    4.76    3.99
  13   0  -2   -0.59    6.07
 -13   0  -2   -0.67    8.45
  13   0   2    5.97    5.98
  13   0  -2   -1.79    6.08
  14   0   2   39.76   10.62
  14   0  -2   50.22   15.49
 -14   0  -2   49.47   22.47
 -14   0   2   30.32   23.53
  14   0   2   58.33   16.46
  14   0  -2   54.30   16.64
  15   0   2   41.47   10.27
  15   0  -2   53.78   30.57
 -15   0  -2   42.29   22.13
 -15   0   2   35.40   22.64
  15   0   2   17.22   13.12
  15   0  -2   62.51   16.01
  16   0  -2   94.85   28.36
 -16   0  -2   51.94   30.31
 -16   0   2   17.68   32.86
  16   0   2   95.61   19.67
  16   0  -2  106.29   22.01
  17   0  -2  117.95   34.05
 -17   0  -2   81.26   36.71
  17   0   2  138.83   24.30
  17   0  -2  152.35   49.08
  18   0  -2   77.91   26.16
 -18   0  -2   35.98   28.24
  18   0   2   94.00   18.36
  18   0  -2   92.51   22.73
  19   0  -2  150.51   45.09
  19   0   2  223.75   30.60
  19   0  -2  254.63   38.22
  20   0  -2    0.68    8.53
  20   0   2   15.85    5.92
  20   0  -2    8.16    7.81
  21   0   2  104.97   25.01
  21   0  -2  111.43   17.35
   0   0   3    6.78    4.35
   0   0  -3    6.46    5.71
   0   0   3    6.21    3.92
   0   0  -3    3.85    4.33
   0   0  -3   -0.07    4.82
   0   0  -3    2.66    3.39
   0   0  -3    7.12    5.63
   0   0   3    4.66    3.75
   0   0   3    1.17    4.69
   0   0  -3    6.87    5.85
  -1   0   3  207.26   20.48
   1   0  -3  224.36   24.97
  -1   0  -3  172.77   29.81
   1   0   3  223.13   32.08
  -1   0   3  195.80   22.23
   1   0  -3  183.06   20.62
   1   0   3  196.91   18.95
  -1   0  -3  207.67   21.93
  -1   0  -3  220.08   29.48
   1   0  -3  198.52   16.77
  -1   0  -3  201.10   21.48
  -1   0   3  215.99   16.67
  -1   0  -3  216.42   24.06
   1   0  -3  194.77   31.83
  -1   0   3  199.66   23.50
   1   0   3  205.17   16.72
   1   0   3  193.47   23.91
  -1   0   3  225.61   24.67
   1   0  -3  244.19   44.76
  -1   0  -3  196.21   27.55
   2   0   3  227.94   40.99
  -2   0   3  234.06   27.95
   2   0   3  228.59   36.40
   2   0  -3  235.66   21.69
  -2   0   3  223.96   25.06
   2   0   3  209.79   30.28
   2   0  -3  220.17   22.79
  -2   0  -3  230.24   23.07
  -2   0  -3  232.35   37.01
   2   0  -3  211.17   17.06
  -2   0  -3  214.08   26.28
   2   0  -3  214.95   36.00
  -2   0   3  209.87   28.55
  -2   0  -3  191.32   16.06
   2   0   3  219.02   13.69
   2   0   3  248.02   26.98
  -2   0   3  237.88   25.22
   2   0  -3  219.70   24.78
   2   0   3  234.75   29.55
   3   0   3  729.93   91.45
  -3   0   3  685.14   46.77
   3   0  -3  657.84   46.88
   3   0   3  668.88   89.69
  -3   0   3  708.96   63.89
   3   0  -3  713.85   65.33
   3   0   3  714.74   60.09
  -3   0  -3  660.63   58.78
  -3   0  -3  712.79   96.26
   3   0  -3  695.48   46.82
   3   0  -3  633.79   86.54
  -3   0  -3  637.60   40.12
  -3   0   3  653.28   75.20
   3   0   3  743.72   40.87
   3   0   3  698.29   65.32
  -3   0   3  723.57   62.84
   3   0  -3  722.75   64.48
   3   0   3  667.79   74.12
   4   0   3  151.30   31.80
  -4   0   3  150.32   16.03
   4   0  -3  148.17   12.09
   4   0   3  164.72   33.25
   4   0  -3  166.53   22.22
   4   0   3  142.48   17.35
  -4   0  -3  141.57   28.20
   4   0   3  156.07   32.27
  -4   0  -3  155.27   35.92
   4   0  -3  166.46   19.83
  -4   0   3  152.78   11.13
  -4   0  -3  140.73    8.51
  -4   0   3  140.51   28.02
   4   0   3  155.26    8.19
   4   0   3  130.13   20.74
  -4   0   3  150.09   19.36
   4   0  -3  160.53   19.63
   5   0   3  514.72   70.21
  -5   0   3  466.63   27.80
   5   0  -3  483.15   30.12
   5   0  -3  471.66   49.18
   5   0   3  462.40   41.16
  -5   0  -3  486.41   46.17
   5   0  -3  491.03   54.18
   5   0   3  507.02   72.83
  -5   0  -3  522.85   76.95
   5   0  -3  518.62   34.69
  -5   0   3  491.58   30.76
  -5   0   3  412.06   63.42
  -5   0  -3  426.38   23.99
  -5   0   3  477.73   67.78
  -5   0   3  519.58   47.75
   5   0  -3  424.03   45.68
   6   0   3   94.89   22.80
   6   0  -3   80.72    7.05
   6   0  -3   83.51   15.71
   6   0   3   77.04   12.15
  -6   0  -3   78.55   13.64
   6   0  -3   87.82   17.74
   6   0   3   92.29   23.44
  -6   0  -3   90.73   24.32
   6   0  -3   80.59    8.54
  -6   0   3   75.93    7.86
  -6   0   3   47.69   22.80
  -6   0   3   78.35   22.35
  -6   0   3   77.47   14.62
   6   0  -3   65.36   14.08
   7   0   3  183.23   28.33
  -7   0   3  163.62   10.85
   7   0  -3  171.89   12.00
   7   0  -3  175.73   25.60
   7   0   3  181.22   20.86
  -7   0  -3  189.62   22.20
   7   0  -3  173.83   27.87
   7   0   3  182.01   36.83
   7   0  -3  177.42   15.77
  -7   0  -3  185.98   38.20
  -7   0   3  156.46   14.18
  -7   0   3  174.61   37.99
  -7   0   3  189.69   36.88
  -7   0  -3  242.98   31.18
   7   0   3  180.42   26.07
  -7   0   3  173.30   22.96
   7   0  -3  174.62   23.97
  -8   0   3  165.68   12.12
   8   0   3  193.74   28.33
   8   0  -3  158.07   12.26
   8   0  -3  177.20   27.58
   8   0   3  192.89   21.98
  -8   0  -3  186.79   20.27
   8   0  -3  177.92   29.29
   8   0   3  225.54   37.91
   8   0  -3  191.11   17.74
  -8   0  -3  204.97   40.43
  -8   0   3  157.90   15.55
  -8   0   3  180.74   39.81
  -8   0   3  215.17   39.55
  -8   0  -3  220.81   29.03
   8   0   3  213.34   28.73
  -8   0   3  192.46   25.62
   8   0  -3  187.71   26.61
   9   0   3  673.92   76.04
   9   0  -3  616.41   77.66
   9   0   3  727.20   68.47
   9   0  -3  609.86   79.94
  -9   0  -3  661.48   60.45
   9   0   3  780.39  104.51
  -9   0  -3  752.76  109.60
   9   0  -3  641.35   59.61
  -9   0   3  516.20   54.25
  -9   0   3  647.50  109.44
  -9   0   3  786.33  106.13
  -9   0  -3  719.16   82.06
  -9   0   3  687.49   72.06
   9   0  -3  686.34   75.24
  10   0   3   34.75    9.86
  10   0  -3   24.30   11.60
  10   0   3   31.39    8.46
  10   0  -3   43.99   14.18
 -10   0  -3   35.53    7.51
  10   0   3   32.94   15.93
  10   0  -3   23.85    7.81
 -10   0  -3   27.24   14.29
 -10   0   3   17.24    6.23
 -10   0   3   19.68   17.19
 -10   0   3   22.99   15.60
 -10   0  -3   15.50   11.39
 -10   0   3   29.27   11.62
  10   0   3   21.83    9.92
  10   0  -3   28.47   11.09
  11   0   3  424.31   56.98
  11   0  -3  411.01   61.34
  11   0   3  470.28   51.71
 -11   0  -3  431.39   45.27
 -11   0  -3  456.56   80.65
 -11   0   3  471.27   93.01
 -11   0   3  557.24   85.63
  11   0   3  447.22   56.14
  11   0  -3  446.57   60.98
  12   0   3   25.18   11.07
  12   0  -3   33.32   12.33
  12   0   3   26.90    9.70
 -12   0  -3   23.34    8.46
 -12   0  -3   28.77   17.35
 -12   0   3   14.06   19.20
  12   0   3   26.35   11.60
  12   0  -3   39.43   12.31
  13   0   3    5.94    6.08
  13   0   3    3.11    4.28
  13   0  -3   15.58   10.19
 -13   0  -3   -1.33   10.67
  13   0   3    9.17    7.13
  13   0  -3    3.02    7.84
 -14   0  -3    8.28   11.30
 -14   0   3   12.31   12.72
  14   0  -3   -5.83   12.68
  15   0  -3   75.29   29.71
 -15   0  -3   58.56   31.68
 -15   0   3   68.76   35.38
  15   0   3   88.75   21.76
  15   0  -3   70.84   25.45
  16   0  -3   25.52   17.42
 -16   0  -3   28.99   19.29
 -16   0   3   26.12   20.47
  16   0   3    8.69   10.18
  16   0  -3   41.39   14.42
  17   0  -3   38.53   14.45
 -17   0  -3   14.62   15.09
 -17   0   3    2.43   17.14
  17   0   3   12.21    9.08
  17   0  -3   14.50   12.18
  18   0  -3   16.06   14.98
 -18   0  -3   22.32   16.46
 -18   0   3   11.89   12.06
  18   0   3   14.83    9.44
  18   0  -3   39.10   12.60
  19   0  -3    0.91    9.11
 -19   0  -3    9.09   10.38
  19   0   3    5.92    5.83
  19   0  -3    7.94    7.54
  20   0  -3    4.18    7.40
 -20   0  -3    7.17    7.51
  20   0   3    3.36    4.58
  20   0  -3    6.14    6.29
  21   0   3   39.84    7.70
  21   0  -3   68.67   10.85
   0   0   4  154.89   19.99
   0   0  -4  151.27   24.04
   0   0   4  189.77   18.58
   0   0  -4  167.65   20.57
   0   0  -4  170.57   22.86
   0   0  -4  151.34   24.28
   0   0  -4  159.47   25.52
   0   0   4  190.13   17.44
   0   0   4  170.62   22.12
   0   0  -4  175.77   25.73
   1   0   4   87.26   16.19
  -1   0   4  103.28   13.16
   1   0  -4  104.42   16.28
  -1   0  -4   87.00   18.50
  -1   0   4  107.25   13.61
   1   0   4  101.95   12.37
   1   0  -4   92.39   20.81
  -1   0  -4   93.26   13.56
   1   0  -4  100.01   15.03
  -1   0  -4   96.54   18.96
   1   0  -4   86.03   10.01
  -1   0  -4   87.65   12.88
  -1   0  -4  103.33   15.96
   1   0  -4   91.76   20.88
  -1   0   4  107.82   14.47
   1   0   4  105.41   10.41
   1   0   4   97.73   15.96
  -1   0   4  104.40   16.28
  -1   0  -4   93.03   17.77
   1   0  -4  111.07   18.29
   2   0   4  321.58   46.85
   2   0   4  270.20   55.67
  -2   0   4  295.58   35.91
   2   0  -4  295.84   30.98
  -2   0   4  315.19   31.81
   2   0   4  284.36   25.53
   2   0  -4  274.49   29.80
  -2   0  -4  311.01   31.95
  -2   0  -4  302.53   45.86
   2   0  -4  286.93   22.50
  -2   0  -4  283.88   32.05
   2   0  -4  283.98   46.36
  -2   0  -4  297.00   27.72
  -2   0   4  311.42   34.57
   2   0   4  311.13   20.09
   2   0   4  345.11   35.59
  -2   0   4  314.26   32.88
   2   0  -4  294.31   50.44
   2   0   4  330.10   58.45
   3   0   4 1856.69  235.25
  -3   0   4 1850.48  164.23
   3   0   4 1831.17  232.92
   3   0  -4 1890.87  179.65
  -3   0   4 1973.00  198.99
   3   0  -4 1790.90  190.52
   3   0   4 1732.38  165.46
  -3   0  -4 1929.22  199.90
  -3   0  -4 1926.86  257.34
   3   0  -4 1823.11  158.80
  -3   0  -4 1796.73  204.62
  -3   0  -4 1917.96  176.00
   3   0  -4 1709.27  232.39
  -3   0   4 1854.21  214.15
   3   0   4 1978.21  156.40
   3   0   4 1949.22  201.43
  -3   0   4 1946.65  197.01
   3   0  -4 1857.39  193.81
   4   0   4 1090.95  142.55
  -4   0   4 1108.46   83.18
   4   0   4 1086.68  143.70
  -4   0   4 1147.28  107.39
   4   0  -4 1108.21  111.93
   4   0   4 1179.45  101.46
  -4   0  -4 1049.74  101.32
  -4   0  -4 1259.08  166.07
   4   0  -4 1021.02   75.14
  -4   0  -4 1036.39  120.40
  -4   0  -4  965.31   79.02
  -4   0   4 1127.03  130.73
   4   0   4 1109.73   68.10
   4   0   4 1093.79  108.69
  -4   0   4 1139.08  107.23
   4   0  -4 1114.49  106.87
   5   0   4 3463.68  485.77
  -5   0   4 3117.41  335.35
   5   0   4 3111.05  456.56
   5   0  -4 3209.65  408.20
   5   0   4 3301.16  385.83
  -5   0  -4 3155.22  388.10
   5   0  -4 3384.87  436.80
  -5   0  -4 3654.15  542.82
   5   0  -4 3529.42  373.96
  -5   0  -4 3015.35  411.77
  -5   0  -4 2743.51  271.14
  -5   0   4 3107.99  455.73
  -5   0   4 3076.29  458.12
   5   0   4 3047.20  383.80
  -5   0   4 3270.84  386.22
   5   0  -4 3213.17  393.70
   6   0   4  327.61   50.93
  -6   0   4  252.41   17.23
   6   0  -4  302.04   38.19
   6   0   4  303.46   28.00
  -6   0  -4  281.48   30.71
   6   0  -4  300.83   41.05
  -6   0  -4  324.12   57.77
   6   0  -4  313.33   21.70
  -6   0   4  281.53   18.16
  -6   0  -4  284.05   41.89
  -6   0   4  306.33   51.34
  -6   0   4  312.08   53.61
   6   0   4  304.11   37.07
  -6   0   4  331.08   35.29
   6   0  -4  290.94   32.80
   7   0   4 1794.78  219.40
  -7   0   4 1322.46  115.95
   7   0  -4 1583.08  183.50
   7   0   4 1571.15  154.04
   7   0  -4 1518.62  177.92
  -7   0  -4 1701.92  242.75
  -7   0   4 1428.82  119.29
  -7   0   4 1572.99  228.76
  -7   0   4 1674.79  226.86
   7   0   4 1533.35  170.88
  -7   0   4 1640.69  168.81
   7   0  -4 1520.84  166.40
   8   0   4  236.60   34.47
   8   0  -4  219.42   34.30
   8   0   4  218.44   23.07
  -8   0  -4  233.12   36.88
   8   0  -4  187.72   33.77
  -8   0  -4  234.11   46.33
   8   0  -4  202.64   18.48
  -8   0   4  179.65   15.01
  -8   0   4  210.81   49.08
  -8   0   4  229.76   44.87
  -8   0   4  223.77   29.66
   8   0  -4  220.74   30.83
   9   0   4 1152.40  140.82
   9   0  -4 1147.81  151.36
   9   0   4 1154.30  118.39
   9   0  -4 1101.03  141.58
  -9   0  -4  993.10  104.53
  -9   0  -4 1279.11  192.51
  -9   0   4 1162.96  199.06
  -9   0   4 1355.57  193.85
   9   0   4 1140.21  131.29
  -9   0   4 1217.18  132.34
   9   0  -4 1171.38  135.07
   9   0   4 1089.36  138.34
  10   0   4  473.21   61.49
  10   0  -4  463.09   74.39
  10   0   4  473.78   50.38
 -10   0  -4  391.55   43.07
 -10   0  -4  497.19  122.07
 -10   0   4  503.92   99.82
 -10   0   4  599.79   93.36
  10   0  -4  477.98   63.65
  11   0   4  554.29   75.33
  11   0  -4  609.69   95.12
  11   0   4  603.76   64.74
 -11   0  -4  491.50   53.40
 -11   0  -4  578.40  106.90
 -11   0   4  609.79  127.36
  11   0   4  548.42   68.83
  11   0  -4  588.84   79.35
  12   0   4   23.13   14.10
  12   0  -4   51.11   20.17
 -12   0  -4   58.25   21.44
 -12   0   4   23.69   27.08
  12   0  -4   53.78   17.07
  13   0   4    3.68    7.28
  13   0  -4   12.17   10.78
 -13   0  -4   -1.80   11.60
 -13   0   4   -2.51   14.01
  13   0  -4    7.66    9.02
  14   0   4   11.41    8.34
  14   0  -4    4.95   13.55
 -14   0  -4   -3.37   14.32
 -14   0   4    3.90   17.07
  14   0  -4   16.81   10.95
  15   0   4   65.20   26.29
  15   0  -4  162.50   43.50
 -15   0  -4  129.49   46.55
 -15   0   4  145.79   53.42
  15   0   4  152.93   29.76
  15   0  -4  160.28   33.36
  16   0  -4   14.19   18.13
 -16   0  -4   25.64   20.02
 -16   0   4   30.53   22.75
  16   0   4   22.42   12.55
  16   0  -4   23.46   14.61
  17   0  -4  260.69   59.21
 -17   0  -4  155.39   61.19
 -17   0   4  150.62  109.94
  17   0   4  227.13   32.91
  17   0  -4  268.64   46.10
  18   0  -4  125.86   34.37
 -18   0  -4   59.95   36.88
 -18   0   4   30.26   26.59
  18   0   4  125.12   18.77
  18   0  -4  132.02   25.77
  19   0  -4  236.97   54.52
 -19   0  -4  105.90   59.11
  19   0   4  256.18   29.73
  19   0  -4  305.55   40.26
  20   0  -4   14.28   17.78
 -20   0  -4    8.52   12.06
  20   0   4   20.72    6.22
  20   0  -4   25.20    8.82
   0   0   5    8.64    4.76
   0   0  -5    4.90    5.89
   0   0  -5    2.64    4.83
   0   0  -5    8.20    3.46
   0   0  -5    7.39    6.35
   0   0   5    2.17    3.99
   1   0   5 1350.21  159.16
   1   0   5 1192.36  124.68
  -1   0   5 1272.39  113.91
   1   0  -5 1175.75  125.64
  -1   0   5 1289.16  116.17
   1   0   5 1331.98  115.58
   1   0  -5 1333.47  133.78
  -1   0  -5 1256.50  127.51
  -1   0  -5 1251.88  151.27
   1   0  -5 1381.80  139.56
   1   0  -5  938.40  102.78
  -1   0  -5 1090.76  112.01
   1   0  -5 1144.74  145.87
  -1   0  -5 1247.19  132.05
  -1   0   5 1378.85  132.31
   1   0   5 1312.58  111.40
  -1   0   5 1342.26  129.30
   1   0   5 1308.77  127.73
  -1   0  -5 1281.84  135.77
   1   0  -5 1368.33  141.03
   2   0   5   20.50   12.91
  -2   0   5   25.17    9.12
   2   0   5   28.41    9.74
   2   0  -5   24.58    8.39
  -2   0   5   31.61    7.83
   2   0  -5   15.20   12.53
   2   0   5   34.36    6.38
  -2   0  -5   19.92    8.11
  -2   0  -5   25.19   12.22
   2   0  -5   18.00    7.82
   2   0  -5   23.80    4.92
  -2   0  -5   18.51    7.45
  -2   0  -5   37.06    7.49
   2   0  -5   31.56   12.95
  -2   0   5   35.00    9.35
   2   0   5   27.66    4.50
   2   0   5   34.34    9.53
  -2   0   5   38.60    8.77
   2   0  -5   40.17   10.48
   3   0   5  256.17   41.68
  -3   0   5  228.14   19.07
   3   0   5  216.02   34.54
   3   0  -5  242.26   24.91
  -3   0   5  253.69   27.73
   3   0  -5  219.80   28.67
   3   0   5  235.35   21.10
  -3   0  -5  207.47   28.08
  -3   0  -5  236.77   64.55
  -3   0  -5  212.89   29.77
  -3   0  -5  268.08   21.52
  -3   0   5  257.77   34.01
   3   0   5  241.26   16.25
   3   0   5  265.65   30.94
  -3   0   5  257.76   29.66
   4   0   5    6.11    7.71
  -4   0   5    3.62    2.48
   4   0   5   14.67   10.60
   4   0  -5    5.03    3.68
  -4   0   5    0.88    4.85
   4   0   5   10.60    3.19
   4   0  -5    4.87    4.99
  -4   0  -5    2.37    4.08
  -4   0  -5   -2.19    8.63
   4   0  -5    7.89    2.30
  -4   0  -5    1.63    2.27
  -4   0   5    2.87    6.48
   4   0   5    0.81    1.46
   4   0   5    6.29    5.20
   5   0   5  342.91   55.71
  -5   0   5  302.05   22.85
   5   0   5  332.65   54.23
   5   0   5  309.15   27.60
   5   0  -5  331.64   41.11
  -5   0  -5  390.44   64.59
  -5   0  -5  283.00   43.55
  -5   0   5  356.34   52.71
   5   0   5  307.74   38.75
  -5   0   5  337.99   36.14
   5   0  -5  316.85   37.86
   6   0   5   43.67   15.27
  -6   0   5   30.28    4.28
   6   0   5   36.37   15.08
   6   0   5   44.37   10.33
   6   0  -5   28.19   10.72
  -6   0  -5   32.97    7.82
  -6   0  -5   30.01   17.77
   6   0  -5   21.10    5.19
  -6   0  -5   29.80   11.79
  -6   0   5   36.04   15.33
   6   0   5   28.86   11.07
  -6   0   5   34.12   10.03
   6   0  -5   32.10   10.38
   7   0   5   64.04   19.82
   7   0  -5   53.42   14.70
   7   0   5   53.63   10.39
  -7   0  -5   35.05   10.70
   7   0  -5   56.36   15.66
  -7   0  -5   60.91   23.15
  -7   0  -5   58.09   15.72
  -7   0   5   53.13   21.70
  -7   0   5   47.74   22.18
   7   0   5   49.37   14.35
  -7   0   5   57.35   13.50
   7   0  -5   59.64   13.30
   8   0   5   53.28   18.02
   8   0   5   63.38   18.50
   8   0  -5   42.37   16.42
   8   0   5   48.67   10.91
   8   0  -5   56.01   16.55
  -8   0  -5   55.49   23.76
  -8   0  -5   41.91   16.71
  -8   0   5   73.01   24.98
  -8   0   5   62.99   24.06
  -8   0   5   55.50   15.13
   8   0  -5   51.68   13.93
   9   0   5  119.37   23.46
   9   0  -5   97.44   24.88
   9   0   5  105.20   15.63
  -9   0  -5   58.65   12.95
  -9   0   5   92.62   36.03
   9   0   5   98.85   21.12
   9   0  -5  102.25   21.09
  10   0   5   11.34   10.87
  10   0  -5   20.97   12.21
 -10   0  -5   47.63   25.05
 -10   0   5    2.31   18.42
  10   0   5   12.94    9.83
  10   0  -5   14.99   10.79
  11   0   5  119.52   29.35
  11   0  -5  132.14   36.22
 -11   0   5  122.91   49.28
  11   0  -5  134.06   29.81
  12   0  -5   18.70   15.37
 -12   0   5   13.22   22.20
  12   0  -5   15.85   12.45
  13   0   5  488.95   89.76
  13   0  -5  573.12  123.10
 -13   0  -5  558.08  132.87
 -13   0   5  642.16  168.20
  13   0   5  725.92   90.35
  13   0  -5  550.83   94.72
  14   0   5   -6.27   16.23
  14   0  -5   15.39   16.64
 -14   0  -5   11.44   17.20
 -14   0   5   18.63   22.01
  14   0  -5   23.05   12.31
  15   0   5   80.56   28.68
  15   0  -5  162.86   46.94
 -15   0  -5  125.92   49.01
 -15   0   5  190.82   60.74
  15   0  -5  171.47   35.78
  16   0   5   15.76   13.21
  16   0  -5   51.06   23.07
 -16   0  -5   35.48   24.19
 -16   0   5   27.56   29.22
  16   0  -5   54.06   17.34
  17   0  -5   15.85   15.42
 -17   0  -5   16.33   24.04
 -17   0   5   19.21   12.46
  17   0   5    9.97    6.96
  17   0  -5    0.60   10.40
 -18   0  -5   18.38   11.14
 -18   0   5    0.75    8.21
  18   0   5    1.27    5.05
  18   0  -5    5.15    7.36
 -19   0  -5   23.06   20.21
 -19   0   5    3.83   13.53
  19   0   5   41.33    8.69
  19   0  -5   62.40   12.68
 -20   0  -5   -3.52    7.10
   0   0   6 4473.89  658.66
   0   0   6 4438.19  582.82
   0   0   6 4403.39  567.67
   0   0  -6 3582.86  623.89
   0   0  -6 3063.02  703.13
   0   0  -6 2416.85  544.35
   0   0  -6 4792.51  706.29
   0   0   6 4532.32  609.83
   0   0  -6 4573.72  627.24
   1   0   6   40.30   15.06
  -1   0   6   40.26    8.29
   1   0   6   53.01   11.17
  -1   0   6   58.79    9.09
   1   0   6   41.06    7.97
   1   0  -6   42.63   11.15
  -1   0  -6   33.16   10.19
   1   0  -6   32.55   12.30
  -1   0  -6   42.43   14.82
  -1   0  -6   30.25    8.51
  -1   0  -6   51.96   11.86
   1   0  -6   50.39   15.43
  -1   0   6   36.75    9.71
   1   0   6   38.53    6.92
  -1   0   6   54.80   10.80
   1   0  -6   75.56   14.35
   2   0   6 1753.08  232.55
  -2   0   6 1730.96  174.21
   2   0   6 1664.38  201.50
   2   0  -6 1535.27  179.41
  -2   0   6 1812.64  189.82
   2   0   6 1851.16  190.16
   2   0  -6 1873.58  222.31
  -2   0  -6 1539.24  209.57
  -2   0  -6 1742.86  253.69
  -2   0  -6 1633.58  183.86
  -2   0  -6 1916.54  205.31
  -2   0   6 2043.23  269.37
   2   0   6 1670.20  179.83
   2   0   6 2041.82  217.44
  -2   0   6 1852.85  196.48
   2   0  -6 1958.75  220.48
   3   0   6   42.56   15.53
  -3   0   6   36.70    6.43
   3   0   6   37.62   13.04
   3   0  -6   36.40    9.22
  -3   0   6   52.85    9.87
   3   0   6   43.32    7.84
   3   0  -6   44.23   11.80
  -3   0  -6   42.21    9.95
   3   0  -6   20.34    9.30
  -3   0  -6   54.36   16.74
  -3   0  -6   20.96    9.28
  -3   0   6   38.87   12.38
   3   0   6   42.69   11.99
  -3   0   6   50.61   10.70
   3   0  -6   52.38   13.01
   4   0   6   19.92   12.28
  -4   0   6   17.01    4.52
   4   0   6   18.97   10.42
   4   0  -6   16.77    6.72
  -4   0   6   32.32    7.91
   4   0   6   23.91    5.87
   4   0  -6   19.56    8.53
  -4   0  -6   15.69    7.35
   4   0  -6   18.89    6.28
  -4   0  -6   23.76   13.71
   4   0  -6   11.53    4.13
  -4   0  -6   14.16    7.99
  -4   0   6   28.94   10.61
   4   0   6   15.75    8.90
  -4   0   6   35.94    8.22
   4   0  -6   28.51    9.63
   5   0   6  403.54   60.37
  -5   0   6  304.50   34.51
   5   0   6  331.14   50.77
   5   0   6  324.39   32.46
   5   0  -6  333.79   45.24
  -5   0  -6  257.72   50.42
  -5   0  -6  364.67   69.28
  -5   0  -6  289.70   46.33
  -5   0   6  404.08   57.31
   5   0   6  356.94   42.55
  -5   0   6  370.12   39.84
   5   0  -6  387.42   69.29
   6   0   6   11.40    7.80
   6   0   6    8.47    6.95
   6   0  -6    1.15    5.63
   6   0   6    2.07    3.42
  -6   0  -6    9.06    8.72
  -6   0   6   -1.93    7.91
  -6   0   6   -1.51    5.59
   7   0   6  165.75   35.93
   7   0  -6  141.35   27.77
   7   0   6  137.71   17.24
  -7   0  -6   90.47   19.76
   7   0  -6  159.00   29.58
  -7   0  -6  138.52   40.15
  -7   0  -6  142.25   28.59
  -7   0   6  159.22   39.50
  -7   0   6  190.57   42.45
   7   0  -6  136.58   24.85
   8   0   6   14.03   12.86
   8   0  -6   25.19   11.19
  -8   0  -6    0.58   16.13
  -8   0   6   13.69   17.21
   8   0   6   26.83   10.57
   8   0  -6   16.63   10.34
   9   0   6  106.80   26.84
   9   0  -6   88.98   25.25
  -9   0  -6   86.07   35.27
  -9   0   6  100.90   40.94
   9   0   6   96.74   22.45
   9   0  -6   83.48   22.39
  10   0   6  104.89   29.18
  10   0  -6   81.82   31.88
 -10   0  -6  116.68   63.99
 -10   0   6  120.68   46.40
  10   0   6  110.43   26.42
  10   0  -6  109.53   25.47
  11   0   6    0.99    9.74
  11   0  -6   -3.26   11.69
 -11   0  -6   14.30   13.46
 -11   0   6   12.09   17.81
  11   0   6   13.39   13.77
  11   0  -6   11.57    9.62
  12   0   6  734.58  116.67
  12   0  -6  670.02  140.58
 -12   0  -6  705.16  161.74
 -12   0   6  870.25  202.34
  12   0  -6  702.79  111.62
  13   0  -6   71.49   34.71
 -13   0  -6   96.75   37.99
 -13   0   6   95.42   49.86
  13   0  -6   78.38   26.21
  14   0   6  963.35  220.13
  14   0  -6 1157.09  228.11
 -14   0  -6 1153.10  243.71
 -14   0   6 1362.63  317.23
  14   0  -6 1053.57  162.76
  15   0   6   -1.25   11.22
  15   0  -6    9.03   17.91
 -15   0  -6   29.64   17.97
 -15   0   6   45.69   37.97
  15   0  -6   25.45   12.69
  16   0   6   95.55   37.02
  16   0  -6  267.93   60.80
 -16   0  -6  220.28   62.93
 -16   0   6  186.17   56.82
  16   0  -6  253.19   40.39
  17   0   6    3.92    8.26
  17   0  -6   18.64   15.14
 -17   0  -6   42.68   24.87
 -17   0   6   -3.45   12.89
  17   0   6   19.89   10.30
  17   0  -6   13.91   10.15
  18   0  -6    4.79   10.80
 -18   0   6    2.82    8.27
  18   0  -6    1.66   10.33
  19   0  -6   24.32   11.37
 -19   0  -6   14.78   11.03
 -19   0   6   -3.10    7.69
   0   0   7   -1.06    5.09
   0   0   7    2.99    3.42
   0   0   7   -1.22    3.25
   0   0   7    2.38    2.91
   0   0  -7    7.02    4.80
  -1   0   7    6.17    6.73
  -1   0   7   11.06    4.58
   1   0   7    5.09    5.46
  -1   0   7    0.39    4.79
   1   0   7    7.85    4.30
   1   0  -7    2.25    6.03
  -1   0  -7    4.97    5.69
   1   0  -7    2.20    7.17
  -1   0  -7   -0.56   13.34
   1   0  -7   -0.52    3.64
  -1   0  -7    6.21    4.40
  -1   0   7   10.67    4.87
   1   0   7   15.94    6.58
   1   0  -7    6.58    6.70
  -2   0   7   34.07   11.59
   2   0   7   38.20   14.59
  -2   0   7   36.14    7.39
   2   0   7   41.61   11.91
  -2   0   7   47.69    8.90
   2   0   7   29.16    7.56
   2   0  -7   30.81   11.68
  -2   0  -7   29.69   10.63
   2   0  -7    8.26   11.46
  -2   0  -7   28.62   17.32
  -2   0  -7   22.63    8.94
  -2   0   7   29.57   10.30
   2   0   7   43.76   11.71
  -2   0   7   40.61   11.22
   2   0  -7   46.69   12.65
   3   0   7  579.58   81.46
  -3   0   7  489.70   65.15
  -3   0   7  503.19   47.10
   3   0   7  601.65   73.13
   3   0   7  430.27   47.21
  -3   0   7  552.87   56.93
   3   0  -7  584.28   77.07
  -3   0  -7  394.89   62.80
  -3   0  -7  484.70   96.80
  -3   0   7  503.19   69.29
   3   0   7  604.16   64.72
  -3   0   7  663.21   63.97
   3   0  -7  585.70   68.21
  -4   0   7    6.16    7.99
   4   0   7   17.30   12.57
  -4   0   7   15.90    4.85
   4   0   7   33.28   11.60
   4   0   7   14.70    6.72
   4   0  -7   23.73   10.43
  -4   0  -7   11.69    7.59
  -4   0  -7   13.61   14.28
  -4   0  -7   10.00    8.06
  -4   0   7   27.59   17.73
   4   0   7   28.97    9.18
   4   0  -7   32.72   10.10
   5   0   7  510.12   78.56
   5   0   7  389.64   48.61
   5   0  -7  484.36   73.42
  -5   0  -7  373.08   91.21
  -5   0   7  529.39   80.54
   5   0   7  467.63   57.62
   5   0  -7  464.08   63.36
   6   0   7  365.51   65.84
  -6   0  -7  292.31   78.91
  -6   0   7  384.81   72.53
   6   0   7  329.87   49.79
   6   0  -7  355.02   52.65
   7   0   7   19.96   14.10
   7   0  -7    3.30    7.41
   8   0   7  289.96   53.19
   8   0  -7  215.70   48.77
  -8   0  -7  244.60   66.90
   8   0   7  259.27   46.73
   9   0   7  250.70   50.65
   9   0  -7  173.28   47.79
  -9   0  -7  214.73   64.41
   9   0   7  224.08   41.82
   9   0  -7  222.98   60.51
  10   0   7   -0.53    8.14
  10   0  -7   -2.13    7.99
 -10   0  -7    3.13   14.47
 -10   0   7    1.26   12.29
  10   0  -7    2.87    6.74
  11   0   7  219.56   49.43
  11   0  -7  185.96   55.18
 -11   0  -7  209.10   64.37
 -11   0   7  232.35   84.22
  11   0   7  244.67   44.46
  11   0  -7  198.10   45.95
  12   0   7   21.18   15.97
  12   0  -7   45.18   18.90
 -12   0  -7   29.88   21.61
 -12   0   7   16.08   29.40
  12   0   7   16.49   12.90
  12   0  -7   17.90   14.98
  13   0   7    4.25    9.53
  13   0  -7    8.53   13.10
 -13   0   7   16.51   30.32
  13   0   7   15.21    8.20
  13   0  -7   -3.91    9.92
  14   0  -7    5.32   16.98
 -14   0  -7   14.01   17.41
 -14   0   7   12.09   17.70
  14   0  -7   16.68   19.59
  15   0   7   17.75    9.91
  15   0  -7    5.87   25.85
 -15   0  -7   -2.82   16.61
 -15   0   7   -4.16   15.77
  15   0  -7   14.84   11.27
  16   0   7   23.18   14.64
  16   0  -7   51.97   26.84
 -16   0  -7   38.41   24.90
 -16   0   7   40.38   22.54
  16   0   7   38.75   13.04
  16   0  -7   36.44   15.91
  17   0   7   14.34   14.16
  17   0  -7  102.49   28.08
 -17   0  -7   23.73   39.61
 -17   0   7   43.82   22.80
  17   0  -7   77.99   16.35
 -18   0  -7   -5.58   12.83
 -18   0   7   10.04    9.96
  18   0   7    8.06    4.45
  18   0  -7   17.72    7.05
   0   0  -8  145.81   32.91
   0   0  -8   48.61   29.06
   1   0   8   -0.46    3.73
   1   0  -8   -1.10    5.24
  -1   0  -8    1.92    4.89
  -1   0  -8    2.91    3.76
  -1   0   8    6.08    3.86
   2   0   8  310.34   46.48
  -2   0   8  235.96   39.73
   2   0   8  177.84   30.06
   2   0  -8  248.00   41.92
  -2   0  -8  167.56   37.90
  -2   0  -8  177.46   59.61
  -2   0   8  241.50   35.43
   2   0   8  347.44   38.81
   2   0  -8  319.38   41.64
  -3   0   8   14.31   10.62
   3   0   8   50.62   14.85
   3   0  -8   36.47   12.78
  -3   0  -8   11.14   10.48
  -3   0  -8   40.86   18.61
  -3   0   8   23.79   11.19
   3   0   8   38.14   11.66
   3   0  -8   28.18   12.30
   4   0  -8  413.69   75.86
  -4   0  -8  363.09  100.99
  -4   0   8  438.11   70.68
   4   0   8  532.39   63.65
   4   0  -8  519.68   68.66
   5   0   8  273.92   51.09
   5   0  -8  213.95   45.58
  -5   0  -8  177.29   60.69
  -5   0   8  216.35   46.18
   5   0   8  237.90   38.54
   5   0  -8  246.38   42.20
   6   0   8  187.36   41.67
   6   0  -8  136.14   38.40
  -6   0  -8  111.78   50.13
  -6   0   8  137.75   39.34
   6   0   8  182.81   33.07
   6   0  -8  191.94   34.37
   7   0   8  497.03   86.25
   7   0  -8  419.09   79.54
  -7   0  -8  334.20  102.55
  -7   0   8  364.38   84.26
   7   0   8  466.63   65.49
   7   0  -8  428.55   68.16
   8   0   8  483.85   80.95
   8   0  -8  377.67   82.66
  -8   0  -8  308.12   97.62
  -8   0   8  342.99   86.01
   8   0   8  391.14   63.38
   8   0  -8  416.03   66.35
   9   0   8  243.96   57.48
   9   0  -8  219.93   60.05
  -9   0  -8  180.55  104.62
  -9   0   8  218.03   63.10
   9   0   8  276.36   47.12
   9   0  -8  212.35   46.80
  10   0   8  812.22  129.30
  10   0  -8  671.65  148.62
 -10   0  -8  677.75  155.38
 -10   0   8  693.98  157.31
  10   0   8  733.46  104.75
  10   0  -8  707.21  110.23
  11   0   8    7.78   12.62
  11   0  -8    4.69   16.06
 -11   0  -8   35.92   15.69
 -11   0   8   17.28   16.03
  11   0   8    1.73   10.13
  11   0  -8    6.81   11.31
  12   0   8  161.88   41.74
  12   0  -8  146.51   55.51
 -12   0  -8   99.85   54.49
 -12   0   8  127.34   55.95
  12   0   8  166.37   32.27
  12   0  -8  175.44   38.68
  13   0   8   10.47   10.56
  13   0  -8   -0.62   15.38
 -13   0  -8    7.60   14.80
 -13   0   8    4.12   14.84
  13   0   8    6.47    8.12
  14   0   8   44.97   31.80
  14   0  -8   39.35   32.45
 -14   0  -8   28.37   29.22
 -14   0   8   27.01   29.95
  14   0   8   69.39   15.93
  14   0  -8   49.72   19.88
  15   0   8   16.57    8.05
  15   0  -8   13.64   13.30
 -15   0  -8    0.53   12.56
  15   0   8    1.77    6.40
  15   0  -8   -0.50    8.32
  16   0   8   14.72   13.58
  16   0  -8   53.15   24.73
 -16   0  -8   28.77   22.63
 -16   0   8   22.37   20.77
  16   0   8   40.71   10.81
  16   0  -8   45.39   13.55
  17   0   8    5.91    4.88
  17   0  -8    3.78   11.76
 -17   0  -8    2.10   10.97
 -17   0   8    8.84    9.27
  17   0  -8    2.96    6.10
   0   0  -9    5.82    6.86
   0   0   9    6.84    6.79
  -1   0   9   59.70   20.16
   1   0   9   78.04   21.77
   1   0  -9   45.18   20.54
  -1   0  -9   25.74   19.16
   1   0   9  110.91   19.48
  -1   0   9   96.90   19.59
   2   0   9  269.79   43.34
  -2   0   9  124.49   35.63
   2   0  -9  176.99   39.55
  -2   0  -9   57.66   49.96
   2   0   9  280.71   35.97
   3   0   9   30.25   13.64
   3   0  -9    4.26   12.02
  -3   0  -9   13.95   16.57
  -3   0   9    5.95    9.80
   3   0   9   27.70   10.73
   3   0  -9   29.05   11.10
   4   0  -9  160.99   40.45
  -4   0  -9   83.75   54.08
  -4   0   9  135.42   34.25
   4   0   9  225.21   33.23
   4   0  -9  216.23   36.08
   5   0   9   73.07   29.47
   5   0  -9   46.11   17.73
  -5   0  -9   26.70   24.15
  -5   0   9   43.52   16.28
   5   0   9   -2.05   15.27
   5   0  -9   56.22   16.29
   6   0  -9  149.58   41.70
  -6   0  -9  128.36   53.80
  -6   0   9  130.85   42.33
   6   0   9  199.53   35.03
   6   0  -9  179.87   35.10
   7   0   9    4.45   12.98
   7   0  -9   14.72   11.98
  -7   0  -9   11.46   15.20
  -7   0   9   -0.61   11.59
   7   0   9    5.99    9.54
   7   0  -9   12.99    9.56
   8   0   9  225.32   49.62
   8   0  -9  141.88   47.81
  -8   0  -9  115.83   91.17
  -8   0   9  138.44   49.43
   8   0   9  204.41   37.86
   8   0  -9  178.21   39.78
   9   0   9  151.26   41.60
   9   0  -9   93.20   42.03
  -9   0  -9   94.55   45.28
  -9   0   9  132.57   42.72
   9   0   9  145.83   30.40
   9   0  -9  126.72   32.19
  10   0   9  122.02   31.98
  10   0  -9   83.20   36.90
 -10   0  -9   59.19   38.33
 -10   0   9   74.58   37.19
  10   0   9  101.42   24.88
  10   0  -9   72.59   26.14
  11   0   9   40.38   19.46
  11   0  -9   22.54   23.18
 -11   0  -9    4.83   23.73
 -11   0   9   24.35   23.17
  11   0   9   45.42   22.25
  11   0  -9   39.37   16.25
  12   0   9   52.90   21.99
  12   0  -9   43.50   29.27
 -12   0  -9   52.64   28.93
 -12   0   9   42.58   28.25
  12   0  -9   50.23   19.74
  13   0   9   35.98   16.78
  13   0  -9   31.17   24.27
 -13   0  -9   14.72   22.80
 -13   0   9   56.30   22.94
  13   0  -9   22.54   15.48
  14   0   9   11.47    9.19
  14   0  -9   -1.05   14.50
 -14   0  -9    6.69   13.60
  14   0   9    6.97    6.78
  14   0  -9    7.17    8.65
  15   0   9    6.06   13.18
  15   0  -9   46.75   21.42
 -15   0  -9   23.45   19.82
  15   0   9   37.05    9.22
  15   0  -9   29.12   12.14
  16   0   9   41.47   14.09
  16   0  -9   73.30   26.50
 -16   0  -9   35.61   25.10
 -16   0   9   61.51   22.05
  16   0   9   57.20   16.23
  16   0  -9   76.50   13.43
   0   0  10   96.67   29.92
   0   0  10  148.92   27.83
  -1   0  10   29.93   17.22
   1   0  10   57.39   18.07
   1   0 -10   10.46   18.31
   1   0  10   66.10   16.97
  -1   0  10   77.93   17.29
   2   0  10    4.84    8.33
   2   0 -10   -0.03    8.09
  -2   0  10    6.89    7.68
   2   0  10    3.20    7.31
   3   0  10  365.72   92.86
   3   0 -10  127.39   53.55
   3   0  10  288.99   45.71
  -3   0  10  345.49   47.83
   4   0  10  123.06   27.68
   4   0 -10   58.71   24.03
  -4   0 -10   14.58   29.30
   4   0  10  118.52   30.64
  -4   0  10   42.84   19.83
   5   0  10  412.30   66.74
   5   0 -10  214.75   59.58
  -5   0 -10  142.37   74.99
  -5   0  10  150.06   48.93
   5   0  10  374.41   50.67
   5   0 -10  314.66   49.03
   6   0  10   41.42   17.44
   6   0 -10   15.76   15.59
  -6   0 -10   15.22   31.23
  -6   0  10   23.85   13.77
   6   0  10   12.19   13.05
   6   0 -10   25.78   13.00
   7   0 -10   90.45   38.70
  -7   0 -10   75.14   42.92
  -7   0  10   82.81   34.51
   7   0  10  173.15   30.77
   7   0 -10  153.95   30.25
  -8   0 -10    0.89    9.44
  -8   0  10   -2.94    7.78
   8   0  10   -2.83    6.14
   8   0 -10    2.89    6.28
   9   0  10  162.98   38.99
   9   0 -10   70.47   40.69
  -9   0 -10   85.77   44.76
  -9   0  10   72.97   38.95
   9   0  10  159.62   28.19
   9   0 -10  136.83   29.96
  10   0  10    5.91   13.66
  10   0 -10   -1.25   15.52
 -10   0 -10   20.11   15.84
 -10   0  10    5.88   14.22
  10   0  10   17.62    9.64
  10   0 -10   20.32   10.75
  11   0  10  118.83   27.02
 -11   0 -10   30.31   33.68
 -11   0  10   51.09   30.88
  11   0 -10   84.81   22.02
  12   0  10   10.57    7.93
 -12   0 -10   13.70   10.12
  12   0  10    3.33    5.62
  13   0 -10    5.71   10.03
 -13   0 -10   14.16    9.53
 -13   0  10    4.98    9.15
  13   0  10    4.86    4.84
  14   0  10   40.67   13.37
  14   0 -10   35.40   20.42
 -14   0 -10   11.56   19.27
 -14   0  10   25.74   17.97
  14   0  10   33.19    9.05
  14   0 -10   40.27   11.42
   0   0  11    1.43    7.60
   1   0  11  286.45   62.31
   1   0  11  306.26   47.93
  -1   0  11  328.85   49.50
   2   0  11    0.05    7.58
  -2   0  11    1.01    5.96
   3   0  11   63.98   20.82
   3   0 -11   14.02   17.58
  -3   0  11   48.39   15.47
   3   0  11   53.22   26.56
   4   0  11   27.92   13.86
   4   0 -11   10.50   12.39
  -4   0  11   16.97   10.66
   4   0  11   11.00   11.59
   5   0  11   22.69   12.99
   5   0 -11   -3.79   11.66
  -5   0 -11    4.99   12.16
  -5   0  11   17.56    9.63
   5   0  11   17.75   10.64
   6   0  11  170.26   39.47
   6   0 -11   47.34   35.35
  -6   0  11  145.16   28.75
   6   0  11  164.07   29.52
   7   0  11   12.19   10.18
   7   0 -11    9.74   14.80
  -7   0  11   11.63    7.90
   7   0  11   10.95    7.62
   8   0  11  175.14   31.30
   8   0 -11   55.46   31.16
  -8   0 -11   14.22   32.85
  -8   0  11   66.43   26.84
  -8   0  11  127.74   23.02
   9   0  11    9.51    7.90
   9   0 -11   -2.38    8.52
  -9   0 -11    9.57    8.89
  -9   0  11    0.89    7.49
  -9   0  11    0.49    5.93
  10   0  11    5.85    9.67
 -10   0 -11   11.58   10.87
 -10   0  11    5.71    9.35
 -10   0  11    7.14    7.06
  10   0  11    7.82    6.68
  11   0  11   43.23   13.68
  11   0 -11   13.77   16.29
 -11   0  11   14.75   14.56
 -11   0  11    7.74   10.43
  11   0  11   39.35    9.17
  12   0  11   10.75    7.45
  12   0 -11   -4.12   14.58
 -12   0 -11   21.08    8.70
 -12   0  11   -1.35    8.08
 -12   0  11   -2.48    5.85
   0   0  12  234.10   37.17
   1   0  12    3.94    6.34
  -1   0  12    2.14    5.69
   2   0  12   75.20   25.25
  -2   0  12  107.89   20.94
   2   0  12   99.91   23.77
   3   0  12    3.38    9.42
  -3   0  12    5.86    7.75
   3   0  12   13.65    8.60
  -4   0  12    6.27    5.19
   5   0  12   96.67   27.83
  -5   0  12   83.76   20.82
   5   0  12  120.79   22.84
   6   0  12   10.55   10.83
   6   0 -12   10.39    9.54
  -6   0  12    7.09    8.19
   6   0  12   20.85    8.88
   7   0  12   78.96   21.16
   7   0 -12   13.41   18.85
  -7   0  12   75.23   15.83
   7   0  12   88.95   16.42
   8   0  12   18.17    9.77
   8   0 -12    5.10    8.43
  -8   0 -12    3.62    7.11
  -8   0  12   10.39    7.00
   8   0  12   13.66    7.02
   9   0  12   27.82   13.06
   9   0 -12   11.02   11.13
  -9   0  12   29.90    9.54
   9   0  12   37.52    8.89
   1   0  13   38.42   11.63
  -1   0  13   25.81   11.34
  -2   0  13    6.07    8.05
   2   0  13    2.38    6.02
  -3   0  13  152.97   23.18
   3   0  13  187.73   27.05
  -4   0  13    3.46    4.84
   5   0  13   20.24   12.41
  -5   0  13   55.51   11.03
   5   0  13   69.12   11.99
   0   1   0   83.69    8.20
   0  -1   0   77.42    9.63
   0   1   0   74.61    8.69
   0  -1   0   76.48   10.08
   0   1   0   70.52    7.61
   0  -1   0   87.43    9.53
   0  -1   0   89.53   14.08
   0   1   0   85.70   12.99
   0  -1   0   75.40    2.71
  -1   1   0    6.04    3.56
   1  -1   0    0.62    3.64
   1   1   0    4.98    2.57
  -1  -1   0    2.33    2.70
   1  -1   0    3.27    2.73
   1   1   0    2.15    3.45
  -1  -1   0    3.60    4.16
   1   1   0    3.38    3.44
  -1  -1   0    1.44    3.58
   1  -1   0    1.29    2.54
   1   1   0    0.39    3.17
  -1   1   0    3.09    5.37
  -1   1   0    3.99    1.70
   1  -1   0    2.89    1.42
   2  -1   0   22.17    6.18
   2   1   0    4.64    5.56
  -2  -1   0    9.90    3.39
  -2   1   0   16.35    2.47
   2  -1   0   18.35    3.34
   2   1   0   11.04    6.04
  -2  -1   0   15.58    8.27
   2   1   0    9.18    7.68
  -2  -1   0    7.45    6.21
   2  -1   0   18.97    3.33
   2   1   0    9.62    4.09
  -2  -1   0    7.97    5.59
  -2   1   0   23.90    8.80
   2  -1   0   18.25    8.24
  -2  -1   0   13.87    1.69
  -2   1   0   26.98    6.93
   2  -1   0   16.48    3.57
   2   1   0   11.63    2.41
  -3   1   0    0.39    1.26
   3  -1   0    0.10    2.78
   3   1   0   -1.21    4.82
  -3  -1   0   -0.59    5.28
   3   1   0   -2.22    4.50
   3   1   0    1.75    2.19
  -3   1   0   -1.17    5.00
   3  -1   0    1.90    4.88
   3   1   0    1.04    1.34
  -4   1   0 3121.27  342.49
   4  -1   0 2675.68  304.14
   4   1   0 2642.64  231.90
  -4  -1   0 2526.80  228.00
   4  -1   0 2983.17  279.59
   4   1   0 2559.88  336.24
  -4  -1   0 3007.41  379.25
   4  -1   0 2884.94  265.83
  -4   1   0 2623.75  268.61
   4   1   0 2711.12  317.64
  -4  -1   0 2551.23  302.18
   4   1   0 2569.20  250.47
  -4  -1   0 2522.62  269.89
   4  -1   0 2915.79  353.49
  -4   1   0 2719.59  350.16
  -4  -1   0 2591.70  249.55
  -4   1   0 2933.85  313.98
   4  -1   0 2706.31  281.44
   4   1   0 2696.49  249.01
   5   1   0    4.43    2.46
   5  -1   0    6.21    6.16
   5   1   0   34.42   14.41
  -5  -1   0    1.56    8.18
  -5   1   0    9.68    4.73
   5   1   0    6.94    6.89
  -5  -1   0   -0.77    6.66
   5   1   0   13.30    4.54
   5  -1   0   32.66    8.88
  -5  -1   0    3.63    3.35
  -5   1   0   10.94    5.77
   5  -1   0   12.45    5.09
   5   1   0    5.82    3.32
   6   1   0 4034.54  644.36
  -6   1   0 6995.88 1064.09
   6  -1   0 6140.00  973.33
   6  -1   0 6668.92 1001.36
   6   1   0 6383.87 1179.95
   6  -1   0 5552.16  791.84
  -6  -1   0 6883.54 1110.18
  -6   1   0 5630.98  968.64
   6   1   0 7132.32 1127.65
  -6  -1   0 6375.74 1016.94
   6   1   0 6928.99 1009.21
  -6  -1   0 5368.05  866.88
  -6   1   0 6322.45 1065.84
   6  -1   0 7147.19 1180.59
  -6   1   0 6505.87 1006.62
  -6  -1   0 6403.67  921.28
   6  -1   0 6363.03  966.64
   6   1   0 6475.34  918.24
   7   1   0    2.48    2.00
   7  -1   0   14.90    5.95
   7  -1   0    5.74    4.00
   7   1   0   36.93   12.64
   7  -1   0    7.41    4.63
  -7  -1   0    9.91    7.48
   7   1   0    5.24    7.42
  -7   1   0   -1.17    4.44
  -7  -1   0   11.78    6.84
  -7   1   0   11.35    6.81
  -7  -1   0    7.08    3.49
  -7   1   0    5.55    5.98
   7  -1   0   11.92    5.55
   7   1   0    0.14    3.78
  -8   1   0 4439.92  694.62
   8   1   0 2413.20  464.31
   8  -1   0 4346.40  597.97
   8  -1   0 3788.98  634.01
   8   1   0 4126.67  710.86
   8  -1   0 3927.30  501.70
  -8  -1   0 4404.21  628.90
  -8   1   0 2700.55  583.63
   8   1   0 4645.18  661.66
  -8  -1   0 4125.43  612.41
  -8  -1   0 4002.86  661.73
  -8   1   0 4348.69  638.09
  -8  -1   0 3750.78  483.75
   8  -1   0 4400.29  648.33
  -8   1   0 4366.86  592.61
  -8  -1   0 3875.18  493.40
   8  -1   0 4341.05  581.97
   8   1   0 4139.87  521.67
   9  -1   0    2.63    5.76
   9   1   0    6.05    7.55
  -9  -1   0    5.95    6.86
   9   1   0   -1.89    7.65
  -9  -1   0    7.40    7.21
  -9  -1   0    1.40    9.10
  -9   1   0   -2.12    5.54
  -9  -1   0    7.00    3.46
   9  -1   0    0.02    6.51
  -9   1   0    3.46    5.72
  -9  -1   0    3.72    3.47
   9  -1   0    6.48    5.64
 -10   1   0 1002.67  100.53
  10  -1   0  918.49  103.57
  10  -1   0  636.98  100.77
  10   1   0  958.00  123.87
  10  -1   0  819.95   86.29
 -10  -1   0  937.72  113.06
  10   1   0 1027.79  128.96
 -10  -1   0  837.73  118.83
 -10   1   0  943.37  130.72
 -10  -1   0  592.38   91.72
 -10   1   0  719.80  105.37
 -10  -1   0  735.85   76.45
 -10   1   0  965.94  138.74
  10  -1   0  988.99  104.51
  10   1   0  847.49   83.00
 -11   1   0   10.41    4.49
  11  -1   0    0.18    5.30
  11  -1   0    1.13    5.37
  11   1   0   13.00    7.49
  11   1   0   -1.12    8.31
 -11   1   0    1.05    4.32
 -11  -1   0    6.45    7.42
 -11   1   0    3.41    6.74
 -11   1   0   -2.43    7.67
 -11  -1   0   -0.93    3.54
 -11   1   0    1.69    5.62
  11  -1   0    0.77    5.92
  11   1   0    3.28    4.28
 -12   1   0   49.10   11.75
  12  -1   0   50.71   15.17
  12  -1   0   32.28   14.28
  12  -1   0   37.44   11.24
 -12  -1   0   67.59   21.29
 -12   1   0   36.74   18.97
  12   1   0   63.27   12.49
  12  -1   0   58.72   15.25
  13  -1   0    6.44    5.58
  13   1   0    1.73    6.43
 -13   1   0   -2.11    7.88
  13  -1   0    5.87    6.72
  14  -1   0   28.31   12.28
  14   1   0   55.33   14.23
 -14  -1   0   60.28   21.42
 -14   1   0    4.32   17.87
  14  -1   0   44.25   14.93
  14   1   0   36.75   12.14
  15   1   0    0.00    6.96
 -15  -1   0   11.08   10.48
  15  -1   0    9.64    7.17
  15   1   0    3.29    6.04
  16   1   0   11.20    9.28
 -16  -1   0   22.22   14.82
  16   1   0   14.09    7.94
  16  -1   0    2.87   10.12
  17   1   0    9.32    6.70
 -17  -1   0   -2.62   11.80
  17   1   0    2.79    5.69
  17  -1   0    3.88    7.40
  18   1   0  228.85   31.22
 -18  -1   0  111.63   54.14
  18  -1   0  248.92   33.67
  18   1   0  127.81   29.99
 -19  -1   0    4.92    4.54
  19  -1   0    2.89    4.38
 -20  -1   0   34.39    8.75
  20  -1   0    1.02    9.87
  21   1   0    0.68    4.59
  21  -1   0    3.26    4.50
   0   1  -1   66.86    7.59
   0  -1   1   56.37    8.07
   0  -1  -1   64.72   10.69
   0   1   1   63.58    9.85
   0   1   1   58.51    8.71
   0   1  -1   62.29    6.19
   0  -1  -1   59.00   12.36
   0  -1   1   58.17    9.70
   0   1   1   66.98    7.77
   0  -1  -1   63.32    6.57
   0   1  -1   63.22   11.06
   0  -1   1   65.74   10.63
   0   1  -1   64.19   12.79
   0  -1   1   70.14   14.94
   0   1   1   71.51    8.37
   0  -1  -1   53.57   11.48
   0  -1   1   63.99    5.56
   0   1   1   60.90    2.52
   0  -1   1   60.22    5.16
   0  -1  -1   66.32    2.50
  -1   1  -1  164.63   17.25
  -1  -1   1  132.58    9.65
   1  -1  -1  162.37   18.78
   1   1   1  138.41   13.07
   1   1   1  134.94   19.05
   1  -1  -1  147.47   16.62
  -1  -1   1  136.55   14.39
   1   1   1  144.99   13.50
  -1  -1   1  157.15   18.69
   1  -1  -1  167.66    8.79
  -1  -1   1  135.02   20.61
  -1   1  -1  147.93   21.56
   1   1   1  145.55   12.89
   1  -1  -1  151.05   22.12
   1   1   1  141.26    4.59
   1  -1  -1  157.26    7.49
  -1  -1   1  150.20   12.28
   1   1   1  141.88    3.65
   1   1  -1  147.41   10.72
   1  -1   1  153.77   17.00
  -1  -1  -1  147.71   15.77
  -1   1   1  153.91   13.03
  -1  -1  -1  147.94   22.02
  -1   1   1  183.42   11.26
   1   1  -1  132.64   18.47
  -1  -1  -1  130.05   14.38
   1  -1   1  159.78   15.75
   1   1  -1  149.89   20.72
   1  -1   1  163.14   23.91
  -1   1   1  157.36   19.05
  -1  -1  -1  139.39   15.94
   1  -1   1  148.56   12.57
  -1   1   1  153.67    8.53
   1  -1   1  163.02   12.53
   1   1  -1  142.02    9.69
  -2   1  -1  540.92   46.64
   2   1   1  400.01   31.10
  -2  -1   1  401.95   19.56
   2  -1  -1  517.34   45.60
   2  -1  -1  530.89   40.21
   2   1   1  405.11   53.45
  -2  -1   1  372.49   40.42
   2   1   1  395.38   41.32
  -2  -1   1  384.00   41.04
   2  -1  -1  510.78   20.43
   2   1   1  413.65   26.86
  -2  -1   1  392.43   44.48
  -2   1  -1  522.90   55.33
   2  -1  -1  513.43   84.59
  -2   1  -1  531.75   36.18
   2   1   1  429.35   20.57
   2  -1  -1  509.80   27.41
  -2  -1   1  413.01   22.78
   2   1  -1  423.08   22.65
  -2   1   1  465.93   41.43
   2  -1   1  474.51   44.20
  -2  -1  -1  408.44   33.52
  -2   1   1  508.83   30.84
  -2  -1  -1  380.56   50.19
  -2  -1  -1  465.60   70.79
  -2   1   1  494.61   21.32
   2   1  -1  398.17   43.16
   2  -1   1  525.20   36.86
   2   1  -1  408.48   43.43
   2  -1   1  509.91   77.91
  -2  -1  -1  410.01   31.43
   2  -1   1  501.86   37.85
  -2   1   1  501.48   29.98
   2   1  -1  410.28   24.39
  -3   1  -1  606.07   63.34
   3  -1  -1  565.16   55.43
   3   1   1  562.84   41.00
   3  -1  -1  572.99   46.47
   3   1   1  580.35   77.13
  -3  -1   1  573.16   59.05
  -3   1  -1  673.89   55.68
   3   1   1  618.93   66.54
  -3  -1   1  572.30   57.01
   3   1   1  609.68   32.58
  -3  -1   1  567.59   57.96
  -3   1  -1  610.10   72.02
   3  -1  -1  675.32   84.28
  -3   1  -1  566.83   51.20
   3   1   1  540.10   32.25
  -3  -1   1  555.78   33.92
   3  -1  -1  567.26   39.72
   3   1  -1  610.30   25.89
  -3   1   1  589.86   57.07
   3  -1   1  534.11   58.13
  -3  -1  -1  628.23   46.88
  -3   1   1  571.15   41.03
  -3  -1  -1  531.75   66.97
   3  -1   1  561.27   23.62
  -3   1   1  563.91   29.36
  -3  -1  -1  642.33   70.03
   3   1  -1  694.23   70.08
   3   1  -1  591.60   53.80
  -3  -1  -1  612.66   40.26
  -3   1   1  545.76   74.78
   3  -1   1  575.08   62.35
  -3  -1  -1  581.41   35.87
   3  -1   1  572.77   56.04
  -3   1   1  606.42   64.78
   3   1  -1  606.64   36.81
  -4   1  -1   11.16    7.67
   4  -1  -1    8.53    5.14
   4   1   1   23.37    9.99
  -4  -1   1   16.12    7.88
  -4   1  -1    7.16    6.10
   4   1   1   14.55    8.93
  -4  -1   1   24.05    7.28
   4   1   1   21.25    4.83
  -4  -1   1   11.05    7.30
  -4   1  -1   17.85    8.41
   4  -1  -1    6.55   11.13
  -4   1  -1   12.60    6.24
   4   1   1    9.27    3.45
  -4  -1   1   12.89    3.44
   4  -1  -1    9.46    4.59
   4  -1   1   15.27    8.09
  -4  -1  -1   16.95    4.70
  -4   1   1    6.05    4.16
  -4  -1  -1   32.25   10.05
   4  -1   1   15.38    2.17
   4   1  -1   24.42    8.75
  -4  -1  -1   11.04    9.68
   4   1  -1   12.97    5.83
  -4  -1  -1   15.69    3.28
   4  -1   1    8.22    8.20
  -4  -1  -1   17.06    3.89
  -4   1   1    9.85    5.61
   4   1  -1   14.44    3.84
   5   1   1   57.86    8.74
  -5   1  -1   53.83   14.19
   5  -1  -1   60.82    9.86
   5   1   1   47.17   17.51
  -5  -1   1   50.10   14.92
  -5   1  -1   50.34   11.67
   5   1   1   57.02   16.72
  -5  -1   1   48.01   13.21
   5   1   1   51.59    5.31
  -5  -1   1   51.64   13.73
  -5   1  -1   76.20   14.51
   5  -1  -1   61.70   19.48
   5   1   1   51.28    7.35
  -5  -1   1   41.61    6.60
   5  -1  -1   58.76   14.99
  -5   1   1   69.89   12.55
   5  -1   1   51.29   14.07
   5  -1   1   64.34    5.25
  -5  -1  -1   54.43   17.72
   5  -1   1   46.35    5.19
  -5   1   1   48.86    5.67
   5   1  -1   54.19   14.88
  -5  -1  -1   67.67   18.52
   5   1  -1   57.55   12.80
  -5  -1  -1   49.43    5.42
  -5   1   1   53.35   18.91
   5  -1   1   68.98   13.78
  -5  -1  -1   46.18    7.41
  -5   1   1   62.71   11.26
   5   1  -1   53.69    7.59
   6   1   1   59.66    8.86
  -6   1  -1   83.08   19.02
   6  -1  -1   61.17   19.35
   6  -1  -1   62.18   12.42
   6   1   1   71.28   19.23
   6  -1  -1   50.38    8.63
  -6  -1   1   67.63   16.71
  -6   1  -1   54.57   13.58
   6   1   1   49.58   18.75
  -6  -1   1   62.94   14.83
  -6  -1   1   41.14   23.45
  -6   1  -1   53.84   15.08
   6  -1  -1   60.46   20.17
  -6   1  -1   55.39   13.66
  -6  -1   1   62.53    8.52
   6   1   1   62.24    8.63
   6  -1  -1   44.76   17.72
  -6   1   1   73.75   12.29
   6  -1   1   57.58   15.25
   6  -1   1   47.34    6.62
   6  -1   1   49.67    5.86
   6   1  -1   61.69   18.49
  -6  -1  -1   73.33   19.36
   6   1  -1   65.24   14.42
  -6  -1  -1   64.32   20.19
   6   1  -1   64.88   12.68
  -6  -1  -1   58.02    6.16
  -6   1   1   54.57   18.95
   6  -1   1   91.29   16.12
  -6  -1  -1   47.77    5.40
  -6  -1  -1   55.50    8.11
  -6   1   1   56.13   12.56
   6  -1   1   47.01   13.08
   6   1  -1   60.31    8.70
  -7   1  -1 1040.13  114.64
   7   1   1  914.41   76.97
   7  -1  -1  817.00  112.17
   7  -1  -1  812.78   83.69
   7   1   1  830.18  108.25
   7  -1  -1  780.51   69.57
  -7  -1   1  893.62  104.69
   7   1   1  905.90  116.31
  -7   1  -1  788.58   91.98
  -7  -1   1  845.14   96.11
  -7   1  -1  762.49   95.83
   7  -1  -1  884.48  115.41
  -7   1  -1  836.64   88.75
  -7  -1   1  815.27   69.24
   7   1   1  803.21   69.78
  -7   1   1  938.87   84.52
   7  -1   1  819.75   94.93
   7  -1   1  773.32   74.56
   7   1  -1  855.10  112.91
   7  -1   1  743.95   56.64
  -7  -1  -1  806.18   99.84
  -7  -1  -1  921.96  123.28
   7   1  -1  849.62  125.68
   7   1  -1  877.12   87.43
  -7  -1  -1  755.63   61.00
  -7   1   1  886.28  114.45
   7  -1   1  952.92  105.29
  -7  -1  -1  725.74   64.52
  -7   1   1  884.59   87.40
   7  -1   1  845.37   86.47
   7   1  -1  824.55   69.66
  -8   1  -1   54.08   17.62
   8   1   1   74.56    8.05
   8  -1  -1   52.68   18.76
   8  -1  -1   43.03   13.37
   8   1   1   84.42   18.54
   8  -1  -1   48.40    9.26
  -8  -1   1   98.96   18.51
  -8   1  -1   37.27   13.58
   8   1   1   75.43   20.55
  -8  -1   1   85.77   16.60
  -8  -1   1   27.89   15.65
  -8   1  -1   30.31   13.02
  -8   1  -1   47.71   14.44
   8   1   1   76.62   10.24
   8  -1  -1   55.27   12.71
  -8   1   1   62.82   12.52
   8  -1   1   50.18   17.29
   8   1  -1   87.48   21.77
   8  -1   1   50.13    8.07
  -8  -1  -1   98.56   18.74
   8   1  -1  103.72   18.17
  -8  -1  -1  106.74   24.48
  -8  -1  -1   75.98    8.47
  -8   1   1   36.33   19.07
   8  -1   1   57.08   16.42
  -8  -1  -1   72.99    9.69
  -8   1   1   58.43   15.37
   8  -1   1   64.54   15.84
   8   1  -1   82.97   11.24
  -9   1  -1    5.27    8.22
   9   1   1    9.78    3.72
   9  -1  -1    9.69    6.05
   9  -1  -1    3.47    7.94
   9   1   1   11.99    9.15
   9  -1  -1   11.14    4.84
  -9  -1   1    2.74    9.44
   9   1   1   11.59   10.86
  -9   1  -1   11.98    7.04
  -9  -1   1    0.50    8.47
  -9  -1   1    8.82    8.23
  -9   1  -1   15.27    6.19
  -9  -1   1    2.54    5.49
  -9   1  -1    7.65    7.37
  -9  -1   1   13.73    4.81
   9   1   1   11.63    5.46
   9  -1  -1   15.60    6.78
  -9   1   1    9.20    5.11
   9  -1   1    8.56    7.26
   9   1  -1    6.37    9.60
   9  -1   1    2.32    3.39
  -9  -1  -1   17.56    7.53
   9   1  -1    8.19    8.09
  -9  -1  -1   15.71   10.95
  -9   1   1    8.50    9.28
  -9  -1  -1    7.96    3.45
  -9   1   1    6.21    7.90
  -9  -1  -1    1.41    4.46
   9  -1   1   16.30    6.75
  -9  -1  -1    7.36    3.92
  -9   1   1   13.21    6.57
   9  -1   1    2.31    6.79
   9   1  -1   10.62    4.95
 -10   1  -1  152.81   23.94
  10  -1  -1  140.73   20.36
  10  -1  -1  111.42   27.28
  10   1   1  140.99   29.91
  10  -1  -1  116.51   19.85
  10   1   1  189.26   36.62
 -10   1  -1  116.90   33.76
 -10  -1   1  141.45   29.29
 -10  -1   1  148.03   33.36
 -10   1  -1   75.75   21.05
 -10  -1   1  119.07   20.46
 -10   1  -1  161.10   24.64
 -10  -1   1  129.34   17.57
  10   1   1  151.38   19.43
  10  -1  -1  148.27   24.33
 -10   1   1  155.24   21.49
  10  -1   1  142.29   26.24
  10  -1   1   79.76   21.38
  10   1  -1  159.34   35.54
 -10  -1  -1  155.75   27.36
  10   1  -1  184.55   29.33
 -10  -1  -1  161.78   61.27
 -10   1   1  136.49   34.68
 -10   1   1  115.55   27.54
  10  -1   1  115.11   24.36
 -10  -1  -1  116.35   16.21
 -10   1   1  142.17   24.58
  10  -1   1  160.01   25.23
  10   1  -1  141.97   19.66
 -11   1  -1  377.22   43.23
  11  -1  -1  316.69   40.34
  11  -1  -1  232.09   53.49
  11   1   1  424.98   59.62
  11  -1  -1  313.57   41.69
  11   1   1  458.13  100.03
 -11   1  -1  201.49   45.32
 -11  -1   1  400.57   57.34
 -11  -1   1  270.62   76.61
 -11  -1   1  241.86   40.92
 -11   1  -1  393.35   49.38
 -11  -1   1  336.54   37.34
  11  -1  -1  357.83   45.55
 -11   1   1  358.38   41.95
  11  -1   1  365.30   51.76
  11   1  -1  362.50   51.52
  11   1  -1  421.21   68.56
 -11  -1  -1  400.77   54.25
  11   1  -1  434.52   61.93
 -11  -1  -1  353.91   67.01
 -11   1   1  310.64   68.11
 -11   1   1  301.07   55.23
 -11  -1  -1  289.30   36.26
 -11   1   1  393.64   52.22
  11  -1   1  388.11   51.66
  11   1  -1  343.28   40.77
  12  -1  -1  186.57   25.09
  12  -1  -1  144.43   33.25
  12  -1  -1  148.11   25.52
 -12   1  -1   91.74   29.37
 -12  -1   1  235.44   38.10
 -12   1  -1   61.74   31.77
 -12  -1   1  113.46   29.07
 -12  -1   1   75.79   24.24
  12   1   1  210.40   22.92
  12  -1  -1  217.74   30.35
 -12   1   1  203.06   27.87
  12  -1   1  214.63   39.03
  12   1  -1  217.33   39.19
 -12  -1  -1  250.70   40.17
 -12  -1  -1  225.94   51.02
 -12   1   1  190.41   50.72
  12  -1   1  236.27   40.03
  12   1  -1  224.10   31.12
  13  -1  -1   85.07   21.58
  13  -1  -1   74.98   26.89
 -13  -1   1  159.51   34.18
  13  -1  -1  132.67   26.46
  13   1   1  123.97   19.70
  13  -1   1  120.44   27.93
  13   1  -1  143.90   29.80
 -13  -1  -1  166.57   30.42
 -13  -1  -1  141.72   40.92
 -13   1   1   48.07   36.72
  13  -1   1  139.98   30.01
  13   1  -1  132.26   23.34
  14   1   1   28.97   10.59
  14  -1  -1    6.35   12.14
 -14  -1   1   29.07   16.41
  14   1   1   22.23    9.11
  14  -1  -1   25.81   12.77
  14  -1   1   20.04    9.92
  14   1  -1   16.82   10.65
 -14  -1  -1   21.55   15.44
 -14   1   1    5.97   14.27
  14   1  -1    8.69    8.53
  14  -1   1   11.35    9.92
  15   1   1   10.83    8.33
 -15  -1   1    0.46   13.73
  15   1   1   12.72    7.50
  15  -1  -1   14.40   10.19
  15  -1   1    1.90    6.64
  15   1  -1    4.33    8.59
 -15  -1  -1   11.28   12.72
  15   1  -1   13.42    7.03
  15  -1   1    4.06    7.78
  16   1   1    8.26    6.84
  16   1   1    4.20    5.90
  16  -1  -1    6.22    8.09
  16   1  -1    2.40    7.25
 -16  -1  -1    7.97   11.29
 -16   1   1   13.03   10.07
  16  -1   1   -0.13    6.86
  16   1  -1   -2.83    9.46
  17   1   1   35.23   10.24
 -17  -1   1   13.34   12.36
  17   1   1   20.80    8.76
  17  -1  -1   12.05   11.92
  17   1  -1   33.73   11.58
 -17  -1  -1   19.91   19.48
 -17   1   1   -2.26   17.27
  17  -1   1   17.69   11.38
  17   1  -1   27.92   11.45
  18   1   1    5.72    6.08
  18  -1  -1   12.50    7.48
  18   1   1    1.99    5.20
 -18  -1  -1    4.31    9.89
  18   1  -1   -0.53    5.28
  19   1   1    7.71    5.72
  19  -1  -1   19.20    8.51
  19   1   1    3.77    5.98
  19   1  -1   31.17   12.31
 -19  -1  -1   17.72   22.21
  19  -1   1    6.92    7.84
  19   1  -1   11.43    7.16
  20   1   1   63.15   18.22
  20  -1  -1   60.70   15.80
  20   1  -1   68.29   17.15
  20  -1   1   41.56   10.84
  20   1  -1   32.31    8.81
  21  -1  -1   43.43   10.78
  21   1  -1   47.75   13.74
  21  -1   1   49.51   11.41
   0   1  -2   24.21    8.54
   0  -1   2   21.45    6.45
   0   1   2   16.26    7.95
   0  -1  -2   25.84    7.25
   0   1  -2   20.29    2.36
   0   1   2   27.91   14.32
   0  -1  -2   26.55    8.45
   0   1   2   20.01    4.68
   0  -1  -2   19.98    7.01
   0   1  -2   25.38    7.65
   0  -1   2   22.00    6.99
   0   1  -2   34.44    9.36
   0  -1   2   38.18   14.91
   0  -1  -2   33.60    7.45
   0   1   2   18.44    3.28
   0  -1   2   26.07    5.41
   0   1  -2   21.23    5.87
   0  -1  -2   19.53    3.69
  -1   1  -2 4128.73  540.27
  -1  -1   2 3951.27  443.73
   1   1   2 3788.36  460.39
   1  -1  -2 4029.46  492.78
  -1   1  -2 3318.97  290.98
   1   1   2 3677.68  465.44
   1  -1  -2 3768.88  470.59
  -1   1  -2 3702.18  324.14
   1   1   2 3604.55  432.80
   1  -1  -2 3714.91  354.20
  -1  -1   2 4068.95  485.58
  -1   1  -2 3776.26  462.89
  -1  -1   2 3624.63  463.36
  -1   1  -2 3901.06  499.08
   1   1   2 3887.42  418.38
   1  -1  -2 3673.42  492.47
   1   1   2 4158.56  421.37
   1  -1  -2 3734.89  392.53
   1   1   2 3932.30  397.83
  -1  -1   2 4019.72  434.54
   1   1  -2 3709.43  429.61
   1  -1   2 3571.96  452.11
  -1   1   2 3699.89  457.27
  -1  -1  -2 3808.92  459.45
   1   1  -2 3740.18  395.42
  -1   1   2 3731.45  446.12
  -1  -1  -2 3891.27  508.02
  -1   1   2 3437.27  378.97
  -1  -1  -2 3901.82  457.53
   1   1  -2 3826.70  471.87
   1  -1   2 3799.61  450.12
   1   1  -2 3992.95  502.69
   1  -1   2 4014.01  514.76
  -1  -1  -2 4075.48  463.13
   1  -1   2 3718.54  423.86
  -1   1   2 3730.78  392.64
   1  -1   2 4045.83  464.15
   1   1  -2 4015.81  450.98
  -2   1  -2 2563.11  298.05
  -2  -1   2 2151.74  165.13
   2   1   2 2151.88  213.67
   2  -1  -2 2296.95  243.12
   2   1   2 2262.84  259.15
   2  -1  -2 2347.33  250.52
   2   1   2 2238.43  247.97
  -2  -1   2 2381.20  246.08
   2   1   2 2296.75  181.10
  -2   1  -2 2191.61  248.59
  -2  -1   2 2174.92  247.19
   2  -1  -2 2184.94  273.49
   2   1   2 2174.64  183.71
  -2  -1   2 2295.14  201.64
   2  -1  -2 2250.34  198.61
   2  -1   2 2151.00  249.78
  -2   1   2 2166.83  225.40
  -2  -1  -2 2169.32  216.88
  -2   1   2 2246.37  220.51
  -2  -1  -2 2177.29  254.63
  -2  -1  -2 2219.78  242.46
   2   1  -2 2136.59  227.22
   2  -1   2 2253.82  222.96
   2   1  -2 2279.99  247.45
   2  -1   2 2236.72  241.11
  -2  -1  -2 2456.59  203.25
   2  -1   2 2085.04  205.99
  -2   1   2 2183.05  190.02
   2   1  -2 2165.24  224.06
   2  -1   2 2168.79  219.67
  -3   1  -2 1601.57  179.94
   3  -1  -2 1323.42  164.09
   3   1   2 1329.49  154.77
  -3  -1   2 1335.73  126.28
  -3   1  -2 1558.49  151.90
   3   1   2 1370.44  157.76
  -3  -1   2 1402.08  137.05
   3   1   2 1425.88   80.84
  -3  -1   2 1330.11  146.68
  -3   1  -2 1349.46  141.56
   3  -1  -2 1350.15  170.04
   3   1   2 1335.37  104.05
   3  -1  -2 1382.40  110.64
  -3  -1   2 1348.73  105.75
   3  -1   2 1394.93  155.83
  -3  -1  -2 1435.08  129.15
  -3   1   2 1370.93  114.62
  -3  -1  -2 1303.00  143.48
  -3  -1  -2 1304.91  148.67
   3   1  -2 1352.48  128.24
   3   1  -2 1351.40  131.85
   3  -1   2 1379.78  164.09
  -3  -1  -2 1105.55   67.56
  -3   1   2 1351.99  104.51
   3   1  -2 1326.71  104.16
   3  -1   2 1290.60  123.90
  -4   1  -2 2144.98  259.15
   4  -1  -2 1885.10  195.61
   4   1   2 2034.63  254.03
  -4  -1   2 2002.43  208.75
  -4   1  -2 1910.03  211.52
   4   1   2 1986.01  245.68
  -4  -1   2 1825.55  219.01
  -4   1  -2 1944.60  219.97
   4  -1  -2 1861.83  248.49
   4   1   2 1993.51  178.77
  -4  -1   2 1907.51  167.16
   4  -1  -2 1876.20  174.26
   4  -1   2 1960.20  242.26
  -4   1   2 1955.84  197.87
  -4  -1  -2 1930.49  193.85
  -4   1   2 1936.08  183.34
  -4  -1  -2 1846.60  221.67
   4   1  -2 2584.02  321.34
  -4  -1  -2 1910.48  247.34
   4   1  -2 1825.73  245.92
  -4   1   2 1675.29  251.67
   4  -1   2 1962.33  205.07
  -4   1   2 1850.73  173.80
   4   1  -2 1947.05  175.90
  -5   1  -2  578.51   68.79
   5  -1  -2  506.28   46.43
   5  -1  -2  513.58   50.00
   5   1   2  430.88   66.74
  -5  -1   2  427.20   51.09
  -5   1  -2  451.94   53.82
   5   1   2  472.47   68.05
  -5  -1   2  420.10   48.91
  -5  -1   2  366.12   56.57
  -5   1  -2  499.17   53.90
   5  -1  -2  470.73   69.40
  -5   1  -2  533.85   52.47
   5   1   2  437.38   36.48
  -5  -1   2  391.67   31.67
   5  -1  -2  491.16   39.74
   5  -1   2  476.65   64.94
  -5   1   2  506.63   44.00
  -5  -1  -2  375.06   37.63
  -5   1   2  502.48   39.21
   5  -1   2  416.18   16.96
  -5  -1  -2  382.36   55.32
   5   1  -2  468.66   54.69
  -5  -1  -2  379.80   68.07
   5   1  -2  449.31   55.01
   5  -1   2  528.91   48.62
  -5   1   2  519.78   75.48
  -5  -1  -2  414.83   35.65
   5  -1   2  507.85   50.47
  -5   1   2  500.98   39.69
   5   1  -2  413.20   35.43
  -6   1  -2  266.08   48.98
   6   1   2  385.51   34.10
   6  -1  -2  307.35   40.11
   6   1   2  386.34   52.51
   6  -1  -2  273.98   31.34
  -6   1  -2  261.13   40.55
   6   1   2  346.78   54.62
  -6  -1   2  407.10   40.76
  -6  -1   2  235.48   45.15
  -6   1  -2  239.63   37.68
  -6   1  -2  266.19   38.65
  -6  -1   2  371.57   25.84
   6  -1  -2  271.92   29.98
   6  -1   2  315.22   54.39
  -6   1   2  315.28   36.12
  -6  -1  -2  380.27   52.55
  -6  -1  -2  406.91   65.52
   6   1  -2  435.99   47.03
   6   1  -2  405.40   47.23
  -6   1   2  294.02   63.23
   6  -1   2  294.20   36.92
  -6  -1  -2  361.25   31.03
   6  -1   2  320.61   42.34
   6   1  -2  365.38   45.67
  -7   1  -2    5.72    9.96
   7   1   2   19.42    6.28
   7  -1  -2    7.54    8.09
   7   1   2   22.69   11.26
   7  -1  -2    6.12    5.63
   7   1   2   18.48   12.21
  -7   1  -2    2.62    9.05
  -7  -1   2   16.30    8.42
  -7   1  -2   12.38    6.97
  -7   1  -2   22.70    8.28
  -7  -1   2   22.37    4.77
   7   1   2   17.30    5.38
   7  -1  -2    9.18    6.45
   7  -1   2   29.62    9.85
  -7   1   2   10.77    5.64
   7   1  -2    9.45    7.33
   7  -1   2    6.75    2.85
   7  -1   2    9.65    2.58
  -7  -1  -2   14.06    9.55
  -7  -1  -2    3.78   12.56
   7   1  -2    7.04    7.45
   7   1  -2   14.69    8.30
  -7   1   2   16.04   11.77
  -7   1   2    7.14   11.13
   7  -1   2   17.36    7.36
  -7  -1  -2   22.55    4.54
  -7   1   2   13.01    6.59
   7   1  -2   11.73    5.11
  -8   1  -2  149.21   23.77
   8   1   2  107.90   15.69
   8  -1  -2  116.36   16.27
   8  -1  -2  103.84   19.40
   8   1   2   94.77   25.32
   8  -1  -2  107.21   14.99
   8   1   2  136.53   30.63
  -8   1  -2   87.84   22.57
  -8  -1   2  102.24   20.99
  -8  -1   2   29.78   28.79
  -8   1  -2   83.07   17.54
   8   1   2   98.66   13.89
  -8  -1   2   88.77   18.98
   8  -1  -2  119.25   17.15
  -8   1   2  130.12   14.95
   8  -1   2  101.27   22.73
   8   1  -2  105.04   20.55
   8  -1   2   86.11    9.00
   8   1  -2  134.18   30.23
  -8  -1  -2  100.64   38.12
   8   1  -2  106.73   19.82
  -8  -1  -2  110.11   32.57
   8   1  -2  113.50   22.06
  -8   1   2  115.06   31.08
  -8   1   2  136.98   28.01
   8  -1   2  104.32   19.18
  -8   1   2  123.07   18.64
   8  -1   2  112.43   19.56
   8   1  -2   92.67   14.43
  -9   1  -2  485.08   63.02
   9   1   2  470.86   44.48
   9  -1  -2  472.28   49.00
   9  -1  -2  398.99   59.72
   9   1   2  556.97   72.65
   9  -1  -2  416.12   46.96
  -9   1  -2  340.43   64.53
  -9  -1   2  589.69   64.89
  -9  -1   2  328.82   86.37
  -9  -1   2  495.55   56.96
  -9   1  -2  518.60   61.15
  -9  -1   2  502.93   45.37
   9   1   2  482.13   45.21
   9  -1  -2  457.79   51.74
  -9   1   2  510.38   47.83
   9  -1   2  475.76   64.88
   9   1  -2  522.63   64.24
   9   1  -2  597.66   88.58
  -9  -1  -2  526.60   64.02
   9   1  -2  588.98   63.35
  -9  -1  -2  579.45   93.46
  -9   1   2  486.59   92.02
  -9   1   2  455.41   78.80
   9  -1   2  430.89   60.02
  -9  -1  -2  457.13   46.68
  -9   1   2  475.60   57.35
   9  -1   2  486.37   58.87
   9   1  -2  475.69   47.58
 -10   1  -2  966.74  107.94
  10   1   2  624.11   75.98
  10  -1  -2  838.12   87.24
  10  -1  -2  850.52  121.21
  10   1   2  932.87  118.45
  10  -1  -2  723.13   81.88
  10   1   2 1011.05  140.56
 -10   1  -2  855.30  120.38
 -10  -1   2  912.73  114.05
 -10  -1   2  672.22  141.92
 -10  -1   2  756.03   95.76
 -10   1  -2  994.41  108.87
 -10  -1   2  770.75   79.24
  10   1   2  810.28   80.20
  10  -1  -2  869.15   95.20
 -10   1   2  900.42   85.56
  10  -1   2  839.97  106.46
  10   1  -2  884.86  109.60
  10   1  -2 1019.76  144.02
 -10  -1  -2  818.60  101.10
  10   1  -2  916.70  107.48
 -10  -1  -2  881.72  149.67
 -10   1   2 1001.96  154.88
 -10   1   2  984.81  133.61
  10  -1   2  735.26  100.37
 -10  -1  -2  663.44   75.88
 -10   1   2  927.38  102.94
  10  -1   2  869.04   99.29
  10   1  -2  792.14   83.46
 -11   1  -2  681.28   81.80
  11  -1  -2  545.54   68.13
  11  -1  -2  603.23  100.74
  11  -1  -2  589.88   78.24
 -11   1  -2  398.82  114.72
 -11  -1   2  777.04   99.27
 -11  -1   2  673.75  118.84
 -11  -1   2  630.71   83.29
 -11  -1   2  646.63   67.12
  11   1   2  641.27   67.46
  11  -1  -2  599.03   76.53
 -11   1   2  551.72   66.85
  11  -1   2  632.73   86.33
  11   1  -2  673.71   89.59
 -11  -1  -2  724.94   84.09
  11   1  -2  757.01   92.12
 -11  -1  -2  846.05  132.17
 -11   1   2  596.51  123.16
 -11  -1  -2  570.71   64.12
  11  -1   2  615.46   78.89
  11   1  -2  616.56   69.59
  12  -1  -2  247.51   36.23
  12  -1  -2  230.75   54.77
 -12   1  -2  145.57   48.94
 -12  -1   2  367.65   58.51
 -12  -1   2  323.27   91.65
  12   1   2  342.40   38.53
  12  -1  -2  330.89   44.00
  12  -1   2  311.56   51.90
  12   1  -2  327.33   54.99
 -12  -1  -2  341.74   49.38
 -12  -1  -2  372.66   80.89
 -12   1   2  254.89   74.46
  12  -1   2  320.43   48.75
  12   1  -2  317.91   42.74
  13  -1  -2  502.57  106.46
 -13   1  -2  312.38   97.09
 -13  -1   2  901.99  120.22
 -13  -1   2  612.17  116.54
  13  -1  -2  798.01   91.39
  13  -1   2  767.32  114.59
  13   1  -2  849.70  119.34
 -13  -1  -2  846.62  105.91
 -13  -1  -2  895.30  154.20
 -13   1   2  614.07  160.07
  13  -1   2  823.93  107.96
  13   1  -2  730.92   92.13
  14  -1  -2   28.48   15.64
 -14   1  -2   16.79   14.98
 -14  -1   2   26.77   20.71
 -14  -1   2   21.93   15.62
  14   1   2   31.86    9.60
  14  -1  -2   32.26   13.77
  14  -1   2   34.48   14.16
  14   1  -2   15.45   15.52
 -14  -1  -2   56.18   13.69
 -14  -1  -2   37.19   20.85
 -14   1   2   25.77   21.10
  14  -1   2   26.86   14.72
  14   1  -2   10.26   13.15
  15   1   2  474.48   55.97
  15  -1  -2  257.46   74.86
 -15  -1   2  328.67   68.96
  15   1   2  450.86   52.15
  15  -1  -2  519.42   68.60
  15  -1   2  386.39   77.19
  15   1  -2  514.90   77.90
 -15  -1  -2  583.01  117.37
 -15   1   2  370.02  108.71
  15  -1   2  487.61   91.24
  15   1  -2  557.82   73.01
  16   1   2  343.46   40.34
  16  -1  -2  133.62   53.22
 -16  -1   2  169.83   47.53
  16  -1  -2  340.80   49.77
  16   1   2  288.77   35.85
  16  -1   2  144.72   61.95
  16   1  -2  359.36   54.12
 -16  -1  -2  404.79   85.07
 -16   1   2  208.31   80.64
  16  -1   2  320.99   47.01
  16   1  -2  367.41   52.23
  17   1   2   71.97   15.82
  17   1   2   59.40   13.80
  17  -1  -2   78.20   31.06
  17   1  -2   72.85   21.34
 -17  -1  -2   73.06   34.77
 -17   1   2   57.94   34.82
  17  -1   2   86.48   19.59
  17   1  -2   87.71   20.90
  18   1   2  175.27   25.08
  18   1   2  129.66   21.94
  18  -1  -2  252.21   37.98
  18   1  -2  301.79   57.21
 -18  -1  -2  192.49   63.30
  18  -1   2  213.68   33.49
  18   1  -2  209.26   35.01
  19   1   2   -0.27    4.05
  19   1   2    7.69    5.49
  19  -1  -2    1.74    6.81
 -19  -1  -2    1.15   11.99
  19  -1   2    5.57    5.72
  19   1  -2    6.41    5.91
  20   1   2   16.10    7.56
  20   1   2    5.49    4.05
  20  -1  -2   30.48    8.15
  20  -1   2   11.90    5.86
  20   1  -2    6.37    5.03
  21  -1  -2    2.50    4.45
  21   1  -2   12.40    7.55
  21  -1   2    6.10    7.25
   0  -1   3   77.11   14.60
   0   1   3   79.90   15.11
   0  -1  -3   76.83   14.17
   0  -1   3   56.43   11.92
   0   1   3   81.89   14.64
   0   1  -3   72.23    5.39
   0  -1  -3   72.91   16.10
   0   1   3   81.43    7.88
   0  -1  -3   83.59    8.57
   0   1  -3   83.16   14.80
   0  -1   3   81.73   13.05
   0   1   3   83.44   11.01
   0   1  -3  101.73   17.49
   0  -1   3   77.87   15.06
   0   1   3   82.74    8.05
   0  -1   3   81.20   11.59
   0  -1  -3   84.38    9.19
   0   1  -3   67.03   12.44
  -1   1  -3  669.82   68.71
  -1  -1   3  544.83   43.64
   1   1   3  558.69   57.21
   1  -1  -3  560.70   54.06
  -1  -1   3  483.85   40.33
  -1   1  -3  545.99   26.05
   1  -1  -3  587.07   61.22
   1   1   3  555.56   61.14
   1   1   3  536.23   49.45
   1  -1  -3  601.59   29.48
  -1   1  -3  608.61   58.85
  -1  -1   3  541.03   50.54
   1   1   3  502.49   35.72
  -1  -1   3  524.33   59.78
  -1   1  -3  622.70   64.83
  -1  -1   3  548.94   44.64
   1  -1  -3  606.28   58.11
   1  -1   3  580.24   69.87
  -1   1   3  599.79   56.46
  -1  -1  -3  512.63   52.39
   1   1  -3  505.49   42.13
  -1   1   3  590.21   54.45
  -1  -1  -3  539.32   62.76
  -1  -1  -3  500.48   48.93
   1   1  -3  532.70   53.64
   1  -1   3  586.63   51.26
  -1   1   3  548.73   56.74
   1   1  -3  573.22   62.96
   1  -1   3  588.24   56.78
   1  -1   3  590.03   48.94
  -1   1   3  585.21   39.29
   1  -1   3  568.26   65.94
   1   1  -3  535.80   48.96
  -1  -1  -3  473.04   36.07
  -2   1  -3  300.85   40.04
  -2  -1   3  246.46   16.99
   2  -1  -3  265.79   28.83
   2   1   3  228.80   33.43
   2  -1  -3  303.22   33.60
   2   1   3  206.45   31.53
  -2   1  -3  276.75   33.21
  -2   1  -3  292.24   33.23
  -2  -1   3  229.92   34.04
   2   1   3  221.30   18.06
  -2  -1   3  229.66   22.00
   2  -1  -3  261.27   19.96
   2  -1   3  253.03   45.02
  -2   1   3  269.81   29.15
  -2  -1  -3  255.66   31.62
   2   1  -3  214.58   18.15
  -2   1   3  277.13   29.03
  -2  -1  -3  221.71   36.40
  -2  -1  -3  179.28   32.58
   2   1  -3  226.26   28.85
   2  -1   3  274.48   27.47
  -2   1   3  263.28   35.95
   2   1  -3  237.62   34.54
   2  -1   3  291.84   30.67
   2  -1   3  269.54   25.78
  -2   1   3  267.41   20.18
   2  -1   3  275.35   29.68
   2   1  -3  217.27   25.45
  -3   1  -3 1073.57  140.19
  -3  -1   3 1180.03   69.59
  -3  -1   3 1184.52   65.90
   3  -1  -3 1139.21  113.75
   3   1   3 1335.09  142.93
   3  -1  -3 1149.85  127.30
  -3   1  -3 1188.19  129.61
   3   1   3 1130.71  135.63
  -3  -1   3 1343.27  119.99
  -3   1  -3 1163.53  167.26
  -3   1  -3 1138.85  120.44
  -3  -1   3 1224.63  136.27
   3   1   3 1196.98   92.80
  -3  -1   3 1272.75  101.50
   3  -1  -3 1064.80   92.87
   3  -1   3 1093.64  150.69
  -3   1   3 1056.54  102.38
  -3  -1  -3 1269.65  121.73
   3   1  -3 1198.14   95.84
  -3   1   3 1048.29   99.10
  -3  -1  -3 1245.37  131.70
  -3  -1  -3 1046.46  133.12
   3   1  -3 1243.52  113.23
  -3   1   3 1013.97  131.83
   3   1  -3 1224.09  124.00
   3  -1   3 1075.94  103.91
   3  -1   3  991.32   97.38
  -3   1   3 1057.63   88.05
   3   1  -3 1198.17   97.95
   3  -1   3 1050.11  109.14
  -4   1  -3   82.86   24.77
   4  -1  -3  103.63   16.69
   4  -1  -3   79.10   18.30
   4   1   3  109.35   23.72
   4   1   3  104.34   23.71
  -4   1  -3   98.82   20.72
  -4  -1   3  136.51   16.76
  -4  -1   3  110.49   23.23
  -4   1  -3   96.67   16.36
   4   1   3  110.73   11.87
  -4  -1   3  112.07   12.06
   4  -1  -3   89.11   13.16
   4  -1   3   91.29   28.08
  -4   1   3   96.14   15.04
  -4  -1  -3  109.05   17.60
   4   1  -3  113.34   13.47
  -4   1   3   93.23   15.50
  -4  -1  -3  110.47   21.63
  -4  -1  -3  108.08   26.65
   4   1  -3  121.61   16.86
   4   1  -3  154.00   24.62
  -4   1   3   93.88   25.67
   4  -1   3   97.64   15.07
  -4   1   3   89.11   12.72
   4   1  -3  108.63   13.14
   4  -1   3   77.58   18.94
  -5   1  -3   42.87   14.24
   5  -1  -3   22.19   10.89
  -5   1  -3   37.86   12.06
   5   1   3   41.88   13.85
  -5  -1   3   39.68    9.15
  -5  -1   3   27.60   13.18
  -5   1  -3   15.64    8.33
   5   1   3   25.01    7.00
  -5  -1   3   35.08    6.46
   5  -1  -3   20.72   12.20
   5  -1   3   17.31   15.09
  -5   1   3   30.21    7.86
  -5  -1  -3   28.35    8.69
   5   1  -3   25.98    8.03
  -5   1   3   23.20    8.19
  -5  -1  -3   16.93   11.97
   5   1  -3   50.52   11.10
  -5  -1  -3   11.65   15.56
   5   1  -3   16.93   13.05
  -5   1   3   26.63   14.68
   5  -1   3   23.81    7.93
   5  -1   3   45.56   10.03
  -5   1   3   28.87    7.19
   5   1  -3   31.55    7.15
   5  -1   3   16.34   11.10
  -6   1  -3   33.08   12.52
   6   1   3   26.05    9.08
   6  -1  -3   21.25   10.42
   6   1   3   24.69   13.02
  -6   1  -3   21.18   11.15
  -6  -1   3   15.06   20.77
  -6   1  -3   15.34    6.92
   6   1   3   18.44    6.35
  -6  -1   3   23.64    5.76
   6  -1  -3   30.04    6.85
   6  -1   3   15.80   13.54
  -6   1   3   24.04    6.82
   6   1  -3   26.77    8.53
  -6   1   3   21.88    7.29
  -6  -1  -3   26.36   11.18
   6   1  -3   27.98    9.87
  -6  -1  -3   13.91   15.60
   6   1  -3   33.05   12.43
  -6   1   3   26.87   15.04
  -6   1   3   40.49   16.29
   6  -1   3   28.16    7.38
  -6   1   3   23.61    7.54
   6   1  -3   25.71    7.22
   6  -1   3   21.29   10.97
  -7   1  -3   60.98   19.62
   7   1   3   78.94   13.89
   7  -1  -3   55.03   12.03
   7  -1  -3   67.49   17.13
   7   1   3   88.36   19.19
   7  -1  -3   56.45   13.74
   7   1   3   71.27   22.00
  -7   1  -3   59.35   19.59
  -7  -1   3   73.54   13.19
  -7  -1   3   42.94   24.24
   7   1   3   66.71   11.26
  -7  -1   3   66.36    9.49
   7  -1  -3   59.83   12.15
   7  -1   3   59.60   20.44
  -7   1   3   42.20   16.98
   7   1  -3   65.16   14.94
  -7  -1  -3   66.59   17.93
   7   1  -3   84.98   14.78
  -7  -1  -3   84.61   25.98
  -7   1   3   68.00   24.29
   7   1  -3   67.30   19.38
  -7   1   3   50.22   23.70
   7  -1   3   75.22   20.19
   7  -1   3   58.56   15.88
  -7   1   3   62.28   12.17
   7   1  -3   70.99   11.90
  -8   1  -3   31.83   13.49
   8   1   3   28.90    9.98
   8  -1  -3   24.89    8.48
   8  -1  -3   27.81   12.16
   8   1   3   33.50   21.18
   8  -1  -3   27.81    9.33
   8   1   3   31.54   15.89
  -8   1  -3   21.32   14.04
  -8  -1   3   48.98    9.91
  -8  -1   3   29.27   19.56
  -8   1  -3   11.53    7.29
  -8   1  -3   19.96   12.66
   8   1   3   46.15    7.63
  -8  -1   3   40.15    7.15
   8  -1  -3   28.95    9.02
   8  -1   3   34.52   14.67
  -8   1   3   28.38    7.52
   8   1  -3   28.67   11.24
  -8  -1  -3   38.77   12.96
   8   1  -3   39.97    9.97
  -8  -1  -3   32.03   19.33
  -8   1   3   15.85   18.18
   8   1  -3   36.06   14.54
  -8   1   3   15.56   16.28
   8  -1   3   15.31    9.22
  -8   1   3   41.31   15.82
   8   1  -3   40.56    8.99
  -9   1  -3    0.54    5.71
   9   1   3    2.82    3.84
   9   1   3    2.44    9.01
   9  -1  -3    2.93    3.59
   9   1   3   18.16    6.93
  -9   1  -3    0.55    5.52
  -9  -1   3    9.98    8.50
  -9   1  -3   -2.29    5.35
  -9  -1   3   -1.33    3.06
   9  -1  -3   -0.75    3.95
   9  -1   3    0.69    7.83
  -9  -1  -3   23.10   11.53
   9   1  -3   12.98    9.31
  -9  -1  -3    2.34   10.66
  -9   1   3    4.31   10.40
  -9   1   3    1.35    8.97
   9  -1   3   11.21    4.72
   9  -1   3    0.74    9.69
   9   1  -3    3.79    5.04
  10   1   3   62.41   13.58
  10  -1  -3   68.28   13.10
  10  -1  -3   64.51   21.07
  10   1   3  100.23   32.73
  10  -1  -3   49.76   14.58
  10   1   3  101.95   27.77
 -10   1  -3   51.86   21.72
 -10  -1   3   86.58   16.40
 -10  -1   3   54.90   31.13
 -10  -1   3   66.60   19.02
 -10   1  -3   94.04   21.61
 -10  -1   3   71.22   13.08
  10  -1  -3   65.27   16.17
  10  -1   3   80.91   19.93
  10   1  -3   84.06   21.18
  10   1  -3   86.07   30.08
 -10  -1  -3   73.67   18.91
  10   1  -3   77.26   18.49
 -10  -1  -3   86.59   32.56
 -10   1   3   77.02   31.34
 -10   1   3   65.58   26.52
 -10   1   3   95.33   18.77
  10  -1   3   61.16   18.51
  10   1  -3   72.55   16.55
  11   1   3   65.14   14.79
  11  -1  -3   86.50   14.99
  11  -1  -3   69.91   26.48
 -11   1  -3   80.31   25.46
 -11  -1   3   81.78   19.09
 -11  -1   3   73.85   53.48
  11   1   3   89.38   15.47
  11  -1  -3   97.10   19.63
  11  -1   3  108.79   24.66
  11   1  -3   98.56   25.56
 -11  -1  -3   99.38   22.13
  11   1  -3  110.94   23.57
 -11  -1  -3   89.19   39.95
 -11   1   3  103.73   38.70
  11  -1   3  113.03   22.89
  11   1  -3   89.12   21.16
  12  -1  -3   64.89   25.98
 -12   1  -3   49.67   22.06
 -12  -1   3   56.83   18.48
 -12  -1   3   66.01   27.26
  12   1   3   76.16   14.99
  12  -1  -3   81.82   18.74
  12  -1   3   72.91   22.38
  12   1  -3   73.79   23.38
 -12  -1  -3   85.98   19.79
 -12   1   3   75.03   35.46
  12  -1   3   79.30   20.30
  12   1  -3   84.10   19.43
  13  -1  -3   32.95   14.26
 -13   1  -3   15.41   12.71
 -13  -1   3   14.49    9.81
 -13  -1   3   10.66   14.76
  13   1   3   11.78    8.27
  13  -1  -3   15.44   11.20
  13  -1   3    5.13   10.40
  13   1  -3   22.25   11.39
 -13  -1  -3   13.56    8.97
  13  -1   3    8.22    9.98
  13   1  -3   13.61    9.50
  14  -1  -3   16.43   14.07
 -14   1  -3    3.48   13.66
 -14  -1   3   11.74    9.71
 -14  -1   3   16.34   14.52
  14  -1  -3   29.48   11.16
  14   1   3   12.06   11.65
  14  -1   3    7.11   11.60
  14   1  -3    5.79   12.53
 -14  -1  -3   19.23   10.18
 -14   1   3   15.21   17.50
  14  -1   3   13.34   11.16
  14   1  -3   27.32   10.70
  15   1   3  250.58   32.15
  15  -1  -3  164.79   52.06
 -15   1  -3  121.22   50.91
 -15  -1   3  144.26   52.52
  15   1   3  233.58   29.53
  15  -1   3  251.41   55.11
 -15  -1  -3  290.32   83.10
 -15   1   3  289.25   88.62
  15  -1   3  325.80   52.72
  15   1  -3  309.95   51.54
  16   1   3   23.01    8.00
  16  -1  -3   16.31   12.78
 -16   1  -3    5.92   13.67
 -16  -1   3    7.94   12.43
  16   1   3   15.02    7.18
  16  -1  -3   10.63   13.33
  16  -1   3    8.72   10.17
  16   1  -3   21.37   16.80
 -16  -1  -3   -0.15   16.54
 -16   1   3   35.11   18.14
  16   1  -3   10.55   10.41
  17   1   3  256.01   30.96
  17  -1  -3  109.97   44.53
  17   1   3  162.92   27.91
  17  -1  -3  341.32   47.53
  17   1  -3  417.77   74.63
 -17  -1  -3  297.35   78.87
 -17   1   3  141.28   87.51
  17  -1   3  262.36   40.62
  17   1  -3  287.85   46.01
  18   1   3    9.22    5.53
  18  -1  -3    7.03    9.04
  18   1   3    4.85    4.84
  18  -1  -3   12.79    9.55
  18   1  -3    9.38   13.48
  18  -1   3    9.29    7.08
  18   1  -3    8.36    7.76
  19   1   3    0.57    3.19
  19   1   3    1.89    2.87
  19  -1  -3    2.16    6.17
  19   1  -3   -0.69    7.79
 -19  -1  -3   20.61    8.99
 -19   1   3    1.34    9.03
  20  -1  -3    5.87    6.35
  20   1  -3   -0.67    8.46
 -20  -1  -3    8.17    9.90
 -20   1   3    4.05    4.40
  20  -1   3    7.65    4.78
  20   1  -3    3.14    3.85
   0  -1   4   -0.60    6.43
   0   1   4    9.63    4.65
   0  -1  -4    9.21    8.22
   0  -1   4    5.50    3.34
   0   1   4   -1.14    4.70
   0   1  -4   -0.52    1.65
   0  -1  -4    6.89    5.13
   0  -1  -4   -0.01    2.83
   0   1  -4   -1.78    4.50
   0   1   4    1.16    2.91
   0   1  -4    0.04    5.26
   0  -1   4    1.62    4.07
   0   1  -4    2.41    4.37
   0  -1  -4    1.52    3.17
  -1  -1   4 2760.92  361.48
   1   1   4 2904.01  341.74
   1  -1  -4 2643.75  306.69
  -1  -1   4 2842.21  286.93
   1   1   4 2784.27  323.32
  -1   1  -4 2160.09  229.28
   1  -1  -4 2811.12  347.48
   1   1   4 3146.70  324.87
   1  -1  -4 1999.04  226.70
  -1   1  -4 2898.59  345.36
  -1  -1   4 2911.28  313.82
  -1   1  -4 3094.27  361.71
   1   1   4 2577.44  260.01
  -1  -1   4 2887.03  342.06
  -1  -1   4 3106.62  327.28
   1  -1  -4 2849.10  301.33
  -1   1   4 2767.55  331.44
   1  -1   4 2619.96  325.64
  -1  -1  -4 3083.23  369.29
  -1   1   4 2922.55  343.92
   1   1  -4 2793.79  281.70
  -1  -1  -4 2954.07  374.81
   1   1  -4 2804.89  337.01
   1  -1   4 2797.15  320.52
  -1   1   4 2899.51  350.84
   1   1  -4 3018.47  373.32
   1  -1   4 2829.38  334.85
   1  -1   4 2931.91  332.92
  -1   1   4 2755.23  289.90
   1  -1   4 2741.04  315.16
  -1  -1  -4 2573.53  282.50
   1   1  -4 2879.41  334.27
  -2  -1   4 1002.50   85.56
   2   1   4 1016.19  111.51
   2  -1  -4  974.64   95.20
  -2  -1   4  877.35   60.81
   2   1   4  939.46   99.14
   2  -1  -4 1026.29  115.23
  -2   1  -4 1115.76  123.78
   2   1   4  997.71   97.45
  -2   1  -4 1004.17  109.90
  -2  -1   4 1012.73   90.72
  -2   1  -4 1080.86  106.81
  -2  -1   4 1025.72  111.67
   2   1   4 1029.76   80.56
  -2  -1   4 1035.01   89.05
   2  -1  -4  924.01   99.95
   2  -1   4  720.01  124.05
  -2   1   4 1014.10  100.52
  -2  -1  -4 1048.75  110.89
   2  -1   4  898.24  108.68
   2   1  -4  997.36   82.37
  -2   1   4 1083.02  105.02
  -2  -1  -4 1016.38  119.19
   2   1  -4 1047.20  104.60
  -2   1   4  994.34  113.54
   2   1  -4 1032.94  113.69
   2  -1   4 1062.79  101.11
   2  -1   4  964.49   93.74
  -2   1   4  983.91   81.79
   2   1  -4 1062.22  101.00
   2  -1   4 1068.90  139.32
  -3  -1   4 1620.97  133.20
   3  -1  -4 1594.60  163.55
   3  -1  -4 1742.96  200.53
  -3   1  -4 1651.89  191.90
   3   1   4 1575.57  182.22
  -3   1  -4 1642.70  192.58
  -3  -1   4 1567.44  154.16
  -3   1  -4 1806.17  217.64
  -3  -1   4 1559.96  188.56
   3   1   4 1502.92  135.79
  -3  -1   4 1594.31  149.73
   3  -1  -4 1541.41  144.85
   3  -1   4 1351.33  207.70
  -3   1   4 1625.83  162.39
  -3  -1  -4 1604.34  181.80
   3  -1   4 1418.20  181.09
  -3   1   4 1625.60  165.98
   3   1  -4 1583.20  176.83
  -3  -1  -4 1519.09  189.08
   3   1  -4 1573.62  166.19
  -3   1   4 1679.23  207.19
   3   1  -4 1891.83  226.44
   3  -1   4 1698.84  165.53
   3  -1   4 1549.21  160.37
  -3   1   4 1601.31  146.44
   3   1  -4 1662.52  169.46
   3  -1   4 1714.22  185.02
   4  -1  -4  495.80   48.96
   4  -1  -4  517.80   64.65
   4   1   4  545.98   64.05
  -4   1  -4  480.66   65.91
  -4   1  -4  450.04   60.40
  -4   1  -4  491.09   49.53
  -4  -1   4  537.82   68.00
   4   1   4  484.22   39.53
  -4  -1   4  547.84   44.08
   4  -1  -4  441.89   42.73
   4  -1   4  503.76   78.55
  -4   1   4  480.03   46.36
  -4  -1  -4  516.29   57.18
   4  -1   4  425.63   62.94
  -4   1   4  488.06   50.29
   4   1  -4  485.69   42.08
  -4  -1  -4  529.97   63.95
  -4  -1  -4  398.16   74.48
   4   1  -4  558.35   51.00
   4   1  -4  608.66   74.97
  -4   1   4  466.54   68.70
   4  -1   4  509.64   46.58
   4  -1   4  421.37   48.74
  -4   1   4  472.01   42.16
   4   1  -4  512.33   46.27
   4  -1   4  461.51   57.55
   5  -1  -4  667.30   59.11
   5  -1  -4  704.36   75.98
   5   1   4  589.52   77.05
   5   1   4  572.30   78.46
  -5   1  -4  589.82   79.78
  -5  -1   4  556.78   53.49
  -5   1  -4  540.43   72.25
  -5   1  -4  660.95   60.22
  -5  -1   4  535.62   81.34
   5   1   4  507.21   46.77
  -5  -1   4  515.30   46.62
   5  -1  -4  638.76   54.95
   5  -1   4  601.07   89.61
  -5   1   4  674.96   57.32
   5  -1   4  542.85   74.94
  -5   1   4  681.43   63.12
   5   1  -4  493.94   51.19
  -5  -1  -4  531.10  107.60
  -5  -1  -4  391.43   88.46
   5   1  -4  545.87   55.81
  -5   1   4  704.76   95.84
   5   1  -4  587.73   84.12
   5  -1   4  724.85   58.69
   5  -1   4  640.79   63.87
  -5   1   4  680.77   57.04
   5   1  -4  535.85   53.81
   5  -1   4  641.05   72.98
   6   1   4    3.45    6.02
   6  -1  -4    1.43    4.39
   6  -1  -4    3.01    6.80
   6   1   4    1.03    7.00
   6   1   4   15.13    7.23
  -6   1  -4    6.57    7.15
  -6  -1   4    5.66    4.33
  -6   1  -4   -1.57    3.59
  -6  -1   4    5.96    8.18
   6   1   4   -0.19    3.77
   6  -1  -4   11.33    4.28
   6  -1   4   -2.42    6.69
  -6   1   4    0.26    3.16
   6  -1   4    5.48    5.40
   6   1  -4    6.54    3.53
  -6  -1  -4    6.51    5.45
   6   1  -4   -0.98    4.33
   6   1  -4   -3.04    6.39
   6  -1   4   -0.96    3.09
   6  -1   4    0.28    4.42
   6   1  -4   -0.78    3.72
   6  -1   4    9.20    5.21
   7   1   4   13.46    9.28
   7  -1  -4   20.41    7.03
   7  -1  -4   17.05   11.08
   7  -1  -4   11.34    8.83
   7   1   4   51.50   12.59
  -7   1  -4   28.09   13.22
  -7  -1   4   18.37    7.02
  -7   1  -4   11.48    5.62
  -7  -1   4   17.92   23.68
   7   1   4   23.93    6.58
  -7  -1   4   16.96    6.25
   7  -1  -4   20.16    7.26
   7  -1   4   10.95   12.00
  -7   1   4   13.40    5.86
   7  -1   4   26.09   10.48
   7   1  -4   18.69    7.66
  -7  -1  -4   21.89   10.45
   7   1  -4   26.22    8.26
  -7  -1  -4   30.04   14.95
  -7   1   4   25.96   14.77
   7   1  -4   16.14   12.78
   7  -1   4   15.77    5.78
  -7   1   4   11.66    7.40
   7   1  -4   21.41    7.21
   8   1   4    5.00    6.03
   8  -1  -4    3.87    4.44
   8   1   4   -3.06    7.27
   8   1   4    1.84    8.38
  -8  -1   4    7.84    4.79
  -8  -1   4   51.32   18.36
  -8   1  -4    2.22    3.60
   8   1   4   -1.90    4.46
  -8  -1   4    6.83    4.09
   8  -1  -4   10.43    5.15
   8  -1   4   -2.68    7.19
   8  -1   4    8.69    6.33
  -8  -1  -4    0.10    6.25
  -8  -1  -4   17.34    9.27
   8   1  -4    2.87    7.78
   8  -1   4    4.76    4.00
   8  -1   4    0.48    5.73
  -8   1   4    2.76    4.73
   8   1  -4   -1.89    4.63
   8  -1   4    1.05    6.86
   9   1   4  936.44  113.47
   9  -1  -4  800.84   88.45
   9  -1  -4  779.23  120.47
   9   1   4 1037.68  122.45
   9  -1  -4  790.39  103.10
   9   1   4 1138.46  158.21
  -9   1  -4  815.51  142.02
  -9  -1   4  939.63   99.49
  -9  -1   4  841.13  252.37
  -9  -1   4  998.92  137.58
  -9  -1   4  910.96   89.05
   9  -1  -4  845.01   99.24
   9  -1   4  920.88  127.26
   9  -1   4  866.82  120.15
   9   1  -4  821.78  108.27
  -9  -1  -4 1016.99  126.91
   9   1  -4  967.39  105.05
  -9  -1  -4 1104.18  179.36
  -9   1   4  953.25  182.88
  -9   1   4  907.88  153.13
   9  -1   4  856.04  109.67
  -9   1   4  905.34  138.17
   9   1  -4  888.11   99.96
   9  -1   4  923.92  127.40
  10   1   4  251.13   35.81
  10  -1  -4  214.38   28.84
  10  -1  -4  220.33   48.76
 -10   1  -4  248.71   56.83
 -10  -1   4  257.38   33.41
 -10  -1   4  189.51   98.63
  10   1   4  241.90   29.38
  10  -1  -4  265.75   38.04
  10   1   4  242.93   32.34
  10  -1   4  289.83   49.59
 -10   1   4  240.26   28.83
  10   1  -4  232.01   41.54
 -10  -1  -4  236.42   38.26
  10   1  -4  308.85   39.35
 -10  -1  -4  323.45   68.99
  10   1  -4  251.89   37.43
  11   1   4  822.81  104.55
  11  -1  -4  782.24  143.22
 -11   1  -4  811.65  153.55
 -11  -1   4  907.49  107.51
 -11  -1   4  892.45  168.87
  11  -1  -4  854.59  109.59
  11  -1   4  840.13  122.58
  11   1  -4  826.14  118.04
 -11  -1  -4  910.23  112.03
 -11  -1  -4 1203.25  195.30
 -11   1   4  908.39  203.82
  11  -1   4  816.63  107.73
  11   1  -4  888.10  110.42
  12   1   4  296.57   46.36
  12  -1  -4  346.71   76.27
 -12   1  -4  336.84   78.38
 -12  -1   4  315.04   48.16
 -12  -1   4  358.50   82.68
  12  -1  -4  403.82   56.23
  12  -1   4  387.68   65.36
  12   1  -4  360.96   63.30
 -12  -1  -4  382.58   55.09
 -12  -1  -4  495.46  103.57
 -12   1   4  452.97  166.66
  12   1  -4  393.61   57.79
  13  -1  -4  618.60  130.97
 -13   1  -4  614.61  129.07
 -13  -1   4  645.84  135.52
  13   1   4  632.09   76.33
  13  -1  -4  732.05  101.16
  13  -1   4  656.71  107.85
  13   1  -4  650.65  102.88
 -13  -1  -4  709.90   89.15
 -13  -1  -4  872.67  177.81
 -13   1   4  825.86  179.92
  13   1  -4  722.24   98.06
  14  -1  -4   -3.24   11.29
 -14  -1   4   -3.50   11.82
  14  -1  -4   -4.19    9.22
  14  -1   4    1.36   10.83
  14   1  -4   11.37   24.68
 -14  -1  -4    8.71    8.50
 -14   1   4   49.49   18.53
  15  -1  -4  281.49   72.04
 -15   1  -4  226.61   72.33
 -15  -1   4  327.26   71.21
  15   1   4  231.49   33.62
  15  -1  -4  505.34   62.12
  15  -1   4  402.12   79.43
  15   1  -4  579.89  112.45
 -15  -1  -4  502.37  117.46
 -15   1   4  586.68  145.44
  15  -1   4  454.30   74.08
  15   1  -4  456.73   71.04
  16   1   4  100.94   15.22
  16  -1  -4   72.34   28.26
 -16   1  -4    6.79   30.64
 -16  -1   4   37.78   27.93
  16   1   4   60.93   13.95
  16  -1  -4  123.06   25.83
  16  -1   4   75.74   29.13
  16   1  -4  165.11   43.80
 -16  -1  -4  105.00   45.16
 -16   1   4  135.71   55.11
  16  -1   4  114.09   27.85
  16   1  -4  125.81   27.15
  17  -1  -4   37.49   17.18
 -17   1  -4   11.09   17.10
 -17  -1   4   17.76   13.94
  17   1   4   24.81    7.70
  17  -1   4   18.11   23.01
  17   1  -4  113.04   32.50
 -17  -1  -4   78.59   33.37
 -17   1   4   58.18   39.88
  17  -1   4   71.40   16.50
  17   1  -4   81.75   19.75
  18   1   4   28.84    6.30
 -18   1  -4    7.34   12.82
  18   1   4    7.33    6.01
  18  -1  -4   42.92   12.15
  18   1  -4   61.21   22.67
 -18  -1  -4   21.10   24.64
 -18   1   4   12.34   28.30
  18  -1   4   33.05   11.26
  18   1  -4   45.78   12.68
  19  -1  -4   -0.99    4.98
  19   1   4   -0.79    2.11
  19  -1  -4   16.26    5.75
  19   1  -4    7.23   12.46
 -19   1   4   -0.66   15.40
  19  -1   4   14.61    6.34
  19   1  -4    7.37   10.24
  20  -1  -4    0.70    4.47
  20   1  -4    7.64    8.24
 -20  -1  -4    9.37    9.64
  20  -1   4    2.12    4.27
   0   1   5   62.20   13.82
   0  -1  -5   59.81   14.68
   0  -1   5   57.77    9.33
   0   1   5   55.82   14.12
   0  -1  -5   43.87   14.76
   0   1  -5   54.24   13.03
   0  -1   5   65.11   11.33
   0   1  -5   73.27   14.49
   0  -1   5   57.85   12.75
   0   1   5   57.41    8.91
   0  -1   5   62.75   11.87
   0  -1  -5   51.53    9.65
   0   1  -5   56.15   13.13
  -1  -1   5    8.16    6.32
   1   1   5   16.48    6.25
  -1  -1   5    6.16    2.73
   1  -1  -5   19.45    6.31
   1   1   5    8.53    5.98
  -1   1  -5    1.36    2.40
   1  -1  -5   17.41    6.63
  -1   1  -5    1.37    7.33
  -1   1  -5    3.38    6.00
   1  -1  -5    4.85    1.46
  -1  -1   5   10.84    4.70
  -1   1  -5   10.73    5.86
   1   1   5    2.58    2.19
  -1  -1   5    0.48    5.93
  -1  -1   5   -1.17    5.13
   1  -1  -5   14.83    4.34
   1  -1   5   -3.16    7.72
  -1   1   5   18.14    6.35
  -1  -1  -5    0.53    7.51
   1  -1   5    5.42    5.44
  -1   1   5   20.16    7.06
   1   1  -5    5.88    3.28
  -1  -1  -5    7.90    7.70
  -1  -1  -5    0.73   11.16
   1   1  -5    8.73    6.05
   1   1  -5    6.22    7.97
  -1   1   5   13.06    4.29
   1  -1   5   15.03    5.83
   1  -1   5   10.39    6.24
  -1   1   5   13.79    4.43
   1  -1   5   11.09    6.04
   1   1  -5    4.14    6.24
  -2  -1   5   29.20   10.78
   2   1   5   37.50   13.40
   2  -1  -5   39.73   18.53
   2   1   5   39.74   11.94
   2  -1  -5   41.83   13.62
  -2   1  -5   45.11   13.88
  -2   1  -5   45.23   12.47
  -2  -1   5   43.38    9.23
  -2   1  -5   37.77   10.82
  -2  -1   5   35.32   12.74
   2   1   5   44.44    7.70
  -2  -1   5   40.90    9.54
   2  -1  -5   42.30    8.94
   2  -1   5   20.83   13.30
  -2   1   5   31.82    9.97
  -2  -1  -5   36.46   11.81
   2  -1   5   31.46   10.02
  -2   1   5   33.02    9.77
   2   1  -5   23.69    6.05
  -2  -1  -5   36.36   12.43
  -2  -1  -5   26.37   22.90
   2   1  -5   40.02   10.02
   2   1  -5   35.45   15.33
  -2   1   5   29.84   10.39
   2  -1   5   41.24    9.14
   2  -1   5   34.69    9.52
  -2   1   5   31.60    7.15
   2  -1   5   38.69    9.68
   2   1  -5   34.36    9.85
  -3  -1   5   15.78    6.00
   3   1   5   29.88   12.20
   3  -1  -5   48.06    8.00
   3   1   5   27.69    9.83
   3  -1  -5   42.58   11.90
  -3   1  -5   24.76   12.16
  -3   1  -5   37.14   11.19
  -3  -1   5   24.35    7.09
  -3   1  -5   48.63    8.69
  -3  -1   5   20.96   11.20
   3   1   5   18.85    6.40
  -3  -1   5   23.93    7.79
   3  -1  -5   12.42    8.10
   3  -1   5   29.17   15.12
  -3   1   5   46.02    9.53
  -3  -1  -5   35.85   12.95
   3  -1   5   35.89   12.75
  -3   1   5   34.75   10.99
  -3  -1  -5   28.79   13.22
  -3  -1  -5   -1.36   25.31
   3   1  -5   32.05    9.60
  -3   1   5   53.48   12.94
   3   1  -5   37.89   16.47
   3  -1   5   40.61    8.67
   3  -1   5   44.48   10.29
  -3   1   5   38.14    7.87
   3  -1   5   48.70   11.09
   3   1  -5   25.15   10.58
   4  -1  -5    6.03    4.75
   4   1   5    0.92    9.33
   4  -1  -5   16.73    7.30
   4   1   5    3.58    6.48
  -4   1  -5   10.26    7.48
  -4   1  -5   -2.43    6.88
  -4  -1   5    0.05    4.09
  -4   1  -5    2.87    4.59
  -4  -1   5    3.73    7.31
   4   1   5    0.97    3.71
  -4  -1   5    4.93    4.41
   4  -1  -5    9.71    4.39
   4  -1   5   14.03    8.80
  -4   1   5   11.64    7.45
  -4  -1  -5    3.09    6.84
  -4   1   5    4.50    5.93
   4   1  -5    4.17    4.44
  -4  -1  -5    1.35    7.10
  -4  -1  -5   11.45    8.91
   4   1  -5   -0.35    4.86
   4   1  -5    3.31    9.07
  -4   1   5   19.06    7.80
   4  -1   5    9.13    4.46
   4  -1   5    0.24    5.73
  -4   1   5    3.77    6.91
   4   1  -5    8.49    5.73
   4  -1   5    4.25    7.05
   5   1   5  481.43   64.50
   5  -1  -5  442.54   44.91
   5  -1  -5  567.08   73.21
  -5   1  -5  435.73   71.87
   5   1   5  503.84   68.03
  -5  -1   5  431.84   40.19
  -5   1  -5  468.93   49.33
  -5  -1   5  442.13   69.37
   5   1   5  429.61   40.72
  -5  -1   5  442.70   43.78
   5  -1  -5  451.62   44.79
   5  -1   5  476.08   73.27
  -5   1   5  490.49   46.00
   5  -1   5  430.22   65.92
  -5   1   5  484.72   53.62
   5   1  -5  432.71   49.91
  -5  -1  -5  428.02   64.05
  -5  -1  -5  370.40   78.73
   5   1  -5  473.39   49.71
   5   1  -5  507.78   76.91
  -5   1   5  541.83   80.85
   5  -1   5  495.25   43.78
  -5   1   5  463.78   45.63
   6   1   5   15.89    9.45
   6  -1  -5   12.76    6.19
   6   1   5   23.22    9.88
   6  -1  -5   21.88   18.72
  -6   1  -5   21.24   11.64
   6   1   5   25.47   10.79
  -6   1  -5   18.66   10.02
  -6  -1   5   12.86    5.58
  -6   1  -5    6.32    5.69
  -6  -1   5    8.20   12.27
   6   1   5   11.85    5.94
  -6  -1   5   17.90    6.52
   6  -1  -5    8.30    6.71
   6  -1   5   23.37   12.50
  -6   1   5   19.22    6.13
   6  -1   5    3.88   11.08
  -6   1   5   19.66    8.17
   6   1  -5    8.68    7.65
  -6  -1  -5    6.35   10.62
   6   1  -5   14.65    8.03
  -6  -1  -5   13.48   14.30
  -6   1   5   29.40   13.69
   6   1  -5   31.71   13.28
   6  -1   5   17.09    5.58
   6  -1   5   -3.35    8.83
  -6   1   5   22.19    7.04
   6   1  -5   21.60    7.35
   6  -1   5   34.60   10.54
   7   1   5 1407.34  194.03
   7  -1  -5 1487.90  160.71
   7  -1  -5 1621.39  220.23
   7   1   5 1814.55  220.61
   7  -1  -5 1699.97  206.68
   7   1   5 1881.38  251.62
  -7   1  -5 1513.66  253.11
  -7  -1   5 1531.72  190.07
  -7   1  -5 1369.02  209.78
  -7  -1   5 1505.13  244.51
   7   1   5 1488.97  159.93
  -7  -1   5 1555.99  163.66
   7  -1  -5 1493.07  168.68
   7  -1   5 1695.62  236.74
  -7   1   5 1601.14  174.97
   7  -1   5 1585.87  221.88
   7   1  -5 1615.34  205.99
  -7  -1  -5 1620.95  228.62
   7   1  -5 1873.47  216.68
  -7  -1  -5 1802.56  303.02
  -7   1   5 1856.99  298.50
   7   1  -5 1810.57  262.40
   7  -1   5 1546.02  193.51
  -7   1   5 1620.17  179.92
   7   1  -5 1451.40  174.10
   7  -1   5 1773.82  230.28
   8   1   5   25.79   14.40
   8  -1  -5   37.34    9.21
   8  -1  -5   24.77   17.23
   8   1   5   52.38   14.97
   8   1   5   34.91   19.53
  -8   1  -5   40.00   19.37
  -8  -1   5   43.31    9.37
  -8  -1   5   42.26   22.66
   8   1   5   33.48   10.87
  -8  -1   5   37.90   10.14
   8  -1  -5   36.39   11.57
   8  -1   5   35.86   16.50
  -8   1   5   32.63   12.25
   8   1  -5   32.54   13.14
  -8  -1  -5   41.22   22.50
  -8   1   5   41.02   22.38
  -8   1   5   41.56   11.55
   8   1  -5   23.34   11.46
   9  -1  -5  166.99   22.15
   9  -1  -5  153.22   40.85
  -9   1  -5  137.38   44.87
  -9  -1   5  216.95   24.15
  -9  -1   5  183.23   55.94
   9   1   5  191.14   25.48
   9  -1  -5  161.22   29.14
   9   1   5  192.06   30.15
   9  -1   5  169.36   41.94
  -9  -1  -5  205.09   39.02
   9   1  -5  202.86   29.90
  -9  -1  -5  235.82   61.03
  -9   1   5  171.34   60.41
   9  -1   5  176.91   35.59
   9   1  -5  203.89   31.34
  10   1   5    6.66   22.00
  10  -1  -5   11.85   18.23
 -10   1  -5   29.86   20.23
 -10  -1   5   39.67    9.86
 -10  -1   5   33.75   24.01
  10  -1  -5   43.43   12.86
  10  -1   5   26.44   16.76
  10   1  -5   31.77   17.12
 -10  -1  -5   42.19   25.45
 -10   1   5   37.21   24.18
  10  -1   5   25.99   14.65
  10   1  -5   44.53   12.88
  11   1   5   83.39   20.68
  11  -1  -5   67.20   29.18
 -11   1  -5   45.25   31.51
 -11  -1   5   78.37   16.00
 -11  -1   5  113.46   35.80
  11  -1  -5   77.27   21.15
  11  -1   5  109.79   28.98
  11   1  -5  112.50   31.57
 -11  -1  -5   83.23   22.29
 -11  -1  -5  118.47   44.27
 -11   1   5   91.62   44.12
  11   1  -5  102.73   22.89
  12   1   5    5.64    5.68
 -12  -1   5    9.70   10.55
  12  -1   5   16.27   10.03
  12   1  -5   -1.95   12.64
 -12  -1  -5    7.66    7.71
 -12  -1  -5   20.47   16.37
 -12   1   5    8.74   17.54
  12   1  -5    1.83    8.92
  13   1   5   24.41   13.78
  13  -1  -5   31.97   23.84
 -13   1  -5   14.82   21.78
 -13  -1   5   55.63   25.80
  13   1   5   48.76   11.79
  13  -1  -5   43.47   17.31
  13  -1   5   32.02   21.10
  13   1  -5   63.45   27.42
 -13  -1  -5   58.08   15.75
 -13  -1  -5   97.93   35.02
 -13   1   5   41.13   37.23
  13  -1   5   39.59   18.87
  13   1  -5   66.76   18.99
  14  -1  -5   47.21   20.98
 -14   1  -5   19.83   20.65
 -14  -1   5   20.41   21.46
  14  -1  -5   27.10   16.46
  14  -1   5   15.26   12.36
  14   1  -5   28.63   17.79
 -14  -1  -5   18.51    9.08
 -14  -1  -5   -5.62   20.61
 -14   1   5   -4.39   23.60
  14   1  -5   13.03   11.38
  15  -1  -5    1.77   28.67
 -15   1  -5   18.46   17.09
 -15  -1   5   28.61   16.35
  15  -1  -5   11.03   13.60
  15  -1   5    4.12   11.87
  15   1  -5   -5.70   16.58
 -15  -1  -5   16.45    8.18
 -15  -1  -5   14.20   17.69
 -15   1   5   -6.70   23.41
  15   1  -5   23.97   10.76
  16   1   5   20.49    6.38
  16  -1  -5   11.34   16.18
 -16   1  -5    6.54   15.99
 -16  -1   5   14.03   13.93
  16   1   5    7.56    6.06
  16  -1  -5   19.71   12.16
  16  -1   5   14.16   13.99
  16   1  -5   27.19   21.20
 -16  -1  -5   51.55   22.13
 -16   1   5   15.09   28.19
  16   1  -5   23.03   12.72
  17  -1  -5    3.69    7.79
 -17   1  -5    3.08    7.98
  17   1   5    0.45    2.89
  17  -1  -5   -1.82    6.31
  17  -1   5    6.70    9.53
  17   1  -5   42.17   15.19
 -17   1   5   32.77   20.16
  17   1  -5    5.30    8.72
  18  -1  -5   -1.04    7.77
 -18   1  -5    0.75    8.22
  18   1   5    3.45    2.62
  18  -1  -5    4.70    6.88
  18  -1   5    1.58    4.12
 -18  -1  -5   -3.33   10.76
 -18   1   5   -5.35   12.83
  18  -1   5    4.35    4.86
  19  -1  -5    4.77    9.12
  19  -1  -5   35.69    9.57
  19   1  -5   41.26   16.82
 -19  -1  -5   20.41   19.19
 -19   1   5    4.95   13.89
  19  -1   5   35.48    8.42
  19   1  -5   28.24    7.95
   0  -1   6    3.81   10.01
   0   1   6   15.37    7.94
   0  -1   6   13.05    4.48
   0  -1  -6   21.40    8.65
   0   1   6   20.40    8.45
   0   1  -6    6.53    4.14
   0  -1  -6   13.06    8.87
   0   1  -6   20.82    8.63
   0   1  -6    8.78    7.42
   0   1  -6   13.61    9.66
   0   1   6    6.38    3.98
   0  -1   6    7.37    7.29
   0   1   6   18.56    5.22
   0  -1   6   21.78    7.32
   0  -1  -6   20.92    5.72
   1   1   6  391.85   49.13
  -1  -1   6  323.78   29.70
   1  -1  -6  380.47   46.91
   1   1   6  433.61   50.20
   1  -1  -6  346.54   51.82
  -1   1  -6  364.58   56.22
  -1   1  -6  351.71   49.75
  -1  -1   6  376.10   37.20
  -1   1  -6  378.51   63.82
  -1  -1   6  410.93   45.99
   1   1   6  412.94   35.72
  -1  -1   6  419.60   63.06
   1  -1  -6  323.14   35.77
   1  -1   6  247.69   52.70
  -1   1   6  347.10   42.30
   1  -1   6  296.07   47.08
  -1  -1  -6  387.81   48.60
  -1   1   6  360.01   61.69
  -1  -1  -6  377.54   53.09
   1   1  -6  368.91   58.42
   1   1  -6  474.19   57.33
   1  -1   6  366.67   40.37
   1  -1   6  379.71   42.83
  -1   1   6  348.35   33.16
   1  -1   6  369.55   41.87
   1   1  -6  372.37   42.85
  -2  -1   6    3.12    5.73
   2   1   6   -1.97    7.40
  -2  -1   6    4.16    2.54
   2  -1  -6    1.96    5.99
   2   1   6    6.47    6.28
   2  -1  -6    9.54    7.27
  -2   1  -6    1.91    7.33
  -2   1  -6    2.93    6.60
  -2  -1   6    1.65    4.55
  -2  -1   6    4.86    6.39
   2   1   6    5.60    4.23
  -2  -1   6    5.57    5.13
   2  -1  -6   12.66    4.92
   2  -1   6    4.89    8.15
  -2   1   6   13.63    5.72
  -2  -1  -6   14.55    7.36
   2  -1   6   10.18    5.90
  -2   1   6    6.30    6.36
   2   1  -6    2.35    6.90
  -2  -1  -6    7.34    7.91
  -2  -1  -6    6.50   12.61
   2   1  -6    0.39    5.75
  -2  -1  -6    3.92    3.19
   2   1  -6    4.08    9.03
  -2   1   6    7.59    5.19
   2  -1   6    0.32    5.14
   2  -1   6   21.48    6.11
   2  -1   6   10.57    6.23
   2   1  -6    0.62    6.43
   3   1   6    5.88   10.41
   3  -1  -6    7.97    7.82
   3   1   6   12.55    8.47
   3  -1  -6   11.93   10.09
  -3   1  -6   16.93   10.00
  -3   1  -6    5.46    9.24
  -3  -1   6   14.80    5.69
  -3   1  -6   19.31    6.94
  -3  -1   6   15.81    9.01
   3   1   6   12.48    5.45
  -3  -1   6   15.79    6.89
   3  -1  -6   11.21    6.81
   3  -1   6   25.65    9.76
  -3   1   6    8.40    5.81
  -3  -1  -6   23.59    8.59
   3  -1   6   14.84    7.67
  -3   1   6   15.54    7.44
   3   1  -6    1.07    5.04
  -3  -1  -6   16.44    8.57
  -3  -1  -6   22.98   18.60
   3   1  -6    8.52    6.29
  -3  -1  -6    1.99    4.51
   3   1  -6    9.53   11.08
  -3   1   6    8.92    6.95
   3  -1   6   14.82    5.43
   3  -1   6   13.02    7.28
   3  -1   6   21.63    7.57
   3   1  -6   13.69    7.47
   4   1   6  858.24  116.14
   4   1   6  839.32  118.29
   4  -1  -6  849.22   89.64
   4   1   6  820.56   95.04
   4  -1  -6  863.74  123.14
  -4   1  -6  763.86  121.63
  -4   1  -6  834.05  120.71
  -4  -1   6  805.76   76.26
  -4   1  -6  897.60   92.84
  -4  -1   6  845.80  111.59
   4   1   6  748.75   73.19
  -4  -1   6  849.58   84.03
   4  -1  -6  821.34   87.64
   4  -1   6  774.25  112.30
  -4   1   6  790.65  102.93
   4  -1   6  789.99  103.61
  -4   1   6  877.65   96.29
  -4  -1  -6  810.38  112.04
  -4  -1  -6  511.89  122.73
   4   1  -6  842.46   88.44
   4   1  -6  966.39  136.49
  -4   1   6  788.94  112.20
   4  -1   6  850.89   78.94
   4  -1   6  755.45   86.61
   4  -1   6  826.64   96.19
   4   1  -6  805.43   91.51
   5   1   6   -0.82    9.38
   5  -1  -6   12.94    6.38
   5   1   6   16.42    7.49
   5  -1  -6    3.47   10.81
  -5   1  -6    6.57   10.07
  -5  -1   6    8.71    4.87
  -5   1  -6   14.97    5.62
  -5  -1   6    3.05   10.22
   5   1   6    2.94    5.38
  -5  -1   6    9.41    6.17
   5  -1  -6    4.85   10.58
   5  -1   6   15.64   10.49
  -5   1   6   13.37    5.56
   5  -1   6   17.47    9.02
  -5   1   6    2.18    7.82
   5   1  -6    6.13    5.89
  -5  -1  -6    6.27    8.81
  -5  -1  -6   -4.83   11.91
   5   1  -6   12.11    5.76
  -5  -1  -6   11.21    5.48
   5   1  -6    4.11   12.49
  -5   1   6    8.05    8.97
   5  -1   6    8.16    4.71
  -5   1   6    6.84    6.15
   5  -1   6    9.85    8.60
   5   1  -6    6.43    7.41
   6   1   6 2201.16  326.86
   6  -1  -6 2427.21  301.35
   6   1   6 2606.19  335.70
   6  -1  -6 2622.79  404.53
  -6  -1   6 2168.96  254.45
  -6  -1   6 2517.05  392.16
   6   1   6 2283.37  276.39
  -6  -1   6 2813.30  369.96
   6  -1  -6 2222.66  280.62
   6  -1   6 2392.18  363.59
  -6   1   6 2433.56  296.73
   6   1  -6 2246.50  307.73
  -6  -1  -6 2742.25  480.00
  -6  -1  -6 1897.97  272.85
  -6   1   6 2456.78  396.35
  -6   1   6 2623.02  306.34
   6   1  -6 2490.49  318.97
   7   1   6   44.32   13.35
   7  -1  -6   32.15    8.64
   7  -1  -6   37.90   15.75
  -7   1  -6   19.24   17.20
  -7  -1   6   21.64    6.67
  -7  -1   6   24.05   17.63
   7   1   6   12.30    8.59
   7  -1  -6   18.31    9.47
   7  -1   6   15.17   13.33
  -7   1   6   15.54    6.96
   7   1  -6   21.99    9.43
  -7  -1  -6    3.57   11.93
   7   1  -6   15.50    9.01
  -7  -1  -6   19.67   17.57
  -7   1   6   29.25   15.01
   7   1  -6   19.32   10.06
   8   1   6 1629.20  233.16
   8  -1  -6 1621.37  194.39
   8  -1  -6 1944.61  300.30
  -8   1  -6 1706.23  305.14
  -8  -1   6 1508.88  166.72
  -8  -1   6 1786.24  301.72
   8   1   6 1702.67  195.62
   8  -1  -6 1623.89  197.93
   8  -1   6 1841.25  277.43
   8   1  -6 1724.09  255.53
  -8  -1  -6 1689.74  277.78
  -8  -1  -6 2185.07  391.33
  -8   1   6 1915.89  357.32
   8  -1   6 1741.21  237.64
   9  -1  -6   46.75   24.97
  -9   1  -6   63.59   25.32
  -9  -1   6   42.22    9.95
  -9  -1   6   42.21   28.63
   9   1   6   59.21   12.83
   9  -1  -6   52.31   15.41
   9  -1   6   64.59   23.31
   9   1  -6   37.96   18.49
  -9  -1  -6   60.36   31.49
   9   1  -6   71.75   25.53
  10  -1  -6  277.75   96.22
 -10   1  -6  245.62   66.41
 -10  -1   6  228.70   73.32
  10  -1  -6  235.01   40.00
  10  -1   6  282.76   56.85
  10   1  -6  239.02   51.00
 -10  -1  -6  266.88   80.35
  10  -1   6  260.50   46.23
  10   1  -6  245.77   42.12
  11   1   6   30.65   15.90
  11  -1  -6   -3.39   36.50
 -11   1  -6   30.59   22.95
 -11  -1   6   31.19   26.20
  11   1   6   44.67   11.13
  11  -1  -6   16.84   14.39
  11  -1   6   21.69   18.41
  11   1  -6   29.34   18.29
 -11  -1  -6   25.62   12.19
 -11  -1  -6   37.88   27.41
 -11   1   6   27.71   29.42
  11  -1   6   50.76   24.36
  11   1  -6   39.34   14.25
  12   1   6   13.88   11.22
  12  -1  -6   47.19   18.63
 -12  -1   6   20.04   19.81
  12   1   6    6.76    8.31
  12  -1  -6   28.60   11.67
  12  -1   6    9.46   12.63
  12   1  -6   16.99   14.77
 -12  -1  -6   10.17    8.62
 -12  -1  -6    2.83   20.23
 -12   1   6   11.50   22.29
  12   1  -6   19.27   10.78
  13   1   6   83.68   25.38
  13  -1  -6   91.75   45.18
 -13   1  -6   79.51   40.25
 -13  -1   6  102.08   43.11
  13  -1  -6  132.77   28.36
  13  -1   6  116.21   32.57
  13   1  -6  128.40   41.08
 -13  -1  -6   84.41   22.09
 -13  -1  -6  137.18   53.76
 -13   1   6  165.55   61.50
  13   1  -6  117.64   28.69
  14   1   6   28.31   12.52
  14  -1  -6   19.57   23.18
 -14   1  -6    3.09   20.24
 -14  -1   6   31.36   21.14
  14  -1  -6   28.37   14.56
  14  -1   6   20.15   16.37
  14   1  -6   42.43   21.15
 -14  -1  -6   19.57   10.19
 -14  -1  -6   42.96   25.97
 -14   1   6   15.78   30.84
  14   1  -6   38.31   21.88
  15  -1  -6   58.58   27.70
 -15   1  -6   46.86   26.09
 -15  -1   6   33.98   24.54
  15   1   6   27.10   11.86
  15  -1  -6   67.74   18.96
  15  -1   6   46.41   19.04
  15   1  -6   82.83   24.96
 -15  -1  -6   57.54   27.44
 -15   1   6   39.70   36.94
  15   1  -6    3.79   16.22
  16  -1  -6   10.94   10.44
 -16   1  -6   -1.93   10.34
 -16  -1   6    3.34    9.29
  16   1   6    0.38    3.47
  16  -1  -6    5.00    7.37
  16  -1   6   17.93   10.35
  16   1  -6    4.05   15.08
 -16  -1  -6    5.22   16.23
  16   1  -6    6.67    9.29
  17  -1  -6   20.99   10.46
 -17   1  -6    9.42   11.28
 -17  -1   6   10.21    8.82
  17   1   6    2.27    3.13
  17  -1  -6    3.13    8.05
  17  -1   6   -0.85    5.69
  17   1  -6    2.15    8.49
 -17  -1  -6    2.10    9.48
  17   1  -6   -0.23    4.93
  18  -1  -6   21.55   11.13
 -18   1  -6   19.96   11.99
 -18  -1   6   15.89    9.01
  18   1  -6  109.02   32.25
 -18  -1  -6  107.88   34.92
 -18   1   6   25.45   28.32
  18   1  -6   90.39   15.70
   0  -1   7  194.73   46.15
   0   1   7  287.94   39.43
   0  -1   7  207.91   26.25
   0  -1  -7  244.31   38.31
   0   1   7  295.47   36.30
   0  -1  -7  231.26   43.31
   0   1  -7  231.72   45.67
   0   1  -7  215.29   35.18
   0   1  -7  318.53   45.18
   0  -1   7  250.62   33.22
   0  -1   7  271.05   35.70
   0  -1   7  271.55   36.82
  -1  -1   7  146.59   39.06
   1  -1  -7  232.68   34.89
   1   1   7  293.87   40.00
   1  -1  -7  206.12   39.17
  -1   1  -7  154.55   41.54
  -1   1  -7  230.18   36.63
  -1   1  -7  303.90   39.38
  -1  -1   7  233.19   33.60
   1   1   7  208.32   25.76
  -1  -1   7  240.72   31.76
   1  -1  -7  192.85   27.26
   1  -1   7  202.58   44.86
  -1   1   7  252.08   33.35
   1  -1   7  190.31   26.43
  -1  -1  -7  195.43   36.66
  -1   1   7  256.64   34.82
  -1  -1  -7  204.00   40.39
   1   1  -7  161.73   40.11
   1   1  -7  217.22   35.26
   1   1  -7  282.93   43.07
   1  -1   7  243.79   30.33
   1  -1   7  234.60   32.71
   2  -1  -7  240.32   35.93
   2   1   7  277.30   39.84
   2  -1  -7  227.98   43.98
  -2   1  -7  193.31   45.00
  -2   1  -7  242.96   41.92
  -2   1  -7  307.28   38.44
  -2  -1   7  231.33   37.29
   2   1   7  215.02   25.76
   2  -1  -7  214.27   29.96
   2  -1   7  209.35   43.38
  -2   1   7  232.15   29.77
   2  -1   7  199.07   28.49
  -2  -1  -7  186.54   36.97
  -2  -1  -7  197.65   40.42
   2   1  -7  175.74   36.29
   2   1  -7  195.11   32.33
   2   1  -7  282.71   45.25
   2  -1   7  234.99   27.24
   2  -1   7  231.49   32.51
   2   1  -7  205.67   33.14
   3   1   7  566.00   85.18
   3  -1  -7  542.41   66.76
   3  -1  -7  518.01   87.28
  -3   1  -7  468.14   92.94
  -3   1  -7  651.64   72.82
  -3  -1   7  595.73   78.60
   3   1   7  526.75   53.35
   3  -1  -7  496.72   59.72
   3  -1   7  539.88   75.09
  -3   1   7  479.00   50.26
   3  -1   7  453.42   53.73
   3   1  -7  285.96   54.79
  -3  -1  -7  526.41   72.42
  -3  -1  -7  202.95   98.81
   3   1  -7  454.26   59.78
  -3   1   7  273.45   59.42
   3  -1   7  522.87   49.39
   3  -1   7  483.05   55.91
   3   1  -7  533.86   60.04
   4   1   7    5.72    9.86
   4  -1  -7    9.13    6.83
   4  -1  -7    8.03   10.50
  -4   1  -7   -5.20   10.88
  -4  -1   7    8.30    4.92
  -4  -1   7    7.15    8.91
   4   1   7    9.39    5.34
   4  -1  -7    7.94    6.89
   4  -1   7   16.88    9.05
   4   1  -7    5.59    8.09
  -4  -1  -7   -0.82    8.01
  -4  -1  -7    0.28    8.70
   4   1  -7    5.83    5.78
  -4  -1  -7    0.54    4.21
  -4   1   7    5.82    7.42
   4  -1   7    8.61    6.62
   4   1  -7    8.13    6.88
   5   1   7   80.78   24.90
   5  -1  -7   94.33   17.85
   5  -1  -7   87.56   29.40
  -5   1  -7   55.18   29.74
  -5  -1   7   78.37   13.13
  -5  -1   7  110.56   25.72
   5  -1  -7   83.64   18.31
   5  -1   7   91.88   25.05
   5   1  -7   50.42   16.16
  -5  -1  -7   77.32   34.15
  -5  -1  -7   70.64   29.36
   5   1  -7   81.82   15.50
  -5   1   7   62.73   23.47
   5  -1   7   73.57   29.27
   5   1  -7   97.15   19.50
   6   1   7   69.04   22.07
   6  -1  -7   66.66   15.14
   6  -1  -7   75.89   27.20
  -6   1  -7   52.43   29.74
  -6  -1   7   56.02   11.53
  -6  -1   7   92.81   25.43
   6   1   7   70.79   14.36
   6  -1  -7   71.65   16.63
   6  -1   7   72.69   22.05
   6   1  -7   32.05   14.87
  -6  -1  -7   71.03   24.82
  -6   1   7   55.43   22.66
   6  -1   7   51.96   18.29
   6   1  -7   66.91   16.84
   7  -1  -7    7.85    5.69
   7  -1  -7    5.09   11.47
  -7  -1   7    4.09   11.34
   7   1   7    2.27    5.63
   7  -1  -7    8.58    6.82
   7  -1   7    0.30   10.53
   7   1  -7    3.81    7.09
  -7  -1  -7    6.38   12.14
  -7   1   7   13.93   11.90
   7   1  -7    7.83    7.95
   8   1   7    6.60    7.93
   8  -1  -7    4.22    9.86
  -8   1  -7    3.49   10.73
  -8  -1   7   -4.36   10.57
   8   1   7    3.10    5.27
   8  -1  -7   -2.13    6.24
   8  -1   7   16.20   10.84
   8   1  -7   11.58    8.38
  -8  -1  -7   -0.52   13.59
   8  -1   7   -1.50    9.71
   8   1  -7    4.84    8.80
   9  -1  -7   70.16   31.88
  -9   1  -7   76.84   33.88
  -9  -1   7   65.80   32.90
   9   1   7   69.31   15.62
   9  -1  -7   75.61   29.41
   9  -1   7   62.08   27.00
   9   1  -7   61.90   21.84
  -9  -1  -7   49.61   22.56
  -9  -1  -7   54.83   33.53
  -9   1   7   88.04   35.43
   9  -1   7   76.62   22.03
   9   1  -7   68.52   21.18
  10   1   7   36.56   18.65
  10  -1  -7   42.59   24.16
 -10   1  -7   47.67   25.23
 -10  -1   7   21.46   26.45
  10   1   7   34.85   17.47
  10  -1  -7   35.35   14.34
  10  -1   7   36.28   19.10
  10   1  -7   35.01   16.52
 -10  -1  -7   34.68   24.12
 -10   1   7   47.70   27.70
  10  -1   7    6.79   16.36
  10   1  -7   30.47   15.02
 -11   1  -7  235.19   74.35
 -11  -1   7  265.12   75.19
  11   1   7  213.17   33.79
  11  -1  -7  243.61   43.28
  11  -1   7  313.11   56.65
  11   1  -7  219.91   56.45
 -11  -1  -7  159.87   36.91
 -11  -1  -7  305.33   79.56
 -11   1   7  273.68   91.98
  11   1  -7  268.54   46.79
  12   1   7  176.29   36.77
  12  -1  -7  120.65   50.85
 -12   1  -7  114.27   75.86
 -12  -1   7  140.57   50.04
  12   1   7   90.61   21.31
  12  -1  -7  130.58   29.83
  12  -1   7  155.79   33.62
  12   1  -7  106.32   37.40
 -12  -1  -7   61.74   21.40
 -12  -1  -7   94.20   50.11
 -12   1   7  155.79   63.10
  12  -1   7  113.07   29.22
  12   1  -7  137.00   29.26
  13   1   7   70.57   23.61
  13  -1  -7   71.77   39.98
 -13   1  -7   83.18   35.40
 -13  -1   7  103.71   37.42
  13   1   7   48.07   15.44
  13  -1  -7  104.22   23.02
  13  -1   7  102.09   30.11
  13   1  -7   89.32   34.94
 -13  -1  -7   78.00   44.38
 -13   1   7  133.62   57.58
  13  -1   7   77.02   26.53
  13   1  -7   89.85   26.05
  14   1   7   21.12   15.35
  14  -1  -7   68.53   27.21
 -14   1  -7   44.80   25.03
 -14  -1   7   69.41   24.92
  14   1   7   23.76   10.81
  14  -1  -7   69.16   26.75
  14  -1   7   48.78   24.76
  14   1  -7   69.94   30.67
 -14  -1  -7   47.67   35.53
 -14   1   7   90.66   47.29
  14   1  -7   66.89   21.30
  15   1   7   -3.86   14.82
  15  -1  -7   28.88   18.88
 -15   1  -7   12.81   18.12
 -15  -1   7   40.08   16.47
  15   1   7   16.72    7.62
  15  -1  -7    8.78   11.96
  15  -1   7   43.91   20.07
  15   1  -7   39.10   27.33
 -15  -1  -7   34.92   27.98
 -15   1   7   34.90   40.85
  15   1  -7   53.84   16.58
  16  -1  -7    9.50   12.51
 -16   1  -7   -2.67   12.59
 -16  -1   7   28.29   11.15
  16   1   7    2.27    3.17
  16  -1  -7   17.21    8.36
  16  -1   7   17.37   11.32
 -16  -1  -7   25.81   16.54
 -16   1   7   -7.23   25.47
  16   1  -7   10.95    9.31
  17  -1  -7   43.92   25.14
 -17   1  -7   38.71   26.09
 -17  -1   7   49.11   21.66
  17  -1  -7   83.68   17.31
  17  -1   7   41.27   17.67
 -17  -1  -7   66.40   27.59
 -17   1   7   31.89   24.66
  17   1  -7   71.69   13.86
  18  -1  -7   13.14    6.88
 -18   1  -7    1.56    7.73
 -18  -1   7    2.35    7.03
  18  -1  -7   -0.21    5.39
  18   1  -7   11.64   12.66
 -18  -1  -7    9.61   12.68
 -18   1   7   16.29   10.36
  18  -1   7    4.68    5.30
  18   1  -7   16.05    4.35
   0  -1   8    8.11    8.97
   0  -1  -8    3.63    8.89
   0   1  -8    8.24    8.74
   0  -1   8   11.52    6.21
   0  -1   8    3.70    7.38
   0   1   8   -0.21    5.74
   1  -1  -8  433.66   62.13
   1  -1  -8  447.17   76.52
  -1   1  -8  395.16   80.91
  -1  -1   8  438.04   60.17
   1   1   8  474.92   50.40
  -1  -1   8  476.83   61.12
   1  -1   8  457.24   80.14
  -1  -1  -8  454.88   76.38
   1   1  -8  289.43   68.82
   1  -1   8  474.15   54.73
   1  -1   8  475.51   58.77
   2   1   8  491.84   79.09
   2  -1  -8  473.07   66.32
   2  -1  -8  482.23   81.70
  -2   1  -8  369.20   91.17
  -2  -1   8  541.07   72.41
   2   1   8  497.60   52.57
   2  -1  -8  453.54   56.30
   2  -1   8  528.45   81.81
  -2  -1  -8  430.56   73.58
   2   1  -8  298.24   66.40
   2  -1   8  497.15   59.27
   3   1   8   96.51   27.95
   3  -1  -8  103.14   22.50
   3  -1  -8  118.12   30.08
  -3   1  -8   75.21   33.41
  -3  -1   8  126.79   25.89
   3   1   8  102.60   17.38
   3  -1  -8   92.28   20.28
   3  -1   8  132.73   29.63
  -3  -1  -8   88.66   26.10
   3   1  -8   46.33   22.71
   3  -1   8  100.71   22.01
   3   1  -8  106.32   22.09
   4   1   8  745.26  117.46
   4  -1  -8  746.79   96.56
   4  -1  -8  800.91  135.56
  -4   1  -8  670.00  199.65
  -4  -1   8  886.54  125.63
   4   1   8  761.49   81.48
   4  -1  -8  768.32   93.24
   4  -1   8  894.96  113.32
   4   1  -8  445.30   83.93
  -4  -1  -8  692.74  104.76
   4   1  -8  325.36   88.79
  -4   1   8  367.42   97.55
   4  -1   8  750.84   82.88
   4   1  -8  817.62   86.76
   5   1   8   10.26   10.84
   5  -1  -8    4.57    7.52
   5  -1  -8   12.00   12.43
  -5   1  -8   10.69   14.87
  -5  -1   8   26.19   11.17
   5   1   8    4.03    6.84
   5  -1  -8   10.65    8.01
   5  -1   8    7.76   10.37
   5   1  -8   -2.22    7.49
  -5  -1  -8   11.28    8.69
   5   1  -8    4.02    7.48
  -5  -1  -8    7.03   11.16
  -5   1   8   -0.90    9.52
   5  -1   8    3.94    8.22
   5   1  -8   15.40    7.88
   6   1   8  144.59   35.85
   6  -1  -8  116.24   24.52
   6  -1  -8  133.70   42.29
  -6   1  -8  106.77   49.94
  -6  -1   8  168.99   39.68
   6   1   8  148.11   23.28
   6  -1  -8  140.67   26.72
   6  -1   8  160.96   36.20
   6   1  -8   87.75   29.10
  -6  -1  -8  107.00   31.41
  -6  -1  -8   76.07   46.24
  -6   1   8   78.88   38.37
   6  -1   8  151.33   30.73
   6   1  -8  164.46   28.60
   7   1   8    8.30   11.24
   7  -1  -8    5.78   13.96
  -7   1  -8   -6.68   15.86
  -7  -1   8   12.36   13.14
   7   1   8    6.90    7.30
   7  -1  -8   17.62    8.50
   7  -1   8    5.78    8.19
   7   1  -8   -1.82   10.74
  -7  -1  -8    1.58    7.04
  -7   1   8    3.62    9.37
   7  -1   8    5.99    6.84
   8   1   8   62.20   24.34
   8  -1  -8   82.70   31.99
  -8   1  -8   63.94   34.07
  -8  -1   8   62.90   31.85
   8   1   8   55.75   16.11
   8  -1  -8   79.89   19.13
   8   1  -8   33.06   19.59
  -8  -1  -8   42.52   32.48
  -8   1   8   85.54   31.83
   8  -1   8   58.96   21.70
   8   1  -8   66.37   19.53
   9  -1  -8   14.30   12.94
  -9  -1   8    0.28   12.99
   9   1   8    9.08    6.20
   9  -1   8   18.80   12.21
   9   1  -8    0.49   10.31
  -9  -1  -8    4.14   10.14
  -9  -1  -8   15.60   16.22
  -9   1   8   12.68   17.34
  10   1   8  341.24   64.38
  10  -1  -8  266.09   82.97
 -10   1  -8  281.55   86.29
 -10  -1   8  240.28   81.18
  10   1   8  288.70   61.48
  10  -1  -8  300.90   50.17
  10  -1   8  346.12   66.29
  10   1  -8  206.48   62.91
 -10  -1  -8  224.17   88.50
 -10   1   8  340.06  102.93
  10  -1   8  338.02   55.88
  10   1  -8  272.67   53.18
  11   1   8   48.50   20.05
  11  -1  -8   39.79   28.72
 -11   1  -8   31.15   29.22
 -11  -1   8   50.05   29.03
  11   1   8   34.38   12.24
  11  -1  -8   49.41   17.03
  11  -1   8   55.96   24.19
  11   1  -8   17.03   22.94
 -11  -1  -8   33.59   30.30
 -11   1   8   77.01   38.45
  11  -1   8   48.27   30.12
  11   1  -8   59.30   19.12
  12  -1  -8   62.01   33.12
 -12   1  -8   54.75   29.66
 -12  -1   8   66.98   31.49
  12   1   8   30.17   13.41
  12  -1  -8   87.64   19.26
  12   1  -8   48.25   29.35
 -12  -1  -8   49.86   38.67
 -12   1   8   43.49   49.59
  12  -1   8   87.87   23.18
  12   1  -8   80.86   22.89
  13   1   8  117.21   32.30
  13  -1  -8  125.31   50.36
 -13   1  -8   90.73   47.41
 -13  -1   8  126.49   47.41
  13  -1  -8  133.83   29.99
  13   1  -8   69.51   42.12
 -13  -1  -8  103.96   50.48
 -13   1   8  123.25   69.17
  13  -1   8  147.96   30.57
  13   1  -8  135.01   30.26
  14   1   8   34.21   13.01
  14  -1  -8   38.51   23.13
 -14   1  -8   14.27   20.88
 -14  -1   8   36.07   21.47
  14   1   8   13.03    8.04
  14  -1  -8   42.17   13.63
  14  -1   8   47.77   22.53
 -14  -1  -8   40.79   44.95
 -14   1   8   56.42   42.91
  14  -1   8   59.50   17.76
  14   1  -8   48.67   17.68
  15   1   8   38.24   17.55
  15  -1  -8   81.70   35.30
 -15   1  -8   34.87   34.05
 -15  -1   8  119.30   31.34
  15  -1  -8  112.41   20.98
  15  -1   8   87.06   30.22
  15   1  -8   89.90   40.00
 -15  -1  -8   73.80   41.26
  15  -1   8  147.99   24.60
  15   1  -8   96.81   23.03
  16  -1  -8  129.58   45.91
 -16   1  -8   68.12   47.54
 -16  -1   8  155.57   42.26
  16  -1  -8  189.60   28.18
  16  -1   8  143.07   35.28
  16   1  -8  165.07   48.64
 -16  -1  -8  168.54   48.99
 -16   1   8   94.97   44.50
  16  -1   8  222.51   29.13
  16   1  -8  144.47   24.29
   0   1   9  121.35   31.69
   0  -1  -9  125.21   37.17
   0   1  -9   65.70   36.86
   0   1   9  155.85   22.81
   0  -1   9  158.31   27.92
   1  -1  -9   68.26   23.54
  -1   1  -9   45.16   25.40
  -1  -1   9   59.26   16.34
  -1  -1   9   68.16   18.14
   1   1   9   62.84   14.53
  -1   1   9   46.09   19.49
   1  -1   9   53.88   22.27
  -1  -1  -9   59.66   22.70
   1   1  -9   31.49   21.89
  -1   1   9   70.47   14.92
   1  -1   9   69.10   17.56
   2   1   9  204.02   42.28
   2  -1  -9  236.02   50.02
  -2   1  -9  144.27   53.78
  -2  -1   9  183.91   35.88
  -2  -1   9  245.87   36.60
   2   1   9  210.00   29.28
  -2   1   9  212.83   43.54
   2  -1   9  248.46   51.62
  -2  -1  -9  173.32   48.59
   2   1  -9   90.33   45.08
   2  -1   9  269.64   38.76
  -2   1   9  281.27   34.05
   3   1   9  103.54   29.96
   3  -1  -9   85.77   53.49
  -3   1  -9   65.13   43.23
  -3  -1   9  110.58   43.15
  -3  -1   9  146.80   26.66
   3   1   9  113.26   19.67
  -3   1   9   67.68   23.50
   3  -1   9  121.37   28.93
  -3  -1  -9   90.14   27.22
   3   1  -9   31.86   24.40
   3  -1   9  120.83   22.47
   4   1   9  225.18   48.18
   4  -1  -9  237.06   55.60
  -4   1  -9  153.58   67.61
  -4  -1   9  248.48   48.90
   4   1   9  246.23   50.32
   4  -1  -9  221.58   36.51
   4  -1   9  279.01   54.55
  -4  -1  -9  172.97   73.29
   4  -1   9  236.14   41.58
   5   1   9    1.35   11.52
  -5   1  -9   -2.46   16.40
  -5  -1   9   14.48   11.92
   5   1   9   11.71    7.61
   5  -1  -9   16.07    8.63
   5  -1   9    2.42   13.43
  -5  -1  -9   20.70   11.55
   5  -1   9   20.22   11.12
   5   1  -9    8.96   10.39
   6   1   9   21.52   12.62
   6  -1  -9    8.72   15.69
  -6   1  -9   22.33   17.55
  -6  -1   9   -0.26   13.94
   6   1   9    9.97    8.41
   6  -1  -9   19.24    9.34
   6  -1   9    0.61   11.52
   6   1  -9   -0.27    9.50
  -6  -1  -9   17.10    9.78
  -6  -1  -9    8.90   13.43
  -6   1   9    9.79   14.79
   6  -1   9   10.71   10.14
   6   1  -9    8.86    9.30
   7   1   9   70.22   25.17
   7  -1  -9   85.37   31.49
  -7   1  -9   45.91   35.61
  -7  -1   9   75.28   30.14
   7   1   9   69.28   17.14
   7  -1  -9   75.81   19.21
   7  -1   9   79.14   24.70
   7   1  -9   34.11   20.63
  -7  -1  -9   26.57   20.10
  -7  -1  -9   10.37   30.41
  -7   1   9   31.76   44.75
   7  -1   9   91.83   20.41
   7   1  -9   74.62   19.39
   8   1   9   49.82   16.12
   8  -1  -9   11.41   22.48
  -8   1  -9   11.46   23.87
  -8  -1   9   37.06   20.48
   8   1   9   22.28   10.82
   8  -1  -9   30.75   13.30
   8  -1   9   38.28   17.88
   8   1  -9    7.51   15.72
  -8  -1  -9   17.02   14.14
  -8  -1  -9   11.01   23.12
  -8   1   9   31.39   35.41
   8  -1   9   38.87   15.46
   8   1  -9   35.22   14.08
   9   1   9   26.76   14.00
   9  -1  -9   33.12   17.12
  -9   1  -9   -3.73   18.24
  -9  -1   9   -5.74   15.97
   9   1   9   10.30    7.89
   9  -1  -9   13.79    9.87
   9   1  -9   10.38   12.88
  -9  -1  -9    3.71   18.54
  -9   1   9   36.22   30.50
   9   1  -9   13.38   10.87
  10   1   9  188.98   40.02
  10  -1  -9  146.58   53.13
 -10   1  -9  144.33   55.09
 -10  -1   9  180.40   49.76
  10   1   9  102.12   24.54
  10  -1  -9  162.98   29.74
  10   1  -9   90.05   41.64
 -10  -1  -9   89.24   57.16
 -10   1   9  150.64   97.70
  10  -1   9  195.35   35.24
  10   1  -9  148.49   32.93
  11   1   9   21.42   10.41
  11  -1  -9   17.00   15.37
 -11   1  -9   20.07   21.97
 -11  -1   9    7.58   14.37
  11   1   9   -2.27    5.96
  11  -1  -9    9.01    8.61
  11  -1   9    1.70   15.52
  11   1  -9   34.21   16.13
 -11   1   9   16.69   27.38
  11   1  -9   19.77   12.10
  12   1   9  144.95   34.21
  12  -1  -9  120.58   50.46
 -12   1  -9   92.79   47.74
 -12  -1   9  146.26   46.23
  12  -1  -9  128.71   28.61
  12  -1   9  186.79   36.96
  12   1  -9   80.91   40.87
 -12  -1  -9   87.79   48.31
 -12   1   9   82.66   42.05
  12   1  -9  122.42   27.87
  13   1   9   10.45    7.69
 -13   1  -9    8.99   12.06
 -13  -1   9    4.60   12.10
  13   1   9    3.49    3.93
  13  -1  -9   -0.67    6.86
  13  -1   9    3.65   12.34
  13   1  -9   12.60   14.12
 -13  -1  -9   22.13   23.05
 -13   1   9   13.26   14.11
  13   1  -9   11.78    9.19
  14   1   9   22.23   11.44
  14  -1  -9   20.38   20.84
 -14   1  -9   23.86   19.13
 -14  -1   9   34.58   18.36
  14  -1  -9   21.32   11.00
  14  -1   9   43.21   14.87
  14   1  -9   21.16   17.53
 -14  -1  -9    5.28   17.92
 -14   1   9    2.39   17.47
  14  -1   9   15.41   11.61
  14   1  -9   36.95   10.55
  15   1   9   14.38    7.86
 -15   1  -9    5.87   17.72
 -15  -1   9   44.45   16.19
  15  -1  -9   30.74    9.68
  15  -1   9   34.41   13.92
  15   1  -9   38.93   17.41
 -15  -1  -9   -5.79   18.70
 -15   1   9   -7.08   17.08
  15   1  -9   41.94    9.39
   0   1  10    1.73    6.37
   0  -1 -10    0.82    7.99
   0   1  10    2.53    4.85
   1   1  10  176.96   42.59
   1  -1 -10  211.50   53.34
  -1   1 -10   51.94   57.31
  -1  -1  10  243.86   36.17
   1   1  10  232.32   30.98
  -1   1  10  179.02   40.09
  -1  -1 -10  172.62   48.05
   1   1 -10   45.66   80.81
  -1   1  10  250.03   31.99
   1  -1  10  227.27   36.73
   2   1  10   68.51   22.18
   2  -1 -10   53.98   27.09
  -2   1 -10   20.96   31.34
  -2  -1  10   54.86   18.84
  -2  -1  10   84.77   19.47
   2   1  10   72.79   15.35
  -2   1  10   44.22   18.65
   2  -1  10   57.42   23.33
  -2  -1 -10   48.33   23.87
   2  -1  10   67.88   18.99
  -2   1  10   77.51   15.51
   3   1  10  160.17   39.98
   3  -1 -10  166.50   47.61
  -3   1 -10   96.93   55.29
  -3  -1  10  134.21   33.58
  -3  -1  10  230.40   34.25
   3   1  10  181.55   39.59
  -3   1  10  119.86   35.52
   3  -1  10  196.04   46.02
  -3  -1 -10  123.02   67.40
   3  -1  10  217.48   36.45
  -3   1  10  246.35   32.29
   4   1  10   10.62    9.74
   4  -1 -10    2.70   11.58
  -4   1 -10   15.40   13.66
  -4  -1  10    5.13    8.37
  -4  -1  10    5.51    8.28
   4   1  10    3.40    6.90
  -4   1  10    5.63    6.61
   4  -1  10   16.57    9.63
  -4  -1 -10    9.24    8.54
  -4   1  10   -1.36    6.47
   4  -1  10   -1.96    8.46
   5   1  10   86.37   28.80
   5  -1 -10  114.56   35.86
  -5   1 -10   57.48   42.19
  -5  -1  10   84.62   26.28
  -5  -1  10  119.18   24.78
   5   1  10   96.47   20.28
   5  -1  10  119.51   30.68
  -5  -1 -10   33.24   26.33
   5  -1  10  126.49   26.01
   6   1  10   40.25   20.10
   6  -1 -10   42.18   39.34
  -6   1 -10   36.50   29.11
  -6  -1  10   25.22   34.40
  -6  -1  10   57.03   17.78
   6   1  10   50.23   13.74
   6  -1 -10   51.59   15.04
   6  -1  10   61.76   19.70
  -6  -1 -10    3.94   16.60
   6  -1  10   55.29   16.98
   7   1  10    5.34   16.78
   7  -1 -10    6.65   11.57
  -7   1 -10    8.82   12.81
  -7  -1  10    0.88   10.08
   7   1  10    1.76    5.97
   7  -1 -10    4.44    6.65
   7  -1  10    0.56    9.35
  -7   1  10    0.92    7.45
   7  -1  10    7.63    8.12
   8   1  10   28.62   16.15
   8  -1 -10   26.95   17.91
  -8   1 -10   25.79   20.72
  -8  -1  10   36.48   17.05
   8   1  10   17.29    8.79
   8  -1 -10    8.34   10.19
   8  -1  10   40.69   16.66
   8   1 -10   12.99   14.18
  -8  -1 -10    9.65   18.86
  -8   1  10   12.34   14.19
   8  -1  10   43.57   14.07
   9   1  10  238.37   44.18
   9  -1 -10  170.52   54.74
  -9   1 -10  143.78   60.60
  -9  -1  10  183.01   50.52
   9   1  10  108.19   37.63
   9  -1 -10  177.97   30.87
   9  -1  10  228.61   41.63
   9   1 -10   43.66   35.33
  -9  -1 -10   63.89   46.48
  -9   1  10   53.55   37.25
   9  -1  10  221.00   32.92
   9   1 -10  192.97   30.89
  10   1  10    9.04   11.13
  10  -1 -10    4.25   15.10
 -10   1 -10    4.30   14.69
 -10  -1  10   23.62   14.13
  10   1  10    6.26    5.95
  10  -1 -10   13.23    8.20
  10  -1  10   18.84   13.06
  10   1 -10   11.53   12.07
 -10  -1 -10    3.14   15.37
 -10   1  10   26.23   13.05
  10  -1  10    5.32   10.42
  10   1 -10   17.92   10.18
  11   1  10  199.04   41.60
  11  -1 -10  156.72   57.67
 -11   1 -10   98.88   56.77
 -11  -1  10  204.29   52.15
  11  -1 -10  177.12   29.55
  11   1 -10   57.61   25.00
 -11  -1 -10   75.74   45.75
 -11   1  10   60.40   25.95
  12   1  10   72.25   20.45
  12  -1 -10   61.70   31.58
 -12   1 -10   38.38   29.66
 -12  -1  10   70.05   28.16
  12  -1 -10   60.41   15.71
  12   1 -10    6.16   13.01
 -12  -1 -10   -5.39   14.19
 -12   1  10   38.66   13.07
  13   1  10   66.69   18.23
  13  -1 -10   61.90   30.23
 -13   1 -10   29.12   28.32
 -13  -1  10   58.23   21.04
  13  -1 -10   71.45   14.46
  13   1 -10   10.83   12.40
 -13  -1 -10   12.76   13.86
 -13   1  10   24.91   12.93
   0   1  11   97.69   27.78
   0  -1 -11   66.21   35.42
   0   1  11  136.91   21.33
   0  -1  11  147.44   25.93
  -1  -1  11   -2.62    5.53
   1   1  11    1.05    4.43
  -1   1  11   11.23    7.77
  -1   1  11    6.86    6.25
   2   1  11   57.27   13.45
   2  -1 -11   37.37   16.75
  -2   1 -11    9.03   17.87
   2   1  11    1.32   10.12
  -2   1  11   37.25   17.70
  -2  -1 -11   38.80   21.47
  -2   1  11   90.05   15.22
   2  -1  11   84.79   27.68
   3   1  11    0.94    9.41
   3  -1 -11   10.40   11.83
  -3   1 -11   -3.87   12.92
  -3  -1  11   18.25    8.25
   3   1  11    6.99    7.24
  -3   1  11    8.82    7.03
   3  -1  11    8.95    9.46
  -3  -1 -11    5.25    8.83
  -3   1  11    6.86    6.38
   3  -1  11    2.90    8.90
   4   1  11   24.96    9.99
   4  -1 -11   -5.55   13.54
  -4   1 -11    4.67   14.41
  -4  -1  11    5.67    8.52
  -4  -1  11   16.56    8.98
   4   1  11    9.75    7.62
   4  -1  11    0.74    8.95
  -4  -1 -11   -1.45    7.95
  -4   1  11    8.84    6.16
   4  -1  11    8.18    8.40
   5   1  11   80.43   34.72
   5  -1 -11   73.73   31.15
  -5   1 -11   14.34   33.67
  -5  -1  11   56.11   21.52
  -5  -1  11  109.73   20.26
   5   1  11   85.76   17.57
   5  -1  11  117.53   32.26
  -5   1  11  119.65   21.52
   5  -1  11  124.84   28.32
   6   1  11    3.79   10.67
   6  -1 -11    1.42   11.40
  -6   1 -11    1.25   12.81
  -6  -1  11   21.50    8.07
  -6  -1  11   -0.11    7.54
   6   1  11    2.77    5.91
   6  -1  11    6.29   10.44
  -6   1  11    6.94    6.87
   6  -1  11   10.87    8.79
   7   1  11  429.17   60.30
  -7   1 -11  143.08   73.07
  -7  -1  11  198.21   49.60
  -7  -1  11  343.01   43.56
   7   1  11  215.88   35.58
   7  -1  11  357.61   65.73
  -7   1  11  305.11   42.75
   7  -1  11  365.89   54.88
   8   1  11    1.64    9.27
  -8   1 -11   27.86   18.03
  -8  -1  11   14.16    8.25
  -8  -1  11    4.51    7.07
   8   1  11    1.00    7.71
   8  -1  11    9.89    8.56
  -8   1  11    2.86    5.47
   8  -1  11   -0.32    7.05
   9  -1 -11   49.39   25.27
  -9   1 -11   30.37   25.61
  -9  -1  11   35.05   19.05
  -9  -1  11   72.52   15.30
   9  -1  11   66.13   22.94
  -9   1  11   61.63   14.67
   9  -1  11   71.89   18.96
  10   1  11   27.84   11.77
  10  -1 -11   15.74   15.41
 -10  -1  11    5.99   11.30
  10  -1  11   11.93    6.61
 -10   1  11   -0.74    4.57
 -10   1  11   -0.41    4.25
  10  -1  11   -0.15    5.47
  11   1  11   11.53    8.41
  11  -1 -11   16.18   11.61
 -11   1 -11    5.45   11.49
 -11  -1  11    7.04    8.42
 -11  -1  11    2.05    6.09
  11  -1  11   17.31    8.27
 -11   1  11    3.86    5.11
  11  -1  11   10.58    6.21
   0   1  12    2.87    7.41
   0  -1 -12   -1.16    5.66
   0   1  12   -1.05    4.43
   1  -1 -12   20.83   27.84
  -1  -1  12  122.31   20.77
   1   1  12  121.38   19.69
  -1   1  12   53.77   18.04
  -1   1  12  102.74   15.83
   1  -1  12  121.85   23.30
   2   1  12    8.63    8.78
   2  -1 -12    5.25    8.26
  -2  -1  12    9.38    6.04
  -2   1  12    9.28    6.80
  -2  -1 -12   -2.06    5.51
  -2   1  12    0.28    4.07
   3   1  12    1.30    9.49
   3  -1 -12    5.64    8.84
  -3   1 -12   14.11    8.95
  -3  -1  12    3.28    6.47
   3   1  12    2.46    5.47
   3  -1  12    2.41    6.00
   4   1  12   33.09   11.08
   4  -1 -12    1.99   10.84
  -4   1 -12    6.32   11.02
  -4  -1  12   11.26    7.72
   4   1  12    4.45    6.09
   4  -1  12    2.70    7.40
  -4   1  12    3.49    5.69
   4  -1  12   25.36    8.03
   5   1  12   -0.12    8.76
   5  -1 -12    2.31    9.02
  -5   1 -12    6.74   13.12
  -5  -1  12    3.80    6.01
   5   1  12    5.36    4.47
   5  -1  12    3.25    6.42
   6  -1 -12   83.70   20.61
  -6   1 -12    6.90   19.75
  -6  -1  12   28.74   10.69
   6   1  12   56.61    9.72
   6  -1  12   82.61   29.31
  -6   1  12  154.42   19.14
   6  -1  12  168.88   26.46
   7   1  12   13.27    8.46
   7  -1 -12    3.21    9.54
  -7   1 -12   11.15    9.12
  -7  -1  12    4.86    5.06
  -7  -1  12   13.47    6.12
   7   1  12    2.69    3.33
   7  -1  12    8.20    6.70
  -7   1  12    0.86    4.18
   7  -1  12    6.07    5.91
   8  -1 -12   63.59   15.61
  -8   1 -12   -5.31   14.68
  -8  -1  12   22.38    8.40
   8  -1  12   71.33   23.45
  -8   1  12  104.26   14.17
   8  -1  12  172.15   32.12
   9  -1 -12   18.14   10.55
  -9   1 -12   -0.04    9.71
  -9  -1  12   12.72    6.05
   9  -1  12    3.06    7.05
  -9   1  12    6.48    3.97
   9  -1  12   13.47    6.27
   0   1  13   16.72    5.53
   0  -1  13   39.14    9.97
  -1  -1  13   58.32   14.93
   1  -1  13   55.47   11.90
  -1   1  13   29.24    6.90
   2   1  13   18.70    7.84
  -2  -1  13    6.14    8.05
  -2   1  13    9.89    4.58
   2  -1  13   20.11    7.67
   3   1  13  119.80   16.57
  -3  -1  13   12.86   14.05
   3  -1  13  125.43   21.27
  -4  -1  13    5.49    8.19
   0   2   0 7907.20 1407.09
   0  -2   0 8159.92 1436.75
   0   2   0 8987.84 1541.61
   0  -2   0 7616.98 1412.35
   0   2   0 9999.00 1798.30
   0  -2   0 8850.06 1525.37
   0   2   0 8726.90 1613.77
   0  -2   0 8277.71 1607.06
  -1   2   0    5.46    5.12
   1   2   0    4.42    3.28
   1   2   0    0.28    3.31
   1  -2   0    5.39    3.84
  -1  -2   0    8.50    5.15
   1   2   0    5.39    4.60
   1  -2   0   -0.86    5.11
  -1  -2   0    5.53    4.25
   1   2   0    3.02    4.66
  -1   2   0   13.25    6.76
  -1  -2   0   16.88   10.00
   1  -2   0    4.27    6.96
  -2   2   0 3088.94  357.74
   2   2   0 2722.31  289.47
  -2  -2   0 2729.92  285.26
  -2   2   0 3024.51  287.48
   2  -2   0 2500.50  278.83
  -2  -2   0 2711.28  339.22
   2   2   0 3274.42  372.31
  -2   2   0 2840.38  290.29
  -2  -2   0 2874.21  327.26
   2  -2   0 2928.30  297.23
   2   2   0 3021.37  333.27
  -2   2   0 2903.55  373.79
  -2  -2   0 2680.84  337.69
   2  -2   0 2979.08  393.38
   2  -2   0 2439.61  214.97
   2  -2   0 2404.03  219.57
  -3   2   0   -0.24    5.27
   3   2   0    2.21    2.65
   3  -2   0   14.82    4.90
  -3  -2   0    0.16    2.38
  -3   2   0    1.04    1.43
   3   2   0    2.28    4.00
  -3  -2   0   -1.28    5.52
   3   2   0    5.09    5.58
  -3   2   0    5.15    2.57
   3  -2   0    4.43    2.44
  -3  -2   0    1.01    4.72
   3  -2   0    2.05    6.85
  -3   2   0    6.28    1.88
   3  -2   0    5.20    2.29
  -4   2   0  217.25   27.27
  -4  -2   0  136.80   14.85
   4  -2   0  132.31   13.36
  -4  -2   0  155.21   28.06
  -4   2   0  190.13   17.19
   4   2   0  178.58   27.30
  -4  -2   0  165.85   26.46
   4   2   0  187.55   18.25
  -4  -2   0  149.74   21.42
  -4   2   0  223.85   36.36
   4  -2   0  198.42   32.14
  -4   2   0  158.20   13.56
   4  -2   0  168.57   11.47
   5   2   0    3.64    1.75
  -5  -2   0    1.09    1.59
   5  -2   0    1.54    2.11
   5  -2   0   -0.41    1.32
  -5  -2   0    2.83    7.73
  -5   2   0    1.82    2.44
   5   2   0    5.26    5.54
  -5  -2   0   14.56    5.46
   5   2   0    1.07    3.00
  -5   2   0    4.89    7.01
   5  -2   0    3.06    8.41
  -5   2   0   -0.22    2.66
  -6   2   0   51.32   14.07
   6  -2   0   30.51   12.74
  -6  -2   0   43.37   12.75
   6   2   0   56.32   14.94
  -6  -2   0   48.37   14.39
   6   2   0   59.30    9.08
  -6   2   0   29.11   17.40
  -6  -2   0   41.67    9.75
   6  -2   0   25.25   17.18
  -6   2   0   23.85    7.74
   6  -2   0   29.61    6.92
  -7   2   0    1.48    5.96
   7  -2   0    2.29    5.22
  -7  -2   0    8.92    5.27
   7   2   0    2.16    6.75
  -7  -2   0    6.54    6.53
   7  -2   0    5.58    6.73
  -7   2   0    1.42    3.42
  -8   2   0   91.50   28.30
   8  -2   0   73.64   24.84
  -8  -2   0  161.35   24.17
   8   2   0  177.62   33.22
  -8  -2   0  156.41   31.81
   8   2   0  130.51   16.45
  -8  -2   0  129.48   17.10
  -8   2   0   64.50   31.07
   8  -2   0   78.54   31.45
   8  -2   0   76.40   22.54
  -9  -2   0    0.32    7.36
   9  -2   0   -2.35    6.85
   9  -2   0    2.37    3.61
  10  -2   0  222.92   43.61
 -10  -2   0  277.10   41.93
 -10  -2   0  319.53   60.27
  10  -2   0  232.78   52.13
  10  -2   0  208.07   30.35
 -11  -2   0    7.46    6.24
 -11  -2   0    0.78    9.30
  11  -2   0   12.01    7.23
  12  -2   0  973.00  146.25
 -12  -2   0 1039.67  143.27
 -12  -2   0 1267.48  213.40
 -12   2   0 1003.31  212.98
  12  -2   0  929.49  117.49
 -13   2   0    5.76   11.32
  13  -2   0    8.23    6.53
  14  -2   0 1508.25  242.66
  14   2   0 1537.54  200.79
 -14  -2   0 2217.30  384.89
 -14   2   0 1075.70  288.90
  14  -2   0 1519.34  194.51
  15  -2   0    2.17    7.45
  15   2   0    1.90    7.16
 -15  -2   0   30.86   22.78
 -15   2   0    0.75   11.12
  15  -2   0    3.19    6.34
  16  -2   0  211.28   46.83
  16   2   0  327.28   46.55
 -16  -2   0  340.82   65.13
 -16   2   0  129.77   71.94
  16  -2   0  308.15   40.63
  18   2   0    8.41    6.17
 -18  -2   0   -1.46    8.33
  18  -2   0    3.24    5.18
  19   2   0    1.72    4.26
  19  -2   0    0.48    4.47
  20   2   0   10.24    9.46
 -20  -2   0    7.25    4.88
  20  -2   0   10.33    4.82
   0   2  -1   14.21    5.63
   0   2   1   17.84    5.98
   0   2  -1   24.01    3.65
   0  -2  -1   27.21    7.90
   0  -2   1   17.06    7.53
   0   2   1   22.47    5.16
   0   2  -1   20.67    6.08
   0  -2  -1   15.41    4.72
   0   2  -1   13.20    9.50
   0  -2   1    8.29    9.90
   0  -2  -1   19.79    9.04
  -1   2  -1  369.41   36.36
   1   2   1  391.76   32.95
  -1  -2   1  364.36   26.69
   1   2   1  405.63   33.95
   1  -2  -1  313.72   36.65
  -1  -2   1  372.01   30.21
   1   2   1  451.53   34.41
  -1   2  -1  345.09   31.67
   1  -2  -1  346.48   24.14
  -1  -2   1  401.90   37.83
  -1   2  -1  369.48   51.41
   1   2   1  400.24   32.46
  -1  -2   1  377.80   47.43
   1  -2  -1  341.67   50.72
   1   2  -1  421.59   30.95
  -1   2   1  353.62   37.13
  -1  -2  -1  395.71   34.90
  -1   2   1  331.26   26.00
   1   2  -1  358.81   27.29
   1  -2   1  356.91   24.15
  -1  -2  -1  368.83   64.13
  -1   2   1  386.27   29.17
   1   2  -1  392.33   35.06
  -1  -2  -1  392.36   31.61
   1  -2   1  344.88   31.13
   1   2  -1  423.60   46.88
  -1   2   1  359.59   37.28
   1  -2   1  348.13   50.66
  -1  -2  -1  380.94   44.10
  -2   2  -1  141.01   19.41
   2   2   1  127.90   13.13
   2  -2  -1  112.70   18.29
  -2  -2   1  126.92    9.65
   2   2   1  138.12   15.64
   2  -2  -1  110.15   16.08
  -2  -2   1  116.09   14.86
   2   2   1  140.22   15.96
  -2   2  -1  118.67   13.67
  -2  -2   1  136.64   18.60
   2  -2  -1  110.49    8.28
  -2   2  -1  101.09   25.27
   2   2   1  130.30   12.82
  -2  -2   1  110.28   22.67
   2  -2  -1  111.39   24.77
   2   2  -1  124.89   11.28
  -2   2   1  116.72   18.22
   2  -2   1  120.27   27.48
  -2  -2  -1  124.75   13.71
  -2   2   1  109.84   10.61
   2   2  -1  127.00   13.02
  -2  -2  -1  124.36   21.92
   2   2  -1  169.06   22.37
  -2   2   1  127.44   10.91
  -2  -2  -1  139.91   16.80
   2  -2   1  113.77   13.54
   2   2  -1  138.09   29.25
  -2   2   1  113.66   19.80
   2  -2   1  113.18   24.70
  -2  -2  -1  113.29   17.18
   2  -2   1  103.99    6.96
  -3   2  -1   55.54   10.97
   3   2   1   28.86    6.13
   3  -2  -1   51.88   10.22
  -3  -2   1   29.79    3.69
   3  -2  -1   31.97    7.54
  -3  -2   1   35.32    8.44
   3   2   1   28.00    8.92
   3  -2  -1   31.44    3.43
   3   2   1   34.09    9.08
  -3  -2   1   31.18   11.32
   3  -2  -1   38.43   13.36
   3  -2  -1   32.77    2.88
   3   2  -1   29.63    4.56
  -3   2   1   45.05   10.38
   3  -2   1   50.55   10.48
  -3  -2  -1   24.02    6.04
  -3   2   1   31.72    7.00
  -3  -2  -1   25.04   12.42
   3   2  -1   48.07   12.46
  -3   2   1   44.00    4.76
  -3  -2  -1   25.28    9.25
   3  -2   1   43.00    6.59
   3   2  -1   31.49    9.88
  -3   2   1   34.31   12.08
  -3  -2  -1   23.21    7.90
   3  -2   1   50.75   13.55
  -3   2   1   28.94    3.62
   3  -2   1   28.60    4.51
   3  -2   1   36.63    4.22
  -4   2  -1   89.54   18.45
   4   2   1   75.35    9.06
   4   2   1   80.99   16.29
   4  -2  -1   60.03   16.38
  -4  -2   1   69.20   14.44
  -4   2  -1   82.82   13.33
   4   2   1   82.46   25.23
  -4  -2   1   81.28   16.30
   4   2   1   96.27    9.04
  -4   2  -1   78.77   21.65
  -4  -2   1   79.63   16.87
   4  -2  -1   58.30   23.25
   4  -2  -1   69.45    5.85
  -4   2   1   83.53   16.33
   4  -2   1   62.34   15.97
  -4  -2  -1   73.64    9.04
  -4   2   1   62.77    7.19
  -4  -2  -1   78.39   19.39
  -4   2   1   64.46    5.93
   4   2  -1   98.14   19.41
  -4  -2  -1   84.59   15.38
   4   2  -1   95.51   13.54
  -4  -2  -1   71.27   16.14
  -4   2   1   87.37   20.67
   4  -2   1   67.59   19.00
  -4   2   1   53.82    7.47
   4  -2   1   61.73    7.86
   4  -2   1   77.26    9.01
  -5   2  -1  639.85   75.74
   5   2   1  512.51   42.50
  -5  -2   1  584.36   63.79
  -5   2  -1  548.48   59.91
   5   2   1  695.91   80.36
  -5  -2   1  652.16   71.79
   5   2   1  708.17   47.98
  -5   2  -1  529.87   85.22
  -5  -2   1  550.83   66.48
   5  -2  -1  579.62   90.10
  -5   2  -1  516.59   47.61
  -5   2   1  597.07   67.85
   5  -2   1  545.86   70.33
  -5  -2  -1  580.86   44.63
  -5  -2  -1  641.94   80.53
   5   2  -1  724.78   81.59
  -5  -2  -1  637.14   70.92
   5   2  -1  690.21   59.71
  -5   2   1  501.68   87.30
  -5  -2  -1  542.99   48.74
   5  -2   1  559.94   75.72
   5  -2   1  481.07   44.21
  -6   2  -1  245.14   35.62
   6   2   1  185.89   16.35
   6  -2  -1  202.54   32.37
   6  -2  -1  142.28   22.92
  -6  -2   1  212.56   29.72
   6   2   1  252.32   38.53
  -6  -2   1  213.52   50.83
   6   2   1  261.66   18.88
  -6   2  -1  197.93   39.90
  -6  -2   1  182.30   31.10
   6  -2  -1  205.97   44.08
  -6   2  -1  181.00   21.92
   6  -2  -1  184.16   15.93
  -6   2   1  250.50   34.71
   6  -2   1  204.99   35.80
  -6  -2  -1  236.43   39.97
   6   2  -1  276.65   38.60
  -6  -2  -1  216.74   36.62
   6   2  -1  292.12   30.93
  -6  -2  -1  189.01   17.91
  -6   2   1  207.17   43.28
   6  -2   1  203.32   33.69
  -6   2   1  163.58   20.66
   6  -2   1  190.66   20.72
  -7   2  -1   19.25   19.69
   7  -2  -1   19.96    9.18
   7  -2  -1    8.45    6.59
  -7  -2   1   24.25    9.54
  -7   2  -1    9.73   11.25
   7   2   1   34.03   12.16
  -7  -2   1   34.14   11.45
  -7   2  -1   -1.12   12.03
  -7  -2   1   41.69   14.26
   7  -2  -1   -1.47   13.11
  -7   2  -1   15.26    6.60
   7  -2  -1   13.09    4.91
  -7   2   1   20.08    9.83
   7  -2   1   22.18   10.82
  -7  -2  -1   26.82   15.43
   7   2  -1   17.44   11.39
  -7  -2  -1   20.22   11.48
   7   2  -1   26.90    7.82
  -7   2   1   -0.24   13.06
   7  -2   1   -2.07   11.71
  -7   2   1    5.60    5.87
   7  -2   1   16.49    6.06
  -8   2  -1  216.76   38.88
   8  -2  -1  142.74   28.80
  -8  -2   1  173.02   29.96
   8   2   1  226.76   41.10
  -8  -2   1  190.38   36.27
  -8  -2   1  153.11   43.35
  -8   2  -1  136.74   36.51
   8  -2  -1  161.18   38.80
  -8   2  -1  122.03   21.52
   8  -2  -1  137.97   17.28
  -8   2   1  207.97   33.21
   8  -2   1  162.77   36.32
  -8  -2  -1  159.89   30.77
   8   2  -1  258.17   62.44
  -8  -2  -1  171.37   39.99
   8   2  -1  192.10   25.02
  -8   2   1  152.71   41.57
   8  -2   1  161.51   37.54
  -8   2   1  115.69   20.19
   8  -2   1  150.76   21.36
   9  -2  -1  205.69   34.76
  -9  -2   1  178.00   35.99
  -9  -2   1  227.36   45.15
  -9  -2   1  180.46   47.44
   9  -2  -1  190.35   43.91
  -9   2  -1  169.88   26.32
   9  -2  -1  166.05   22.53
   9  -2   1  186.03   41.25
  -9  -2  -1  171.41   33.59
  -9  -2  -1  192.26   46.15
   9   2  -1  177.19   27.68
   9  -2   1  194.26   40.74
  -9   2   1  165.01   23.83
   9  -2   1  171.53   25.82
  10  -2  -1   12.94    9.21
 -10  -2   1    8.40    9.57
 -10  -2   1   13.14   12.97
  10  -2  -1    3.65   11.44
  10  -2  -1    6.26    6.29
  10  -2   1    9.00   13.25
 -10  -2  -1   15.12   10.67
 -10  -2  -1    3.52   16.33
  10  -2   1   30.10   12.36
  10  -2   1   12.27    8.38
  11  -2  -1   -1.32    6.99
  11  -2  -1    6.09    5.08
  11  -2   1   15.08   16.25
 -11  -2  -1   -3.77    8.60
 -11  -2  -1   15.65   13.52
  11  -2   1   11.58    9.57
  11  -2   1    4.73    7.26
  12  -2  -1   11.91   10.32
 -12  -2   1   25.27   26.05
  12  -2  -1    9.43    8.19
  12  -2   1   10.56   10.04
  12   2  -1   19.16    8.49
 -12  -2  -1   18.16   10.05
 -12  -2  -1   18.45   16.79
  13  -2  -1  123.84   30.81
 -13  -2   1  143.65   37.79
 -13   2  -1   61.25   39.63
  13  -2  -1  130.10   24.16
  13  -2   1  117.55   30.68
  13   2  -1  122.64   26.94
 -13  -2  -1  130.76   31.38
 -13  -2  -1  164.01   52.48
 -13   2   1  114.98   45.40
  13  -2   1  116.31   24.22
  14  -2  -1   47.63   17.39
 -14  -2   1   53.92   22.01
 -14   2  -1    5.26   22.84
  14  -2  -1   48.72   15.06
  14  -2   1   37.07   17.63
  14   2  -1   38.93   15.56
 -14  -2  -1   64.98   32.01
 -14   2   1   17.07   27.75
  14  -2   1   51.85   14.15
  15  -2  -1   46.15   16.69
  15   2   1   55.74   15.71
 -15  -2   1   63.26   22.49
 -15   2  -1    1.38   23.25
  15  -2  -1   47.68   15.31
  15  -2   1   37.69   16.46
  15   2  -1   50.54   15.52
 -15  -2  -1   57.77   31.94
 -15   2   1   -1.25   26.26
  15  -2   1   45.25   13.42
  16  -2  -1   37.80   17.60
  16   2   1   84.30   18.36
 -16  -2   1   94.58   25.70
 -16   2  -1    9.60   25.93
  16  -2  -1   74.76   17.20
  16  -2   1   70.66   21.47
  16   2  -1   90.22   21.42
 -16  -2  -1  160.73   44.32
 -16   2   1   62.08   39.73
  16  -2   1   75.93   18.28
  17   2   1   25.05   10.17
 -17  -2   1    9.76   13.45
  17  -2  -1   13.47   14.09
  17  -2   1   11.80    9.01
  17   2  -1   25.48    9.59
 -17  -2  -1   16.67   13.46
  17  -2   1   11.27    8.33
  18   2   1   35.25   11.90
 -18  -2   1   28.15   14.80
  18  -2  -1   38.29   12.22
  18  -2   1    4.25    7.12
  18   2  -1   28.54    8.54
 -18   2   1   -8.37   17.03
  18  -2   1   22.16    7.53
  19   2   1   80.84   14.66
  19  -2  -1   73.80   15.51
  19   2  -1  113.84   36.18
 -19  -2  -1   52.13   17.14
 -19   2   1    1.55   21.19
  19  -2   1   66.01   10.79
  20   2   1    3.59   15.55
  20  -2  -1   13.22    4.97
  20   2  -1   19.10    9.98
 -20  -2  -1    6.53    6.05
  20  -2   1   11.23    4.94
   0   2  -2  299.58   41.19
   0   2   2  247.23   26.92
   0  -2   2  212.63   27.71
   0  -2  -2  238.50   26.78
   0   2   2  227.98   22.34
   0   2  -2  208.11   11.75
   0  -2  -2  208.81   30.33
   0   2   2  246.08   18.94
   0   2  -2  228.39   26.07
   0  -2  -2  228.26   15.56
   0  -2   2  242.76   24.34
   0   2  -2  255.67   35.24
   0  -2   2  221.46   34.02
   0  -2  -2  189.73   40.56
   0  -2   2  187.52   13.60
   0  -2   2  214.03   10.67
  -1   2  -2   51.06   18.42
   1   2   2   75.48   10.84
  -1  -2   2   65.56    6.59
   1  -2  -2   46.92   12.92
   1  -2  -2   35.20   14.00
  -1  -2   2   70.14    5.96
   1   2   2   77.18    9.44
  -1   2  -2   44.15   11.61
   1   2   2   66.97    7.97
  -1  -2   2   68.06   16.38
   1  -2  -2   30.18   16.55
  -1  -2   2   53.77    4.64
  -1  -2   2   62.40    3.55
  -1   2   2   35.91   12.24
   1  -2   2   34.21    9.94
  -1  -2  -2   61.12   10.29
  -1   2   2   40.39    8.04
   1   2  -2   73.37    9.20
  -1  -2  -2   77.36   13.77
   1   2  -2   76.50   11.14
  -1  -2  -2   69.51   12.15
   1  -2   2   41.75    9.93
   1   2  -2   66.58   14.71
   1  -2   2   54.06   14.75
  -1  -2  -2   39.98   10.42
   1  -2   2   41.07    5.85
  -2   2  -2  685.47   93.74
   2   2   2  486.50   54.52
   2  -2  -2  576.74   55.46
  -2  -2   2  418.09   34.01
   2   2   2  491.26   46.55
  -2   2  -2  654.71   52.59
  -2  -2   2  474.02   50.18
   2  -2  -2  475.43   25.75
  -2   2  -2  634.10   69.48
   2   2   2  456.22   36.13
  -2  -2   2  475.63   64.55
   2  -2  -2  593.37   77.31
   2  -2  -2  475.65   25.88
   2   2  -2  503.45   43.49
  -2   2   2  626.85   61.71
   2  -2   2  630.47   58.39
  -2  -2  -2  461.55   45.46
  -2   2   2  606.96   47.15
  -2  -2  -2  455.49   62.53
  -2   2   2  599.94   35.70
   2   2  -2  471.10   53.88
  -2  -2  -2  475.95   43.74
   2  -2   2  600.09   50.91
   2   2  -2  523.97   62.98
   2  -2   2  626.12   96.61
  -2   2   2  478.89   26.46
   2  -2   2  499.59   39.38
   2  -2   2  584.93   43.30
  -3   2  -2  875.33  111.78
   3   2   2  968.96  102.16
   3  -2  -2  691.03  107.41
  -3  -2   2  888.28   73.72
   3   2   2  929.51   92.44
  -3  -2   2  918.59   92.05
  -3   2  -2  767.79  107.59
   3   2   2  952.00   68.38
  -3  -2   2  847.11  102.07
   3  -2  -2  724.33  114.85
  -3  -2   2  781.04   46.56
   3   2  -2  684.44   54.97
  -3   2   2  779.02   81.69
   3  -2   2  766.62   83.75
  -3  -2  -2  788.53   65.07
  -3   2   2  807.17   63.50
  -3  -2  -2  884.11   98.40
   3   2  -2  895.83  116.82
  -3  -2  -2  840.61   74.69
   3  -2   2  743.30   68.16
   3   2  -2  987.86   93.14
   3  -2   2  764.86   90.91
   3  -2   2  704.79   60.73
  -3   2   2  635.36   47.37
   3  -2   2  689.31   54.69
  -4   2  -2 1832.61  202.03
   4  -2  -2 1392.44  155.47
  -4  -2   2 1261.20  129.05
  -4   2  -2 1755.41  180.27
   4   2   2 1435.91  163.27
   4   2   2 1452.39  114.54
  -4   2  -2 1502.65  192.44
  -4  -2   2 1275.20  161.64
   4  -2  -2 1433.59  205.63
  -4  -2   2 1148.86   84.89
   4  -2  -2 1359.60  104.86
  -4   2   2 1511.00  158.73
   4  -2   2 1444.99  165.94
  -4  -2  -2 1393.94  132.46
  -4   2   2 1406.08  124.62
  -4  -2  -2 1338.49  176.07
   4   2  -2 1621.90  184.60
  -4  -2  -2 1286.92  144.24
   4   2  -2 1492.03  162.68
   4  -2   2 1492.84  173.89
  -4   2   2 1327.78  115.43
   4  -2   2 1307.61  127.78
   4   2  -2 1184.95   92.72
   4  -2   2 1371.12  122.29
  -5   2  -2 2061.71  256.10
   5  -2  -2 1708.49  198.15
   5   2   2 1885.54  238.00
   5  -2  -2 1656.87  206.41
  -5  -2   2 1809.29  192.62
  -5   2  -2 1854.09  214.84
   5   2   2 1907.27  230.79
  -5  -2   2 1958.61  220.09
  -5   2  -2 1757.11  241.66
  -5  -2   2 1571.71  269.00
   5  -2  -2 1774.23  266.42
  -5  -2   2 1542.03  128.08
   5  -2  -2 1500.13  135.17
  -5   2   2 1669.54  236.35
   5  -2   2 1722.47  218.36
  -5  -2  -2 1816.08  178.04
  -5   2   2 1636.99  158.00
  -5  -2  -2 1864.58  236.88
   5   2  -2 2244.67  255.80
  -5  -2  -2 1755.33  212.73
   5   2  -2 2042.41  215.18
   5  -2   2 1713.06  212.86
  -5   2   2 1553.87  154.60
   5  -2   2 1539.36  188.17
   5   2  -2 1598.00  139.40
   5  -2   2 1469.03  155.00
  -6   2  -2  303.57   47.54
   6   2   2  245.58   46.50
   6  -2  -2  231.27   36.43
  -6  -2   2  277.27   33.54
  -6   2  -2  217.36   36.14
   6   2   2  284.53   45.24
  -6  -2   2  287.12   39.05
  -6   2  -2  264.02   44.61
  -6  -2   2  222.48   43.98
   6  -2  -2  244.48   49.90
   6  -2  -2  227.28   18.94
  -6   2   2  273.91   37.63
   6  -2   2  250.40   46.14
  -6  -2  -2  233.63   23.10
  -6   2   2  207.05   21.19
  -6  -2  -2  290.04   47.66
   6   2  -2  338.95   45.24
  -6  -2  -2  249.17   42.43
   6   2  -2  362.59   41.06
   6  -2   2  251.12   37.03
  -6   2   2  242.71   24.40
   6  -2   2  239.55   26.01
   6  -2   2  212.40   26.03
  -7   2  -2 1562.80  184.07
   7   2   2 1032.58  109.17
   7   2   2 1387.91  183.40
   7  -2  -2  873.82  147.68
   7  -2  -2 1012.79  103.20
  -7  -2   2 1381.12  148.44
  -7   2  -2 1085.88  142.63
   7   2   2 1488.05  184.86
  -7  -2   2 1382.79  156.67
  -7   2  -2 1230.37  218.74
  -7  -2   2 1002.95  156.69
   7  -2  -2 1333.57  197.60
   7  -2  -2 1134.72  101.22
  -7   2   2 1675.95  185.02
   7  -2   2 1348.56  195.26
  -7  -2  -2 1443.50  197.81
   7   2  -2 1703.00  209.95
  -7  -2  -2 1271.79  197.14
   7   2  -2 1657.49  189.29
  -7   2   2 1252.57  221.85
   7  -2   2 1297.38  215.77
  -7   2   2 1180.09  129.82
   7  -2   2 1204.92  135.05
  -8   2  -2  528.71   79.93
   8   2   2  597.18   87.36
  -8  -2   2  575.56   67.48
   8   2   2  625.25   91.10
  -8  -2   2  540.67   72.04
  -8  -2   2  390.14   78.73
  -8   2  -2  412.45   99.66
   8  -2  -2  436.33   85.34
   8  -2  -2  385.90   40.11
   8  -2   2  467.59   83.91
  -8  -2  -2  582.35   86.70
   8   2  -2  690.13   87.70
  -8  -2  -2  503.98   92.87
   8   2  -2  609.95   70.42
  -8   2   2  457.73  101.75
   8  -2   2  503.44   82.59
  -8   2   2  376.31   49.91
   9  -2  -2  313.64   62.37
   9  -2  -2  310.12   35.76
  -9   2  -2  331.17   56.49
  -9   2  -2  200.33   37.80
   9  -2   2  913.27  143.89
   9   2  -2  865.75  106.06
  -9  -2  -2  816.29  118.69
  -9  -2  -2  833.18  158.03
   9   2  -2  991.88  120.25
   9  -2   2 1003.94  148.01
  -9   2   2  858.00   96.39
   9  -2   2  810.74   95.23
  10  -2  -2  993.46  134.12
 -10  -2   2 1178.42  155.41
 -10  -2   2 1122.02  180.44
  10  -2  -2  866.64   99.10
  10  -2   2 1027.36  166.26
  10   2  -2  993.10  128.67
 -10  -2  -2 1093.37  143.06
 -10  -2  -2 1099.26  198.74
 -10   2   2  951.90  202.64
  10  -2   2 1029.96  166.68
  10  -2   2  962.46  117.48
  11  -2  -2  227.92   39.65
 -11  -2   2  218.99   46.56
 -11  -2   2  159.30   40.38
  11  -2  -2  216.37   29.75
  11  -2   2  225.00   51.26
  11   2  -2  213.14   38.05
 -11  -2  -2  207.29   41.02
 -11  -2  -2  176.48   65.95
 -11   2   2  207.09   64.78
  11  -2   2  171.84   44.95
  11  -2   2  223.36   33.37
  12  -2  -2  172.86   35.21
 -12  -2   2  200.56   41.84
  12  -2  -2  144.93   27.94
  12  -2   2  185.62   45.67
  12   2  -2  194.34   37.34
 -12  -2  -2  194.49   38.37
 -12  -2  -2  240.21   61.84
 -12   2   2  121.21   58.09
  12  -2   2  120.60   38.41
  12  -2   2  183.08   32.34
  13  -2  -2   -4.78    9.74
 -13  -2   2    8.07   12.33
 -13   2  -2    7.90   11.88
  13  -2  -2   18.03    7.89
  13  -2   2   19.24   14.90
  13   2  -2   21.57   12.73
 -13  -2  -2   15.92   12.82
 -13  -2  -2   17.18   22.77
 -13   2   2    7.18   20.44
  13  -2   2   27.48   17.37
  14  -2  -2   25.99   14.97
 -14  -2   2   50.61   19.03
 -14   2  -2   20.46   18.85
  14  -2  -2   39.53   12.97
  14  -2   2   41.73   15.88
  14   2  -2   32.04   15.31
 -14  -2  -2   40.57   17.49
 -14  -2  -2   35.55   30.26
 -14   2   2   30.23   27.93
  14  -2   2   37.37   12.56
  15  -2  -2   21.48   11.43
 -15  -2   2   59.95   18.02
 -15   2  -2   11.04   17.70
  15  -2  -2   50.44   22.77
  15  -2   2   22.20   14.43
  15   2  -2   39.78   14.19
 -15  -2  -2   66.03   28.43
 -15   2   2  -11.41   26.33
  15  -2   2   36.86   11.58
  16   2   2   56.81   16.71
 -16  -2   2   44.36   22.08
  16  -2  -2   66.43   18.75
  16  -2   2   43.75   16.72
  16   2  -2   57.12   16.90
 -16  -2  -2   53.45   35.62
 -16   2   2   64.34   32.98
  16  -2   2   57.56   14.10
  17   2   2  127.66   22.04
 -17  -2   2   98.41   27.63
  17  -2  -2   97.89   23.87
  17  -2   2   56.83   18.46
  17   2  -2   84.37   18.93
 -17  -2  -2  151.39   41.81
 -17   2   2   36.03   40.83
  17  -2   2   83.85   16.08
  18   2   2   65.75   14.11
 -18  -2   2   30.83   15.63
  18  -2  -2   63.68   15.14
  18  -2   2   21.22   11.72
  18   2  -2   42.27   20.02
 -18  -2  -2   39.66   18.22
 -18   2   2   26.67   28.69
  18  -2   2   66.29   10.81
  19   2   2  156.66   21.63
  19  -2  -2  160.18   22.78
  19  -2   2    3.82    3.44
 -19   2   2   -3.22   11.28
   0   2  -3   12.08    5.03
   0   2   3   17.74    6.18
   0  -2   3    7.91    3.97
   0  -2  -3    1.65    5.94
   0   2   3   12.74    5.44
   0  -2  -3   -0.70    7.22
   0   2   3    6.01    3.44
   0   2  -3    8.43    6.60
   0  -2  -3    4.36    2.15
   0  -2   3   10.04    5.41
   0   2  -3    5.46    7.84
   0  -2  -3    9.73    5.30
   0  -2   3    3.61    2.72
   0  -2   3    7.85    2.24
  -1   2  -3   46.40   12.53
  -1  -2   3   60.67    6.26
   1  -2  -3   49.11   13.07
   1   2   3   66.39   12.63
   1  -2  -3   46.35   14.88
   1   2   3   46.94    9.17
  -1   2  -3   57.09   12.96
  -1  -2   3   59.63   11.73
  -1   2  -3   50.52   16.58
  -1  -2   3   58.27   16.92
   1  -2  -3   33.72   13.39
  -1  -2   3   47.98    5.85
  -1  -2   3   53.83    4.68
   1   2  -3   54.89    8.33
  -1   2   3   46.43   13.16
   1  -2   3   57.64   11.09
  -1  -2  -3   61.03   10.97
  -1   2   3   40.07   10.31
  -1  -2  -3   69.58   14.87
   1   2  -3   61.43   13.97
  -1  -2  -3   52.53    6.69
   1  -2   3   40.98   10.84
   1   2  -3   79.38   15.42
   1  -2   3   41.95   14.78
   1  -2   3   38.01    6.51
   1  -2   3   43.46    5.31
  -2   2  -3   89.76   16.89
  -2  -2   3   66.18    5.51
   2  -2  -3   88.06   15.89
   2  -2  -3   68.56   18.00
   2   2   3   80.51   13.10
   2   2   3   69.70    7.36
  -2  -2   3   93.21   20.04
   2  -2  -3   63.32   18.10
  -2  -2   3   76.28    7.16
  -2  -2   3   79.08    5.63
   2  -2  -3   76.15    5.41
   2   2  -3   60.31    8.06
  -2   2   3   91.10   17.60
   2  -2   3   90.39   16.14
  -2  -2  -3   87.01   12.85
   2   2  -3   72.31    6.76
  -2   2   3   84.22   12.99
  -2  -2  -3   98.43   19.03
   2   2  -3  103.97   17.32
  -2  -2  -3   74.14   10.15
   2  -2   3   90.26   13.50
   2   2  -3  106.42   20.65
   2  -2   3   86.45   18.58
  -2   2   3   75.83    6.59
   2  -2   3   70.37    9.70
   2  -2   3   76.63    7.74
  -3   2  -3  424.56   49.80
   3  -2  -3  380.30   44.15
   3   2   3  369.59   54.54
   3  -2  -3  395.90   47.29
   3   2   3  321.10   40.45
  -3  -2   3  352.97   42.56
  -3   2  -3  397.49   53.62
  -3  -2   3  316.69   50.18
   3  -2  -3  281.85   53.56
   3  -2  -3  319.19   19.70
  -3   2   3  421.26   47.08
   3  -2   3  404.83   46.81
  -3  -2  -3  350.40   37.78
   3   2  -3  295.90   24.47
  -3   2   3  402.90   54.12
  -3  -2  -3  321.79   52.53
   3   2  -3  348.18   44.50
  -3  -2  -3  300.32   33.75
   3  -2   3  389.83   36.64
   3   2  -3  387.19   51.74
   3  -2   3  371.81   50.05
  -3   2   3  361.36   25.39
   3  -2   3  321.90   31.66
   3  -2   3  384.50   29.68
  -4   2  -3  114.59   23.57
   4  -2  -3   89.72   19.80
   4   2   3  128.53   26.61
   4  -2  -3  103.17   21.61
  -4   2  -3  118.47   21.14
   4   2   3  125.23   20.49
  -4  -2   3  111.84   19.46
  -4   2  -3  118.10   24.55
  -4  -2   3  122.28   37.80
   4  -2  -3   78.20   25.61
  -4  -2   3  101.82    7.46
   4  -2  -3   89.02    8.47
  -4   2   3  119.15   21.07
   4  -2   3   99.18   24.06
  -4  -2  -3  111.47   16.49
   4   2  -3  105.27   11.82
  -4   2   3  103.44   14.51
  -4  -2  -3  113.46   25.60
   4   2  -3  169.87   39.99
  -4  -2  -3  101.55   18.46
   4   2  -3  125.91   23.96
   4  -2   3  105.41   21.89
  -4   2   3   93.93   10.84
   4  -2   3   97.59   14.19
   4   2  -3   99.72   10.09
   4  -2   3   98.84   13.22
  -5   2  -3  309.88   44.05
   5  -2  -3  294.16   43.27
  -5   2  -3  287.28   40.25
   5   2   3  277.90   41.91
  -5  -2   3  268.77   35.97
  -5   2  -3  305.19   48.43
  -5  -2   3  238.98   44.75
   5  -2  -3  239.49   48.50
  -5  -2   3  218.55   15.81
   5  -2  -3  255.15   19.33
  -5   2   3  299.84   38.63
   5  -2   3  266.19   50.01
  -5  -2  -3  264.88   29.98
   5   2  -3  232.10   25.40
  -5   2   3  263.56   27.81
  -5  -2  -3  254.27   47.05
   5   2  -3  310.88   47.72
  -5  -2  -3  253.33   41.27
   5   2  -3  300.14   40.56
   5  -2   3  279.88   39.32
  -5   2   3  272.72   24.32
   5  -2   3  284.06   31.16
   5  -2   3  272.35   29.05
   5   2  -3  229.94   20.33
  -6   2  -3   84.72   20.44
   6  -2  -3   57.41   20.72
  -6   2  -3   57.27   18.30
   6   2   3   92.71   20.70
  -6  -2   3   64.16   21.30
  -6   2  -3   58.74   20.83
   6  -2  -3   60.36   22.98
  -6  -2   3   65.30    6.79
   6  -2  -3   65.92    8.75
  -6   2   3   86.97   17.26
   6  -2   3   72.48   26.87
  -6  -2  -3   75.54   12.99
   6   2  -3   77.44   13.16
  -6   2   3   64.70   12.01
   6   2  -3  106.76   24.69
  -6  -2  -3   70.86   23.40
   6   2  -3  103.46   22.89
   6  -2   3  136.95   20.36
  -6   2   3   67.83   11.45
   6  -2   3   62.44   13.67
   6   2  -3   71.59    9.90
  -7   2  -3   89.85   21.55
   7   2   3   57.80   12.93
   7   2   3   97.25   25.29
   7  -2  -3   57.45   21.49
  -7   2  -3   46.19   18.81
   7   2   3   93.73   22.63
  -7  -2   3   77.48   18.64
  -7   2  -3   56.55   17.67
  -7  -2   3   38.65   21.93
   7  -2  -3   56.27    9.43
   7  -2   3   72.38   25.98
   7   2  -3   66.36   13.56
  -7  -2  -3   61.20   23.14
   7   2  -3  106.11   23.99
  -7  -2  -3   57.52   26.17
   7   2  -3   86.78   21.26
  -7   2   3   57.77   27.50
   7  -2   3   66.37   17.24
  -7   2   3   43.72   11.54
   8   2   3   48.29   11.50
   8  -2  -3   60.18   17.14
   8  -2  -3   61.36   22.77
   8  -2  -3   48.01   11.52
  -8   2  -3   36.87   20.67
  -8  -2   3   94.16   18.93
  -8   2  -3   61.74   17.28
  -8  -2   3   28.08   21.40
   8  -2  -3   66.05   10.50
   8  -2   3   67.87   28.42
   8   2  -3   72.19   16.21
  -8  -2  -3   91.40   25.14
  -8  -2  -3   65.23   30.18
   8   2  -3  113.45   23.18
  -8   2   3   36.84   30.76
   8  -2   3   73.66   22.40
  -8   2   3   66.80   13.66
   8  -2   3   57.61   14.87
   8  -2   3   60.60   15.80
   9  -2  -3  266.88   65.12
   9  -2  -3  222.55   31.29
  -9   2  -3  256.18   54.36
  -9  -2   3  168.73   50.47
   9  -2  -3  280.25   30.07
   9  -2   3  518.06   96.39
   9   2  -3  520.27   69.85
  -9  -2  -3  596.27  134.69
  -9  -2  -3  422.48  111.54
  -9   2   3  516.04  120.99
   9  -2   3  548.00   89.83
  10  -2  -3   31.46   10.61
  10  -2  -3    2.86   13.38
 -10   2  -3   -3.36   12.18
 -10  -2   3   17.72   12.26
 -10  -2   3   24.06   14.28
  10  -2  -3   16.84    8.02
  10  -2   3   32.29   18.00
  10   2  -3   23.59   12.03
 -10  -2  -3   24.74   14.34
 -10  -2  -3   38.10   22.73
 -10   2   3   17.60   20.48
  10  -2   3   19.71   14.16
  11  -2  -3  339.26   88.10
 -11  -2   3  400.42   67.55
 -11  -2   3  375.57   98.28
  11  -2   3  316.55   70.30
  11   2  -3  339.28   52.13
 -11  -2  -3  363.65   57.19
 -11  -2  -3  382.86   92.97
 -11   2   3  317.36   89.14
  11  -2   3  176.75   55.77
  11  -2   3  337.97   47.55
  12  -2  -3   11.13   10.42
 -12   2  -3    1.13   12.40
 -12  -2   3   26.03   13.47
 -12  -2   3   17.96   15.03
  12  -2  -3   24.04    9.74
  12  -2   3   14.06   15.75
  12   2  -3   33.68   12.44
 -12  -2  -3   20.22   12.83
 -12  -2  -3    8.53   22.26
 -12   2   3   23.19   22.00
  12  -2   3    7.01   12.10
  12  -2   3   20.66   10.62
 -13  -2   3   10.85   10.36
 -13   2  -3   -2.88   10.01
 -13  -2   3    8.77   10.36
  13  -2  -3    7.49    8.06
  13  -2   3   10.60   11.32
  13   2  -3    2.76    9.00
 -13  -2  -3   14.68    9.39
 -13  -2  -3   -1.01   16.53
 -13   2   3   10.79   15.62
  13  -2   3    0.96    7.85
  14  -2  -3    7.77    7.65
  14  -2  -3    9.49    9.09
  14  -2   3    8.22    9.29
 -14  -2  -3    3.25    7.99
 -14  -2  -3    1.08   14.59
 -14   2   3   17.52   14.20
  14  -2   3   -3.42    7.03
 -15  -2   3   59.70   21.66
  15  -2  -3   57.06   18.98
  15  -2   3   37.98   16.31
  15   2  -3   40.26   16.14
 -15  -2  -3   73.49   18.52
 -15  -2  -3   60.20   33.24
 -15   2   3    8.03   32.84
  15  -2   3   41.73   13.07
  16   2   3   25.53   11.03
 -16  -2   3   20.11   13.70
  16  -2  -3   28.92   12.70
  16  -2   3    2.12   10.18
  16   2  -3   17.65   10.01
 -16  -2  -3   25.12   21.72
 -16   2   3   31.11   22.26
  16  -2   3   20.18    7.94
  17   2   3    9.21    7.58
 -17  -2   3    1.81    8.59
  17  -2  -3   19.49    8.61
  17  -2   3    7.55    8.42
  17   2  -3   16.42   14.26
 -17  -2  -3   22.88   18.69
 -17   2   3   10.79   20.17
  17  -2   3   13.05    6.80
  18   2   3   16.71    6.47
 -18  -2   3   -2.60    9.48
  18  -2  -3    6.43    7.09
  18  -2   3    9.76    7.26
  18   2  -3   34.81   13.91
 -18  -2  -3   26.04   18.22
 -18   2   3    8.49   18.86
  18  -2   3   12.00    6.41
  19   2   3    5.56    4.43
  19  -2  -3    6.39    4.87
  19  -2   3    4.99    3.11
  19   2  -3   12.17    9.38
 -19  -2  -3    5.33    7.15
 -19   2   3   10.47   12.03
  19  -2   3    3.05    4.09
   0  -2   4   34.18    7.45
   0  -2  -4   39.42   10.13
   0  -2   4   21.97    6.79
   0   2   4   20.38   10.53
   0  -2  -4   29.57   13.77
   0   2  -4   45.97   12.99
   0  -2   4   34.49    9.69
   0   2   4   12.68    7.99
   0   2  -4   47.34   14.76
   0  -2   4   37.93   12.73
   0  -2   4   28.17    5.78
   0  -2   4   31.90    4.92
  -1   2  -4   88.87   20.73
  -1  -2   4  131.85   12.16
   1  -2  -4  106.38   21.70
   1   2   4  160.30   24.17
   1  -2  -4  111.75   27.47
  -1  -2   4  149.05   20.95
  -1   2  -4   98.42   28.09
  -1  -2   4  155.33   28.28
  -1  -2   4  130.49   12.71
  -1  -2   4  138.63   10.65
  -1   2   4  105.45   21.54
   1  -2   4  111.86   18.25
  -1  -2  -4  124.46   17.30
  -1   2   4   97.99   18.35
  -1  -2  -4  145.73   24.33
   1   2  -4  148.04   23.47
  -1  -2  -4  111.86   10.37
   1  -2   4   93.53   17.86
   1  -2   4   91.07   22.09
   1  -2   4   81.66   11.16
   1  -2   4   93.10    9.95
  -2   2  -4  149.56   21.75
   2  -2  -4  147.52   21.37
   2   2   4  124.41   23.74
   2  -2  -4  150.14   27.03
   2   2   4   78.06   16.47
  -2  -2   4  114.09   18.60
  -2   2  -4  155.46   42.06
  -2  -2   4  123.94   26.31
  -2  -2   4  103.88   12.17
  -2   2   4  151.18   24.24
   2  -2   4  153.69   22.45
  -2  -2  -4  120.98   21.88
  -2   2   4  133.73   20.42
  -2  -2  -4  108.69   26.92
   2   2  -4  110.91   24.62
   2  -2   4  144.12   19.65
  -2   2   4  100.77   24.54
   2   2  -4  120.64   30.56
   2  -2   4  128.85   23.93
   2  -2   4  105.75   20.60
   2  -2   4  120.97   12.38
  -3   2  -4 1065.93  132.15
   3  -2  -4 1083.87  122.75
   3  -2  -4 1116.49  145.46
  -3   2  -4 1326.87  160.54
   3   2   4  873.18  128.37
  -3  -2   4 1231.09  121.18
  -3   2  -4 1143.35  148.60
  -3  -2   4 1205.62  147.64
  -3  -2   4 1050.14   80.63
   3  -2  -4 1025.46   83.64
  -3   2   4 1148.75  128.45
   3  -2   4  949.12  125.52
  -3  -2  -4 1264.52  124.54
  -3   2   4 1029.47  107.44
  -3  -2  -4 1168.61  144.95
   3   2  -4 1300.89  137.55
  -3  -2  -4  945.31  104.99
  -3   2   4  966.50  147.59
   3   2  -4 1496.62  162.64
   3  -2   4 1109.41  165.14
   3  -2   4  926.31   93.07
  -3   2   4  920.95   78.20
   3  -2   4  954.27   87.54
   3   2  -4 1045.53   91.63
  -4   2  -4  709.03   80.80
   4  -2  -4  644.86   71.08
   4  -2  -4  712.99   91.42
  -4   2  -4  713.65   92.11
   4   2   4  496.29   75.37
  -4   2  -4  689.54   85.83
  -4  -2   4  581.37   85.61
  -4  -2   4  486.11   46.09
   4  -2  -4  579.14   43.93
  -4   2   4  794.48   81.93
   4  -2   4  627.21  100.36
  -4  -2  -4  603.15   67.76
  -4   2   4  661.97   67.91
   4   2  -4  657.78   80.43
  -4  -2  -4  469.20   68.43
  -4   2   4  643.53  103.41
   4   2  -4  739.52   92.64
   4  -2   4  699.44   78.04
   4  -2   4  560.59   57.06
  -4   2   4  592.60   47.85
   4   2  -4  525.17   48.60
  -5   2  -4 1711.36  227.92
   5  -2  -4 1683.99  205.25
   5   2   4 2375.62  300.47
   5  -2  -4 1706.09  244.80
  -5   2  -4 1746.85  250.17
   5   2   4 1704.14  229.96
  -5  -2   4 1897.46  213.02
  -5   2  -4 1780.96  242.90
  -5  -2   4 1587.19  235.62
  -5  -2   4 1662.53  151.38
   5  -2  -4 1450.62  147.38
  -5   2   4 2026.33  234.72
   5  -2   4 1582.69  273.79
  -5  -2  -4 1702.33  198.41
   5   2  -4 1574.27  170.16
  -5   2   4 1724.11  197.22
  -5  -2  -4 1808.50  249.07
   5   2  -4 2536.97  296.66
  -5  -2  -4 1335.38  217.62
   5   2  -4 2664.02  316.21
  -5   2   4 1613.65  270.85
   5  -2   4 1732.14  214.76
  -5   2   4 1595.38  165.38
   5  -2   4 1505.83  175.94
   5  -2   4 1639.64  185.80
   5   2  -4 1628.80  167.47
  -6   2  -4  220.69   38.37
   6  -2  -4  194.77   30.07
   6  -2  -4  180.30   39.69
  -6   2  -4  194.93   40.69
   6   2   4  190.97   36.98
  -6  -2   4  212.71   31.93
  -6   2  -4  200.26   34.88
  -6  -2   4  182.88   41.47
  -6  -2   4  173.31   15.73
   6  -2  -4  179.85   18.24
  -6   2   4  271.23   33.96
   6  -2   4  201.25   53.10
  -6  -2  -4  179.88   26.65
   6   2  -4  176.48   23.34
  -6   2   4  186.21   26.89
  -6  -2  -4  206.61   44.21
   6   2  -4  302.65   45.60
  -6  -2  -4  120.15   45.00
   6   2  -4  292.44   48.89
  -6   2   4  178.14   50.22
   6  -2   4  213.26   32.19
  -6   2   4  193.06   22.45
   6  -2   4  188.01   26.52
   6   2  -4  185.75   21.08
   6  -2   4  195.65   27.75
   7   2   4  928.35  112.70
   7  -2  -4 1033.92  116.84
   7  -2  -4 1021.67  158.22
  -7   2  -4  973.08  152.15
   7   2   4 1210.47  162.53
  -7  -2   4 1092.86  124.18
  -7   2  -4  872.44  136.16
  -7  -2   4  664.19  138.11
  -7  -2   4  905.62   79.63
   7  -2  -4  921.34   87.53
   7  -2   4  961.73  170.78
   7   2  -4  916.49  105.46
  -7   2   4  997.28  105.73
  -7  -2  -4  620.80  164.20
  -7   2   4 1092.18  196.25
   7  -2   4 1090.58  134.80
  -7   2   4 1023.92  102.39
   7  -2   4  948.62  110.38
   7   2  -4  927.24   96.00
   7  -2   4 1125.63  125.05
   8   2   4   92.30   20.22
   8  -2  -4  133.13   23.18
   8  -2  -4  113.47   38.29
  -8   2  -4   82.02   35.25
  -8  -2   4  146.34   26.01
  -8  -2   4   38.88   35.72
   8  -2  -4  123.21   15.99
   8  -2   4  139.65   40.44
   8   2  -4  123.04   22.04
  -8  -2  -4  138.97   36.29
  -8  -2  -4   83.48   45.13
  -8   2   4  126.41   43.96
   8  -2   4  159.53   47.90
  -8   2   4  134.29   20.63
   9   2   4  568.97   78.03
   9  -2  -4  767.03   90.17
   9  -2  -4  522.73  133.51
  -9   2  -4  617.97  125.93
  -9  -2   4  813.45  100.35
   9  -2  -4  701.92   71.90
   9  -2   4  780.59  139.13
   9   2  -4  688.20   93.95
  -9  -2  -4  852.11  130.51
  -9  -2  -4  553.00  151.90
  -9   2   4  844.13  172.27
   9  -2   4  751.78  120.18
  10  -2  -4  279.80   40.44
  10  -2  -4  153.31   80.32
 -10   2  -4  179.19   56.90
 -10  -2   4  176.76   75.50
  10  -2  -4  256.05   32.24
  10  -2   4  333.09   69.65
  10   2  -4  271.11   45.28
 -10  -2  -4  347.86   54.80
 -10  -2  -4  321.00   85.66
 -10   2   4  248.11   83.38
  10  -2   4  185.49   53.63
  10  -2   4  333.39   44.85
  11  -2  -4  145.35   76.51
 -11   2  -4  136.47   59.11
 -11  -2   4  312.04   49.82
 -11  -2   4  248.04   74.35
  11  -2  -4  287.72   37.78
  11  -2   4  331.24   65.85
  11   2  -4  292.61   45.47
 -11  -2  -4  285.06   52.24
 -11  -2  -4  300.93   84.09
 -11   2   4  378.80   90.18
  11  -2   4  134.61   46.67
  12  -2  -4   37.50   22.60
 -12   2  -4   10.89   18.04
 -12  -2   4   43.78   15.62
 -12  -2   4   43.51   21.19
  12  -2  -4   19.52   11.88
  12  -2   4   17.33   16.45
  12   2  -4   17.61   11.83
 -12  -2  -4   16.20   13.58
 -12  -2  -4   50.75   24.05
 -12   2   4   14.31   23.90
  13  -2  -4   10.99   15.21
 -13   2  -4    0.19   11.75
 -13  -2   4    8.84   11.23
 -13  -2   4   32.84   15.23
  13  -2  -4   10.22    9.08
  13  -2   4    9.25   15.16
  13   2  -4   19.75   11.37
 -13  -2  -4   17.35   12.59
 -13  -2  -4   20.22   23.25
 -13   2   4   17.94   22.40
 -14   2  -4   12.35   11.61
 -14  -2   4   16.74   10.43
 -14  -2   4   17.19   14.25
  14  -2  -4    1.58    9.51
  14  -2   4    0.90   11.31
  14   2  -4   11.16    8.08
 -14  -2  -4    7.21    9.54
 -14   2   4   12.09   18.05
 -15  -2   4   98.23   22.16
 -15  -2   4   46.50   23.95
  15  -2  -4   81.65   21.57
  15  -2   4   87.79   33.10
  15   2  -4  137.42   38.38
 -15  -2  -4  135.96   28.99
 -15  -2  -4  122.01   57.91
 -15   2   4   76.81   57.30
  16   2   4   21.50    8.80
 -16  -2   4    8.19   15.19
  16  -2  -4   17.80   10.55
  16  -2   4   16.56    9.98
  16   2  -4   13.72   15.58
 -16  -2  -4   16.57   21.20
 -16   2   4   20.23   22.68
  16  -2   4   14.34    7.58
  17   2   4  195.10   27.26
  17  -2  -4  173.54   30.59
  17  -2   4  118.63   28.26
  17   2  -4  234.43   46.29
 -17  -2  -4  314.57   64.53
 -17   2   4  114.90   68.63
  17  -2   4  154.97   21.92
  18   2   4   72.99   12.70
  18  -2  -4   64.60   14.45
  18  -2   4   31.73   12.44
 -18  -2  -4   68.04   31.04
 -18   2   4   27.72   34.48
  18  -2   4   66.63   10.31
  19   2   4  152.78   13.57
  19  -2  -4  129.09   15.30
 -19  -2  -4  133.07   23.66
 -19   2   4    3.19   41.84
   0  -2   5    4.41    4.23
   0   2   5    0.72    6.90
   0  -2  -5    9.01    6.93
   0  -2   5    3.63    3.66
   0   2   5    8.82    6.98
   0  -2  -5    8.63    8.56
   0  -2   5    4.64    5.97
   0   2  -5    3.65    9.94
   0  -2   5    7.62    4.00
   0  -2   5    5.11    3.52
   1  -2  -5  820.48   98.64
   1   2   5 1127.98  128.72
   1  -2  -5  948.06  137.36
  -1   2  -5 1210.88  156.16
  -1  -2   5  934.17  102.18
  -1   2  -5 1202.84  153.81
  -1  -2   5 1003.87  127.05
  -1  -2   5  825.62   79.98
  -1  -2   5  840.72   71.28
  -1   2   5  990.32  154.44
   1  -2   5  805.24   99.02
  -1  -2  -5  957.60  107.33
   1  -2   5  650.55   79.90
  -1   2   5 1046.22  112.76
  -1  -2  -5  926.60  125.03
   1   2  -5 1152.63  133.75
   1  -2   5  860.19   95.02
   1   2  -5 1315.92  154.17
   1  -2   5  884.78  106.88
   1  -2   5  742.36   74.11
   1  -2   5  822.68   73.47
   2  -2  -5   22.29   10.61
   2   2   5   34.31   14.27
   2  -2  -5   20.82   15.34
  -2   2  -5   19.78   14.67
  -2  -2   5   31.90   10.18
  -2   2  -5   37.91   16.28
  -2  -2   5   43.69   14.21
  -2  -2   5   31.45    7.02
  -2  -2   5   24.40    5.64
  -2   2   5   39.47   12.38
   2  -2   5   19.49   10.63
  -2  -2  -5   31.86   10.83
   2  -2   5   18.49    8.11
  -2   2   5   25.16   11.04
  -2  -2  -5   48.60   14.00
   2   2  -5   32.02   13.33
  -2   2   5    8.71    9.80
   2   2  -5   41.61   16.48
   2  -2   5   20.86   11.22
   2  -2   5   20.85    7.06
   2  -2   5   24.83    6.54
   3  -2  -5   84.68   19.80
   3   2   5  137.28   27.87
   3  -2  -5  101.91   26.13
  -3   2  -5  101.29   26.39
  -3  -2   5  109.25   17.96
  -3   2  -5  108.54   27.16
  -3  -2   5   92.46   25.57
  -3  -2   5   88.69   10.22
  -3   2   5  104.39   20.92
   3  -2   5   73.63   29.75
  -3  -2  -5   92.94   18.14
   3  -2   5   49.33   15.95
  -3   2   5   79.52   16.01
  -3  -2  -5   91.86   23.43
   3   2  -5  129.03   22.67
  -3  -2  -5   45.77   13.63
  -3   2   5   47.90   19.80
   3   2  -5  126.62   27.89
   3  -2   5   93.85   19.12
   3  -2   5   79.41   12.55
   4  -2  -5    7.88    6.05
   4  -2  -5   -0.45    8.52
  -4   2  -5   12.72    8.42
   4   2   5    1.84    5.59
  -4   2  -5   10.10    7.95
  -4  -2   5   -0.04   13.81
  -4  -2   5    5.09    2.94
   4  -2  -5    2.93    3.45
  -4  -2  -5   10.44    6.37
   4  -2   5    1.44    5.70
  -4   2   5    6.05    5.51
  -4  -2  -5   18.88   13.82
  -4  -2  -5   -1.58    5.75
  -4   2   5    4.92    7.74
   4  -2   5    4.51    6.31
  -4   2   5    5.58    3.52
   4  -2   5    1.31    4.48
   4   2  -5    2.60    4.15
   5  -2  -5  162.22   27.55
   5  -2  -5  143.54   40.22
  -5   2  -5  147.82   39.72
   5   2   5  131.11   30.32
  -5  -2   5  190.92   26.28
  -5   2  -5  180.05   35.14
  -5  -2   5  200.98   40.97
  -5  -2   5  196.87   16.44
   5  -2  -5  122.31   18.37
   5  -2   5  133.64   41.56
  -5  -2  -5  170.48   26.12
   5   2  -5  115.51   19.83
  -5  -2  -5   76.01   30.64
  -5   2   5  126.15   37.94
   5  -2   5  226.74   30.62
   5  -2   5  132.94   22.64
  -5   2   5  130.42   17.13
   5  -2   5  152.01   21.46
   5   2  -5  182.79   19.54
   6  -2  -5   21.56    8.78
   6  -2  -5   20.36   14.12
  -6   2  -5    8.76   13.28
  -6  -2   5    9.96    8.08
  -6  -2   5   21.43   14.03
  -6  -2   5   15.09    4.81
   6  -2  -5   13.01    5.51
   6  -2   5    4.38   15.39
   6   2  -5   17.45   11.34
  -6  -2  -5   30.10   13.61
  -6  -2  -5    9.19   14.78
  -6   2   5   20.05   14.92
   6  -2   5   17.17    9.45
  -6   2   5   23.48   10.61
   6  -2   5   17.79    8.29
   6   2  -5   14.45    6.85
   7   2   5   26.58   11.29
   7  -2  -5   18.99   10.68
   7  -2  -5   35.39   18.63
  -7   2  -5    9.40   16.45
  -7  -2   5   20.66   15.69
  -7  -2   5   22.94   18.07
   7  -2  -5   22.50    7.06
   7  -2   5   22.24   18.52
   7   2  -5   26.97   11.82
  -7  -2  -5   18.24   16.75
  -7  -2  -5   14.26   20.87
  -7   2   5   -3.61   18.70
   7  -2   5   16.15   11.02
   7  -2   5   24.10   10.14
   7   2  -5   37.17    8.50
   8   2   5   24.55   11.62
   8  -2  -5   29.37   11.58
   8  -2  -5   21.86   20.45
  -8   2  -5   32.57   20.58
  -8  -2   5   13.56   22.54
   8  -2  -5   32.96    8.51
   8  -2   5   36.64   18.44
   8   2  -5   17.46    8.37
  -8  -2  -5   12.46   22.27
  -8   2   5   19.94   19.91
   8  -2   5   17.24   16.62
   8  -2   5   23.94   10.36
   8   2  -5   26.84    9.06
   9   2   5   17.61   12.50
   9  -2  -5   58.66   13.43
   9  -2  -5   41.67   23.17
  -9   2  -5   34.35   23.03
  -9  -2   5   35.70   14.48
  -9  -2   5   -3.90   26.80
   9  -2  -5   38.60   10.27
   9  -2   5   66.51   20.37
   9   2  -5   21.72   10.57
  -9  -2  -5   32.70   19.22
  -9  -2  -5   27.22   24.43
  -9   2   5   42.66   24.61
   9  -2   5   24.09   14.42
   9   2  -5   30.39   10.91
  10   2   5    4.20    9.03
  10  -2  -5   20.25   20.49
 -10   2  -5   -0.15   16.31
 -10  -2   5   25.95   10.93
 -10  -2   5   40.55   20.76
  10  -2  -5   16.28    7.83
  10  -2   5    8.92   14.17
  10   2  -5    7.33   11.91
 -10  -2  -5   -5.74   17.55
 -10   2   5   28.31   17.62
  11  -2  -5   57.67   43.84
 -11   2  -5   49.74   33.31
 -11  -2   5   99.74   22.26
 -11  -2   5   60.30   41.32
  11  -2  -5   77.84   17.77
  11  -2   5   92.15   34.25
  11   2  -5   67.76   45.67
 -11  -2  -5   97.47   26.32
 -11  -2  -5  108.42   46.25
 -11   2   5   49.15   46.89
  12  -2  -5   19.02   16.82
 -12   2  -5   -1.90   12.95
 -12  -2   5   12.76   13.79
 -12  -2   5   11.65   14.52
  12  -2  -5    3.84    7.31
  12  -2   5   21.56   16.60
  12   2  -5   -3.18   15.68
 -12  -2  -5   29.27   12.27
 -12  -2  -5   25.77   23.78
 -12   2   5   -0.62   23.13
  13  -2  -5   93.44   77.32
 -13   2  -5  124.46   99.36
 -13  -2   5  266.55   38.02
 -13  -2   5  312.26   71.48
  13  -2  -5  286.36   43.00
  13  -2   5  311.56   75.95
  13   2  -5  354.10   77.13
 -13  -2  -5  324.04   60.15
 -13  -2  -5  420.17  115.25
 -13   2   5  259.82  115.43
  13  -2   5  371.23   56.73
  14  -2  -5    1.02   15.28
 -14   2  -5    1.49   13.14
 -14  -2   5   10.79    7.44
 -14  -2   5   11.33   14.87
  14  -2  -5   19.70    9.25
  14  -2   5    5.03   13.95
  14   2  -5    8.86   14.45
 -14  -2  -5   17.13   10.50
 -14  -2  -5   -1.44   22.17
 -14   2   5   34.81   22.83
  15  -2  -5   16.47   23.36
 -15   2  -5    6.74   22.65
 -15  -2   5   59.67   12.07
 -15  -2   5   78.89   20.56
  15  -2   5  112.49   35.18
  15   2  -5  118.86   39.68
 -15  -2  -5  122.92   27.39
 -15  -2  -5  130.69   57.39
 -15   2   5  105.10   61.48
  16   2   5   42.18    9.81
 -16   2  -5    4.85   14.74
 -16  -2   5   18.25   12.87
  16  -2  -5   40.04   12.16
  16  -2   5   42.13   13.72
  16   2  -5   48.66   21.18
 -16  -2  -5   70.09   29.53
 -16   2   5   34.21   33.82
  16  -2   5   31.41   10.13
  17   2   5    2.51    4.50
 -17  -2   5   -0.77    4.22
  17  -2  -5   10.67    5.36
  17  -2   5    2.32    4.69
  17   2  -5   12.98    7.88
 -17   2   5    4.79   12.76
  18  -2  -5    6.08    4.50
  18  -2   5   11.54    5.33
  18   2  -5   -2.48    9.95
  18  -2   5    8.19    4.35
   0  -2  -6 2913.19  402.46
   0  -2  -6 3041.36  476.24
   0  -2   6 2837.34  377.59
   0  -2   6 3094.77  434.20
   0  -2   6 2569.96  328.00
   0  -2   6 2601.73  313.74
   1  -2  -6   15.35    9.49
   1  -2  -6   21.53   12.24
  -1   2  -6   13.01   12.45
  -1  -2   6    0.69    8.00
  -1  -2   6   18.09   11.12
  -1  -2   6    9.55    6.28
  -1  -2   6   14.29    5.32
   1  -2   6    9.49    8.11
  -1  -2  -6   18.94    8.96
   1  -2   6    8.59    5.32
  -1  -2  -6    4.86   11.43
   1  -2   6    0.81    8.99
   1  -2   6    9.88    5.95
   1  -2   6   10.75    5.37
   2  -2  -6 1183.96  148.56
   2  -2  -6 1200.94  184.65
  -2   2  -6 1310.80  192.22
  -2  -2   6 1187.71  133.83
  -2  -2   6 1209.78  164.27
  -2  -2   6 1067.04  114.92
  -2  -2   6 1082.41  102.63
   2  -2   6  876.89  150.50
  -2  -2  -6 1140.75  137.72
   2  -2   6  857.83  108.65
  -2  -2  -6 1105.02  160.59
   2  -2   6 1207.47  138.31
   2  -2   6  969.73  104.90
   2  -2   6 1138.20  110.36
   3  -2  -6   38.80   22.41
   3  -2  -6    9.67   29.50
  -3   2  -6   32.98   18.58
  -3  -2   6   44.28   12.44
  -3  -2   6   45.67   17.22
  -3  -2   6   37.88    9.75
  -3  -2   6   38.49    7.39
   3  -2   6   11.40   15.16
  -3  -2  -6   41.15   11.83
  -3  -2  -6   47.75   15.18
  -3   2   6    9.42   11.42
   3  -2   6   13.35   11.15
   3  -2   6   22.55   13.75
   4  -2  -6   27.50   11.40
   4  -2  -6   35.11   17.85
  -4   2  -6   43.83   17.44
  -4  -2   6   25.45   10.76
  -4  -2   6   20.51   16.23
  -4  -2  -6   16.89   11.77
  -4  -2  -6   28.12   15.32
  -4   2   6    8.67   13.55
   4  -2   6   45.20   10.74
   4  -2   6   38.14    9.28
   4   2  -6   15.21    8.18
   5  -2  -6  174.10   28.18
   5  -2  -6  176.71   48.32
  -5   2  -6  181.55   48.35
  -5  -2   6  189.17   27.24
  -5  -2   6  174.71   46.38
   5  -2  -6  155.10   21.51
   5  -2   6   69.07   37.72
  -5  -2  -6  156.61   29.04
  -5  -2  -6  182.06   41.66
  -5   2   6  112.90   40.23
   5  -2   6  198.51   28.70
   5  -2   6  173.86   26.00
   5   2  -6  156.09   22.64
   6  -2  -6   26.64    9.46
   6  -2  -6   37.81   18.79
  -6   2  -6    9.37   16.69
  -6  -2   6   16.50   17.04
   6  -2  -6   13.28    7.53
   6  -2   6   23.60   14.32
  -6  -2  -6    4.66   13.25
  -6   2   6   20.75   14.97
   6  -2   6   18.31    9.20
   6  -2   6   20.07    9.05
   6   2  -6   11.27    7.86
   7   2   6   99.19   25.65
   7  -2  -6  121.29   21.65
   7  -2  -6  120.77   43.96
  -7   2  -6  104.38   38.67
  -7  -2   6  114.23   21.65
  -7  -2   6  122.67   42.49
   7  -2  -6  107.33   18.64
   7  -2   6  105.16   32.82
   7   2  -6   46.25   19.52
  -7  -2  -6  110.95   31.55
  -7  -2  -6   40.57   39.01
  -7   2   6   80.30   38.85
   7  -2   6  113.30   21.46
   7  -2   6  133.82   21.87
   7   2  -6  111.92   18.48
   8   2   6   35.30   12.69
   8  -2  -6   24.76   11.27
   8  -2  -6   30.65   22.23
  -8   2  -6   18.78   22.52
  -8  -2   6   26.04   11.05
  -8  -2   6   32.14   24.18
   8  -2   6   29.62   16.13
   8   2  -6   21.18   10.41
  -8  -2  -6   12.87   16.56
  -8  -2  -6   20.48   24.42
  -8   2   6    5.57   20.40
   8  -2   6   12.90   10.51
   8   2  -6   23.02    9.24
   9   2   6   49.96   17.60
   9  -2  -6   55.52   15.06
   9  -2  -6   58.68   30.16
  -9   2  -6   42.63   31.65
  -9  -2   6   75.77   35.33
   9  -2  -6   53.93   20.23
   9  -2   6   61.42   26.15
   9   2  -6   32.62   17.69
  -9  -2  -6   49.30   32.38
  -9   2   6   36.73   33.20
   9  -2   6   58.41   16.89
   9   2  -6   58.20   14.83
  10   2   6   67.62   18.97
  10  -2  -6   49.36   38.21
 -10   2  -6   38.75   34.22
 -10  -2   6  111.31   18.24
 -10  -2   6   68.57   41.63
  10  -2  -6   50.15   15.69
  10  -2   6   78.28   29.15
  10   2  -6   56.32   21.65
 -10  -2  -6   99.53   40.97
 -10   2   6   51.10   58.17
  10  -2   6   60.57   17.93
  10   2  -6   57.73   17.07
  11  -2  -6    4.35    4.71
 -11   2  -6    1.84   10.62
 -11  -2   6    4.62   12.29
  11  -2  -6    0.45    5.03
  11   2  -6    1.19    7.40
 -11  -2  -6   -1.49    6.76
 -11  -2  -6   17.55   12.72
  11  -2   6   -0.79    5.64
  12  -2  -6  281.17  110.18
 -12   2  -6  249.41   96.87
 -12  -2   6  359.21   48.22
 -12  -2   6  416.88  102.23
  12  -2  -6  386.87   51.93
  12  -2   6  501.89   92.17
  12   2  -6  310.31   86.52
 -12  -2  -6  413.31   71.27
 -12  -2  -6  487.71  132.99
 -12   2   6  447.93  139.10
  13  -2  -6    7.60   27.22
 -13   2  -6   33.53   34.57
 -13  -2   6   40.36   10.62
 -13  -2   6   46.65   25.73
  13  -2  -6   30.65   13.40
  13   2  -6   44.12   23.32
 -13  -2  -6   55.36   17.82
 -13  -2  -6   59.66   35.41
 -13   2   6   -3.32   39.85
  14  -2  -6  345.22  108.85
 -14   2  -6  226.24  102.78
 -14  -2   6  568.52  133.93
  14  -2  -6  631.26   91.26
  14   2  -6  503.54  133.00
 -14  -2  -6  660.83   91.21
 -14  -2  -6  837.03  178.87
 -14   2   6  601.18  206.73
 -15   2  -6   -2.91    9.62
 -15  -2   6   16.45    8.26
  15  -2  -6   -2.30    6.27
  15  -2   6   -2.15   10.78
  15   2  -6    2.42   11.07
 -15  -2  -6    9.80    7.03
 -15  -2  -6   -5.01   16.32
 -15   2   6    3.75   18.30
  15  -2   6    9.17    7.28
  16   2   6  132.03   18.01
 -16  -2   6   92.30   26.95
  16  -2  -6  136.40   22.34
  16  -2   6  105.79   37.13
  16   2  -6  124.19   36.85
 -16  -2  -6  184.40   51.21
 -16   2   6   42.24   65.96
  17   2   6   10.06    3.78
 -17  -2   6    2.16    4.58
  17  -2  -6    9.13    4.94
  17  -2   6    0.26    5.97
  17   2  -6   15.23    9.36
 -17  -2  -6   23.60   12.54
   0  -2  -7   12.91    8.40
   0   2  -7   11.19   10.42
   0  -2   7    6.63    8.13
   0  -2   7    2.57    5.64
   1  -2  -7    4.03    9.24
   1  -2  -7   12.64   12.81
  -1   2  -7   26.17   11.89
  -1  -2   7    4.72   10.05
  -1  -2   7    6.19    6.29
  -1  -2  -7   -4.12    8.61
  -1  -2  -7   21.96   11.66
   1  -2   7    7.23    8.36
   1  -2   7    9.81    6.21
   2  -2  -7   19.53   13.21
   2  -2  -7   13.01   18.22
  -2   2  -7   26.58   17.58
  -2  -2   7   29.89   10.70
  -2  -2   7   30.21   14.88
  -2  -2   7   24.13    9.30
   2  -2   7    6.51   13.14
  -2  -2  -7   25.63   11.76
  -2  -2  -7   20.99   14.70
   2  -2   7   21.35   10.57
   2  -2   7   16.29    8.37
   3  -2  -7  322.04   49.21
   3  -2  -7  329.13   71.38
  -3   2  -7  318.00   69.30
  -3  -2   7  306.16   43.06
  -3  -2   7  303.08   57.81
  -3  -2   7  276.58   36.80
   3  -2   7   99.82   60.68
  -3  -2  -7  275.77   47.19
  -3  -2  -7  305.07   60.10
   3  -2   7  372.16   64.07
   3  -2   7  324.94   57.15
   4  -2  -7   31.57   12.92
   4  -2  -7   33.02   32.83
  -4   2  -7   18.93   19.70
  -4  -2   7   31.27   10.67
  -4  -2   7   35.61   16.44
  -4  -2   7   17.94    9.53
   4  -2   7   16.73   18.69
  -4  -2  -7   31.08   13.43
  -4  -2  -7   20.02   28.00
   4  -2   7   32.53   11.77
   4  -2   7   29.11   11.62
   5   2   7  251.30   52.14
   5  -2  -7  289.80   45.84
   5  -2  -7  329.51   79.82
  -5   2  -7  281.99   74.47
  -5  -2   7  294.42   40.53
  -5  -2   7  273.48   60.74
   5  -2   7  170.83   56.11
  -5  -2  -7  257.30   56.03
  -5   2   7  108.91   50.82
   5  -2   7  290.80   39.17
   5  -2   7  292.39   39.03
   6  -2  -7  229.46   38.67
   6  -2  -7  238.92   68.92
  -6   2  -7  194.88   62.62
  -6  -2   7  224.59   34.24
  -6  -2   7  233.64   94.46
   6  -2   7  196.03   47.53
  -6   2   7   93.29   49.35
   6  -2   7  185.38   32.76
   6  -2   7  224.57   33.72
   6   2  -7  180.32   28.80
   7  -2  -7    0.30   11.71
  -7  -2   7   15.03   11.68
   7  -2  -7    5.16    4.94
  -7   2   7    3.12   10.48
   7  -2   7    0.47    6.62
   7   2  -7   -1.95    5.57
   8   2   7  136.77   31.80
   8  -2  -7  168.80   28.56
   8  -2  -7  151.59   54.28
  -8   2  -7  161.47   58.84
  -8  -2   7  154.46   26.59
  -8  -2   7  178.85   58.60
   8  -2  -7  128.54   24.18
   8  -2   7  165.46   44.78
  -8  -2  -7   91.42   69.83
  -8   2   7   83.92   55.68
   8  -2   7  179.60   31.45
   8   2  -7  152.80   27.64
   9   2   7  124.07   29.57
   9  -2  -7  137.49   26.92
   9  -2  -7  132.16   53.49
  -9   2  -7  131.94   54.21
  -9  -2   7  146.17   24.55
  -9  -2   7  181.51   58.32
   9  -2  -7  127.10   23.79
   9  -2   7  179.00   42.67
   9   2  -7   50.00   30.90
  -9  -2  -7  178.50   40.61
  -9  -2  -7  116.48   57.15
  -9   2   7  111.27   55.80
   9  -2   7  165.24   29.32
   9   2  -7  132.45   25.62
  10   2   7   12.27    8.43
  10  -2  -7   12.83    7.40
  10  -2  -7   23.85   17.11
 -10   2  -7    4.08   16.21
 -10  -2   7    7.77    7.55
 -10  -2   7    5.07   17.97
  10  -2  -7   -1.54    7.16
  10  -2   7    2.46   12.60
  10   2  -7   19.45    9.31
 -10   2   7   15.34   17.72
  10  -2   7   -1.55    8.55
  10   2  -7    5.96    7.57
  11   2   7  110.12   29.55
  11  -2  -7  100.47   52.53
 -11   2  -7   54.29   46.35
 -11  -2   7  124.37   21.94
 -11  -2   7  160.52   52.18
  11  -2  -7  103.05   22.77
  11  -2   7  132.63   38.27
  11   2  -7   84.53   32.16
 -11  -2  -7  122.03   28.65
 -11  -2  -7  111.89   50.21
 -11   2   7   77.98   59.13
  11  -2   7  133.52   25.93
  11   2  -7  106.11   23.80
  12   2   7    3.99    9.34
 -12   2  -7   32.94   17.74
 -12  -2   7   59.68   29.54
  12  -2  -7    9.35    8.48
  12  -2   7    0.74   12.89
  12   2  -7   -2.45   11.05
 -12  -2  -7   11.96    8.87
 -12  -2  -7   23.65   16.35
 -12   2   7    0.37   20.05
  12  -2   7    9.40    8.63
  13  -2  -7   -2.93   16.60
 -13   2  -7   19.29   14.18
 -13  -2   7   16.42   13.47
  13  -2  -7    6.33    7.68
  13  -2   7   -1.58    7.97
  13   2  -7   -0.03    7.09
 -13  -2  -7    5.70    5.21
 -13  -2  -7    1.25   10.25
 -13   2   7   12.78   13.16
  14  -2  -7    2.67   12.51
 -14   2  -7    1.27   11.78
 -14  -2   7   12.72   10.00
  14  -2  -7    3.20    6.31
  14  -2   7    4.77   11.67
  14   2  -7   -0.76   11.08
 -14  -2  -7   12.13    7.00
 -14   2   7   26.43   19.62
  14  -2   7    9.14    7.91
 -15   2  -7   -0.58   10.54
 -15  -2   7    7.74    8.51
  15  -2  -7    5.27    5.49
  15  -2   7    8.08    6.93
  15   2  -7    0.74    6.91
 -15  -2  -7   -1.48    3.86
  16   2   7   11.32    4.03
  16  -2  -7    5.17    7.92
 -16   2  -7    2.24   10.30
 -16  -2   7   14.66    8.86
  16  -2  -7   24.11    5.32
  16  -2   7   35.68    9.70
  16   2  -7    5.74   13.80
 -16  -2  -7   21.13   19.00
 -16   2   7    8.97   24.83
   0  -2  -8  159.64   34.29
   0  -2  -8  166.01   44.90
   0   2  -8  147.02   45.27
   0  -2   8  170.12   33.15
   0  -2   8  151.07   26.28
   1  -2  -8   -0.38    9.21
   1  -2  -8   16.94   13.16
  -1  -2   8   22.90    9.51
  -1  -2   8    4.36    6.71
  -1  -2  -8   -1.85    9.62
  -1  -2  -8    1.51   12.75
   1   2  -8    7.35   12.39
   1  -2   8   18.77    8.62
   1  -2   8    9.36    7.30
   2  -2  -8  229.29   41.16
   2  -2  -8  264.52   63.98
  -2   2  -8  233.38   62.26
  -2  -2   8  229.85   48.45
  -2  -2   8  196.35   31.32
  -2  -2  -8  203.14   43.36
  -2  -2  -8  201.82   54.31
   2   2  -8  214.25   58.08
   2  -2   8  280.14   39.61
   2  -2   8  220.44   34.53
   3   2   8   23.20   15.50
   3  -2  -8   27.26   13.43
   3  -2  -8   21.73   21.53
  -3   2  -8   21.50   21.67
  -3  -2   8   42.45   16.65
  -3  -2   8   22.67   10.11
   3  -2   8   20.13   15.62
  -3  -2  -8    9.03   16.86
   3   2  -8   16.51   15.62
   3  -2   8   20.76    9.97
   3  -2   8   19.57   10.45
   4   2   8  304.04   63.70
   4  -2  -8  375.09   57.58
   4  -2  -8  448.67   95.97
  -4   2  -8  353.73   94.08
  -4  -2   8  384.64   70.76
  -4  -2   8  330.84   45.12
   4  -2   8  236.64   76.51
  -4  -2  -8  336.28   70.80
   4   2  -8  338.97   78.88
   4  -2   8  366.46   50.37
   4  -2   8  394.65   53.89
   5   2   8  140.87   37.18
   5  -2  -8  179.95   33.99
   5  -2  -8  220.29   62.07
  -5   2  -8  131.27   58.98
  -5  -2   8  214.10   45.79
  -5  -2   8  168.87   27.94
   5  -2   8  147.18   50.80
  -5  -2  -8  151.14   46.39
   5  -2   8  200.34   33.86
   6  -2  -8   94.62   22.69
  -6   2  -8   85.71   46.51
  -6  -2   8   82.96   18.56
  -6  -2   8   95.05   33.23
  -6  -2   8   92.85   19.64
   6  -2   8   75.11   34.62
  -6  -2  -8   82.18   32.42
   6  -2   8  105.09   23.88
   7   2   8  205.65   44.23
   7  -2  -8  236.41   40.54
   7  -2  -8  272.99   72.29
  -7   2  -8  233.28   83.50
  -7  -2   8  218.27   33.79
  -7  -2   8  240.84   62.03
   7  -2   8  199.49   57.13
  -7  -2  -8  224.33   55.31
  -7   2   8  109.18   60.48
   7  -2   8  277.87   41.16
   8   2   8  213.89   42.00
   8  -2  -8  232.73   37.36
   8  -2  -8  243.53   69.65
  -8   2  -8  244.66   77.58
  -8  -2   8  209.19   31.79
  -8  -2   8  258.27   61.83
   8  -2  -8  177.81   30.59
   8  -2   8  260.36   56.61
  -8   2   8   90.79   64.88
   8  -2   8  255.09   40.67
   8   2  -8  185.86   33.93
   9   2   8  104.57   26.27
   9  -2  -8   96.98   22.13
   9  -2  -8  110.04   46.31
  -9   2  -8   95.65   50.68
  -9  -2   8  129.28   21.20
  -9  -2   8  103.12   42.20
   9  -2  -8   93.77   19.87
   9  -2   8  144.24   38.06
  -9  -2  -8  132.18   35.60
  -9  -2  -8   25.59   42.51
  -9   2   8   79.65   50.01
   9  -2   8  145.65   27.46
   9   2  -8   98.65   23.10
  10   2   8  496.88  100.01
  10  -2  -8  335.44   98.74
 -10   2  -8  296.69  102.13
 -10  -2   8  302.18   43.82
 -10  -2   8  475.70   87.46
  10  -2  -8  300.80   44.57
  10  -2   8  486.13   78.21
 -10  -2  -8  355.65   80.46
 -10  -2  -8  149.68   96.75
 -10   2   8  254.45  109.06
  10   2  -8  306.10   46.44
  11   2   8   18.72   11.47
  11  -2  -8   -3.24   20.21
 -11   2  -8    7.67   19.32
 -11  -2   8   24.99   16.88
  11  -2  -8   14.44    8.09
  11  -2   8   31.85   12.98
 -11  -2  -8    3.02    8.70
 -11  -2  -8    3.87   17.78
 -11   2   8   21.27   20.38
  11   2  -8    6.66    7.69
  12   2   8   84.06   21.13
  12  -2  -8   65.08   40.85
 -12   2  -8   47.39   39.07
 -12  -2   8  102.51   33.34
  12  -2  -8   81.44   17.09
  12  -2   8  106.20   26.63
  12   2  -8   20.55   36.51
 -12  -2  -8   28.91   35.91
 -12   2   8   35.63   44.66
  12   2  -8   63.22   14.50
  13   2   8    1.97    5.55
 -13   2  -8    8.75   11.74
 -13  -2   8    7.21   10.71
  13  -2  -8    4.80    5.37
  13  -2   8    6.43   10.87
  13   2  -8   -0.45    9.81
 -13  -2  -8    8.47   14.05
 -13   2   8   31.65   19.07
  13  -2   8    5.12    7.09
  14  -2  -8    3.06   17.29
 -14  -2   8   23.23   15.19
  14  -2  -8   27.34    7.44
  14  -2   8   55.06   15.38
  14   2  -8   20.55   14.35
 -14  -2  -8   18.92    7.98
 -14  -2  -8    4.54   20.04
 -14   2   8   11.60   29.43
  14  -2   8   33.69   10.16
  15  -2  -8    2.22    7.69
 -15   2  -8    3.71    9.19
 -15  -2   8    6.33    7.54
 -15  -2  -8    9.51    7.64
  15  -2   8    2.74    3.99
   0  -2  -9    8.27   11.45
   0   2  -9    3.50   11.36
   0  -2   9   -2.02    7.59
   0  -2   9    5.87    6.20
   1   2   9   78.65   21.65
   1  -2  -9   45.61   19.51
   1  -2  -9   36.48   28.95
  -1   2  -9   67.07   30.03
  -1  -2   9   56.95   20.58
  -1  -2   9   61.86   15.64
  -1  -2  -9   64.12   26.15
   1   2  -9   38.21   27.29
   1  -2   9   57.61   17.60
   1  -2   9   59.48   15.49
   2   2   9  160.05   38.10
   2  -2  -9  155.23   33.06
   2  -2  -9  130.47   53.87
  -2   2  -9  111.53   55.01
  -2  -2   9  192.87   38.16
  -2  -2   9  160.65   27.32
  -2  -2  -9  179.52   44.54
   2   2  -9  119.75   44.48
   2  -2   9  140.59   27.95
   3   2   9   13.72   11.75
   3  -2  -9    7.51   10.85
   3  -2  -9   27.19   19.00
  -3   2  -9    0.27   18.13
  -3  -2   9   21.96   13.07
  -3  -2   9   15.08    8.45
  -3  -2  -9   33.25   25.40
   3   2  -9   27.46   16.66
   3  -2   9   16.02   11.82
   4   2   9  137.84   35.85
   4  -2  -9  142.61   31.86
   4  -2  -9  188.32   58.00
  -4   2  -9  122.44   86.19
  -4  -2   9  189.85   42.14
  -4  -2   9  160.05   26.82
   4  -2   9   45.18   38.56
  -4  -2  -9  141.88   37.19
   4   2  -9   95.64   37.53
   4  -2   9  159.74   28.25
   5   2   9   31.62   15.96
   5  -2  -9   31.14   14.60
   5  -2  -9   52.28   27.48
  -5   2  -9   24.97   29.97
  -5  -2   9   52.44   20.40
  -5  -2   9   30.85   12.46
   5  -2   9   43.75   22.40
  -5  -2  -9   52.83   21.27
   5   2  -9   20.38   21.18
   5  -2   9   44.69   16.47
   6   2   9  118.98   30.55
   6  -2  -9  137.43   27.23
   6  -2  -9  131.70   51.65
  -6   2  -9  123.13   59.33
  -6  -2   9  148.49   40.81
  -6  -2   9  115.56   23.86
   6  -2   9  105.91   38.57
  -6  -2  -9  128.65   35.58
   6   2  -9   52.92   35.30
   6  -2   9  144.32   27.50
   7   2   9    7.04    9.25
   7  -2  -9    5.23    7.63
   7  -2  -9   11.15   15.53
  -7   2  -9   -8.71   17.58
  -7  -2   9   11.15   12.60
  -7  -2   9    9.11    7.03
   7  -2   9   17.18   11.73
  -7  -2  -9    7.12   10.81
   7  -2   9    8.64    8.62
   8   2   9   80.92   25.20
   8  -2  -9   83.60   19.63
   8  -2  -9   73.16   43.18
  -8   2  -9   98.77   46.73
  -8  -2   9  126.91   35.06
  -8  -2   9  101.25   19.69
   8  -2   9  115.74   31.93
  -8  -2  -9   87.50   29.27
   8   2  -9   36.82   28.00
  -8   2   9   43.26   35.46
   8  -2   9  118.79   23.24
   9   2   9   58.73   26.66
  -9   2  -9   52.23   35.69
  -9  -2   9   73.44   27.65
  -9  -2   9   60.89   14.46
   9  -2  -9   48.03   12.64
   9  -2   9   78.33   26.26
  -9  -2  -9   67.68   23.78
  -9   2   9   25.52   33.42
   9  -2   9   68.83   30.24
  10   2   9   53.50   20.27
  10  -2  -9   39.07   29.92
 -10   2  -9   62.07   32.25
 -10  -2   9   54.63   25.90
 -10  -2   9   46.52   12.62
  10  -2  -9   45.42   11.50
  10  -2   9   65.14   23.22
 -10   2   9   23.64   32.25
  11   2   9   14.88   10.30
  11  -2  -9   30.62   17.25
 -11   2  -9    0.86   17.96
 -11  -2   9   22.55   14.97
 -11  -2   9    9.08    6.69
  11  -2  -9   12.11    6.26
  11  -2   9   23.35   15.07
 -11  -2  -9   26.07    8.99
 -11  -2  -9   15.36   15.67
 -11   2   9   15.91   22.30
  11  -2   9   15.44   10.19
  12   2   9   30.12   10.21
  12  -2  -9   18.12   19.35
 -12   2  -9   22.49   19.45
 -12  -2   9   31.54   17.07
 -12  -2   9   17.43    6.30
  12  -2  -9   22.36    6.64
  12  -2   9   35.85   13.98
 -12  -2  -9   15.42    7.27
 -12  -2  -9   11.48   14.63
  13   2   9    0.30    4.40
  13  -2  -9   13.62   10.97
 -13   2  -9   26.89   11.81
 -13  -2   9    7.47    9.86
  13  -2   9    6.56   12.19
 -13   2   9    8.15   12.64
  13  -2   9   23.78    8.21
  14  -2  -9   12.13    8.74
 -14   2  -9   14.59    9.95
 -14   2   9    5.79    6.26
  14  -2   9    1.98    3.95
   0   2  10   64.15   23.19
   0  -2 -10   80.17   33.99
   0   2 -10   72.36   35.37
   0  -2  10  104.26   31.89
   0  -2  10   95.45   19.39
   1   2  10   35.26   16.30
   1  -2 -10   46.80   24.18
  -1   2 -10   46.72   24.76
  -1  -2  10   39.83   14.95
  -1  -2  10   36.62   13.15
  -1   2  10   30.43   12.30
  -1  -2 -10   35.96   18.32
   1   2 -10   25.73   19.21
   1  -2  10    7.52   12.08
   2   2  10   11.77    8.85
   2  -2 -10    6.59   14.02
  -2   2 -10   -3.81   22.77
  -2  -2  10   -0.74    8.77
  -2  -2  10    9.49    6.99
  -2  -2 -10   33.25   12.34
   2  -2  10    2.16    5.83
   3   2  10  180.40   39.63
   3  -2 -10  211.31   63.85
  -3   2 -10  132.45   71.35
  -3  -2  10  209.39   41.91
  -3  -2  10  212.01   31.07
  -3  -2 -10  172.86   47.30
   3   2 -10   85.99   48.90
   3  -2  10  225.85   35.21
   4   2  10   55.76   21.41
   4  -2 -10   77.05   34.24
  -4   2 -10   60.28   38.53
  -4  -2  10   69.99   22.82
  -4  -2  10   68.14   15.85
  -4   2  10   32.40   16.08
  -4  -2 -10   45.89   22.92
   4   2 -10   36.11   23.36
   4  -2  10   74.84   17.32
   5   2  10  202.61   43.16
   5  -2 -10  229.77   67.64
  -5   2 -10  167.93   80.66
  -5  -2  10  266.58   50.15
  -5  -2  10  223.39   32.61
  -5   2  10   90.92   23.96
   5  -2  10   76.70   33.03
  -5  -2 -10  201.01   35.69
   5   2 -10   75.57   35.20
   6  -2 -10   19.26   19.90
  -6  -2  10   43.80   14.33
  -6  -2  10   13.07    8.54
  -6   2  10    7.02    7.01
  -6  -2 -10   -4.54   10.96
   6   2 -10   -1.14   10.96
   6  -2  10   20.92    8.68
   7   2  10   92.53   22.40
   7  -2 -10   85.13   39.92
  -7   2 -10   62.34   44.76
  -7  -2  10  121.81   29.30
  -7  -2  10   74.19   17.22
  -7  -2 -10   73.08   28.91
   7  -2  10  106.26   23.30
   8  -2 -10   -4.00   12.46
  -8   2 -10   -4.03   13.63
  -8  -2  10   17.06    9.62
  -8  -2  10    3.33    5.06
   8  -2  10   16.23    7.22
   9   2  10  107.42   24.47
   9  -2 -10   66.55   35.05
  -9   2 -10   82.44   36.90
  -9  -2  10   84.88   27.35
  -9  -2  10   52.75   13.71
   9  -2  10   81.67   29.82
   9  -2  10  116.29   21.99
  10   2  10   -1.10    7.18
  10  -2 -10   -1.60   11.48
 -10   2 -10   -2.50   11.87
 -10  -2  10    0.24    9.12
 -10  -2  10    4.87    3.86
  10  -2  10    9.63    9.85
 -10   2  10    1.40    6.45
  10  -2  10   16.07    7.21
  11   2  10   47.55   12.55
  11  -2 -10   54.09   22.14
 -11   2 -10   24.40   21.68
 -11  -2  10   63.05   17.61
 -11  -2  10   26.17    5.56
  11  -2  10   53.79   19.78
  11  -2  10   61.60   13.80
  12  -2 -10   -1.66   10.60
 -12   2 -10    4.83   10.30
 -12  -2  10    8.99    8.41
  12  -2  10    3.35    8.41
  12  -2  10   11.44    5.64
   0   2  11    2.99    6.37
   0  -2  11    5.18    6.29
   1   2  11  147.40   27.79
   1  -2 -11  190.80   44.33
  -1   2 -11   62.61   52.90
  -1  -2  11  124.67   23.80
  -1   2  11  119.70   23.50
  -1  -2 -11  145.99   34.54
   1   2 -11   10.15   44.80
   2   2  11    2.59    6.59
  -2  -2  11   -0.97    9.21
  -2  -2  11    4.35    5.42
  -2   2  11    6.68    6.25
  -2  -2 -11    0.59    9.73
   2   2 -11    7.80   11.80
   2  -2  11    2.53    7.06
   3   2  11   27.45   13.21
   3  -2 -11   38.71   20.61
  -3   2 -11   18.70   24.08
  -3  -2  11   24.01   12.50
  -3  -2  11   38.77   10.40
  -3   2  11   13.40    9.50
  -3  -2 -11   20.34   14.45
   3   2 -11    4.18   27.14
   3  -2  11   32.35   11.08
   4   2  11   18.26    9.02
   4  -2 -11    8.40   14.86
  -4   2 -11   38.53   16.99
  -4  -2  11    6.98    9.20
  -4  -2  11    8.28    7.11
  -4   2  11    3.80    5.85
  -4  -2 -11    3.49    9.52
   4   2 -11   11.94   17.34
   4  -2  11    9.56    7.59
   5  -2 -11   -1.80   15.87
  -5   2 -11    4.65   18.27
  -5  -2  11   22.35   10.32
  -5  -2  11   15.68    7.26
  -5   2  11   -2.01    4.29
  -5  -2 -11    4.34    7.27
   5  -2  11    6.35    5.74
   6  -2 -11   70.18   31.55
  -6   2 -11   23.01   37.34
  -6  -2  11   93.97   21.47
  -6  -2  11   77.52   14.00
  -6   2  11   14.28    6.15
   6  -2  11   15.52    9.41
  -6  -2 -11   28.36   11.95
   7   2  11    2.92   10.92
   7  -2 -11    3.60   13.19
  -7   2 -11   24.20   14.60
  -7  -2  11   10.67    9.20
  -7  -2  11    8.31    5.34
  -7  -2 -11   15.25    7.54
   7  -2  11    8.80    6.77
   8   2  11  129.20   21.33
   8  -2 -11   59.42   27.56
  -8   2 -11   17.23   31.36
  -8  -2  11   81.39   19.66
  -8  -2  11   47.42    9.99
  -8  -2 -11    3.39    8.51
   8  -2  11   98.56   11.72
   9   2  11   -0.90    6.32
   9  -2 -11    8.84    9.11
  -9  -2  11    0.69    6.17
   0   2  12   88.62   17.44
   0  -2 -12   85.65   25.42
   1   2  12    4.74    5.28
  -1   2 -12   10.96    8.71
  -1  -2  12    3.20    5.37
  -1  -2 -12   15.75   10.80
   2   2  12   43.37   13.42
   2  -2 -12   37.80   19.26
  -2  -2  12   67.94   12.79
  -2   2  12   22.36    7.59
  -2  -2 -12   19.14   12.18
   3   2  12    9.63    7.17
   3  -2 -12    9.51   18.97
  -3   2 -12   16.26   12.42
  -3  -2  12   13.47    6.63
  -3   2  12    3.87    3.95
  -3  -2 -12    7.42    6.49
   3  -2  12    0.24    5.37
   4   2  12   21.33    9.65
  -4   2 -12   -4.23   11.07
  -4  -2  12   10.22    5.36
  -4  -2 -12   -0.20    4.73
   4  -2  12   -0.90    4.17
   5   2  12   92.03   18.74
   5  -2 -12   47.07   20.21
  -5   2 -12   -0.27   21.71
  -5  -2  12   47.06    9.27
  -5  -2 -12   14.63    8.56
   5  -2  12   60.74    9.96
   6  -2 -12    3.44   10.38
  -6   2 -12   16.76   11.08
   0   3   0  108.79   18.29
   0  -3   0   97.09   15.04
   0   3   0  142.60   18.54
   0  -3   0   95.05   13.03
   0   3   0  135.92   21.40
   0  -3   0   86.12   26.69
   1  -3   0    2.40    4.58
  -1  -3   0    0.44    3.40
   1   3   0    7.60    5.16
   1  -3   0    5.21    3.05
   1   3   0    7.67    5.14
   1  -3   0    5.73    7.55
  -1  -3   0    3.84    6.80
   2  -3   0   56.10   11.33
  -2  -3   0   26.63    9.35
  -2  -3   0   39.80    9.75
   2  -3   0   31.72    6.52
   2   3   0   41.89   12.41
  -2   3   0   54.84   14.79
   2  -3   0    6.35   16.83
  -2  -3   0   33.59   13.85
   3  -3   0    0.51    6.45
  -3  -3   0   10.78    5.19
   3   3   0    1.70    6.44
  -3  -3   0    0.37    5.38
   3   3   0    3.65    5.94
   3  -3   0    9.11    8.89
  -3  -3   0    2.34    6.57
   4  -3   0 1171.79  143.77
  -4  -3   0  943.60  122.83
  -4  -3   0 1161.87  133.22
   4   3   0 1447.06  148.14
   4  -3   0 1062.79  230.58
  -4  -3   0  892.18  136.70
   5  -3   0    5.67    7.13
  -5  -3   0   -2.56    5.97
  -5  -3   0   -2.67    6.51
   5   3   0    7.40    5.26
  -5  -3   0    5.09    5.68
   5  -3   0    0.85   10.98
   6  -3   0 2423.92  365.94
  -6  -3   0 2346.83  344.90
  -6  -3   0 2688.75  382.18
   6  -3   0 2859.99  521.14
   7  -3   0   21.47   11.38
  -7  -3   0   10.08    9.51
  -7  -3   0    5.14   11.39
   8  -3   0 1539.06  238.24
  -8  -3   0 1451.36  206.64
  -8  -3   0 1545.19  243.48
   8  -3   0 1694.64  310.80
   9  -3   0    0.21   11.93
  -9  -3   0    5.79    9.23
  -9  -3   0   27.33   13.04
   9  -3   0    0.29   13.51
  10  -3   0  404.75   80.91
 -10  -3   0  364.29   62.42
 -10  -3   0  379.03   85.77
  10  -3   0  367.09   91.69
  11  -3   0    0.67   11.51
 -11  -3   0   12.07    9.46
 -11  -3   0    7.28   13.68
  11  -3   0    1.38   12.57
  12  -3   0   39.66   21.16
 -12  -3   0   51.70   26.32
 -12   3   0   28.96   28.91
  13  -3   0    5.29   11.74
  13   3   0    8.67    8.72
 -13  -3   0   15.14   15.33
 -13   3   0    9.69   16.01
  14  -3   0   55.79   22.00
  14   3   0   64.35   17.41
 -14  -3   0   90.31   30.25
 -14   3   0    9.82   32.10
  15  -3   0   13.48    9.77
 -15  -3   0   -1.09   13.06
 -15   3   0   15.47   15.09
  16  -3   0   18.60    8.28
  16   3   0   13.74    9.43
 -16  -3   0   28.60   15.03
 -16   3   0   18.65   17.20
  17  -3   0    3.21    3.52
 -17   3   0   22.54   13.26
  18   3   0  111.69   14.86
 -18  -3   0   92.95   21.89
   0  -3   1   30.76    7.14
   0  -3  -1   28.67    7.89
   0   3   1   16.72    6.18
   0  -3  -1   19.76   10.26
   0  -3  -1   31.12    5.59
   0  -3   1   27.97    7.25
   0   3  -1   30.89   12.62
   0   3   1   35.02    9.18
   0  -3  -1   23.70   12.31
   0  -3   1   25.49   13.78
   1  -3  -1   61.48   11.44
   1   3   1   31.66    8.41
  -1   3  -1   79.29   13.99
  -1  -3   1   45.22    9.91
   1   3   1   41.42   10.88
   1  -3  -1   39.03   17.13
  -1  -3   1   36.44   16.89
   1  -3   1   66.69   11.03
  -1  -3  -1   37.09   13.92
   1   3  -1   63.82   15.52
  -1  -3  -1   37.74    8.82
   1  -3   1   61.06    9.35
   1   3  -1   53.49   27.59
  -1   3   1   61.52   13.89
  -1  -3  -1   29.80   15.31
   1  -3   1   53.80   19.01
  -2   3  -1  216.45   30.42
   2  -3  -1  179.94   40.13
  -2  -3   1  172.24   24.39
  -2  -3   1  141.73   34.51
   2  -3  -1  192.43   71.10
   2  -3   1  195.79   24.83
  -2  -3  -1  133.24   16.18
  -2  -3  -1  118.72   28.18
   2   3  -1  210.24   29.97
  -2  -3  -1  143.67   19.31
   2  -3   1  137.18   17.58
   2   3  -1  201.02   32.20
  -2   3   1  188.74   28.84
  -2  -3  -1   79.70   26.49
   2  -3   1  181.72   35.95
  -3   3  -1  171.85   30.58
   3  -3  -1  146.63   27.87
   3   3   1  171.57   28.55
  -3  -3   1  161.91   25.19
   3   3   1  172.16   23.38
  -3  -3   1  123.39   31.82
   3  -3  -1  126.94   45.22
   3  -3   1  147.44   22.74
  -3  -3  -1  110.58   12.15
  -3  -3  -1  135.99   17.79
   3  -3   1   72.69   12.82
  -3  -3  -1   77.58   19.76
   4  -3  -1   26.27   11.36
  -4  -3   1   19.88    8.17
  -4  -3   1   25.56   11.01
  -4  -3   1   22.82   19.88
   4  -3  -1   26.03   17.85
   4  -3   1   27.22   12.87
  -4  -3  -1   20.03   13.83
  -4  -3  -1   29.63   10.14
   4  -3   1   27.80   16.10
   5  -3  -1   33.94   12.34
  -5  -3   1   13.76    8.67
  -5  -3   1   19.47   11.63
  -5  -3   1   19.10   12.30
   5  -3  -1   35.95   18.73
   5  -3   1   31.20   13.16
  -5  -3  -1   24.99   18.30
  -5  -3  -1   21.51   10.90
   5  -3   1   17.90   15.32
   6  -3  -1   46.04   19.69
  -6  -3   1   64.15   15.53
  -6  -3   1   89.16   19.86
  -6  -3   1   56.48   19.41
   6  -3  -1   35.50   30.35
   6  -3   1   48.78   20.60
  -6  -3  -1   63.53   18.61
  -6  -3  -1   65.41   19.20
   6  -3   1   63.06   29.08
   7  -3  -1  309.73   54.87
  -7  -3   1  290.39   44.10
  -7  -3   1  343.91   55.70
  -7  -3   1  245.81   47.93
   7  -3  -1  290.71   77.00
   7  -3   1  326.99   61.50
  -7  -3  -1  303.15   52.77
  -7  -3  -1  317.46   58.37
   7  -3   1  334.62   78.17
   8  -3  -1   19.93   19.51
  -8  -3   1   53.82   15.79
  -8  -3   1   48.79   19.90
   8  -3  -1   41.82   25.53
   8  -3   1   29.06   22.31
  -8  -3  -1   55.78   17.56
  -8  -3  -1   44.50   22.15
   8  -3   1   41.82   25.29
   9  -3  -1    4.01   12.88
  -9  -3   1   17.07   10.18
  -9  -3   1   16.44   13.71
   9  -3  -1    1.82   15.88
   9  -3   1    5.11   15.78
  -9  -3  -1   16.71   11.99
  -9  -3  -1   10.65   16.43
   9  -3   1   29.16   16.46
  10  -3  -1   59.13   23.18
 -10  -3   1   54.66   26.64
  10  -3  -1   42.69   28.37
  10  -3   1   54.65   26.09
 -10  -3  -1   67.35   19.90
 -10  -3  -1   59.26   28.89
  10  -3   1   16.41   26.26
  11  -3  -1  150.73   43.81
 -11  -3   1  178.59   49.76
  11  -3   1  152.22   44.12
  11   3  -1  144.24   28.94
 -11  -3  -1  166.76   35.37
 -11  -3  -1  140.80   50.62
 -11   3   1  122.92   58.77
  11  -3   1  104.95   43.16
  12  -3  -1  124.78   39.31
 -12  -3   1  150.95   45.83
  12  -3   1  133.74   39.15
  12   3  -1  130.58   28.14
 -12  -3  -1  146.70   33.59
 -12  -3  -1  125.46   49.69
 -12   3   1   70.18   53.65
  13  -3  -1   57.10   24.21
 -13  -3   1   83.53   29.25
 -13   3  -1   30.12   33.11
  13  -3   1   50.94   24.62
  13   3  -1   58.22   19.11
 -13  -3  -1   80.33   22.47
 -13  -3  -1   90.54   32.18
 -13   3   1    8.65   36.64
  14  -3  -1   15.90   20.45
  14   3   1   19.35   10.41
 -14  -3   1   12.68   16.22
 -14   3  -1   16.56   18.77
  14  -3   1   19.02   13.05
  14   3  -1   13.11   10.35
 -14  -3  -1   27.58   17.70
 -14   3   1    4.01   20.05
  15  -3  -1    5.19    6.53
 -15  -3   1    7.54   10.57
 -15   3  -1   22.98   12.12
  15  -3   1    5.84    9.95
  15   3  -1    9.93    8.30
 -15  -3  -1   12.95   13.58
 -15   3   1   13.27   16.06
  16  -3  -1    1.24    5.71
  16   3   1   12.59    6.53
 -16  -3   1    8.09    9.64
 -16   3  -1   -3.45   11.58
  16  -3   1   12.75    7.28
  16   3  -1    4.84    6.49
 -16  -3  -1   -3.80   10.54
 -16   3   1    1.30   13.24
  17  -3  -1   -0.34    3.09
  17   3   1    0.48    4.46
 -17  -3   1    6.40    6.22
 -17   3  -1    3.71   11.02
  17  -3   1    4.11    4.79
  17   3  -1    7.56    5.70
 -17  -3  -1   10.08    9.00
 -17   3   1    8.03   13.80
   0   3  -2    8.27    6.15
   0   3   2   19.22    6.25
   0  -3   2    2.93    4.17
   0  -3  -2    3.75    5.44
   0   3   2    4.12    4.53
   0  -3  -2   14.13    7.53
   0  -3   2    0.20    5.28
   0  -3   2   11.41    9.06
   0  -3  -2    7.39    8.51
  -1   3  -2 1271.75  163.79
   1   3   2 1353.32  149.21
   1  -3  -2 1276.49  139.37
   1   3   2 1270.79  132.35
   1  -3  -2 1013.12  153.24
  -1  -3   2 1301.42  134.44
  -1  -3   2 1248.13  173.19
   1  -3  -2  945.95  195.60
   1  -3   2 1228.95  125.68
  -1  -3  -2 1218.21  116.97
  -1   3   2  794.44  124.96
   1  -3   2 1226.14  121.20
  -1   3   2 1234.77  135.45
   1  -3   2 1317.42  170.04
  -1  -3  -2  690.33  157.85
  -2   3  -2  507.42   74.77
   2  -3  -2  521.64   63.10
   2   3   2  591.51   60.39
   2  -3  -2  352.29   93.15
   2   3   2  616.07   68.22
  -2  -3   2  590.36   60.72
  -2  -3   2  581.74  122.12
   2  -3  -2  360.07   97.57
   2  -3   2  553.18   64.42
  -2  -3  -2  524.64   49.10
  -2  -3  -2  573.62   82.36
  -2  -3  -2  531.61   50.92
   2  -3   2  429.10   50.74
  -2   3   2  519.18   66.33
   2  -3   2  540.46   82.89
   3  -3  -2  467.13   56.72
   3   3   2  431.64   56.11
  -3  -3   2  414.02   55.26
  -3  -3   2  399.29   70.46
   3  -3  -2  362.74   89.28
   3  -3   2  526.43   61.98
  -3  -3  -2  380.94   39.91
  -3  -3  -2  390.80   65.09
  -3  -3  -2  385.22   42.52
   3  -3   2  297.66   40.06
   3  -3   2  479.62   69.39
   4  -3  -2  796.33   98.08
  -4   3  -2  761.99  108.28
  -4  -3   2  970.76  108.12
  -4  -3   2  808.85  124.52
   4  -3  -2  694.37  152.20
   4  -3   2  841.59  111.75
  -4  -3  -2  739.70   77.06
  -4  -3  -2  821.83   90.79
   4  -3   2  791.48  126.19
   5  -3  -2  214.99   46.46
  -5   3  -2  125.43   27.07
  -5  -3   2  155.80   30.13
  -5  -3   2  136.27   38.48
   5  -3  -2  163.53   47.40
   5  -3   2  220.91   36.51
  -5  -3  -2  134.29   42.12
  -5  -3  -2  141.89   29.84
   5  -3   2  234.77   44.38
   6  -3  -2  128.85   51.34
  -6  -3   2  199.02   34.01
  -6  -3   2  159.65   41.27
   6  -3  -2  105.71   47.76
   6  -3   2  110.27   32.82
  -6  -3  -2  153.55   27.86
   6  -3   2  117.85   34.78
   7  -3  -2   24.52   14.25
  -7  -3   2   21.75   14.43
  -7  -3   2   22.04   16.67
   7  -3  -2   28.93   20.05
   7  -3   2   15.81   15.45
   7   3  -2   24.27    8.38
  -7  -3  -2   24.16   12.96
  -7  -3  -2    9.67   14.33
   7  -3   2   26.19   17.93
   8  -3  -2   58.32   19.81
  -8  -3   2   48.75   20.49
  -8  -3   2   31.63   21.61
   8  -3  -2   54.87   25.68
   8  -3   2   62.78   22.41
   8   3  -2   41.75   11.68
  -8  -3  -2   13.41   16.81
  -8  -3  -2   25.64   20.95
   8  -3   2   58.35   23.20
   9  -3  -2  224.35   52.76
  -9  -3   2  299.15   57.19
  -9  -3   2  256.37   51.06
   9  -3   2  228.50   61.20
   9   3  -2  222.62   36.85
  -9  -3  -2  280.86   47.80
  -9  -3  -2  225.48   97.56
   9  -3   2  221.41   64.13
  10  -3  -2  398.61   73.41
 -10  -3   2  344.67   76.10
  10  -3   2  339.49   79.05
  10   3  -2  340.26   49.95
 -10  -3  -2  320.78   60.45
 -10  -3  -2  211.77  130.13
 -10   3   2  408.53  107.91
  10  -3   2  345.81   79.80
  11  -3  -2  260.96   90.10
 -11  -3   2  380.68   73.30
  11  -3   2  280.35   67.68
  11   3  -2  282.08   45.07
 -11  -3  -2  330.62   54.83
 -11  -3  -2  261.96   79.60
 -11   3   2  197.17   88.05
  11  -3   2  181.90   64.61
 -12  -3   2  139.85   44.50
  12  -3   2  144.67   41.27
  12   3  -2  146.69   28.68
 -12  -3  -2  145.54   33.71
 -12  -3  -2  122.49   51.26
 -12   3   2  126.73   58.02
  12  -3   2   92.25   40.14
  13  -3  -2  288.99   52.03
 -13  -3   2  378.52   69.86
 -13   3  -2  168.39   83.78
  13  -3   2  331.97   69.03
  13   3  -2  308.38   50.76
 -13  -3  -2  389.22   61.06
 -13  -3  -2  334.23   88.32
 -13   3   2  274.96  102.76
  14  -3  -2   17.51   10.30
 -14  -3   2   22.77   15.47
 -14   3  -2    3.31   17.22
  14  -3   2   28.96   14.21
  14   3  -2   19.73   10.75
 -14  -3  -2   18.87   18.36
 -14   3   2   -1.81   22.69
  15  -3  -2  157.19   31.91
  15   3   2  246.66   32.27
 -15  -3   2  267.05   46.78
 -15   3  -2   43.48   54.29
  15  -3   2  205.55   43.35
  15   3  -2  226.59   35.05
 -15  -3  -2  262.58   57.90
 -15   3   2  174.83   75.21
  16   3   2  173.19   28.22
 -16  -3   2  209.48   39.10
  16  -3   2  128.93   28.42
  16   3  -2  140.82   22.87
 -16  -3  -2  195.79   39.58
 -16   3   2   95.53   53.00
  17  -3  -2   12.08    4.31
  17   3   2   30.95    7.85
 -17  -3   2   30.02   15.66
  17  -3   2   30.50   11.06
  17   3  -2   69.48   17.86
 -17  -3  -2   39.48   16.60
 -17   3   2    0.55   26.77
   0  -3  -3   30.01    7.84
   0  -3  -3   28.09   10.92
   0  -3   3    8.09    7.86
   0  -3   3   16.83   12.49
   0  -3  -3   -2.06    9.25
  -1   3  -3  147.27   30.90
   1  -3  -3  238.80   31.02
   1  -3  -3  220.98   43.09
  -1  -3   3  240.22   28.95
  -1  -3   3  235.78   46.12
   1  -3   3  195.40   27.04
  -1  -3  -3  227.60   28.02
  -1  -3  -3  205.00   44.09
   1  -3   3  248.66   29.19
   1  -3   3  264.33   45.67
  -2   3  -3   85.29   19.06
   2  -3  -3  105.16   18.76
   2  -3  -3   81.80   23.33
  -2  -3   3   79.71   17.26
  -2  -3   3   97.08   26.95
   2  -3  -3   45.46   24.22
   2  -3   3   94.96   20.04
  -2  -3  -3   81.50   23.87
   2  -3   3   95.37   17.08
   2  -3   3  215.23   32.85
   3  -3  -3  390.36   51.19
   3  -3  -3  238.15   59.93
  -3   3  -3  466.08   68.37
  -3  -3   3  474.86   51.71
  -3  -3   3  494.39   73.26
   3  -3  -3  185.57   69.44
   3  -3   3  390.96   61.63
  -3  -3  -3  450.84   48.63
  -3  -3  -3  461.95   75.62
   3  -3   3  373.43   72.56
   4  -3  -3   77.72   16.80
   4  -3  -3   38.21   18.67
  -4   3  -3   40.83   17.87
  -4  -3   3   59.93   15.64
  -4  -3   3   67.32   23.56
   4  -3  -3   20.46   23.11
   4  -3   3   69.93   19.16
  -4  -3  -3   57.32   11.85
  -4  -3  -3   61.70   22.41
  -4  -3  -3   46.23   13.02
   4  -3   3   61.02   21.25
   5  -3  -3    9.26    8.63
  -5   3  -3    4.10    8.81
  -5  -3   3   17.53    8.98
  -5  -3   3   12.25   13.00
   5  -3  -3   -4.63   12.19
   5  -3   3   -0.83   11.64
  -5  -3  -3   13.09    6.88
  -5  -3  -3   19.37    8.77
   5  -3   3   49.07   14.32
   6  -3  -3    7.11    8.51
  -6   3  -3   17.78    8.61
  -6  -3   3    2.85    9.12
  -6  -3   3   -5.27   13.00
   6  -3  -3    3.16   12.19
   6  -3   3    4.23    9.09
   6  -3   3    8.71    8.89
   7  -3  -3    5.86    8.52
  -7   3  -3   11.55    8.85
  -7  -3   3    2.45    9.23
  -7  -3   3    4.85   14.33
   7  -3   3    3.95    9.08
   7  -3   3    8.88   14.21
  -8  -3   3   10.06   13.50
  -8  -3   3   32.07   19.64
   8  -3   3   -1.08   16.41
   8   3  -3   15.05    7.60
  -8  -3  -3   13.54   11.65
  -8  -3  -3   10.79   19.28
  -8   3   3   15.36   19.49
   8  -3   3   16.78   14.93
  -9  -3   3    8.28   11.50
  -9  -3   3    5.09   15.19
   9  -3   3    0.70   11.49
   9   3  -3    1.33    5.60
  -9  -3  -3    4.72    8.07
  -9   3   3    8.81   14.31
   9  -3   3    4.38   10.05
 -10  -3   3   24.09   17.78
 -10  -3   3   27.29   16.85
  10  -3   3   32.80   20.37
  10   3  -3   24.40   11.39
 -10  -3  -3   24.94   15.58
 -10  -3  -3   35.14   33.13
 -10   3   3    3.07   26.99
  10  -3   3   30.58   18.51
 -11  -3   3   27.58   17.85
  11  -3   3   27.07   18.68
  11   3  -3   14.58   11.29
 -11  -3  -3   27.66   14.78
 -11  -3  -3   44.91   32.15
 -11   3   3   23.35   26.76
  11  -3   3   25.39   17.36
 -12  -3   3   50.73   23.60
  12  -3   3   35.29   21.70
  12   3  -3   37.17   13.99
 -12  -3  -3   53.24   17.64
 -12  -3  -3   78.89   60.91
 -12   3   3    0.11   32.41
  12  -3   3   30.23   20.03
 -13  -3   3   -1.85    9.17
  13  -3   3    2.67    7.88
  13   3  -3    1.11    5.60
 -13  -3  -3   -1.92    7.13
 -13  -3  -3   12.14   10.58
  14  -3  -3    0.81    7.64
 -14  -3   3   20.39   10.94
 -14   3  -3    6.36   11.93
  14  -3   3    5.70   11.03
  14   3  -3    7.60    7.94
 -14  -3  -3    9.19   10.07
 -14  -3  -3   13.79   14.97
 -14   3   3   31.09   18.93
  15  -3  -3   80.59   14.11
 -15   3  -3    4.23   23.33
  15  -3   3  110.78   26.99
  15   3  -3   88.23   29.88
 -15  -3  -3  125.95   37.42
 -15   3   3   70.77   50.68
  16  -3  -3    3.28    3.62
  16   3   3    7.08    5.36
 -16  -3   3   -0.54    5.33
  16  -3   3   13.25    8.24
  16   3  -3    6.84   11.71
 -16  -3  -3   15.23   12.17
 -16   3   3   -4.07   19.31
  17   3   3  164.58   19.51
 -17  -3   3  113.20   17.42
  17  -3   3   89.06   22.20
  17   3  -3  215.99   32.58
 -17  -3  -3  177.39   32.20
 -17   3   3   51.51   53.92
   0  -3  -4   11.26    9.67
   0  -3   4    0.56    6.26
   0  -3   4   16.50   15.52
   1  -3  -4 1070.45  128.33
   1  -3  -4 1094.21  183.75
  -1  -3   4 1117.17  129.45
  -1  -3   4 1168.55  168.75
  -1  -3  -4 1140.79  133.79
  -1  -3  -4 1063.78  176.28
   1  -3   4 1069.61  125.83
   1  -3   4 1155.44  165.17
   2  -3  -4  332.72   46.82
   2  -3  -4  275.95   67.41
  -2  -3   4  356.49   45.30
  -2  -3   4  369.09   67.42
   2  -3   4  267.76   41.37
  -2  -3  -4  343.62   42.75
   2  -3   4  303.47   38.98
   2  -3   4  368.08   59.82
   3  -3  -4  508.28   64.85
   3  -3  -4  441.07   91.53
  -3   3  -4  621.45   89.81
  -3  -3   4  449.37   60.09
  -3  -3   4  456.99   91.35
   3  -3   4  502.25   72.06
  -3  -3  -4  449.20   57.34
   3  -3   4  569.78   83.97
   4  -3  -4  129.44   29.64
   4  -3  -4   99.23   40.48
  -4   3  -4  143.13   36.84
  -4  -3   4  196.93   29.21
  -4  -3   4  179.93   44.26
   4  -3   4  130.27   34.41
  -4  -3  -4  169.90   23.27
  -4   3   4   70.83   42.77
   4  -3   4  141.87   35.23
   5  -3  -4  286.44   40.83
   5  -3  -4  198.38   58.33
  -5   3  -4  254.60   50.57
  -5  -3   4  207.16   39.22
  -5  -3   4  217.65   58.97
   5  -3   4  291.07   81.07
  -5  -3  -4  180.82   29.94
  -5  -3  -4  229.63   52.63
  -5   3   4  259.64   64.69
   5  -3   4  311.25   49.30
   6  -3  -4   10.50    8.17
   6  -3  -4    2.90   11.61
  -6   3  -4   -0.89    9.80
  -6  -3   4    6.57   12.69
   6  -3   4    3.74   29.26
  -6  -3  -4   11.30    6.61
  -6  -3  -4    2.20   18.29
  -6   3   4   11.61   16.59
   6  -3   4   17.62   11.44
  -7   3  -4   11.40   10.70
  -7  -3   4    0.37   13.35
   7  -3   4   13.07   37.62
  -7  -3  -4   10.44   17.23
  -7   3   4    6.03   21.07
   7  -3   4   36.29   15.14
  -8   3  -4   12.78   12.00
  -8  -3   4   15.20   14.48
  -8  -3  -4    8.07   17.49
  -8   3   4   18.62   18.03
   8  -3   4   12.66   13.48
  -9  -3   4  565.78  110.00
  -9  -3   4  283.50   87.63
   9  -3   4  378.61  131.50
  -9  -3  -4  467.27   71.52
  -9  -3  -4  144.90  121.98
  -9   3   4  339.88  118.36
   9  -3   4  366.36   85.67
 -10  -3   4   99.51   42.38
 -10  -3   4   56.75   32.83
  10  -3   4   76.35   30.94
  10   3  -4   46.95   15.47
 -10  -3  -4   77.36   24.39
 -10  -3  -4   38.10   53.55
 -10   3   4  111.37   41.37
  10  -3   4   88.74   28.30
 -11  -3   4  511.58  121.69
 -11  -3   4  406.56   92.96
  11  -3   4  394.49   71.91
  11   3  -4  207.99   42.33
 -11  -3  -4  441.55   59.87
 -11  -3  -4  427.28  128.32
  11  -3   4  226.28   65.40
 -12  -3   4  144.42   42.13
 -12  -3   4  106.20   33.89
  12  -3   4  112.72   33.90
  12   3  -4   84.04   19.89
 -12  -3  -4  147.84   28.83
 -12  -3  -4  157.00   61.06
 -12   3   4   97.94   53.56
  12  -3   4   59.49   30.88
 -13  -3   4  266.68   37.53
 -13   3  -4   53.80   54.39
  13  -3   4  273.90   56.98
  13   3  -4  264.95   62.92
 -13  -3  -4  306.51   49.92
 -13   3   4  282.58  101.70
 -14  -3   4    6.25    7.01
 -14   3  -4   23.32    9.37
  14  -3   4    6.47    9.00
  14   3  -4   10.21    9.73
 -14  -3  -4    1.93   12.02
 -14   3   4   21.86   16.17
  15  -3  -4   91.48   17.87
 -15  -3   4  180.57   22.96
  15  -3   4  221.03   37.86
  15   3  -4  195.71   46.08
 -15  -3  -4  182.46   53.12
 -15   3   4  114.70   85.21
  16   3   4   52.83   11.41
 -16  -3   4   47.95   10.49
  16  -3   4   41.87   13.32
  16   3  -4   41.72   16.83
 -16  -3  -4   38.06   18.50
 -16   3   4   33.01   32.92
   0  -3  -5   13.83   10.69
   0  -3  -5   15.11   17.13
   0  -3   5   22.59    9.61
   0  -3   5   26.81   15.11
   1  -3  -5    8.92   10.53
   1  -3  -5   16.63   11.42
  -1  -3   5   -2.38    6.48
  -1  -3   5    5.28    9.96
  -1  -3  -5    5.22    7.89
  -1  -3  -5   24.70   20.29
   1  -3   5    3.30    7.14
   1  -3   5   17.68   10.87
   2  -3  -5    6.76    8.37
   2  -3  -5   19.55   13.66
  -2   3  -5    2.57   12.16
  -2  -3   5    9.16    8.31
  -2  -3   5   14.90   12.29
  -2  -3  -5   12.03    8.09
  -2  -3  -5   14.59   12.48
   2  -3   5   -2.33   11.01
   3  -3  -5   -2.36    7.67
  -3   3  -5   21.44   10.89
  -3  -3   5    9.30    7.73
  -3  -3   5   12.27   11.48
   3  -3   5    0.44   13.42
  -3  -3  -5   11.63    7.80
   3  -3   5   12.80   11.03
   4  -3  -5   -2.77    6.00
  -4   3  -5    0.47    8.05
  -4  -3   5    6.45    9.29
   4  -3   5   -0.69    8.34
  -4   3   5    3.75    8.59
   5  -3  -5  149.06   26.79
   5  -3  -5  137.99   48.54
  -5   3  -5   99.22   40.46
  -5  -3   5  126.97   44.09
   5  -3   5  105.59   42.11
  -5  -3  -5  121.22   22.89
  -5   3   5   76.00   39.51
   5  -3   5  175.36   32.77
   6  -3  -5   -2.82    6.53
   6  -3  -5    2.84   11.44
  -6   3  -5    5.50    9.33
  -6  -3   5    6.01    6.59
  -6  -3   5   -3.75   10.51
   6  -3   5   -4.44   11.79
  -6  -3  -5   15.79   10.46
   6  -3   5    5.05    8.68
   7   3   5  417.07   59.38
   7  -3  -5  581.78   72.79
   7  -3  -5  219.72  129.60
  -7   3  -5  452.62  102.56
  -7  -3   5  644.93   74.86
  -7  -3   5  352.43  105.23
   7  -3   5  235.63  105.66
  -7  -3  -5  708.72  113.06
  -7   3   5  335.33  122.68
   7  -3   5  686.70   95.86
   8  -3  -5    8.46   13.91
  -8   3  -5   -1.23   10.86
   8  -3   5    7.53   18.57
  -8  -3  -5    5.41   17.76
  -8   3   5   29.59   20.07
   8  -3   5   22.77   15.87
  -9   3  -5   42.65   21.96
  -9  -3   5    9.51   29.30
   9  -3   5   74.58   33.25
  -9  -3  -5  105.37   24.29
  -9  -3  -5    1.41   37.69
  -9   3   5   32.69   39.07
   9  -3   5   55.73   27.49
 -10   3  -5    4.07   10.83
 -10  -3   5    1.33    7.96
 -10  -3   5   16.00   15.95
  10  -3   5   24.12   27.06
 -10  -3  -5   30.44   14.93
 -10  -3  -5    5.90   33.45
 -10   3   5    9.13   26.31
  10  -3   5   24.44   16.03
 -11   3  -5    7.76   21.84
 -11  -3   5   59.23   16.43
 -11  -3   5   62.38   26.28
  11  -3   5   51.31   20.71
 -11  -3  -5   60.71   18.73
 -11  -3  -5   28.77   39.52
 -11   3   5    3.94   34.50
  11  -3   5   28.12   18.94
 -12  -3   5    0.40   10.53
  12  -3   5   10.24   10.58
 -12  -3  -5    8.92    9.10
 -12  -3  -5   11.19   20.99
  12  -3   5    2.33    8.63
  13  -3  -5   26.41   10.34
 -13  -3   5   35.68   11.83
 -13  -3   5   29.01   16.36
  13  -3   5   15.36   14.58
  13   3  -5    1.21   14.08
 -13  -3  -5   48.35   12.64
 -13  -3  -5   30.29   29.44
 -13   3   5   19.23   28.96
  14  -3  -5   21.38    8.79
 -14  -3   5    8.63    7.09
 -14  -3   5    1.19    7.62
  14  -3   5    9.13    9.32
  14   3  -5    0.21    9.22
 -14  -3  -5    6.50    8.11
 -14  -3  -5   23.93   11.57
 -14   3   5    2.27   20.91
 -15  -3   5    4.07    4.68
  15  -3   5    8.36    7.76
  15   3  -5    9.57    8.04
 -15  -3  -5   12.00    9.57
 -15   3   5    7.96   18.91
  15  -3   5    6.98    2.52
  16   3   5   15.57    5.89
  16  -3   5   16.13    7.48
 -16  -3  -5   11.47    8.74
   0  -3  -6   62.52   18.30
   0  -3  -6   57.48   30.38
   0  -3   6   48.05   24.16
   1  -3  -6  166.00   35.61
   1  -3  -6  192.21   56.18
  -1   3  -6  204.02   50.27
  -1  -3   6  174.95   31.78
  -1  -3   6  181.66   46.39
  -1  -3  -6  180.43   34.64
  -1  -3  -6  184.50   85.88
   1  -3   6  170.19   42.34
   2  -3  -6   37.18   19.32
  -2   3  -6   28.13   16.05
  -2  -3   6    8.47   10.45
  -2  -3   6   19.20   15.22
  -2  -3  -6    6.12    8.73
  -2  -3  -6   14.00   13.58
   2  -3   6    7.29   10.98
   3  -3  -6    1.07    9.28
   3  -3  -6    0.92   14.92
  -3   3  -6   22.20   12.21
  -3  -3   6   10.99    8.16
  -3  -3   6   -0.67   12.93
  -3  -3  -6    9.76    8.69
  -3  -3  -6   -1.70   14.54
   3  -3   6   19.38   11.47
   4  -3  -6  320.50   82.44
   4  -3  -6  295.94   89.90
  -4   3  -6  311.63   77.33
  -4  -3   6  340.45   51.47
  -4  -3   6  338.04   76.06
   4  -3   6  179.24   61.27
  -4  -3  -6  287.26   43.46
   4  -3   6  338.51   54.32
   5  -3  -6    6.31    9.02
   5  -3  -6    4.14   16.90
  -5   3  -6   12.24   14.37
  -5  -3   6   16.11   10.22
  -5  -3   6   17.33   15.47
  -5  -3  -6    7.46    6.09
  -5  -3  -6    6.22   11.93
   5  -3   6   -2.72    8.42
   6   3   6  743.30  100.38
   6  -3  -6  838.98  105.47
   6  -3  -6  542.02  170.72
  -6   3  -6  845.59  165.50
  -6  -3   6  846.30  161.25
   6  -3   6  164.97   63.92
  -6   3   6  220.08   66.61
   7   3   6    6.02    6.55
   7  -3  -6    1.11    8.06
   7  -3  -6  -10.04   22.29
  -7   3  -6   11.23   20.77
  -7  -3   6   16.06    8.82
  -7  -3   6    9.17   15.98
  -7  -3  -6   15.71    9.64
  -7   3   6    3.44   10.24
   8   3   6  263.13   43.03
   8  -3  -6  209.81  105.95
  -8   3  -6  286.46   89.87
  -8  -3   6  420.89   95.04
   8  -3   6  382.04  111.41
  -8  -3  -6  787.87  118.02
  -8   3   6  273.09  138.48
   8  -3   6  597.31  110.21
   9  -3  -6   26.28   11.80
   9  -3  -6    8.86   23.32
  -9   3  -6   12.02   20.80
  -9  -3   6   38.80   26.73
   9  -3   6   36.21   20.83
  -9  -3  -6   55.84   24.51
  -9   3   6   11.26   25.55
   9  -3   6   15.03   16.24
  10  -3  -6   30.60   24.61
 -10   3  -6   33.22   22.67
 -10  -3   6   40.74   29.11
  10  -3   6  100.22   50.12
 -10  -3  -6   95.44   23.49
 -10  -3  -6   57.48   58.57
 -10   3   6   58.91   67.56
  10  -3   6   47.20   23.36
  11  -3  -6   48.48   20.61
 -11   3  -6    2.59   18.57
 -11  -3   6   33.18   12.23
 -11  -3   6   25.13   21.87
  11  -3   6   10.02   10.91
 -11  -3  -6    9.44    9.96
 -11  -3  -6    2.04   26.79
  12  -3  -6   17.66    9.95
 -12   3  -6   19.10   15.80
 -12  -3   6   33.53   10.39
 -12  -3   6   19.32   17.16
  12  -3   6    1.97   10.39
 -12  -3  -6   19.21    9.00
 -12  -3  -6   -5.69   20.31
 -12   3   6    3.53   21.93
  13  -3  -6   28.42    8.77
 -13   3  -6   -1.17   12.20
 -13  -3   6   40.01    9.65
 -13  -3   6   24.50   15.09
 -13  -3  -6   48.52   13.78
 -13  -3  -6   21.22   17.94
 -13   3   6   38.85   35.89
 -14  -3   6   29.47    7.91
 -14  -3   6   17.64   10.55
  14  -3   6   24.26   11.79
 -14  -3  -6   34.62   10.54
 -14  -3  -6   19.49   13.22
 -14   3   6    8.03   29.24
 -15  -3  -6    7.39    6.46
 -15   3   6   -6.34   17.26
   0  -3  -7  100.04   27.75
   0  -3  -7  131.85   44.42
   0   3  -7   96.42   40.41
   0  -3   7  136.33   50.10
   1  -3  -7  104.41   28.20
   1  -3  -7  118.67   44.85
  -1   3  -7  126.77   40.32
  -1  -3   7  108.83   34.74
  -1  -3  -7  106.98   27.26
  -1  -3  -7   83.51   64.18
   1   3  -7  113.42   41.44
   1  -3   7  121.11   32.99
   2  -3  -7  121.57   27.67
   2  -3  -7  107.26   44.61
  -2   3  -7  102.52   40.10
  -2  -3   7  100.40   36.80
  -2  -3  -7   93.18   26.89
  -2  -3  -7  110.20   41.04
   2  -3   7  135.00   31.18
   3  -3  -7  219.65   44.15
   3  -3  -7  209.43   70.94
  -3   3  -7  235.61   64.36
  -3  -3   7  245.58   39.43
  -3  -3   7  255.16   59.39
  -3  -3  -7  218.47   40.93
  -3  -3  -7  264.74   65.33
   3  -3   7  249.67   49.47
   4  -3  -7   31.06   11.15
   4  -3  -7    1.91   19.61
  -4   3  -7   -5.39   16.59
  -4  -3   7   15.33   10.40
  -4  -3   7   10.66   16.90
   4  -3   7   10.96    8.93
   5   3   7   23.55   13.14
   5  -3  -7   23.39   14.98
   5  -3  -7   24.75   29.17
  -5   3  -7   24.82   23.04
  -5  -3   7   50.66   13.89
  -5  -3   7   42.37   22.30
   5  -3   7   -1.72   19.79
  -5  -3  -7   38.47   20.35
   5  -3   7   32.14   13.96
   6   3   7   29.40   11.92
   6  -3  -7   38.54   14.29
   6  -3  -7   24.56   27.54
  -6   3  -7    1.46   22.59
  -6  -3   7   34.48   14.03
  -6  -3   7   36.50   24.33
   6  -3   7   22.29   25.81
  -6  -3  -7   53.74   23.54
   6  -3   7   30.78   15.69
   7   3   7    3.42    5.71
   7  -3  -7    9.44    7.35
   7  -3  -7   -4.76   14.13
  -7  -3   7    2.75   13.25
   7  -3   7   25.24   15.84
  -7  -3  -7   11.94   14.49
  -7   3   7    8.06   14.85
   7  -3   7    2.80   11.71
   8   3   7    9.70    7.08
   8  -3  -7   17.36    9.46
   8  -3  -7   -6.35   23.11
  -8   3  -7    3.74   17.82
  -8  -3   7   13.04   18.79
   8  -3   7    6.70   14.82
  -8  -3  -7   21.53   13.59
  -8   3   7    2.13   15.49
   8  -3   7    5.40   10.40
   9   3   7   12.26    8.51
   9  -3  -7   41.02   11.73
   9  -3  -7   17.62   28.17
  -9   3  -7   14.41   21.27
  -9  -3   7   31.29   11.49
  -9  -3   7   15.99   23.90
   9  -3   7   35.75   18.68
  -9  -3  -7   16.45   13.16
  -9   3   7   21.19   23.54
  10  -3  -7   24.18   10.95
  10  -3  -7   -3.40   23.47
 -10   3  -7   14.40   19.55
 -10  -3   7   31.27   10.51
 -10  -3   7   24.08   21.76
  10  -3   7   28.55   20.14
 -10  -3  -7   21.85   11.89
 -10   3   7   -8.54   22.61
  11  -3  -7   87.01   16.72
  11  -3  -7    8.91   30.46
 -11   3  -7   14.76   31.19
 -11  -3   7   94.12   16.99
 -11  -3   7   91.58   32.17
  11  -3   7   98.82   24.63
 -11   3   7   69.78   49.92
  12  -3  -7   40.25   10.34
  12  -3  -7   11.05   15.82
 -12   3  -7   -5.53   28.71
 -12  -3   7   58.37   11.20
 -12  -3   7   79.54   20.73
  12  -3   7   52.03   12.02
 -12  -3  -7   12.37   10.75
 -12   3   7   39.29   26.71
  12  -3   7    9.62    9.76
 -13   3  -7    2.06   11.60
 -13  -3   7   33.60    7.09
 -13  -3   7   41.55   13.52
  13  -3   7   25.11   11.56
 -13  -3  -7   30.43   10.37
 -13   3   7   16.01   27.56
 -14  -3   7   11.93    5.88
  14  -3   7   30.03   10.56
 -14   3   7   24.54   25.77
   0  -3  -8    1.09    8.02
   0  -3  -8    9.57   13.10
   0   3  -8   -0.52   11.80
   0  -3   8    6.19    8.92
   1  -3  -8  177.92   35.95
   1  -3  -8  158.69   59.10
  -1   3  -8  142.80   53.01
  -1  -3   8  177.68   65.06
  -1  -3  -8  173.55   37.21
  -1  -3  -8  191.41   58.32
   1   3  -8  166.84   56.84
   1  -3   8  230.33   43.39
   2  -3  -8  180.81   39.45
   2  -3  -8  222.51   67.94
  -2   3  -8  157.46   58.98
  -2  -3   8  256.24   49.54
  -2  -3  -8  193.54   38.11
  -2  -3  -8  220.27   59.62
   2   3  -8  220.07   62.68
   2  -3   8  211.19   44.80
   3   3   8   51.53   19.06
   3  -3  -8   74.68   19.88
   3  -3  -8   51.69   38.22
  -3   3  -8   60.38   31.34
  -3  -3   8   54.61   25.84
  -3  -3  -8   66.69   30.01
   3   3  -8   23.68   31.08
   3  -3   8   71.64   21.05
   4   3   8  336.24   56.75
   4  -3  -8  351.96   57.16
   4  -3  -8  400.40  116.85
  -4   3  -8  319.76   91.47
  -4  -3   8  499.75   81.97
  -4  -3  -8  392.06   93.71
   4   3  -8  495.48  100.08
   4  -3   8  360.23   66.01
   5   3   8   10.88    7.56
   5  -3  -8    2.48    8.61
   5  -3  -8    2.47   17.39
  -5   3  -8   14.53   14.31
  -5  -3   8    3.18   13.01
  -5  -3  -8   13.60   14.61
   5   3  -8   16.33   16.50
   5  -3   8    8.65    9.43
   6   3   8   60.04   17.41
   6  -3  -8   72.59   19.91
   6  -3  -8   68.54   37.63
  -6   3  -8   55.02   38.77
  -6  -3   8  112.91   33.11
   6  -3   8   10.23   44.88
  -6  -3  -8   96.84   29.08
   6   3  -8   76.58   33.66
   6  -3   8   53.24   17.51
   7   3   8    6.28    7.43
   7  -3  -8    6.49    8.81
   7  -3  -8    4.23   17.63
  -7   3  -8   28.02   16.72
  -7  -3   8   23.66   15.45
  -7  -3  -8   31.19   19.76
   8   3   8   14.82    9.05
   8  -3  -8   29.58   11.45
   8  -3  -8   48.63   25.80
  -8   3  -8   21.42   22.33
  -8  -3   8   42.49   21.37
  -8  -3  -8   39.94   21.35
   9  -3  -8    1.59    5.52
  -9  -3   8   15.05   10.76
  -9   3   8    1.26   11.65
  10   3   8   46.68   14.50
  10  -3  -8   88.97   15.49
  10  -3  -8   47.82   34.02
 -10   3  -8   65.13   32.04
 -10  -3   8   91.07   30.59
  10  -3   8  106.95   23.36
 -10  -3  -8   97.16   21.47
  10   3  -8  117.26   34.85
 -10   3   8    6.31   40.14
  11  -3  -8   19.04    6.21
  11  -3  -8   11.67   14.03
 -11   3  -8    7.70   15.24
 -11  -3   8   17.68   14.73
  11  -3   8   24.47    9.41
 -11  -3  -8    5.26    9.17
  11   3  -8   31.46   13.04
 -11   3   8    7.31   17.90
 -12   3  -8    1.36   10.85
 -12  -3   8   28.07   11.42
  12  -3   8   25.87    9.32
 -12   3   8    6.70   18.46
   0  -3  -9   39.77   32.66
   0   3  -9   48.64   30.26
   0  -3   9   73.53   20.93
   1   3   9   10.64   12.43
   1  -3  -9   29.01   11.80
   1  -3  -9   15.95   37.70
  -1   3  -9   34.37   21.02
  -1  -3   9   32.13   14.75
  -1  -3  -9   25.08   21.46
   1   3  -9   38.61   20.91
   1  -3   9   23.05   14.37
   2  -3  -9  130.97   27.26
  -2   3  -9   92.90   46.99
  -2  -3   9  134.57   33.21
  -2  -3  -9  138.36   46.80
   2   3  -9  101.91   47.69
   2  -3   9  165.71   31.97
   3   3   9   35.49   15.39
   3  -3  -9   50.07   15.93
   3  -3  -9   32.25   32.57
  -3   3  -9   47.36   27.20
  -3  -3   9   61.46   21.54
  -3  -3  -9   62.62   26.10
   3   3  -9   40.60   27.24
   3  -3   9   47.68   16.40
   4   3   9   67.68   21.33
   4  -3  -9  108.65   23.34
   4  -3  -9  122.69   46.94
  -4   3  -9  121.88   72.23
  -4  -3   9  131.98   31.92
  -4  -3  -9  120.71   37.55
   4   3  -9  102.87   41.31
   4  -3   9  107.20   23.19
   5   3   9    4.90    6.82
   5  -3  -9   14.70    7.67
   5  -3  -9    6.61   15.06
  -5  -3  -9   23.24   15.31
   5   3  -9    4.85   16.58
   5  -3   9   16.22    8.78
   6   3   9    6.57    5.85
   6  -3  -9   -1.06    6.68
   6  -3  -9    0.21   13.37
  -6   3  -9   16.93   13.63
  -6  -3   9    3.03   10.33
  -6  -3  -9    5.84   11.23
   6   3  -9    6.35   12.09
   7   3   9   12.58    9.24
   7  -3  -9   29.65   10.57
   7  -3  -9   30.11   21.83
  -7   3  -9   47.51   22.22
  -7  -3   9   45.84   18.20
   7  -3   9    5.41    8.92
  -7  -3  -9   43.67   14.44
   7   3  -9   30.71   16.50
   8   3   9    7.84    6.47
   8  -3  -9   25.04    7.52
   8  -3  -9   -0.99   17.29
  -8   3  -9   11.89   16.87
  -8  -3   9   11.50   14.55
   8  -3   9    8.59    6.28
   8   3  -9   -0.23   10.89
   9  -3  -9   -3.10    9.35
  -9  -3   9    6.09    8.04
   9  -3   9    6.72    5.43
  -9  -3  -9    0.64    6.23
   9   3  -9    4.18    8.79
  10  -3  -9   18.44   21.73
 -10   3  -9   22.06   23.81
 -10  -3   9   96.05   20.79
  10  -3   9   14.09    7.12
   0   3  10   -0.84    6.94
   0  -3 -10   23.99   12.77
   0   3 -10   -5.21   12.82
   0  -3  10   10.37    7.35
   1  -3 -10  135.02   43.91
  -1   3 -10   95.78   43.53
  -1  -3  10  129.79   27.25
  -1   3  10   85.15   20.81
  -1  -3 -10  117.94   37.03
   1   3 -10   78.18   38.88
   1  -3  10  112.49   21.82
   2   3  10   33.86   11.99
   2  -3 -10   46.56   23.85
  -2   3 -10   12.50   27.46
  -2  -3  10   43.78   15.09
  -2   3  10   34.25   11.81
  -2  -3 -10   36.58   20.37
   2   3 -10   52.96   22.09
   2  -3  10   25.01   10.97
   3   3  10   66.52   18.04
   3  -3 -10  102.65   62.64
  -3   3 -10   56.82   41.14
  -3  -3  10  128.39   23.97
  -3   3  10   87.65   17.25
  -3  -3 -10   99.91   28.93
   3   3 -10   86.54   32.65
   3  -3  10   54.15   14.43
   4   3  10   -1.64    5.32
   4  -3 -10   13.34   11.18
  -4   3 -10   16.13   12.17
  -4  -3  10   -0.45    7.46
  -4   3  10    5.55    5.96
  -4  -3 -10    9.07   10.12
   4   3 -10   -2.71   11.35
   5   3  10   29.00   10.83
   5  -3 -10   60.34   23.64
  -5   3 -10   40.39   25.62
  -5  -3  10   48.50   25.75
  -5   3  10   38.69   11.35
  -5  -3 -10   39.97   18.79
   5   3 -10   27.52   20.82
   6   3  10   22.50    8.16
   6  -3 -10   -0.32   18.98
  -6   3 -10   17.57   19.35
  -6  -3  10   55.12   21.71
  -6  -3 -10   38.51   15.47
   6   3 -10   15.39   17.45
   7   3  10    8.16    6.77
   7  -3 -10    5.11   10.98
  -7  -3  10    5.11   13.06
  -7  -3 -10    3.45    4.64
   8   3  10    4.88    6.11
   8  -3 -10   10.07   11.20
  -8   3 -10   -0.16   11.83
  -8  -3  10   25.73   14.26
   0   3  11   36.95   10.16
   0  -3 -11   60.83   19.27
   0   3 -11   14.36   24.73
   1   3  11    3.45    4.95
   1  -3 -11   -1.41    9.57
  -1  -3  11    6.56    3.95
  -1   3  11   -1.13    3.85
  -1  -3 -11    7.79    7.19
   1   3 -11    0.35    9.28
   2   3  11   27.69    8.89
   2  -3 -11   41.73   16.84
  -2   3 -11   -8.93   20.99
  -2  -3  11   31.86    8.38
  -2   3  11   25.42    7.52
  -2  -3 -11   28.54   14.39
   2   3 -11   -0.78   18.86
   3   3  11    2.64    4.83
   3  -3 -11    2.30    8.82
  -3   3 -11   -0.81   11.41
  -3  -3  11    7.85    5.11
  -3  -3 -11   12.84    7.36
   3   3 -11   14.10    9.18
   4   3  11    1.97    4.91
   4  -3 -11   24.54    9.54
  -4   3 -11   13.87   11.71
  -4  -3  11    4.60    5.76
  -4   3  11    2.17    3.87
  -4  -3 -11   13.61    7.54
   0  -4   0 1302.80  366.45
   1  -4   0   -5.32   13.37
  -2  -4   0  322.32   79.55
   2  -4   0  611.38  114.87
  -3  -4   0   10.28    6.54
   3  -4   0   -3.44   10.45
  -4  -4   0   41.56   12.32
   4  -4   0   83.06   30.40
  -5  -4   0    0.86    4.81
   6  -4   0   49.06   21.37
  -6  -4   0   65.36   28.02
   6  -4   0   50.65   30.77
  -7  -4   0   -4.40    9.00
   8  -4   0   36.38   18.80
  -8  -4   0   48.11   19.04
   8  -4   0    8.09   24.48
   9  -4   0   -0.14    8.99
  -9  -4   0    2.15    9.19
   9  -4   0   23.70   10.31
  10  -4   0   72.69   27.53
  10   4   0   67.09   15.77
 -11  -4   0    3.96    9.30
 -11   4   0   -0.87   12.10
  12  -4   0  272.97   51.76
  12   4   0  262.47   35.30
 -12  -4   0  316.85   63.54
 -12   4   0  214.29   88.49
  13  -4   0    1.88    6.45
 -13  -4   0   -2.85    8.93
 -13   4   0   15.57   12.02
  14  -4   0  361.99   47.05
 -14  -4   0  397.53   69.37
 -14   4   0  236.32   96.98
   0  -4   1   13.25   13.45
   0  -4  -1    6.85   13.21
  -1  -4   1   58.84   12.65
  -1  -4   1   75.63   26.18
   1  -4  -1   25.37   27.87
   1  -4   1   44.06   23.15
  -1  -4  -1   46.82   21.94
  -2  -4   1   33.64    9.79
  -2  -4   1   41.39   19.75
   2  -4  -1    7.60   22.28
   2  -4   1   22.13    9.41
   2  -4   1   12.54   26.53
  -3  -4   1   12.38   12.18
   3  -4  -1    2.80   14.86
   3  -4   1   20.08   20.44
  -4  -4   1   38.46   11.24
  -4  -4   1   32.94   18.04
   4  -4  -1    6.22   23.95
   4  -4   1   27.10   14.99
   4  -4   1   33.90   24.26
  -5  -4   1  113.41   21.68
   5  -4  -1   68.53   43.13
   5  -4   1  113.30   43.56
  -5  -4  -1   79.85   26.50
   5  -4   1   93.68   41.32
  -6  -4   1   53.73   15.88
   6  -4  -1   54.15   30.04
   6  -4   1  108.96   29.18
  -6  -4  -1   68.08   21.04
   6  -4   1   68.40   36.88
   7  -4  -1    5.14   14.11
  -7  -4   1   25.83   11.23
   7  -4  -1   26.51   19.26
   7  -4   1   22.34   14.50
  -7  -4  -1   10.33    9.88
  -7  -4  -1   17.01   11.15
   7  -4   1    6.59   17.94
  -8  -4   1   54.46   24.15
   8  -4  -1   18.17   24.44
   8  -4   1   52.07   25.76
  -8  -4  -1   34.88   15.39
  -8  -4  -1   45.65   19.94
   8  -4   1   39.74   26.40
   9  -4  -1   38.94   20.30
  -9  -4   1   55.65   34.96
   9  -4   1   54.72   26.67
  -9  -4  -1   26.51   14.44
  -9  -4  -1   39.38   21.97
   9  -4   1   47.80   23.94
 -10  -4   1   19.52   26.48
  10  -4   1   11.98   17.52
  10  -4   1   25.29   15.47
  11  -4  -1   20.21   11.50
  11   4   1    6.91    7.14
 -11  -4   1    8.65   22.01
 -11   4  -1   14.21   18.21
  11  -4   1   20.91   16.62
 -11   4   1    7.59   13.20
  12   4   1    8.00    6.35
 -12  -4   1    2.54   14.52
 -12   4  -1   12.69   16.10
  12  -4   1   14.23   12.16
 -12   4   1   21.32   19.74
  13  -4  -1   20.08   11.80
  13   4   1   30.77    8.88
 -13  -4   1   30.69   12.09
 -13   4  -1   11.79   21.19
  13  -4   1   39.30   14.23
 -13  -4  -1   33.16   18.15
 -13   4   1   33.83   25.72
  14  -4  -1   13.13    6.78
 -14  -4   1   15.99    7.82
 -14   4  -1   -5.98   13.97
 -14  -4  -1    0.24    7.81
   0  -4   2   40.34   11.37
   0  -4   2   63.16   24.80
  -1  -4   2   29.83   15.66
   1  -4  -2    0.62   13.15
  -1  -4  -2   21.80    9.32
   1  -4   2   45.33   19.68
  -2  -4   2  104.89   18.92
  -2  -4   2  108.91   37.95
   2  -4  -2   48.52   32.50
   2  -4   2  129.81   42.68
  -3  -4   2  213.87   29.10
  -3  -4   2  165.11   55.43
   3  -4  -2   88.06   48.54
   3  -4   2  107.85   24.84
   3  -4   2  168.49   40.28
  -4  -4   2  226.79   61.52
   4  -4  -2  189.20   59.02
   4  -4   2  365.84   68.60
   4  -4   2  427.64  105.43
   5  -4  -2  403.93   64.37
  -5  -4   2  427.15   54.69
  -5  -4   2  340.68   89.49
   5  -4  -2  237.86   88.26
   5  -4   2  442.90   77.96
  -5  -4  -2  233.51   56.94
   5  -4   2  470.17   98.30
  -6  -4   2   42.29   21.63
   6  -4  -2   35.97   25.02
   6  -4   2   62.89   22.63
  -6  -4  -2   34.99   17.37
   6  -4   2   78.12   30.25
  -7  -4   2  353.06   54.05
   7  -4   2  328.72   70.50
  -7  -4  -2  250.66   48.01
  -7  -4  -2  204.36   48.11
   7  -4   2  391.03   79.91
  -8  -4   2  123.96   29.03
   8  -4   2  119.97   43.95
  -8  -4  -2   98.64   24.39
  -8  -4  -2   59.14   27.15
  -8   4   2   67.88   49.36
   8  -4   2  133.63   39.61
  -9  -4   2  200.99   40.11
   9  -4   2  247.21   62.03
  -9  -4  -2  173.91   35.43
  -9  -4  -2   91.13   42.84
  -9   4   2  195.24   74.95
   9  -4   2  231.30   56.10
 -10  -4   2  308.90   52.65
  10  -4   2  290.99   70.23
 -10  -4  -2  323.39   42.99
 -10  -4  -2   95.65   59.29
 -10   4   2  146.97   82.66
  10  -4   2  216.58   63.19
  11  -4  -2   60.00   19.03
 -11  -4   2   47.26   18.79
  11  -4   2   63.92   23.62
 -11  -4  -2   43.46   14.69
 -11  -4  -2   14.86   24.46
 -11   4   2   55.85   30.90
  11  -4   2   15.90   21.00
  12  -4  -2   53.31   18.93
  12   4   2   66.59   14.09
 -12  -4   2   70.80   19.40
 -12   4  -2   57.78   33.32
 -12  -4  -2   46.21   21.96
 -12   4   2   30.11   29.52
  13  -4  -2    0.51    6.83
  13   4   2   11.15    5.45
 -13  -4   2    4.99    7.46
 -13   4  -2   11.77   12.70
  13  -4   2   20.43   16.17
 -13  -4  -2   18.82   13.35
  14  -4  -2   11.24    5.76
  14   4   2   12.16    5.37
 -14  -4   2    9.39    6.87
 -14   4  -2   -1.94   11.55
  14  -4   2    7.57    6.73
 -14  -4  -2   12.85    9.17
 -14   4   2    9.30   14.44
   0  -4  -3    2.38    5.67
   0  -4   3    3.73    4.96
   0  -4   3   -4.92   10.89
  -1   4  -3   12.47   10.80
  -1  -4   3   12.04    6.99
  -1  -4   3   32.93   14.41
  -1  -4  -3   20.39    8.82
   1  -4   3   18.38   17.61
  -2   4  -3   17.16   13.47
  -2  -4   3   22.54   19.41
  -2  -4  -3   15.76    7.74
   2  -4   3   23.87   16.46
   3  -4  -3  107.36   22.62
  -3   4  -3   46.16   25.77
  -3  -4   3  122.48   21.10
  -3  -4   3   86.39   39.98
   3  -4  -3   43.07   28.08
  -3  -4  -3   41.89   38.84
   3  -4   3  120.58   33.77
  -4  -4   3   41.24   14.53
  -4  -4   3   56.42   28.85
   4  -4   3   19.53   12.57
  -4  -4  -3   21.15   12.98
   4  -4   3   24.23   17.23
  -5  -4   3   73.25   38.29
   5  -4   3   41.09   19.30
  -5  -4  -3   33.62   17.92
  -5   4   3   60.58   32.92
   5  -4   3   70.77   29.21
  -6  -4   3   18.51   21.04
   6  -4   3   20.28   16.44
  -6  -4  -3   17.64   13.58
  -6   4   3   29.01   23.96
   6  -4   3   34.79   21.29
  -7  -4   3    8.21   14.48
   7  -4   3   10.15   21.94
  -7  -4  -3   14.63   11.59
  -7   4   3   45.14   21.34
   7  -4   3   -0.10   18.64
  -8  -4   3   35.52   13.10
  -8  -4   3   14.58   15.59
   8  -4   3    7.01   20.70
  -8  -4  -3   20.27   11.75
  -8   4   3   40.45   22.55
   8  -4   3    4.92   17.89
  -9  -4   3  154.36   31.96
   9  -4   3  113.21   37.03
  -9  -4  -3  124.74   24.06
  -9  -4  -3   25.69   23.86
  -9   4   3   80.62   46.46
   9  -4   3  109.08   35.28
 -10  -4   3    9.31    9.46
  10  -4   3   -1.32   12.47
 -10  -4  -3    8.81    7.98
 -10  -4  -3   -1.77   10.51
  10  -4   3   21.60   11.87
 -11  -4   3  110.54   25.57
  11  -4   3   82.23   29.07
 -11  -4  -3  112.71   20.18
 -11  -4  -3   30.05   32.73
 -11   4   3   39.28   42.55
  11  -4   3   55.36   28.52
 -12  -4   3    5.24    5.89
 -12   4  -3    9.27   10.27
  12  -4   3   22.65   11.19
 -12  -4  -3   -0.26   10.79
 -12   4   3    7.55   17.30
  13  -4  -3    3.94    4.67
  13   4   3    1.11    4.22
 -13  -4   3    2.85    5.41
 -13   4  -3    0.29    8.90
  13  -4   3   12.68    8.50
 -13   4   3   26.05   14.64
   0  -4  -4   15.69    8.90
   0   4  -4    9.97   14.43
   0  -4   4   11.73   16.14
   1  -4  -4   44.28   16.44
  -1   4  -4   38.36   24.52
  -1  -4   4   66.33   14.99
  -1  -4   4   67.78   29.08
  -1  -4  -4   44.42   13.13
  -1  -4  -4   41.01   23.56
   1  -4   4   30.52   23.60
   2  -4  -4   27.52   18.10
  -2   4  -4   16.50   15.49
  -2  -4   4   17.91   19.85
  -2  -4  -4   21.97    9.92
  -2  -4  -4   19.81   19.14
   2  -4   4   55.15   19.15
  -3   4  -4  131.74   48.58
  -3  -4   4  284.58   62.03
  -3  -4  -4  189.23   30.38
  -3  -4  -4  256.93   58.81
   3  -4   4  293.42   58.25
   4  -4  -4  155.84   26.22
  -4   4  -4   78.19   33.88
  -4  -4   4   97.71   47.06
  -4  -4  -4  111.63   43.09
   4  -4   4  161.75   42.47
  -5  -4   4  542.55   67.10
  -5  -4   4  258.05  103.80
   5  -4   4  230.29   67.13
  -5  -4  -4  406.56   64.51
  -5   4   4   81.57   77.99
   5  -4   4  593.34   90.16
  -6  -4   4   45.24   15.70
  -6  -4   4   35.41   28.67
   6  -4   4   24.31   20.45
  -6  -4  -4   45.14   17.11
  -6   4   4   13.77   25.53
   6  -4   4   69.74   26.01
  -7  -4   4  218.87   69.95
   7  -4   4  112.70   53.45
  -7   4   4  102.89   63.60
   7  -4   4  341.88   60.48
  -8  -4   4   40.91   15.23
  -8  -4   4   41.71   31.24
   8  -4   4   16.51   15.17
  -8  -4  -4   24.36   12.54
  -8   4   4    2.69   22.25
   8  -4   4   35.27   18.72
  -9  -4   4  201.99   34.44
  -9  -4   4  148.84   44.28
   9  -4   4   62.27   34.68
  -9  -4  -4  158.02   30.66
  -9   4   4  106.54   58.08
   9  -4   4  213.12   45.53
  10  -4  -4  105.02   21.74
 -10  -4   4   95.99   21.60
 -10  -4   4   51.46   20.61
  10  -4   4   60.80   24.53
 -10  -4  -4   91.83   19.94
 -10   4   4   50.38   38.23
  10  -4   4   53.60   26.79
  11  -4  -4   67.22   16.79
 -11  -4   4   62.02   17.61
  11  -4   4   59.20   20.64
 -11  -4  -4   75.51   16.47
 -11  -4  -4   38.95   21.97
 -11   4   4   49.26   35.53
  11  -4   4   43.75   21.48
  12  -4  -4   -2.66    5.93
 -12  -4   4   13.23    6.62
 -12   4  -4   11.44   10.59
  12  -4   4   15.36   10.06
 -12  -4  -4   12.88    8.41
 -12   4   4   10.49   18.02
  13   4   4   13.39    5.70
 -13  -4   4   10.33    7.04
  13  -4   4    7.45    6.78
 -13   4   4   -4.10   15.11
   0  -4  -5    3.32    5.85
   0  -4  -5    2.61   10.75
   0   4  -5   -4.96   10.16
   0  -4   5    3.45   10.43
   1  -4  -5  234.77   37.56
   1  -4  -5   62.49   59.40
  -1   4  -5  232.49   58.52
  -1  -4   5  292.32   59.70
  -1  -4  -5  222.79   35.87
  -1  -4  -5  148.89   65.04
   1   4  -5  310.61   67.33
   1  -4   5  284.18   60.57
   2  -4  -5    1.85    8.58
  -2   4  -5    8.75   12.51
  -2  -4   5   12.71    8.06
  -2  -4   5   12.10   14.14
  -2  -4  -5    5.18    7.01
  -2  -4  -5   11.57   14.32
   2  -4   5   16.46   12.86
   3  -4  -5   31.67   13.68
  -3   4  -5   25.50   19.00
  -3  -4   5   31.41   22.11
  -3  -4  -5   17.97    8.37
  -3  -4  -5   19.59   18.42
   3  -4   5   24.64   16.58
   4  -4  -5   -0.38    8.57
  -4  -4   5   23.83    8.26
  -4  -4   5    7.93   13.98
  -4  -4  -5    5.03    5.68
  -4  -4  -5   24.92   13.95
   5  -4  -5   42.60   13.30
  -5   4  -5   17.19   17.54
  -5  -4   5    8.14   20.61
   5  -4   5  134.65   76.65
  -6  -4   5    3.09    5.72
   6  -4   5    2.00    7.30
  -6  -4  -5    2.92    7.12
  -7  -4   5   30.21   11.78
  -7  -4   5   -6.91   20.75
   7  -4   5    2.93   15.83
  -7  -4  -5   20.83   12.60
  -7   4   5    9.11   16.61
   7  -4   5   31.96   17.08
  -8  -4   5   12.50   11.54
   8  -4   5    8.45   10.64
  -8   4   5   -4.64   12.57
   8  -4   5    8.22   11.21
  -9  -4   5    0.32    7.01
  -9  -4   5   10.27    9.82
   9  -4   5   13.33    9.49
  -9  -4  -5   10.04    8.27
  -9   4   5    4.08   13.81
  10  -4  -5    9.97    7.86
 -10  -4   5    7.80    7.85
 -10  -4   5    6.10    9.76
  10  -4   5    3.05    6.12
  11  -4  -5   19.19    9.73
 -11  -4   5   34.68    9.97
 -11  -4   5   16.93    7.93
  11  -4   5   21.62   10.90
 -11  -4  -5   19.38   10.06
 -11   4   5   16.89   22.29
 -12  -4   5    3.27    5.21
  12  -4   5   -0.37    6.54
 -12  -4  -5   11.32    6.06
 -12   4   5    1.51   14.24
   0  -4  -6  719.26   94.08
   0  -4  -6  423.51  169.61
   0   4  -6  886.61  156.78
   0  -4   6  885.87  137.42
   1  -4  -6   -1.30    5.93
   1  -4  -6    0.25   10.89
  -1   4  -6   16.28    9.49
  -1  -4  -6   23.12    9.10
  -1  -4  -6    6.26   18.75
   1   4  -6    3.81   16.87
   1  -4   6    9.15   15.62
   2  -4  -6  303.00   44.17
   2  -4  -6   66.26   74.27
  -2   4  -6  301.89   71.53
  -2  -4   6  348.69   68.06
  -2  -4  -6  264.87   39.88
  -2  -4  -6  253.23   86.18
   2   4  -6  403.90   81.60
   2  -4   6  352.20   66.50
   3  -4  -6    3.22    7.01
   3  -4  -6   12.40   13.41
  -3   4  -6    0.21   11.01
  -3  -4   6   -0.85   11.36
  -3  -4  -6   15.98    7.69
  -3  -4  -6   18.56   18.92
   3   4  -6   18.77   18.23
   3  -4   6   15.70   14.21
   4   4   6    4.28    7.20
   4  -4  -6   34.28   10.40
  -4   4  -6   32.79   16.38
  -4  -4   6   26.43   17.84
  -4  -4  -6   -2.01   14.96
   4  -4   6   15.61   11.57
   5  -4  -6   33.20   13.88
  -5   4  -6   23.95   31.62
  -5  -4   6   36.21   13.80
  -5  -4   6   33.59   24.19
  -5  -4  -6   39.69   31.14
   5  -4   6   89.93   30.58
   6  -4  -6   21.77    9.95
  -6   4  -6    5.72   15.98
  -6  -4   6    4.37   18.81
   6  -4   6   26.67   19.03
   7  -4  -6   44.94   13.81
  -7   4  -6   14.80   19.35
  -7  -4   6   42.65   13.47
  -7  -4   6   11.43   27.50
   7  -4   6    8.06   13.15
  -7  -4  -6   35.86   14.34
   7  -4   6   38.21   17.32
   8  -4  -6    8.42    9.62
  -8   4  -6    0.90   11.19
  -8  -4   6   27.69    9.18
  -8  -4   6   23.23   18.05
   8  -4   6    5.80   10.88
  -8  -4  -6   26.42   10.67
  -8   4   6    0.74   13.68
   8  -4   6   19.96   12.52
   9  -4  -6   27.11   10.33
  -9  -4   6   22.56   10.03
  -9  -4   6   16.28   15.72
   9  -4   6   13.37   10.01
   9  -4   6   14.23   10.65
  10  -4  -6   23.89   10.93
 -10  -4   6   42.90   10.67
 -10  -4   6   30.18   14.14
  10  -4   6   21.91    9.80
 -10  -4  -6   37.56   10.41
 -10   4   6    4.92   15.90
  10  -4   6   10.86    9.13
 -11  -4   6    0.56    3.91
  11  -4   6   -0.95    4.05
   0  -4  -7   -1.36    4.61
   0   4  -7    5.21    8.87
   0  -4   7   -0.52    7.54
   1  -4  -7    1.50    7.17
   1  -4  -7   21.15   13.69
  -1   4  -7   -1.12   13.00
  -1  -4   7   10.62   11.11
  -1  -4  -7    9.71    7.23
  -1  -4  -7   18.77   14.78
   1   4  -7    3.14   14.30
   1  -4   7    3.90   11.85
   2  -4  -7   19.44    9.57
   2  -4  -7    1.61   19.22
  -2   4  -7   14.86   16.99
  -2  -4   7   13.51   15.37
  -2  -4  -7   19.25   18.80
   2   4  -7   30.69   18.38
   2  -4   7   10.15   14.14
   3   4   7   32.68   12.11
   3  -4  -7   84.44   15.86
   3  -4  -7   17.83   31.00
  -3   4  -7   50.51   27.61
  -3  -4   7   75.19   26.23
  -3  -4  -7   68.98   36.94
   3   4  -7   71.16   37.51
   3  -4   7  109.38   27.86
   4   4   7    3.64    4.89
   4  -4  -7   10.58    7.29
   4  -4  -7    4.11   10.62
  -4  -4   7   18.70   12.57
  -4  -4  -7   31.59   17.98
   4   4  -7   12.22   19.33
   4  -4   7   13.86   21.51
   5  -4  -7   74.95   15.58
   5  -4  -7    3.82   19.44
  -5   4  -7   33.74   29.17
  -5  -4   7   86.12   27.86
  -5  -4  -7   97.04   56.56
   5   4  -7   91.11   41.82
   5  -4   7  106.58   33.54
   6  -4  -7   75.66   16.48
  -6   4  -7   12.58   28.42
  -6  -4   7   58.03   31.65
   6   4  -7  104.06   35.63
   6  -4   7   64.65   27.12
  -7   4  -7    1.26    8.77
  -7  -4   7   -4.64   11.18
   7   4  -7   -1.03   10.74
   7  -4   7   -1.91    7.06
   8  -4  -7   44.85   11.92
  -8   4  -7   18.98   14.40
  -8  -4   7   52.03   20.86
  -8  -4  -7   62.29   14.85
   8   4  -7   86.30   25.36
   8  -4   7   13.55   14.16
   9  -4  -7   46.76   11.63
  -9  -4   7   47.63   18.55
  -9  -4  -7   48.15   14.21
   9   4  -7   71.66   25.62
   0  -4  -8   51.63   28.38
   0   4  -8   25.86   28.54
   0  -4   8   69.82   20.36
   1   4   8   11.26    7.09
   1  -4  -8   11.06    7.87
   1  -4  -8   30.27   16.76
  -1   4  -8   13.22   15.86
  -1  -4  -8    7.84   13.49
   1   4  -8   11.22   14.31
   1  -4   8    8.07    9.90
   2   4   8   30.97   11.54
   2  -4  -8   62.22   13.88
   2  -4  -8   32.93   23.96
  -2   4  -8   64.49   27.51
  -2  -4   8   96.32   21.76
  -2  -4  -8   51.99   31.34
   2   4  -8   52.66   34.82
   2  -4   8  101.84   22.57
   3   4   8    9.82    5.29
   3  -4  -8    1.18    7.16
   3  -4  -8    2.92   15.45
  -3   4  -8   11.22   21.27
  -3  -4   8   26.47   11.79
  -3  -4  -8   21.58   14.81
   3   4  -8    1.50   16.82
   3  -4   8   19.54   10.42
   4  -4  -8  112.86   18.79
   4  -4  -8    1.75   39.15
  -4   4  -8   63.34   40.95
  -4  -4   8  135.55   32.03
  -4  -4  -8   81.13   37.51
   4   4  -8  108.90   43.55
   4  -4   8  169.11   33.73
   5  -4  -8   44.24   11.78
   5  -4  -8    6.80   17.06
  -5   4  -8   26.40   23.15
  -5  -4   8   78.15   20.93
  -5  -4  -8   27.85   13.67
   5   4  -8   43.18   21.78
   5  -4   8   33.50   15.21
   6  -4  -8   22.17    8.72
  -6   4  -8    4.44   15.90
  -6  -4   8   33.80   16.03
  -6  -4  -8    6.06    8.22
   6   4  -8   33.06   13.52
   6  -4   8    6.56    7.74
   7  -4  -8   67.04   12.36
  -7   4  -8    7.43   18.46
  -7  -4   8   85.71   22.65
   7   4  -8   58.84   25.44
   0  -4  -9   16.15   11.12
   0  -4   9    9.60    7.54
   1   4   9    3.85    4.98
   1  -4  -9   14.66   10.12
  -1   4  -9   27.11   23.42
  -1  -4   9   14.81    8.35
  -1   4   9    6.83    6.05
  -1  -4  -9   15.58   13.26
   1   4  -9   19.11   14.67
   1  -4   9   18.62    8.06
   2   4   9   26.00    6.85
   2  -4  -9   17.08   13.36
  -2   4  -9    8.20   20.87
  -2   4   9   23.48    9.10
  -2  -4  -9   36.08   20.44
   2   4  -9   44.42   21.81
   2  -4   9   63.57   14.48
  -3   4  -9    8.32   16.59
  -3  -4   9   19.54   10.79
  -3   4   9   13.94    6.77
  -3  -4  -9   37.48   14.18
   3   4  -9   20.66   15.87
   0  -5   0    9.35   11.08
   2  -5   0   24.29   18.32
   3  -5   0    3.36   10.88
   4  -5   0   67.07   19.87
   4  -5   0   88.65   31.82
   5  -5   0   -1.86    3.99
   6  -5   0  175.43   29.40
   7  -5   0   -1.72    5.57
   8  -5   0  109.99   20.84
  -8   5   0  177.42   51.65
   0  -5   1   -2.98   12.04
  -1  -5   1    9.44   13.69
   1  -5   1   -0.27    9.77
  -2  -5   1    8.09   10.42
   2  -5   1   19.34   19.57
   3  -5  -1    1.39    3.95
   3  -5   1   61.94   32.41
   5  -5  -1   39.02   18.59
   5  -5   1    3.35    3.73
   5  -5   1   13.88   10.85
   6  -5  -1    7.17    5.07
  -6  -5   1    2.61    3.00
   6  -5   1    4.38    4.11
  -6   5   1   -4.68   11.44
   7  -5  -1   34.67   12.87
   7  -5   1    3.30    5.75
  -7   5   1   28.37   14.27
   8  -5  -1    1.16    6.86
  -8   5  -1   22.79   13.30
  -8   5   1    3.15   10.98
   0  -5   2   28.95   26.39
  -1  -5   2  113.83   52.03
   1  -5   2  142.08   57.06
   2  -5  -2   29.54    8.20
  -2  -5   2   35.13   25.80
   2  -5   2   47.96   31.49
  -3  -5   2   21.24   16.26
   3  -5   2   59.59   31.97
   4  -5  -2   78.72   18.52
   4  -5   2  126.56   46.83
   5  -5  -2   24.48    9.59
   5  -5   2   47.47   24.98
   6  -5   2   31.08   18.92
  -7  -5   2   11.46    5.18
   7  -5   2   16.69   13.55
   8  -5  -2   14.86    8.72
  -8   5  -2    6.00   16.59
   0  -5   3   -6.82   16.06
   1  -5  -3   11.42    5.04
  -1  -5   3   22.23   18.95
   1  -5   3   38.16   27.20
   2  -5  -3    8.02    5.43
  -2  -5   3    4.43   16.54
   3  -5  -3   42.50   12.65
  -3  -5   3   67.58   33.07
   3  -5   3   59.17   31.01
   4  -5  -3   13.18    7.47
  -4  -5   3    4.31   13.91
   4  -5   3   17.24   16.99
   5  -5   3   57.82   26.65
   6  -5   3    1.68    8.60
   7  -5  -3   11.31    7.27
   7  -5   3   -0.27    6.57
   0  -5   4   19.53   18.86
   1  -5  -4   82.43   13.95
  -1  -5   4  140.40   37.85
   1  -5   4  216.18   62.32
   2  -5  -4   27.74    8.67
  -2  -5   4   15.16   20.31
   2  -5   4   64.85   30.50
   3  -5  -4   75.33   14.37
  -3  -5   4   15.04   26.87
   3  -5   4  121.90   41.55
   4  -5  -4   30.31    9.15
  -4  -5   4   19.71   17.38
   4  -5   4   18.94   16.29
   5  -5  -4   45.01   11.20
   5  -5   4   56.84   23.35
  -1  -5   5   -0.85    9.27
   1  -5   5   11.18   13.83
  -2  -5   5   -0.80   10.82
   2  -5   5   -2.20    9.45
   3  -5  -5    5.96    4.59
  -3  -5   5   10.10   12.98
   3  -5   5    3.37    9.39
   0   0   0    0.00    0.00

_computing_structure_solution     'SHELXT 2014/5 (Sheldrick, 2014)'
;
_shelx_hkl_checksum              66089
loop_
_space_group_symop_operation_xyz
'x, y, z'
'-x+1/2, -y, z+1/2'
'x+1/2, -y+1/2, -z+1/2'
'-x, y+1/2, -z'
'-x, -y, -z'
'x-1/2, y, -z-1/2'
'-x-1/2, y-1/2, z-1/2'
'x, -y-1/2, z'
loop_
_atom_site_label
_atom_site_type_symbol
_atom_site_fract_x
_atom_site_fract_y
_atom_site_fract_z
_atom_site_U_iso_or_equiv
_atom_site_adp_type
_atom_site_occupancy
_atom_site_site_symmetry_order
_atom_site_calc_flag
_atom_site_refinement_flags_posn
_atom_site_refinement_flags_adp
_atom_site_refinement_flags_occupancy
Pb1 Pb 0.45956(5) 0.7500 0.68341(9) 0.0444(4) Uani 1 2 d S T P
I1 I 0.60726(9) 0.7500 0.50764(14) 0.0456(5) Uani 1 2 d S T P
I2 I 0.53424(9) 0.2500 0.83884(15) 0.0481(5) Uani 1 2 d S T P
S1 S 0.3292(3) 1.2500 0.8103(6) 0.0454(16) Uani 1 2 d S T P
O1 O 0.3430(12) 0.906(5) 0.793(2) 0.054(7) Uani 0.5 1 d . . P
C1 C 0.3147(18) 1.2500 0.965(2) 0.064(9) Uani 1 2 d S T P
H1 H 0.3052 1.4478 0.9912 0.096 Uiso 0.5 1 calc R U P
H1A H 0.2727 1.1273 0.9834 0.096 Uiso 0.5 1 calc R U P
H1B H 0.3583 1.1750 1.0039 0.096 Uiso 0.5 1 calc R U P
C2 C 0.2368(15) 1.2500 0.760(2) 0.068(9) Uani 1 2 d S T P
H2 H 0.2172 1.4469 0.7631 0.102 Uiso 0.5 1 calc R U P
H2A H 0.2353 1.1802 0.6789 0.102 Uiso 0.5 1 calc R U P
H2B H 0.2073 1.1228 0.8093 0.102 Uiso 0.5 1 calc R U P
loop_
_atom_site_aniso_label
_atom_site_aniso_U_11
_atom_site_aniso_U_22
_atom_site_aniso_U_33
_atom_site_aniso_U_23
_atom_site_aniso_U_13
_atom_site_aniso_U_12
Pb1 0.0441(7) 0.0411(7) 0.0479(7) 0.000 0.0015(5) 0.000
I1 0.0424(9) 0.0502(12) 0.0441(10) 0.000 -0.0023(7) 0.000
I2 0.0457(10) 0.0473(12) 0.0513(10) 0.000 -0.0094(7) 0.000
S1 0.040(3) 0.047(4) 0.050(4) 0.000 0.005(3) 0.000
O1 0.042(13) 0.039(15) 0.082(18) 0.006(13) 0.010(12) 0.025(12)
C1 0.10(2) 0.07(2) 0.030(13) 0.000 0.007(15) 0.000
C2 0.064(18) 0.09(3) 0.047(16) 0.000 0.006(15) 0.000
loop_
_atom_type_symbol
_atom_type_description
_atom_type_scat_dispersion_real
_atom_type_scat_dispersion_imag
_atom_type_scat_source
Pb Pb -4.0753 8.5060 'International Tables Vol C Tables 4.2.6.8 and 6.1.1.4'
I I -0.3257 6.8362 'International Tables Vol C Tables 4.2.6.8 and 6.1.1.4'
S S 0.3331 0.5567 'International Tables Vol C Tables 4.2.6.8 and 6.1.1.4'
O O 0.0492 0.0322 'International Tables Vol C Tables 4.2.6.8 and 6.1.1.4'
C C 0.0181 0.0091 'International Tables Vol C Tables 4.2.6.8 and 6.1.1.4'
H H 0.0000 0.0000 'International Tables Vol C Tables 4.2.6.8 and 6.1.1.4'
loop_
_geom_angle_atom_site_label_1
_geom_angle_atom_site_label_2
_geom_angle_atom_site_label_3
_geom_angle
_geom_angle_site_symmetry_1
_geom_angle_site_symmetry_3
O1 Pb1 O1 32.5(11) 8_575 .
O1 Pb1 I2 83.2(6) 8_575 .
O1 Pb1 I2 106.5(5) . .
O1 Pb1 I2 106.5(5) 8_575 1_565
O1 Pb1 I2 83.2(6) . 1_565
I2 Pb1 I2 91.73(5) . 1_565
O1 Pb1 I1 162.6(5) 8_575 .
O1 Pb1 I1 162.6(5) . .
I2 Pb1 I1 89.36(4) . .
I2 Pb1 I1 89.36(4) 1_565 .
O1 Pb1 I1 79.9(5) 8_575 5_666
O1 Pb1 I1 101.8(6) . 5_666
I2 Pb1 I1 91.13(3) . 5_666
I2 Pb1 I1 173.26(5) 1_565 5_666
I1 Pb1 I1 84.57(4) . 5_666
O1 Pb1 I1 101.8(6) 8_575 5_676
O1 Pb1 I1 79.9(5) . 5_676
I2 Pb1 I1 173.26(5) . 5_676
I2 Pb1 I1 91.13(3) 1_565 5_676
I1 Pb1 I1 84.57(4) . 5_676
I1 Pb1 I1 85.41(4) 5_666 5_676
Pb1 I1 Pb1 95.43(4) . 5_666
Pb1 I1 Pb1 95.43(4) . 5_676
Pb1 I1 Pb1 85.41(4) 5_666 5_676
Pb1 I2 Pb1 91.73(5) . 1_545
O1 S1 O1 157.2(17) . 8_585
O1 S1 C1 98.2(9) . .
O1 S1 C1 98.2(9) 8_585 .
O1 S1 C2 96.2(9) . .
O1 S1 C2 96.2(9) 8_585 .
C1 S1 C2 100.4(14) . .
O1 O1 S1 168.6(9) 8_575 .
O1 O1 Pb1 73.7(5) 8_575 .
S1 O1 Pb1 117.6(12) . .
S1 C1 H1 109.5 . .
S1 C1 H1A 109.5 . .
H1 C1 H1A 109.5 . .
S1 C1 H1B 109.5 . .
H1 C1 H1B 109.5 . .
H1A C1 H1B 109.5 . .
S1 C2 H2 109.5 . .
S1 C2 H2A 109.5 . .
H2 C2 H2A 109.5 . .
S1 C2 H2B 109.5 . .
H2 C2 H2B 109.5 . .
H2A C2 H2B 109.5 . .
loop_
_geom_bond_atom_site_label_1
_geom_bond_atom_site_label_2
_geom_bond_distance
_geom_bond_site_symmetry_2
Pb1 O1 2.53(2) 8_575
Pb1 O1 2.53(2) .
Pb1 I2 3.1578(13) .
Pb1 I2 3.1578(13) 1_565
Pb1 I1 3.3038(19) .
Pb1 I1 3.3416(13) 5_666
Pb1 I1 3.3416(13) 5_676
I1 Pb1 3.3417(13) 5_666
I1 Pb1 3.3417(13) 5_676
I2 Pb1 3.1578(13) 1_545
S1 O1 1.59(2) .
S1 O1 1.59(2) 8_585
S1 C1 1.75(2) .
S1 C2 1.75(3) .
O1 O1 1.42(5) 8_575
C1 H1 0.9600 .
C1 H1A 0.9600 .
C1 H1B 0.9600 .
C2 H2 0.9600 .
C2 H2A 0.9600 .
C2 H2B 0.9600 .
loop_
_geom_torsion_atom_site_label_1
_geom_torsion_atom_site_label_2
_geom_torsion_atom_site_label_3
_geom_torsion_atom_site_label_4
_geom_torsion
_geom_torsion_site_symmetry_1
_geom_torsion_site_symmetry_4
O1 S1 O1 O1 180.00(11) 8_585 8_575
C1 S1 O1 O1 44(5) . 8_575
C2 S1 O1 O1 -57(5) . 8_575
O1 S1 O1 Pb1 8(6) 8_585 .
C1 S1 O1 Pb1 -127.8(14) . .
C2 S1 O1 Pb1 130.7(13) . .
