#------------------------------------------------------------------------------
#$Date: 2019-11-04 01:47:10 +0200 (Mon, 04 Nov 2019) $
#$Revision: 222080 $
#$URL: file:///home/coder/svn-repositories/cod/cif/4/12/90/4129056.cif $
#------------------------------------------------------------------------------
#
# This file is available in the Crystallography Open Database (COD),
# http://www.crystallography.net/
#
# All data on this site have been placed in the public domain by the
# contributors.
#
data_4129056
loop_
_publ_author_name
'Li, Jie'
'Ren, Qianyi'
'Cheng, Xinyi'
'Karaghiosoff, Konstantin'
'Knochel, Paul'
_publ_section_title
;
 Chromium(II)-Catalyzed Diastereoselective and Chemoselective
 Csp<sup>2</sup>-Csp<sup>3</sup> Cross-Couplings Using Organomagnesium
 Reagents.
;
_journal_name_full               'Journal of the American Chemical Society'
_journal_paper_doi               10.1021/jacs.9b08586
_journal_year                    2019
_chemical_formula_moiety         'C18 H19 F'
_chemical_formula_sum            'C18 H19 F'
_chemical_formula_weight         254.33
_chemical_name_systematic
;
1-fluoro-3-((1r,4r)-4-phenylcyclohexyl)benzene
;
_space_group_crystal_system      monoclinic
_space_group_IT_number           14
_space_group_name_Hall           '-P 2yn'
_space_group_name_H-M_alt        'P 1 21/n 1'
_atom_sites_solution_hydrogens   geom
_atom_sites_solution_primary     direct
_atom_sites_solution_secondary   difmap
_audit_creation_method           SHELXL-2014
_cell_angle_alpha                90
_cell_angle_beta                 110.896(6)
_cell_angle_gamma                90
_cell_formula_units_Z            2
_cell_length_a                   5.5416(3)
_cell_length_b                   18.2648(8)
_cell_length_c                   7.2069(4)
_cell_measurement_reflns_used    3009
_cell_measurement_temperature    143(2)
_cell_measurement_theta_max      31.6760
_cell_measurement_theta_min      3.7490
_cell_volume                     681.48(7)
_computing_cell_refinement       'CrysAlisPro 1.171.39.46e (Rigaku OD, 2018)'
_computing_data_collection       'CrysAlisPro 1.171.39.46e (Rigaku OD, 2018)'
_computing_data_reduction        'CrysAlisPro 1.171.39.46e (Rigaku OD, 2018)'
_computing_molecular_graphics
;
'ORTEP (M. N. Burnett, C. K. Johnson, ORTEP-III: Oak Ridge Thermal Ellipsoid
# Plot Program for Crystal Structure Illustrations, Oak Ridge National
# Laboratory Report ORNL-6895, 1996). Windows version (L. J. Farrugia, Univ.
# Glasgow) used --- SCHAKAL (E. Keller, University of  Freiburg (Breisgau),
# Germany, 1995)'
;
_computing_publication_material
;
PLATON (A. L. Spek, Acta Crystallogr, Sect. A, 1990, 46, C34, 1995 version).
# --- T.B.Cohen, Pure Appl. Chem. 1996,68,2339-2359 (atomic masses).
;
_computing_structure_refinement  'SHELXL-2014 (Sheldrick, 2014)'
_computing_structure_solution    'SHELXS-97 (Sheldrick, 1990)'
_diffrn_ambient_temperature      143(2)
_diffrn_detector_area_resol_mean 15.9809
_diffrn_measured_fraction_theta_full 0.997
_diffrn_measured_fraction_theta_max 0.998
_diffrn_measurement_device_type  'Xcalibur, Sapphire3'
_diffrn_measurement_method       '\w scans'
_diffrn_radiation_type           MoK\a
_diffrn_radiation_wavelength     0.71073
_diffrn_reflns_av_R_equivalents  0.0403
_diffrn_reflns_av_unetI/netI     0.0222
_diffrn_reflns_Laue_measured_fraction_full 0.997
_diffrn_reflns_Laue_measured_fraction_max 0.998
_diffrn_reflns_limit_h_max       7
_diffrn_reflns_limit_h_min       -7
_diffrn_reflns_limit_k_max       24
_diffrn_reflns_limit_k_min       -24
_diffrn_reflns_limit_l_max       9
_diffrn_reflns_limit_l_min       -9
_diffrn_reflns_number            11473
_diffrn_reflns_point_group_measured_fraction_full 0.997
_diffrn_reflns_point_group_measured_fraction_max 0.998
_diffrn_reflns_theta_full        25.242
_diffrn_reflns_theta_max         28.274
_diffrn_reflns_theta_min         3.760
_diffrn_source                   'fine-focus sealed X-ray tube'
_exptl_absorpt_coefficient_mu    0.079
_exptl_absorpt_correction_T_max  1.00000
_exptl_absorpt_correction_T_min  0.71742
_exptl_absorpt_correction_type   multi-scan
_exptl_absorpt_process_details
;
CrysAlisPro 1.171.39.46e (Rigaku Oxford Diffraction, 2018)
Empirical absorption correction using spherical harmonics,
implemented in SCALE3 ABSPACK scaling algorithm.
;
_exptl_crystal_colour            colorless
_exptl_crystal_density_diffrn    1.239
_exptl_crystal_description       block
_exptl_crystal_F_000             272
_exptl_crystal_size_max          0.400
_exptl_crystal_size_mid          0.350
_exptl_crystal_size_min          0.080
_refine_diff_density_max         0.299
_refine_diff_density_min         -0.175
_refine_diff_density_rms         0.038
_refine_ls_extinction_method     none
_refine_ls_goodness_of_fit_ref   1.051
_refine_ls_hydrogen_treatment    mixed
_refine_ls_matrix_type           full
_refine_ls_number_parameters     104
_refine_ls_number_reflns         1689
_refine_ls_number_restraints     0
_refine_ls_restrained_S_all      1.051
_refine_ls_R_factor_all          0.0541
_refine_ls_R_factor_gt           0.0450
_refine_ls_shift/su_max          0.000
_refine_ls_shift/su_mean         0.000
_refine_ls_structure_factor_coef Fsqd
_refine_ls_weighting_details
'w=1/[\s^2^(Fo^2^)+(0.0522P)^2^+0.2062P] where P=(Fo^2^+2Fc^2^)/3'
_refine_ls_weighting_scheme      calc
_refine_ls_wR_factor_gt          0.1115
_refine_ls_wR_factor_ref         0.1182
_reflns_Friedel_coverage         0.000
_reflns_number_gt                1421
_reflns_number_total             1689
_reflns_threshold_expression     'I > 2\s(I)'
_cod_data_source_file            ja9b08586_si_003.cif
_cod_data_source_block           test1
_cod_original_sg_symbol_H-M      'P 21/n'
_cod_database_code               4129056
_shelx_space_group_comment
;
The symmetry employed for this shelxl refinement is uniquely defined
by the following loop, which should always be used as a source of
symmetry information in preference to the above space-group names.
They are only intended as comments.
;
_shelx_estimated_absorpt_t_min   0.969
_shelx_estimated_absorpt_t_max   0.994
_shelxl_version_number           2014-3
_shelx_res_file
;
TITL SIR97 run in space group P 21/n
CELL  0.71073   5.5416  18.2648   7.2069   90.000  110.896   90.000
ZERR     2.00   0.0003   0.0008   0.0004    0.000    0.006    0.000
LATT   1
SYMM  1/2 - X, 1/2 + Y, 1/2 - Z
SFAC  C    H    F
UNIT 36 38 2
MERG   2
OMIT -3 5 3
OMIT -3 0 3
SHEL 1000 0.75
EXYZ C6A C6B C6C
EXYZ C2A C2B C2C
EADP C6A C6B C6C
EADP C2A C2B C2C
FMAP   2
PLAN   25
ACTA
BOND   $H
CONF
SIZE 0.40 0.35 0.08
LIST   6
L.S.  40
TEMP  -130.00
WGHT    0.052200    0.206200
FVAR       1.15397   0.79299
C7    1    0.838478    0.060117    0.878302    11.00000    0.02373    0.02492 =
         0.02356    0.00109    0.00507   -0.00168
AFIX  14
H7    2    0.741348    0.072485    0.965564    11.00000   -1.20000
AFIX   0
C8    1    1.126363    0.070710    0.999709    11.00000    0.02845    0.02580 =
         0.02863    0.00380    0.00082   -0.00682
AFIX  24
H8A   2    1.228823    0.060219    0.914488    11.00000   -1.20000
H8B   2    1.157785    0.122451    1.043851    11.00000   -1.20000
AFIX   0
C9    1    0.784071   -0.020504    0.818856    11.00000    0.02843    0.02593 =
         0.02644    0.00299   -0.00096   -0.00598
AFIX  24
H9A   2    0.595580   -0.027316    0.746958    11.00000   -1.20000
H9B   2    0.874841   -0.034171    0.727178    11.00000   -1.20000
AFIX   0
C4    1    0.744402    0.110598    0.699982    11.00000    0.02307    0.02243 =
         0.02433   -0.00010    0.00248   -0.00451
C1    1    0.568427    0.205685    0.371876    11.00000    0.03867    0.02553 =
         0.02742    0.00383   -0.00036   -0.00402
AFIX  43
H1    2    0.510209    0.237947    0.261349    11.00000   -1.20000
AFIX   0
C5    1    0.859005    0.110543    0.556294    11.00000    0.02969    0.02543 =
         0.02632   -0.00029    0.00557    0.00047
AFIX  43
H5    2    0.998290    0.078224    0.568883    11.00000   -1.20000
AFIX   0
C3    1    0.540347    0.158856    0.676016    11.00000    0.02503    0.02799 =
         0.03441    0.00055    0.00731   -0.00227
AFIX  43
H3    2    0.459398    0.159757    0.772092    11.00000   -1.20000
AFIX   0
PART    1
C6A   1    0.769969    0.157590    0.395070    20.50000    0.04157    0.02849 =
         0.02516   -0.00081    0.00665   -0.00534
F1A   3    0.855688    0.157294    0.256298    20.50000    0.05496    0.04117 =
         0.02775    0.00429    0.02117    0.00670
C2A   1    0.454049    0.205552    0.513736    20.50000    0.02853    0.02739 =
         0.03976    0.00334    0.00262    0.00115
AFIX  43
H2A   2    0.314407    0.237878    0.499965    20.50000   -1.20000
AFIX   0
PART    2
C2B   1    0.454049    0.205552    0.513736   -20.50000    0.02853    0.02739 =
         0.03976    0.00334    0.00262    0.00115
F1B   3    0.284539    0.252846    0.513163   -20.50000    0.04387    0.04052 =
         0.04112    0.01334    0.01614    0.01959
C6B   1    0.769969    0.157590    0.395070   -20.50000    0.04157    0.02849 =
         0.02516   -0.00081    0.00665   -0.00534
AFIX  43
H6B   2    0.849415    0.156772    0.298054   -20.50000   -1.20000
AFIX   0
PART 3
C2C   1    0.454049    0.205552    0.513736    10.50000    0.02853    0.02739 =
         0.03976    0.00334    0.00262    0.00115
AFIX  43
H2C   2    0.314407    0.237878    0.499965    10.50000   -1.20000
AFIX   0
C6C   1    0.769969    0.157590    0.395070    10.50000    0.04157    0.02849 =
         0.02516   -0.00081    0.00665   -0.00534
AFIX  43
H6C   2    0.849415    0.156772    0.298054    10.50000   -1.20000
PART 0
AFIX   0
HKLF    4

REM  SIR97 run in space group P 21/n
REM R1 =  0.0450 for    1421 Fo > 4sig(Fo)  and  0.0541 for all    1689 data
REM    104 parameters refined using      0 restraints

END

WGHT      0.0523      0.2062

REM Highest difference peak  0.299,  deepest hole -0.175,  1-sigma level  0.038
Q1    1   0.8206  0.0211  0.8478  11.00000  0.05    0.30
Q2    1   0.7911  0.0832  0.7893  11.00000  0.05    0.29
Q3    1   1.1718  0.0426  1.0813  11.00000  0.05    0.28
Q4    1   0.9815  0.0642  0.9286  11.00000  0.05    0.25
Q5    1   0.8410  0.1213  0.6528  11.00000  0.05    0.22
Q6    1   0.5371  0.1944  0.6212  11.00000  0.05    0.21
Q7    1   0.8585  0.1537  0.5128  11.00000  0.05    0.20
Q8    1   0.6187  0.1648  0.3587  11.00000  0.05    0.20
Q9    1   0.7651  0.1238  0.4528  11.00000  0.05    0.18
Q10   1   0.5022  0.1940  0.4313  11.00000  0.05    0.16
Q11   1   0.5995  0.1232  0.6600  11.00000  0.05    0.16
Q12   1   0.6822  0.1490  0.7019  11.00000  0.05    0.15
Q13   1   0.6870 -0.0344  0.6886  11.00000  0.05    0.13
Q14   1   0.8412  0.1303  1.0786  11.00000  0.05    0.10
Q15   1   0.7340  0.1972  0.4335  11.00000  0.05    0.09
Q16   1   0.4422  0.1552  0.2323  11.00000  0.05    0.09
Q17   1   0.3946  0.3090  0.4646  11.00000  0.05    0.09
Q18   1   0.7708  0.0075  0.6819  11.00000  0.05    0.09
Q19   1   0.5506  0.0999  0.4074  11.00000  0.05    0.09
Q20   1   0.3826  0.2023  0.0783  11.00000  0.05    0.09
Q21   1   0.4797 -0.0228  0.6548  11.00000  0.05    0.09
Q22   1   0.4826  0.1656  0.8658  11.00000  0.05    0.08
Q23   1   0.8606  0.1628  0.8333  11.00000  0.05    0.08
Q24   1   0.4738  0.0715  0.6264  11.00000  0.05    0.08
Q25   1   0.7858  0.1095  0.2631  11.00000  0.05    0.08
;
_shelx_res_checksum              39827
_shelx_hkl_file
;
   0   0   2   30.13    2.19
   0   0  -2   26.70    1.86
   0   0   2   30.82    1.83
   0   0  -2   33.71    1.58
   0   0   2   32.92    1.72
   0   0  -2   30.76    2.17
   0   0   3    5.00    0.90
   0   0   3    3.91    0.90
   0   0  -3    6.47    1.59
   0   0   3    3.77    1.22
   0   0  -3    4.03    0.95
   0   0   4   27.21    2.26
   0   0   4   28.69    3.06
   0   0  -4   23.89    2.40
   0   0  -4   30.78    3.12
   0   0   4   21.55    2.22
   0   0  -5   -0.98    1.68
   0   0   5   -0.53    0.90
   0   0   5   -0.22    1.06
   0   0   5   -2.48    1.01
   0   0  -5    0.18    0.68
   0   0   6   73.72    5.22
   0   0  -6   70.51    5.22
   0   0  -6   83.25    6.14
   0   0   6   80.80    6.43
   0   0   6   79.60    4.84
   0   0   7    4.29    1.69
   0   0   7    4.18    2.16
   0   0  -7    4.81    2.32
   0   0  -7    4.85    1.61
   0   0   8   23.75    4.00
   0   0  -8   12.32    3.14
   0   0  -9    0.80    1.99
   0   0  -9   -3.26    2.07
   0   0   9    2.73    1.86
   0   0 -10   19.49    4.13
   0   1  -2   96.43    4.08
   0  -1   2  101.55    3.70
   0  -1  -2   91.35    3.74
   0   1  -2   82.10    3.55
   0  -1   2   94.46    2.95
   0  -1  -2   99.22    3.40
   0   1   2   80.68    3.26
   0  -1   2   91.89    4.06
   0   1   2  101.67    3.56
   0   1   2   87.32    3.95
   0  -1  -2   78.66    3.42
   0   1   3   43.79    2.63
   0  -1  -3   48.22    3.19
   0  -1   3   48.44    2.44
   0   1  -3   44.61    2.96
   0   1   3   47.23    3.39
   0   1  -3   51.10    3.37
   0  -1  -3   38.41    2.65
   0   1   3   42.85    2.70
   0  -1   3   44.08    2.77
   0  -1  -3   52.65    2.73
   0  -1   3   51.65    3.49
   0  -1   4   35.83    3.38
   0   1   4   26.90    2.47
   0   1  -4   35.01    2.96
   0   1  -4   36.17    3.44
   0  -1  -4   28.66    2.58
   0   1   4   32.29    3.26
   0   1   4   30.68    2.56
   0  -1   4   31.11    2.28
   0  -1  -4   34.07    3.14
   0  -1   4   28.13    2.50
   0  -1  -5    3.58    1.22
   0  -1   5    4.14    1.69
   0  -1   5    5.57    1.16
   0   1   5    5.04    1.37
   0  -1  -5    4.10    1.92
   0   1  -5    5.36    1.47
   0   1   5    4.61    1.21
   0   1  -5    2.78    1.85
   0   1   5    4.85    1.58
   0  -1   5    4.97    1.33
   0  -1   6  383.01   13.76
   0   1  -6  373.70   15.10
   0   1   6  416.67   13.95
   0  -1   6  403.00   12.55
   0   1   6  410.83   13.42
   0   1   6  432.25   15.98
   0  -1   6  450.02   16.14
   0  -1  -6  399.82   13.93
   0  -1  -6  406.27   14.93
   0   1  -6  403.61   14.40
   0   1  -7   95.95    7.64
   0  -1   7  101.45    6.63
   0   1   7   95.99    6.36
   0   1  -7  116.06    7.31
   0  -1   7  109.48    8.01
   0  -1  -7  112.28    7.72
   0   1   7  110.48    8.06
   0   1  -8   27.00    4.44
   0   1   8   32.33    4.76
   0  -1   8   27.94    4.52
   0  -1  -8   24.99    4.09
   0   1  -9    6.56    2.62
   0  -1   9    5.63    2.37
   0  -1  -9    6.27    2.31
   0   1   9    6.17    2.46
   0  -1  -9    7.75    2.67
   0  -1 -10   19.51    4.35
   0  -2  -1  405.56    9.36
   0   2  -1  406.66    9.71
   0   2  -1  404.90    9.91
   0   2   1  422.26    9.98
   0  -2  -1  421.70    9.98
   0   2   1  428.50    9.38
   0   2   1  414.79    9.78
   0  -2  -1  402.38    9.74
   0  -2   1  425.58   10.01
   0  -2  -1  405.66    9.04
   0  -2   2   81.76    3.37
   0  -2   2   79.52    3.73
   0  -2  -2   80.13    3.28
   0  -2   2   80.05    2.37
   0   2   2   81.99    3.76
   0   2   2   73.95    3.04
   0   2   2   85.76    3.47
   0  -2  -2   88.40    3.48
   0   2  -2   83.68    3.84
   0  -2  -2   67.49    3.04
   0   2  -2   68.54    3.30
   0  -2   3   50.29    3.05
   0  -2   3   52.65    2.37
   0  -2  -3   47.57    3.07
   0   2  -3   58.96    3.72
   0  -2  -3   61.59    3.23
   0   2  -3   51.86    3.26
   0   2   3   50.72    3.49
   0   2   3   51.49    2.91
   0  -2  -3   45.26    2.85
   0   2   3   56.96    3.17
   0  -2   3   53.01    3.66
   0   2  -4    6.59    1.41
   0  -2   4    4.39    1.18
   0   2   4    5.78    1.23
   0   2  -4    6.61    2.03
   0   2   4    5.37    1.27
   0  -2  -4    4.28    1.11
   0  -2  -4    3.67    1.45
   0   2   4    5.45    1.63
   0  -2   4    5.91    1.75
   0  -2  -4    7.70    1.58
   0  -2   4    3.22    0.69
   0   2   5    1.31    0.77
   0   2  -5    2.28    1.16
   0  -2   5    1.14    0.96
   0   2   5    1.54    1.44
   0   2   5    1.79    1.03
   0  -2   5    1.20    0.65
   0   2  -5    0.68    1.94
   0  -2  -5    1.20    1.01
   0  -2   5    2.34    1.36
   0  -2  -5   -0.11    1.53
   0   2  -6    7.11    2.04
   0   2   6    6.52    2.14
   0  -2  -6    7.81    2.18
   0   2  -6   11.30    3.03
   0  -2  -6    6.91    1.68
   0   2   6    7.68    1.82
   0  -2   6    9.47    2.08
   0   2   6    5.15    1.56
   0  -2   6   13.03    2.90
   0   2  -7  200.08   10.22
   0   2   7  196.75    9.34
   0   2  -7  202.81   11.16
   0  -2   7  224.62   11.64
   0  -2   7  194.72    9.65
   0  -2  -7  204.93   10.57
   0   2   7  204.73   11.22
   0   2   8   24.76    4.23
   0   2  -8   30.03    4.67
   0  -2  -8   28.86    4.17
   0  -2  -8   31.30    4.82
   0  -2   8   29.32    4.45
   0   2   9   16.54    3.63
   0   2  -9    8.06    2.84
   0  -2  -9    6.92    2.37
   0  -2   9   12.16    3.17
   0  -2  -9    5.25    2.56
   0  -3   0   -0.44    0.44
   0  -3   0    0.23    0.36
   0   3  -1 7545.42  150.49
   0  -3  -1 7796.67  150.73
   0   3  -1 7546.81  150.49
   0   3   1 7578.03  149.19
   0   3   1 7540.01  150.55
   0  -3  -1 7446.30  150.59
   0  -3   1 7383.30  149.37
   0  -3   1 7646.78  150.64
   0  -3  -2  227.84    7.46
   0   3  -2  226.89    7.12
   0   3   2  224.82    7.06
   0   3  -2  236.26    7.50
   0  -3   2  234.26    7.03
   0  -3   2  230.46    7.49
   0   3   2  231.37    7.45
   0   3   2  237.58    6.57
   0  -3  -2  228.63    6.39
   0  -3  -2  230.74    7.16
   0  -3  -2  225.71    6.58
   0  -3  -3  971.83   22.28
   0   3  -3  991.50   22.82
   0   3  -3  951.89   23.27
   0   3   3  941.39   23.27
   0  -3   3  865.01   19.68
   0  -3   3  984.86   23.27
   0  -3  -3  941.43   21.76
   0   3   3  999.51   22.33
   0  -3   3  873.35   21.90
   0  -3  -3  907.01   21.66
   0   3   3  967.10   21.57
   0   3   4   67.74    4.08
   0  -3   4   64.08    4.02
   0  -3  -4   63.01    3.83
   0   3   4   63.71    3.67
   0  -3   4   56.57    2.70
   0   3  -4   47.71    3.74
   0  -3  -4   74.14    4.21
   0  -3   4   66.84    4.57
   0  -3  -4   64.60    4.03
   0   3  -4   63.76    4.68
   0   3   4   60.28    4.52
   0   3  -5   40.15    3.83
   0  -3  -5   40.43    3.35
   0  -3   5   33.93    3.15
   0  -3   5   36.17    4.00
   0  -3  -5   35.48    3.54
   0   3   5   33.49    3.02
   0   3   5   34.55    3.85
   0   3   5   39.87    3.46
   0  -3   5   36.15    2.39
   0   3  -5   37.25    4.22
   0  -3  -6   93.21    6.96
   0  -3   6  102.56    7.09
   0   3  -6   94.44    6.42
   0  -3   6   89.50    5.90
   0   3   6  101.76    6.12
   0   3  -6  104.66    7.26
   0   3   6   97.31    6.96
   0  -3  -6   91.90    5.69
   0  -3  -6   95.77    6.41
   0   3   6   91.91    5.59
   0  -3  -7    3.09    1.94
   0  -3   7    5.54    2.50
   0  -3   7    7.08    1.99
   0   3  -7    5.99    1.94
   0   3  -7    6.69    2.66
   0   3   7    1.02    1.73
   0   3   7    2.40    1.52
   0  -3  -7    5.28    2.20
   0  -3   8   -0.12    1.60
   0  -3  -8   -1.25    1.54
   0   3   8    1.59    1.58
   0   3  -8    1.05    2.02
   0  -3  -8    0.20    1.36
   0  -3  -9    2.98    1.75
   0  -3   9    5.73    2.71
   0   3  -9    9.21    3.14
   0  -3  -9    8.16    3.12
   0   3   9    6.87    2.51
   0  -4   0 1568.20   33.55
   0   4   0 1613.35   33.14
   0  -4   0 1593.92   33.49
   0   4   0 1638.53   32.28
   0  -4   1  881.87   20.57
   0  -4   1  912.98   19.56
   0   4  -1  921.43   18.68
   0   4   1  864.46   19.32
   0  -4  -1  910.51   20.69
   0   4  -1  947.18   20.58
   0  -4  -1  911.09   20.51
   0   4  -1  942.42   20.29
   0   4   1  917.73   20.55
   0   4  -2   26.34    2.30
   0  -4   2   21.00    1.98
   0  -4  -2   20.96    1.68
   0  -4  -2   25.07    2.17
   0   4   2   24.51    1.75
   0   4   2   23.16    2.04
   0  -4  -2   22.53    2.09
   0   4  -2   20.65    1.93
   0   4   2   26.67    1.08
   0  -4  -2   24.28    1.55
   0  -4   3  743.80   17.91
   0  -4  -3  699.22   16.90
   0   4   3  738.26   18.04
   0  -4   3  748.39   18.77
   0   4   3  752.00   18.82
   0   4   3  717.02   17.01
   0   4  -3  644.79   17.84
   0  -4  -3  766.07   19.07
   0   4  -3  750.51   18.87
   0  -4  -3  665.12   16.92
   0  -4  -3  733.15   18.16
   0  -4   3  657.91   14.58
   0  -4   4    5.44    0.69
   0  -4  -4    7.35    1.89
   0  -4  -4    5.46    1.22
   0  -4  -4    6.06    1.47
   0  -4   4    8.47    1.56
   0   4   4   10.10    1.85
   0   4   4    6.51    1.31
   0  -4   4    8.47    1.79
   0   4  -4    8.86    1.76
   0   4   4    8.60    1.85
   0  -4  -4   10.48    1.93
   0   4  -4   11.22    2.45
   0  -4  -5   -0.04    1.41
   0   4   5    1.34    1.31
   0  -4   5    1.43    1.04
   0   4   5    2.05    1.31
   0  -4   5   -0.86    1.14
   0  -4   5    0.92    0.53
   0   4   5   -0.09    0.82
   0   4  -5    1.19    2.00
   0   4  -5   -0.11    0.94
   0  -4  -5    1.71    0.90
   0  -4  -5    1.55    1.28
   0   4   6   63.57    4.94
   0  -4  -6   64.62    5.09
   0  -4   6   74.37    5.98
   0  -4  -6   63.00    5.83
   0   4   6   65.40    4.67
   0   4  -6   65.57    5.88
   0  -4   6   65.54    5.05
   0   4  -6   70.39    5.69
   0  -4  -6   62.82    4.60
   0   4   6   62.31    5.60
   0  -4  -7  218.94   10.73
   0   4  -7  203.37   10.82
   0  -4  -7  231.40   12.30
   0   4   7  211.08   11.57
   0  -4   7  208.15   10.20
   0  -4   7  230.85   11.92
   0   4  -7  218.25   11.99
   0   4   7  221.79   10.48
   0  -4   8   18.33    3.62
   0   4  -8   22.72    4.45
   0   4   8   14.56    3.38
   0  -4  -8   13.60    2.99
   0  -4  -8   16.40    3.84
   0  -4  -9   12.23    3.72
   0   4   9   14.07    3.56
   0   4  -9   16.56    3.90
   0  -4   9   16.51    3.60
   0   5   0    0.07    0.35
   0  -5   0   -0.13    0.49
   0  -5   0    0.14    0.83
   0   5   0    1.47    0.65
   0  -5   1  718.79   17.26
   0   5   1  733.94   17.42
   0  -5   1  722.02   16.60
   0  -5  -1  713.79   17.63
   0   5  -1  730.29   15.62
   0   5   1  744.82   16.22
   0   5  -1  773.99   17.61
   0   5  -1  741.14   16.95
   0  -5  -1  741.07   17.44
   0  -5  -2  206.41    5.45
   0  -5  -2  203.65    7.21
   0  -5  -2  192.89    6.26
   0   5  -2  210.68    7.09
   0  -5  -2  184.93    4.81
   0  -5   2  203.73    7.19
   0   5  -2  201.56    7.14
   0   5   2  204.49    7.07
   0  -5  -2  201.24    7.29
   0  -5   2  212.42    5.44
   0   5  -3  237.77    8.83
   0  -5  -3  251.49    9.13
   0  -5  -3  268.76    9.61
   0  -5   3  273.64    8.93
   0  -5   3  274.68    9.48
   0  -5  -3  242.96    7.62
   0   5   3  270.18    8.18
   0  -5  -3  253.96    8.04
   0   5  -3  270.76    9.56
   0   5   3  271.94    9.06
   0   5   4   16.09    2.54
   0  -5  -4   17.25    1.99
   0   5   4   17.84    2.00
   0  -5   4   18.44    2.31
   0   5  -4   21.73    3.06
   0  -5   4   23.52    2.78
   0  -5  -4   20.20    2.69
   0   5   4   21.37    2.55
   0  -5  -4   21.30    2.78
   0   5  -4   21.17    2.57
   0  -5  -4   14.35    1.95
   0  -5   5   24.60    3.24
   0  -5  -5   31.24    3.14
   0  -5   5   27.20    3.04
   0   5  -5   27.86    3.23
   0   5   5   25.87    2.62
   0   5   5   25.94    3.04
   0   5   5   31.00    3.64
   0   5  -5   29.05    3.91
   0  -5  -5   23.96    2.64
   0  -5  -5   32.08    3.82
   0   5  -6    0.96    1.27
   0  -5  -6   -0.05    1.26
   0  -5   6   -0.78    1.34
   0  -5  -6    1.01    1.64
   0   5   6   -1.21    1.09
   0   5  -6   -2.19    2.73
   0   5   6    0.85    1.07
   0  -5  -6    0.63    0.82
   0  -5   6    0.33    0.93
   0   5   6   -1.01    1.68
   0   5  -7  265.17   12.62
   0  -5  -7  252.82   13.10
   0   5  -7  230.81   12.63
   0  -5  -7  225.29   10.98
   0  -5   7  269.11   12.95
   0  -5   7  241.31   11.27
   0   5   7  258.00   12.85
   0   5   7  245.47   11.47
   0   5  -8    5.92    2.58
   0  -5  -8    2.80    1.75
   0   5   8    7.27    2.66
   0  -5   8    6.87    2.52
   0   5  -9   77.85    8.19
   0  -5  -9   96.69    9.19
   0  -5   9   81.24    7.93
   0  -6   0   48.19    2.80
   0   6   0   48.19    1.90
   0   6   0   54.32    2.66
   0  -6   0   42.57    2.81
   0   6  -1  993.04   22.16
   0   6   1 1023.72   21.55
   0  -6   1  952.94   22.17
   0   6   1  979.53   22.80
   0   6  -1  978.18   21.01
   0  -6   1  996.91   22.72
   0   6  -1  948.01   22.83
   0  -6  -1  997.92   22.92
   0  -6  -1 1018.16   23.44
   0  -6  -2 1739.02   35.60
   0   6   2 1751.05   38.59
   0   6  -2 1849.45   38.79
   0   6  -2 1738.65   38.47
   0  -6  -2 1690.37   38.94
   0  -6   2 1687.87   36.34
   0  -6   2 1698.40   38.60
   0  -6  -2 1796.56   38.87
   0  -6   3   65.03    4.07
   0  -6   3   67.29    4.35
   0  -6  -3   63.34    4.38
   0   6  -3   63.80    4.14
   0  -6  -3   69.24    4.50
   0  -6  -3   57.28    3.38
   0   6  -3   65.05    4.47
   0  -6  -3   60.22    3.05
   0   6   3   72.31    4.32
   0  -6  -4   93.97    4.69
   0  -6  -4  101.56    5.94
   0   6  -4  101.86    6.24
   0  -6   4   96.82    5.39
   0  -6  -4   99.93    4.97
   0  -6   4   96.40    5.89
   0   6   4   97.92    4.95
   0  -6  -4  101.03    6.30
   0   6  -4  101.75    5.88
   0   6   4  101.90    5.73
   0   6   5   11.03    1.84
   0  -6  -5   11.15    1.92
   0   6   5   11.66    2.42
   0   6  -5   12.97    3.08
   0  -6   5   13.21    2.62
   0  -6  -5    8.09    1.65
   0   6  -5   12.18    2.36
   0  -6   5   10.80    2.05
   0  -6  -5   13.31    2.69
   0  -6  -5   15.98    2.75
   0  -6   6    4.65    1.68
   0   6   6    4.02    1.40
   0  -6   6    3.87    1.69
   0  -6  -6    7.92    1.68
   0   6  -6    1.19    2.23
   0   6   6    3.78    1.61
   0   6  -6    4.22    1.83
   0  -6  -6    6.43    1.73
   0  -6  -6    2.95    1.86
   0  -6   7   71.99    6.59
   0   6   7   63.76    5.71
   0  -6  -7   65.36    6.56
   0   6  -7   69.91    6.92
   0   6  -7   73.86    6.46
   0  -6   7   62.60    5.46
   0  -6  -7   59.81    5.19
   0  -6   8    3.79    1.74
   0  -6  -8    5.97    2.50
   0   6  -8    8.13    3.08
   0  -6   8    6.83    2.50
   0   6   8    7.35    2.28
   0  -6   9   31.68    5.07
   0  -6  -9   30.66    5.44
   0   6  -9   30.04    5.27
   0  -7   0    0.13    0.57
   0  -7   0    0.51    0.96
   0   7   0    0.48    0.85
   0   7   0    0.48    0.40
   0  -7   1  210.21    7.12
   0   7   1  209.48    7.22
   0   7   1  216.22    6.29
   0   7  -1  204.52    5.89
   0  -7  -1  213.21    7.32
   0  -7   1  199.19    6.86
   0   7  -1  213.84    7.54
   0   7  -1  220.83    6.74
   0  -7  -1  213.78    7.86
   0   7  -2  574.51   15.05
   0  -7   2  556.77   13.45
   0   7  -2  524.83   11.58
   0  -7   2  564.11   15.29
   0  -7  -2  561.81   15.24
   0   7  -2  600.37   15.49
   0  -7  -2  540.81   15.73
   0   7   2  555.78   15.12
   0   7   3   11.87    2.13
   0   7  -3   13.31    2.06
   0  -7  -3   13.77    2.12
   0  -7  -3   10.66    0.77
   0  -7  -3   11.32    1.20
   0  -7  -3   12.88    2.46
   0   7  -3   17.46    2.51
   0  -7   3    9.49    1.89
   0  -7   4  128.97    6.52
   0  -7  -4  131.10    7.11
   0   7   4  128.46    6.86
   0  -7  -4  129.85    5.46
   0  -7  -4  141.47    6.15
   0   7  -4  134.75    7.06
   0  -7  -4  140.41    7.44
   0   7  -4  126.48    7.20
   0  -7   4  134.74    7.05
   0   7  -5    7.71    2.25
   0  -7  -5    5.26    2.00
   0  -7  -5    4.98    1.35
   0  -7   5    2.42    1.39
   0  -7   5    6.05    1.82
   0  -7  -5    3.85    1.21
   0  -7  -5    7.57    2.43
   0   7   5    7.33    2.04
   0   7  -5    0.68    2.15
   0  -7   6    1.87    1.24
   0   7   6   -0.18    1.45
   0  -7   6   -0.69    1.34
   0   7  -6   -0.81    2.62
   0   7  -6    1.96    1.32
   0  -7  -6   -3.52    1.34
   0  -7  -6    0.99    1.56
   0   7   7   -0.75    1.34
   0   7  -7    3.40    2.41
   0   7  -7    2.14    1.57
   0  -7   7    1.49    1.73
   0  -7  -7   -2.45    2.11
   0  -7   7    2.07    1.37
   0  -7   8   12.73    2.89
   0   7   8   19.89    3.53
   0   7  -8   16.63    3.98
   0  -7   8   13.76    3.16
   0  -7  -8   20.65    4.27
   0   7  -9   22.28    4.69
   0  -7   9   15.69    3.81
   0  -7  -9   20.65    4.29
   0  -8   0  274.84    9.07
   0   8   0  287.29    9.18
   0  -8   0  275.16    8.76
   0   8   0  258.62    6.88
   0   8   0  270.74    8.23
   0  -8   1  484.13   13.30
   0   8  -1  500.85   13.79
   0  -8   1  469.22   12.97
   0  -8  -1  499.66   14.20
   0   8   1  460.79   11.93
   0   8  -1  469.08   11.68
   0  -8  -1  477.29   13.40
   0   8   1  490.90   13.38
   0   8  -1  469.78   12.39
   0   8   2  403.54   12.10
   0   8  -2  386.75   12.04
   0   8  -2  397.26   11.70
   0  -8  -2  383.63   11.94
   0   8  -2  363.71    8.68
   0  -8  -2  380.97   12.58
   0  -8   2  389.62   11.97
   0  -8   2  366.24   10.41
   0  -8  -3    4.54    1.94
   0   8  -3    4.41    1.82
   0  -8  -3    1.22    0.41
   0  -8  -3    3.41    1.41
   0   8  -3    2.33    1.08
   0   8   3    4.09    1.66
   0  -8   3    2.67    1.13
   0  -8  -4   41.38    4.14
   0   8   4   43.99    4.04
   0  -8   4   39.27    3.86
   0  -8  -4   38.92    4.11
   0  -8  -4   40.05    2.74
   0   8  -4   42.83    4.29
   0  -8   4   44.93    3.89
   0   8  -4   41.74    4.03
   0  -8  -5  209.81   10.30
   0  -8   5  194.95    9.06
   0  -8  -5  167.32    7.28
   0   8  -5  176.96    9.79
   0   8  -5  175.63    9.38
   0  -8  -5  204.48    8.28
   0  -8   5  193.08    9.60
   0   8   5  177.72    9.05
   0  -8  -5  199.00    9.67
   0  -8   6    9.16    2.35
   0  -8  -6   15.33    3.20
   0   8   6   12.18    2.59
   0   8  -6    9.72    3.10
   0  -8   6    8.27    2.12
   0   8  -6   13.30    2.80
   0   8   7   -0.34    1.37
   0  -8  -7   -0.65    1.69
   0   8  -7   -2.04    1.48
   0  -8   7    1.48    1.65
   0   8  -7    1.99    2.33
   0  -8   7   -1.19    1.31
   0   8  -8  218.42   12.91
   0  -8  -8  221.57   13.56
   0  -8   8  192.34   10.88
   0   8  -8  219.50   13.68
   0   8   8  207.92   11.89
   0  -8   8  202.76   12.42
   0   8  -9    9.78    2.99
   0  -8  -9    9.94    3.25
   0  -8   9   10.61    3.04
   0   9   0    0.54    0.45
   0   9   0    2.33    1.25
   0  -9   0    0.95    1.47
   0   9   0    1.66    0.95
   0  -9   0    0.55    0.85
   0  -9  -1  822.94   20.43
   0  -9   1  771.02   19.92
   0   9  -1  856.72   21.04
   0  -9  -1  772.73   21.15
   0  -9   1  795.94   20.31
   0   9  -1  781.42   18.98
   0   9   1  819.26   20.29
   0   9  -1  772.43   18.41
   0   9  -2  223.34    8.65
   0   9  -2  191.71    5.54
   0  -9   2  197.04    7.07
   0  -9  -2  206.20    8.28
   0   9   2  220.49    6.75
   0   9  -2  201.05    7.79
   0  -9   2  209.16    8.30
   0  -9  -2  197.07    8.66
   0   9   2  206.67    8.31
   0   9  -3  151.26    7.51
   0  -9  -3  160.20    7.63
   0  -9  -3  141.92    7.65
   0   9  -3  153.19    7.46
   0   9   3  155.04    7.45
   0  -9   3  154.48    7.39
   0  -9   4  117.08    6.83
   0   9   4  120.26    6.92
   0   9  -4  119.03    7.24
   0   9  -4  119.45    7.12
   0  -9  -4  122.76    7.16
   0  -9  -4  100.12    4.50
   0  -9   4  121.67    6.65
   0  -9  -4  117.62    7.23
   0  -9   5    6.70    1.90
   0  -9  -5    4.90    2.04
   0   9   5    5.00    1.87
   0  -9  -5   10.28    2.87
   0  -9   5    8.08    2.07
   0   9  -5    1.66    2.11
   0   9  -5    6.66    1.95
   0   9   6    2.71    1.65
   0  -9  -6    1.03    1.57
   0   9  -6    1.74    1.25
   0  -9   6    0.52    1.06
   0  -9   6    3.28    1.62
   0   9  -6    0.46    2.07
   0   9  -7    3.01    1.42
   0   9  -7    3.55    2.12
   0  -9  -7    5.18    2.32
   0  -9   7    5.68    2.09
   0   9   7    2.33    1.71
   0  -9   7    0.45    1.50
   0   9  -8    3.24    2.30
   0  -9   8    9.72    2.45
   0  -9  -8    7.13    3.01
   0   9   8    5.64    2.40
   0   9  -8    8.87    2.86
   0  -9   8    5.20    2.19
   0  -9  -9    8.84    3.21
   0  -9   9    5.24    2.55
   0   9  -9    3.09    2.48
   0  10   0   21.39    2.14
   0 -10   0   16.82    2.52
   0  10   0   22.63    2.56
   0  10   0   17.02    1.38
   0 -10   0   18.88    2.22
   0 -10  -1  116.46    6.31
   0  10  -1  112.29    4.62
   0 -10  -1  117.41    5.77
   0  10  -1  112.61    5.99
   0  10  -1  104.96    4.76
   0 -10   1  113.86    5.68
   0 -10   1  123.31    5.88
   0  10   1  118.86    5.73
   0 -10  -2  139.95    6.75
   0  10  -2  130.35    4.48
   0  10  -2  136.09    6.28
   0  10   2  139.98    6.79
   0 -10   2  144.64    6.06
   0  10  -2  145.20    7.05
   0 -10  -2  131.45    7.20
   0 -10   2  142.91    6.88
   0  10   2  147.17    5.40
   0  10   3    0.86    1.53
   0 -10  -3    0.99    1.11
   0 -10  -3    0.81    2.25
   0 -10   3    0.23    1.17
   0  10  -3    1.51    1.11
   0  10  -3    1.74    1.64
   0 -10   4   22.71    3.26
   0  10  -4   18.81    3.18
   0 -10   4   20.67    3.01
   0  10   4   18.16    2.94
   0 -10  -4   24.68    3.34
   0 -10  -4   26.01    4.04
   0  10  -4   21.92    3.21
   0 -10  -5   94.25    7.04
   0  10  -5   81.54    6.63
   0 -10  -5   90.94    6.86
   0  10   5   80.10    6.32
   0 -10   5   80.14    6.01
   0  10  -5  101.17    7.14
   0 -10   5   95.51    6.69
   0  10   6   23.63    3.66
   0  10  -6   22.92    3.67
   0  10  -6   24.03    4.20
   0 -10   6   20.73    3.27
   0 -10  -6   23.57    3.94
   0 -10   6   28.59    3.97
   0  10  -7    1.68    2.01
   0  10   7    1.03    1.40
   0  10  -7    2.21    1.44
   0 -10  -7    4.51    2.44
   0 -10   7    2.27    1.53
   0 -10   7   -0.03    1.22
   0  10  -8   34.01    5.71
   0 -10   8   31.44    4.43
   0 -10   8   34.52    5.08
   0  10  -8   30.25    4.93
   0 -10  -8   29.19    5.10
   0  10   8   27.46    4.52
   0 -10   9   -2.43    1.81
   0 -11   0    1.54    1.56
   0  11   0    1.27    1.22
   0  11   0    2.83    1.14
   0 -11   0   -0.35    0.87
   0  11   0   -0.62    0.64
   0 -11   1    6.00    1.80
   0  11  -1    9.75    2.06
   0  11   1    9.16    1.84
   0 -11  -1    7.45    2.25
   0 -11   1    8.22    1.63
   0 -11  -1    4.08    1.27
   0  11  -1    7.46    1.29
   0  11  -1    8.84    1.36
   0 -11  -2  365.30   13.81
   0 -11   2  387.94   12.02
   0  11  -2  359.31    9.88
   0  11   2  383.67   13.12
   0 -11   2  382.82   13.13
   0  11  -2  384.05   13.31
   0  11   2  404.25   10.96
   0  11  -2  373.00   12.16
   0 -11  -2  390.34   12.99
   0  11   3    9.38    2.34
   0  11  -3    5.05    1.82
   0 -11  -3    6.44    2.58
   0 -11   3    7.67    1.79
   0  11  -3    6.54    1.88
   0 -11  -3    4.69    1.56
   0 -11   4   21.05    3.13
   0 -11   4   25.06    3.33
   0  11   4   21.50    3.40
   0 -11  -4   22.83    3.92
   0 -11  -4   20.69    3.14
   0  11  -4   21.62    3.34
   0  11  -4   12.19    2.62
   0  11  -5    8.65    2.74
   0 -11  -5   10.91    3.10
   0  11  -5   10.67    2.53
   0  11   5    9.82    2.54
   0 -11   5   11.39    2.48
   0 -11  -5   13.25    3.21
   0 -11   5   14.25    2.73
   0  11  -6   76.49    6.78
   0  11   6   55.15    5.66
   0 -11   6   58.71    5.57
   0 -11  -6   68.51    6.45
   0  11  -6   67.47    6.75
   0 -11   6   65.56    6.00
   0  11  -7    1.23    2.17
   0 -11   7   -1.94    1.53
   0 -11  -7   -0.44    1.51
   0  11   7    2.52    1.75
   0 -11   7    2.08    1.65
   0  11  -7   -0.17    1.34
   0  11  -8   23.48    4.47
   0  11   8   13.60    3.39
   0  11  -8    8.76    3.18
   0 -11   8   17.22    3.64
   0 -11  -8   16.61    3.88
   0 -11   8   16.17    3.30
   0  11   9   -0.75    1.46
   0 -11   9    3.62    2.06
   0  12   0    0.35    1.07
   0  12   0    1.76    1.14
   0 -12   0    0.17    0.75
   0 -12   0    0.56    1.66
   0  12  -1    9.55    1.51
   0 -12  -1   12.73    2.11
   0 -12   1    9.17    1.85
   0  12  -1   11.39    1.61
   0 -12  -1    8.28    2.61
   0  12   1   10.90    2.07
   0 -12   1   10.52    2.16
   0  12  -1    9.51    2.11
   0  12   2   50.27    4.32
   0 -12  -2   51.92    4.27
   0  12  -2   50.74    4.54
   0 -12  -2   52.80    5.00
   0  12   2   49.56    3.17
   0  12  -2   41.08    3.55
   0 -12   2   56.83    4.16
   0 -12   2   51.55    4.30
   0  12  -2   46.13    2.72
   0  12  -3    0.67    1.91
   0 -12  -3    3.48    2.49
   0  12   3    3.05    1.74
   0 -12   3    1.36    1.11
   0  12  -3    1.69    1.34
   0 -12  -3    2.50    1.45
   0 -12  -4    4.84    1.70
   0 -12   4    6.91    2.32
   0  12  -4    5.90    2.32
   0 -12  -4    7.17    2.84
   0  12  -4    8.83    2.44
   0 -12   4    6.77    1.95
   0  12   4   10.00    2.39
   0  12   5  160.78    9.50
   0 -12   5  159.66    9.34
   0 -12   5  151.68    8.81
   0  12  -5  176.20   10.06
   0 -12  -5  182.52   10.12
   0  12  -5  159.64    9.64
   0 -12  -5  161.77    9.91
   0  12   6    2.75    1.86
   0 -12   6    1.50    1.40
   0 -12   6    1.06    1.36
   0 -12  -6   -3.70    1.99
   0  12  -6   -0.76    1.46
   0  12  -6    0.63    1.77
   0  12  -7   -0.16    1.09
   0  12   7    1.35    1.64
   0 -12  -7    1.38    1.57
   0 -12   7    1.85    1.67
   0 -12   7   -0.23    1.44
   0  12  -7    1.99    2.29
   0  12   8   -0.33    1.67
   0 -12   8   -3.16    2.04
   0 -12   8   -4.69    2.19
   0  12  -8    0.17    2.75
   0 -12  -8   -1.48    1.93
   0  12  -8    0.49    1.26
   0  12   9    0.53    1.31
   0  13   0    0.34    1.36
   0 -13   0    0.00    0.88
   0  13   0    1.13    1.37
   0 -13   0    1.66    1.94
   0 -13   1  142.47    7.54
   0 -13  -1  164.25    7.79
   0 -13  -1  150.99    8.30
   0  13  -1  148.10    6.28
   0 -13   1  154.24    7.59
   0  13   1  142.25    7.53
   0  13  -1  153.44    8.00
   0  13  -1  141.00    6.06
   0  13   1  151.23    7.39
   0  13   2  418.86   11.94
   0  13  -2  383.43   11.17
   0 -13   2  423.04   13.73
   0  13   2  409.72   14.50
   0  13  -2  424.85   15.05
   0  13  -2  401.87   13.25
   0 -13  -2  405.58   14.25
   0 -13  -2  391.42   15.30
   0 -13   2  447.37   14.90
   0  13   3  107.63    7.17
   0 -13  -3  104.66    7.58
   0  13  -3  119.72    6.97
   0 -13  -3  113.22    7.06
   0  13  -3  117.30    7.53
   0 -13   3  114.53    7.08
   0 -13  -4   42.49    4.59
   0  13   4   45.59    4.84
   0 -13   4   39.39    4.37
   0  13  -4   47.90    5.00
   0 -13   4   48.17    4.87
   0 -13  -4   45.53    5.27
   0  13  -4   42.36    4.66
   0 -13  -5   68.71    6.18
   0 -13  -5   61.52    6.25
   0 -13   5   58.54    5.62
   0 -13   5   68.22    6.05
   0  13  -5   62.00    6.09
   0  13   5   59.59    5.86
   0  13  -5   66.38    6.26
   0 -13   6    2.31    1.64
   0  13  -6    2.64    1.49
   0 -13  -6    2.94    1.62
   0 -13   6    3.38    1.75
   0  13  -6    7.17    2.92
   0  13   6    1.86    1.81
   0 -13   7   -0.65    1.33
   0 -13  -7    0.18    1.87
   0  13  -7    0.29    2.28
   0  13   7   -1.22    1.84
   0 -13   7   -0.26    1.55
   0  13  -7   -0.41    1.24
   0  13   8    1.11    1.93
   0  13  -8    4.63    2.30
   0 -13   8    0.99    1.49
   0 -13   8    1.57    1.73
   0 -13  -8    3.41    2.35
   0  13  -8    2.60    2.28
   0  14   0   67.33    4.61
   0 -14   0   62.49    5.47
   0  14   0   66.81    5.17
   0 -14   0   67.39    5.07
   0  14  -1  136.91    6.39
   0 -14  -1  155.83    7.87
   0  14  -1  157.44    8.30
   0 -14  -1  133.89    8.30
   0  14   1  154.36    7.73
   0  14   1  156.50    8.03
   0 -14   1  143.44    7.92
   0  14  -1  139.65    6.14
   0 -14   1  154.48    7.78
   0 -14   2  144.90    7.41
   0  14  -2  123.25    5.33
   0 -14  -2  132.83    7.45
   0 -14  -2  125.89    8.18
   0 -14   2  125.07    7.54
   0  14   2  126.78    5.67
   0  14  -2  123.39    6.60
   0  14  -2  134.17    8.01
   0  14   2  133.90    7.63
   0 -14  -3    9.31    2.22
   0  14  -3    8.68    2.45
   0  14  -3    7.31    2.15
   0  14   3   11.92    2.72
   0 -14  -3   10.38    3.56
   0 -14   3    9.06    2.31
   0  14   4    5.14    2.20
   0 -14   4    4.49    1.85
   0  14  -4    3.92    2.02
   0 -14  -4    4.79    1.96
   0 -14  -4    5.17    2.79
   0  14  -4    4.86    2.41
   0 -14   5   15.12    3.09
   0  14  -5   16.13    3.36
   0  14  -5   23.34    3.83
   0 -14  -5   15.65    3.14
   0  14   5   14.99    3.11
   0 -14   5   12.68    2.98
   0 -14  -5   17.48    3.95
   0  14  -6   22.14    4.05
   0  14   6   15.49    3.40
   0  14  -6   17.47    3.83
   0 -14   6   17.09    3.25
   0 -14   6   20.38    3.60
   0 -14  -6   17.39    3.65
   0 -14   7    8.45    2.66
   0  14  -7    6.04    2.54
   0 -14   7    8.80    2.68
   0  14  -7    4.80    2.55
   0 -14  -7   17.71    3.87
   0  14   7   10.57    3.06
   0 -14  -8  163.00   12.15
   0  14  -8  155.40   11.96
   0  14   8  132.69   10.83
   0  14  -8  142.44   11.86
   0 -14   8  154.88   11.20
   0 -14   8  132.04   10.02
   0  15   0    1.47    1.28
   0  15   0    1.40    1.32
   0 -15   0   -0.21    2.06
   0 -15   0   -0.64    1.28
   0  15   1   98.53    6.54
   0  15  -1  101.56    6.81
   0 -15  -1   97.98    6.40
   0  15  -1   91.93    4.94
   0  15   1   97.69    6.32
   0 -15   1  102.70    6.84
   0  15  -1   98.77    5.46
   0 -15  -1  104.52    7.56
   0 -15   1  100.40    6.46
   0  15   2    5.28    1.31
   0 -15  -2    4.32    1.61
   0 -15  -2    6.57    3.13
   0  15  -2    6.09    1.68
   0  15  -2    9.63    2.49
   0 -15   2    8.34    2.28
   0 -15   2    6.13    1.95
   0  15   2    4.93    1.97
   0 -15  -3    9.61    3.35
   0  15  -3    6.76    2.19
   0  15   3   10.16    2.59
   0 -15   3    8.66    2.31
   0 -15  -3    9.51    2.36
   0  15  -3    6.83    2.02
   0 -15  -4   49.56    5.83
   0 -15  -4   47.24    5.01
   0  15  -4   49.54    5.50
   0  15   4   46.50    5.20
   0 -15   4   52.50    5.18
   0  15  -4   56.51    5.49
   0  15  -5   -0.44    1.75
   0 -15  -5    0.39    2.18
   0 -15   5    0.60    1.40
   0 -15   5   -0.03    1.37
   0 -15  -5    0.13    1.19
   0  15   5   -0.54    1.67
   0  15  -5    0.63    1.70
   0  15  -6   -0.48    1.97
   0  15   6   -0.33    1.78
   0 -15   6   -3.78    1.96
   0 -15   6   -4.78    2.14
   0  15  -6    2.44    2.13
   0 -15  -6   -0.70    1.41
   0  15  -7    3.91    2.36
   0  15   7    3.08    2.20
   0 -15  -7    8.58    2.87
   0  15  -7    4.37    2.60
   0 -15   7    5.42    2.44
   0 -15   7    8.19    2.81
   0  15  -8   27.66    5.23
   0  15  -8   20.85    4.82
   0 -15   8   29.12    4.66
   0 -15   8   22.80    4.41
   0  15   8   22.21    4.70
   0  16   0   67.49    5.62
   0 -16   0   70.72    6.15
   0 -16   0   68.12    5.45
   0  16   0   64.74    4.93
   0  16  -1  264.29   12.00
   0 -16  -1  251.23   12.41
   0  16  -1  260.61   10.07
   0 -16   1  270.59   11.98
   0 -16   1  284.60   11.90
   0 -16  -1  282.85   11.87
   0  16   1  264.68   11.61
   0  16   1  267.18   11.46
   0 -16   2  147.66    8.04
   0  16  -2  122.65    8.09
   0 -16  -2  140.74    8.20
   0  16  -2  120.26    6.79
   0  16   2  129.93    8.15
   0 -16   2  147.75    8.57
   0  16   2  131.59    7.88
   0 -16  -2  120.80    8.60
   0  16  -3    2.49    1.43
   0  16   3    4.44    2.07
   0 -16  -3    6.63    2.04
   0  16  -3    1.77    1.60
   0 -16  -3    5.44    2.86
   0 -16   3    3.92    2.00
   0 -16  -4    4.66    2.83
   0  16   4    2.46    2.24
   0 -16  -4    4.41    1.88
   0  16  -4    0.83    1.49
   0  16  -4    2.80    1.75
   0 -16   4    2.45    1.67
   0 -16   5   10.47    2.88
   0 -16   5   11.17    2.87
   0 -16  -5   11.11    2.90
   0  16  -5   10.99    3.10
   0  16   5   12.25    3.14
   0  16  -5   12.71    3.25
   0 -16  -6    4.24    2.06
   0  16   6    0.31    2.00
   0 -16   6    2.15    1.71
   0  16  -6    0.03    1.44
   0 -16   6    0.06    1.72
   0  16  -6   -2.18    2.64
   0 -16   7   14.03    3.47
   0  16  -7   13.75    3.52
   0 -16  -7   15.08    3.71
   0 -16   7   15.10    3.64
   0  16  -7   15.08    3.71
   0  16   7   17.77    4.03
   0 -16   8   12.13    3.31
   0 -16   8    7.50    2.73
   0  16  -8   12.36    3.54
   0 -17   0    0.60    1.21
   0  17   0    3.19    1.59
   0 -17   0    4.31    2.67
   0  17   0   -0.11    1.57
   0  17  -1  119.57    6.62
   0 -17  -1  126.65    8.76
   0 -17   1  148.07    8.32
   0 -17  -1  131.36    7.98
   0  17   1  119.59    7.78
   0 -17   1  135.86    8.44
   0  17  -1  120.41    8.03
   0  17   1  121.38    7.61
   0 -17   2    1.54    1.44
   0 -17  -2    2.37    2.91
   0  17  -2    1.23    1.42
   0  17   2    3.63    1.92
   0 -17  -2   -1.27    1.31
   0  17  -2   -0.97    1.35
   0  17   2    1.62    1.90
   0  17  -3    1.06    1.64
   0 -17  -3    0.83    1.10
   0 -17  -3    3.42    2.91
   0  17  -3    0.13    1.46
   0  17   3    2.07    1.92
   0 -17   3    2.98    1.60
   0  17  -4    0.83    1.40
   0  17  -4   -1.37    1.56
   0  17   4    2.34    2.10
   0 -17  -4    1.93    2.58
   0 -17  -4    1.44    1.43
   0 -17   4    1.07    1.43
   0  17   5   38.14    5.25
   0  17  -5   46.30    5.95
   0 -17  -5   35.32    4.89
   0 -17   5   35.54    5.04
   0 -17   5   46.11    5.59
   0  17  -5   35.27    5.02
   0 -17   6   23.63    4.17
   0 -17  -6   26.03    4.51
   0  17  -6   26.88    4.76
   0  17   6   33.17    5.27
   0  17  -6   37.12    5.53
   0 -17   6   29.69    4.69
   0  17   7  112.51    9.94
   0 -17  -7  113.72    9.82
   0 -17   7   95.36    8.72
   0  17  -7   97.38    9.57
   0 -17   7  101.33    8.97
   0  17  -7   93.29    9.42
   0  18   0  168.87    9.63
   0  18   0  179.57    9.08
   0 -18   0  163.81   10.11
   0 -18   0  187.94    9.92
   0  18   1    8.99    2.45
   0 -18  -1    6.62    3.07
   0  18  -1    8.25    1.92
   0 -18   1    6.70    2.17
   0 -18   1    3.08    2.31
   0  18  -1    7.62    2.34
   0  18   1    5.98    2.19
   0 -18  -1    7.85    2.30
   0 -18   2    8.55    2.36
   0 -18  -2    5.10    1.84
   0 -18  -2   11.56    3.58
   0  18   2    5.17    2.42
   0  18   2    2.43    1.82
   0  18  -2    5.57    2.32
   0  18  -3   33.81    4.70
   0  18  -3   38.62    4.38
   0  18   3   34.89    4.36
   0 -18  -3   40.02    5.58
   0 -18   3   46.63    5.22
   0 -18  -3   34.38    4.46
   0  18   3   31.63    4.48
   0  18  -4   17.68    3.55
   0 -18  -4   12.73    2.92
   0 -18   4   11.27    2.85
   0  18  -4   13.20    3.42
   0 -18  -4   14.96    4.16
   0  18   4   11.68    3.24
   0 -18   5    1.73    1.61
   0 -18   5    0.35    1.81
   0  18  -5    0.22    1.43
   0  18  -5   -2.17    2.20
   0 -18  -5    3.91    2.18
   0  18   5    3.08    2.25
   0 -18  -6   20.41    4.16
   0  18   6   22.56    4.56
   0 -18   6   19.96    4.05
   0 -18   6   21.70    4.18
   0  18  -6   17.84    4.16
   0  18  -6   32.42    5.46
   0  18  -7  122.41   10.84
   0  18  -7  104.76    9.99
   0 -18   7  104.91    9.39
   0 -18   7  103.42    9.27
   0 -18  -7  122.85   10.41
   0  18   7  129.41   10.90
   0  19   0    2.11    1.38
   0 -19   0    5.48    2.18
   0  19   0    0.62    1.51
   0 -19   0    4.75    2.75
   0  19   1  304.88   13.69
   0  19  -1  309.32   14.37
   0 -19   1  344.89   14.44
   0 -19  -1  329.62   14.23
   0  19   1  303.17   13.84
   0 -19  -1  326.31   15.60
   0 -19   1  332.98   14.86
   0 -19  -2   13.35    3.87
   0  19  -2   17.38    3.53
   0 -19   2   16.37    3.30
   0  19   2   20.23    3.61
   0  19   2   16.61    3.15
   0 -19  -2   13.95    2.94
   0  19   3   18.39    3.40
   0 -19   3   20.97    3.77
   0 -19  -3   26.27    3.93
   0 -19  -3   24.10    4.83
   0  19   3   28.17    4.44
   0  19  -3   25.60    4.31
   0  19   4   16.39    3.18
   0  19  -4   16.22    3.34
   0  19   4   16.10    3.58
   0 -19  -4   18.78    4.34
   0 -19   4   12.70    3.09
   0 -19  -4   17.08    3.40
   0  19  -4   17.85    3.91
   0  19  -5   54.29    6.66
   0  19   5   57.83    7.02
   0  19  -5   40.93    5.64
   0 -19   5   51.13    6.23
   0 -19   5   60.76    6.69
   0 -19  -5   55.39    6.25
   0  19   6   17.77    4.25
   0 -19   6   15.63    3.79
   0  19  -6   18.40    4.27
   0  19  -6   13.19    3.58
   0 -19   6   19.93    4.19
   0 -19  -6   20.52    4.10
   0  19  -7   -8.44    3.24
   0 -19   7    0.37    1.40
   0 -20   0   61.37    6.61
   0  20   0   59.23    5.38
   0 -20   0   58.00    5.70
   0  20   0   52.81    5.69
   0 -20  -1   26.29    5.22
   0  20   1   25.28    3.99
   0  20   1   27.94    4.08
   0 -20  -1   31.11    4.38
   0  20  -1   24.34    4.19
   0 -20   1   31.04    4.42
   0  20   2    1.03    1.41
   0  20  -2    2.22    1.73
   0 -20   2    1.73    1.64
   0  20   2   -1.37    1.57
   0 -20  -2    2.62    1.61
   0 -20  -2    5.52    3.17
   0  20   3    3.07    2.17
   0 -20  -3    4.18    3.11
   0  20  -3    4.33    2.28
   0 -20   3    0.17    1.28
   0 -20  -3    1.91    1.66
   0  20   3    0.55    1.25
   0  20  -4   17.22    3.90
   0  20   4   26.90    4.71
   0 -20   4   16.48    3.54
   0 -20  -4   20.39    3.76
   0  20   5   13.45    3.78
   0 -20   5   13.07    3.47
   0 -20  -5   12.06    3.14
   0  20  -5    9.65    3.24
   0  20  -5    7.93    2.74
   0 -20   5    7.24    2.90
   0  20   6    4.46    3.01
   0  20  -6    1.37    2.13
   0 -20   6    0.15    1.54
   0 -20  -6   10.65    3.33
   0  20  -6    6.09    2.79
   0 -20   6    9.66    3.17
   0  21   0    3.55    2.44
   0 -21   0    4.37    2.24
   0  21   0    7.63    2.28
   0 -21  -1    6.40    2.99
   0  21  -1    0.89    1.66
   0  21   1    2.02    2.00
   0  21   1    0.21    1.53
   0 -21  -1    2.83    1.66
   0 -21   1   -0.78    1.31
   0  21   2    2.93    1.91
   0 -21   2    3.21    1.59
   0 -21  -2    9.98    2.65
   0  21  -2    3.86    1.72
   0  21   2    2.93    2.16
   0 -21  -2    7.74    3.76
   0  21  -3    1.65    1.81
   0  21   3    7.19    2.38
   0  21   3    7.19    2.77
   0 -21  -3    9.73    2.83
   0 -21   3    9.13    2.68
   0  21  -4   20.96    4.44
   0 -21  -4   24.47    4.36
   0  21   4   22.58    4.44
   0 -21   4   20.23    4.11
   0 -21   5   12.15    3.43
   0 -21   5   15.80    3.80
   0  21  -5   13.16    3.62
   0  21   5   12.22    3.57
   0 -21  -5   11.00    3.08
   0 -21   6  136.92   10.86
   0 -22   0 1086.04   31.63
   0  22   0  877.31   30.28
   0  22  -1    4.73    2.17
   0  22   1    8.26    2.59
   0 -22   1    3.27    1.54
   0  22   1    8.97    2.69
   0 -22  -1    6.47    2.19
   0 -22  -2    0.59    1.33
   0  22   2    3.29    1.89
   0 -22   2    3.06    1.84
   0  22  -2    2.85    2.11
   0  22   2    1.98    2.10
   0 -22  -3   10.74    2.82
   0  22   3    6.42    2.41
   0  22   3    7.05    2.66
   0  22  -3   11.32    3.22
   0 -22   3   12.93    3.41
   0 -22   4    1.55    1.57
   0  22   4    1.89    2.14
   0  22  -4   -1.53    1.61
   0 -22   4    1.89    2.00
   0 -22  -4   -2.52    1.68
   0  22   5   -1.26    2.56
   0  22  -5   -1.39    1.88
   0 -22  -5    0.19    1.36
   0 -22   5    2.10    2.04
   0 -22   5   -0.19    1.50
   0  23   0   17.35    3.73
   0 -23   0   20.69    3.77
   0  23  -1    3.55    2.32
   0 -23   1   -0.32    1.33
   0 -23  -1    0.27    1.38
   0  23   1    4.36    1.89
   0  23   1    2.52    1.97
   0 -23  -2    3.44    1.98
   0  23   2    3.54    1.91
   0 -23   2    1.77    1.72
   0  23  -2    1.95    1.78
   0  23   2   -1.89    1.92
   0  23  -3    1.40    2.31
   0  23   3    6.13    2.38
   0 -23  -3    2.50    1.77
   0  23   3    0.60    2.00
   0 -23   3    2.06    1.91
   0 -23   4   -1.85    1.80
   0 -23  -4    1.44    1.37
   0  23  -4    1.40    1.82
   0  23   4   -0.68    1.81
   0 -23   4   -3.62    2.17
   0 -23   5   -3.46    2.13
   0  24   0    9.94    3.09
   0 -24   0   12.17    3.18
   0 -24  -1    3.54    2.37
   0  24  -1    5.01    2.51
   0 -24   1    2.50    1.69
   0  24   2    5.41    2.32
   0  24  -2    6.90    2.81
   0 -24   2    4.23    2.08
   0  24   2    8.49    2.96
   0  24   3    7.78    2.98
   0 -24  -3    6.89    2.78
   0 -24   3    5.27    2.26
   0  24  -3    9.08    3.39
   0  24   4    1.75    2.14
   0 -24   4   -0.59    1.36
   0 -24  -4    0.27    1.65
   0 -25   0    0.28    1.17
   0  25   0   -0.76    1.79
   0 -25   1   65.07    6.95
   0  25   1   62.34    6.99
   0 -25  -1   79.15    7.65
   0  25  -1   69.32    7.60
   0  25   2   16.46    3.86
   0 -25   2   19.93    4.09
   0  25  -2   18.13    4.22
   0  25   2   20.66    4.31
   0 -25  -2   15.78    3.45
   0 -25  -3   56.48    6.83
   0  25   3   61.34    7.49
   0 -25   3   59.35    7.24
   0 -25   4    4.11    2.15
   0 -26   0    4.39    2.04
   0  26   0    2.69    2.49
   0 -26   1   16.85    3.69
   0 -26  -1   11.96    3.18
   0  26   1   12.54    3.45
   0  26  -1   16.98    3.97
   0  26   2    2.71    1.86
   0 -26   2    0.01    1.50
   0  26   2   -0.09    1.55
   0 -26  -2    4.16    2.01
   0 -26   3   12.91    3.59
   0 -27   0    4.92    2.02
   0  27   1   -1.73    1.96
   0 -27  -1    4.58    2.12
   0  27   2    2.53    1.85
   1   0 -10    0.48    1.63
  -1   0  10   -0.21    1.64
  -1   0   9   -0.61    1.45
   1   0  -9   -2.43    2.32
   1   0  -8   -0.60    1.78
  -1   0   8   -5.17    2.24
  -1   0   7  813.79   23.12
   1   0  -7  830.88   25.76
  -1   0   7  897.65   27.12
  -1   0   6    4.48    1.27
   1   0  -6    3.09    1.05
   1   0  -6    4.40    2.28
  -1   0   6    2.11    1.21
  -1   0   6    3.83    2.04
   1   0  -5   33.86    3.82
   1   0  -5   26.42    2.32
  -1   0   5   24.21    2.16
  -1   0   5   27.70    2.62
   1   0  -5   35.35    2.26
  -1   0   5   26.99    3.37
   1   0  -4    1.59    0.51
  -1   0   4    1.47    0.71
  -1   0   4    1.15    0.57
   1   0  -4    1.65    0.59
  -1   0   4    2.23    1.27
   1   0  -4    2.91    1.74
  -1   0   3  194.11    6.84
  -1   0   3  175.08    4.97
   1   0  -3  189.30    7.21
   1   0  -3  161.58    5.02
  -1   0   3  196.09    7.14
  -1   0   3  184.91    6.16
   1   0  -2   12.30    0.72
   1   0  -2   10.70    1.03
  -1   0   2   10.08    1.28
  -1   0   2    9.86    1.26
  -1   0   1 8773.92  177.83
   1   0  -1 8680.66  176.80
  -1   0   1 8985.10  177.38
  -1   0   1 8949.23  176.82
   1   0   0    1.97    0.59
  -1   0   0    2.01    0.35
  -1   0   0    1.50    0.53
   1   0   0    1.69    0.60
  -1   0  -1  309.89    9.17
   1   0   1  339.79    9.16
   1   0   1  320.45    8.76
  -1   0  -1  327.42    8.31
   1   0   1  325.31    8.22
  -1   0  -2    2.63    0.88
   1   0   2    4.10    1.00
  -1   0  -2    2.56    0.97
   1   0   2    5.97    1.25
   1   0   3   14.83    2.21
   1   0   3   13.10    2.17
   1   0   3    8.97    1.62
  -1   0  -3    8.53    2.01
  -1   0  -3    8.25    1.94
   1   0   4    1.51    1.11
   1   0   4    2.74    1.11
  -1   0  -4    3.94    1.43
   1   0   4    0.79    0.93
  -1   0  -4   -0.98    1.62
   1   0   5  155.86    6.81
  -1   0  -5  154.53    8.38
   1   0   5  168.17    8.55
   1   0   5  170.51    8.43
  -1   0  -5  164.15    8.57
  -1   0  -6   -1.03    2.28
   1   0   6   -0.98    1.39
   1   0   6   -0.45    1.24
  -1   0  -6   -1.18    1.30
  -1   0  -7    0.04    1.27
  -1   0  -7   -1.16    2.28
   1   0   7    1.41    1.65
  -1   0  -7    0.36    0.99
   1   0   7   -0.71    1.36
  -1   0  -8    0.42    1.44
   1   0   8    1.73    1.91
   1   0   9   86.71    8.31
  -1   0  -9   90.45    8.59
  -1  -1  10    1.01    1.70
   1   1 -10    4.44    2.52
   1  -1 -10    2.55    1.99
  -1   1  10    1.65    1.76
   1  -1 -10    1.13    1.83
  -1  -1   9    4.29    2.13
   1  -1  -9    7.84    3.00
   1   1  -9    4.70    2.28
  -1   1   9    6.66    2.59
  -1   1   8    1.46    1.64
   1  -1  -8    5.90    2.34
  -1  -1   8    3.74    2.15
   1   1  -8    5.27    2.46
  -1   1   7  103.61    6.39
   1   1  -7   98.36    7.59
   1  -1  -7   97.74    7.31
  -1   1   7  102.90    7.68
  -1  -1   7  121.65    8.38
  -1  -1   6  196.53    8.08
  -1   1   6  198.46    7.59
   1  -1  -6  209.70    9.99
  -1   1   6  231.45   10.79
  -1  -1   6  229.22   10.77
  -1  -1   6  186.96    7.73
   1   1  -6  190.04    8.05
  -1   1   6  216.51    8.91
   1   1  -6  213.04   10.25
   1  -1  -6  188.84    7.49
  -1   1   5   19.74    3.02
   1  -1  -5   17.82    1.82
   1  -1  -5   21.59    3.15
  -1  -1   5   20.64    3.05
   1   1  -5   21.68    3.50
  -1  -1   5   18.24    1.92
   1  -1  -5   21.96    1.98
   1   1  -5   20.36    1.57
   1   1  -5   19.33    2.11
  -1   1   5   19.08    2.35
  -1   1   5   19.45    1.83
  -1  -1   5   15.97    1.92
   1   1  -4    5.95    1.08
  -1   1   4    5.97    1.55
   1  -1  -4    6.58    1.82
  -1   1   4    5.88    1.25
  -1   1   4    5.66    0.84
   1  -1  -4    5.45    0.95
  -1  -1   4    2.78    0.76
   1  -1  -4    5.33    0.87
   1   1  -4    4.72    0.70
  -1  -1   4    4.55    1.04
   1   1  -4    6.08    1.89
  -1  -1   4    5.33    1.49
  -1  -1   3    0.84    0.57
   1   1  -3    1.56    0.53
  -1  -1   3    1.26    0.94
  -1   1   3    0.77    0.67
  -1  -1   3    2.54    1.26
   1   1  -3    1.99    1.31
  -1  -1   3    2.01    0.58
  -1   1   3    1.45    0.38
   1  -1  -3    1.53    0.56
   1  -1  -3    1.61    0.43
   1  -1  -3    0.23    1.15
  -1   1   3   -0.77    0.90
  -1  -1   2 1838.72   37.86
   1  -1  -2 1773.53   36.47
  -1   1   2 1700.07   37.91
  -1   1   2 1747.29   37.94
   1   1  -2 1767.69   36.45
  -1  -1   2 1779.81   37.94
   1   1  -2 1809.08   37.25
  -1  -1   2 1808.64   38.31
  -1   1   2 1803.28   37.87
  -1  -1   1  525.13   12.35
  -1   1   1  555.99   12.66
  -1   1   1  575.96   13.08
  -1   1   1  542.63   11.54
  -1  -1   1  532.98   12.57
   1   1  -1  542.81   12.52
  -1   1   1  565.35   12.65
   1  -1  -1  526.04   11.52
  -1   1   1  540.54   11.93
   1   1   0  711.23   16.95
   1  -1   0  804.12   17.55
  -1  -1   0  760.65   16.21
  -1  -1   0  732.36   16.91
   1  -1   0  757.02   16.72
  -1   1   0  750.84   16.90
   1   1   0  756.10   16.87
  -1  -1  -1 1087.83   24.19
   1  -1   1 1151.40   24.99
  -1  -1  -1 1119.27   25.04
   1   1   1 1071.90   24.13
   1   1   1 1101.84   24.93
   1  -1   1 1159.70   24.85
  -1   1  -1 1038.40   24.96
   1  -1   1 1156.00   23.81
   1  -1   2   15.67    1.88
   1   1   2   12.17    1.57
  -1   1  -2   10.51    1.62
   1  -1   2   14.26    1.61
  -1  -1  -2   13.09    1.60
   1   1   2    9.81    1.56
  -1  -1  -2   14.01    1.76
  -1   1  -2   13.92    1.85
  -1  -1  -3  856.35   21.81
   1   1   3  870.08   21.14
  -1  -1  -3  886.48   22.31
  -1   1  -3  856.39   22.37
   1  -1   3  854.99   20.24
   1   1   3  822.93   21.54
   1  -1   3  864.83   21.94
  -1   1  -3  856.17   22.03
   1  -1   3  851.44   21.53
   1   1   3  808.12   21.59
   1  -1   4   45.09    3.84
   1  -1   4   36.32    3.50
  -1  -1  -4   33.03    3.40
   1   1   4   38.36    3.13
   1   1   4   39.27    3.54
   1   1   4   31.76    3.24
  -1   1  -4   35.52    3.61
   1  -1   4   32.51    2.69
  -1  -1  -4   39.54    3.57
  -1   1  -4   38.33    3.73
   1   1   5    5.60    1.74
   1  -1   5    6.62    1.98
  -1   1  -5    7.67    1.98
  -1  -1  -5   11.15    2.32
  -1   1  -5    8.16    2.20
   1  -1   5    9.17    1.55
  -1  -1  -5    4.56    1.44
   1   1   5    6.94    1.98
   1  -1   5    7.51    1.92
   1   1   5    9.00    1.78
  -1   1  -6   50.31    5.03
  -1   1  -6   54.41    5.51
  -1  -1  -6   55.56    5.28
   1   1   6   60.26    5.30
   1   1   6   63.11    5.62
   1  -1   6   57.40    5.28
  -1  -1  -6   50.35    5.02
   1  -1   6   62.07    5.30
   1   1   6   59.28    4.44
  -1  -1  -6   50.88    4.96
   1   1   7    1.93    1.34
  -1  -1  -7   -0.48    1.44
  -1   1  -7    0.28    1.02
  -1   1  -7   -1.72    2.44
   1  -1   7    0.82    1.34
  -1  -1  -7   -0.35    1.09
  -1  -1  -7   -1.46    2.34
   1  -1   7    1.55    1.41
   1   1   7    2.39    1.75
   1  -1   8    2.86    1.75
  -1   1  -8    1.34    1.32
  -1  -1  -8    5.41    2.28
  -1   1  -8   -1.31    2.18
   1   1   8    3.37    1.91
  -1   1  -9    4.41    2.30
  -1  -1  -9    1.92    1.91
   1   1   9    1.43    1.41
   1  -1   9   -1.15    1.77
   1   2 -10   -2.82    2.35
   1  -2 -10   -1.23    1.71
  -1  -2  10    3.65    2.21
   1  -2 -10   -1.04    1.80
  -1   2  10    2.91    2.10
  -1  -2   9    2.29    1.84
   1   2  -9    1.96    2.47
   1  -2  -9    0.51    1.72
  -1   2   9    0.90    1.54
   1  -2  -8    0.69    1.74
  -1  -2   8   -0.30    1.66
  -1   2   8    2.94    2.01
   1   2  -8   -1.71    1.90
  -1   2   7    7.25    1.89
   1   2  -7    6.01    2.44
  -1   2   7    7.01    2.39
  -1  -2   7    4.49    2.24
   1  -2  -7    6.43    2.33
  -1   2   6  110.08    6.27
   1  -2  -6  116.21    6.99
   1   2  -6  109.62    6.02
  -1  -2   6  103.85    5.55
   1  -2  -6  106.34    5.45
  -1   2   6  114.83    7.51
  -1  -2   6  108.18    5.50
   1   2  -6  112.68    7.52
  -1  -2   6  122.02    7.88
  -1   2   6  101.13    4.94
  -1  -2   5   21.28    2.21
  -1   2   5   24.50    3.21
  -1  -2   5   23.23    2.31
  -1  -2   5   32.99    3.71
   1  -2  -5   30.08    3.46
   1   2  -5   22.44    2.41
   1  -2  -5   21.94    1.93
   1   2  -5   29.75    3.80
  -1   2   5   22.22    1.91
   1  -2  -5   30.56    2.52
  -1   2   5   28.23    2.90
   1   2  -5   24.84    1.52
   1  -2  -4    0.46    1.13
  -1   2   4    0.52    0.94
  -1   2   4    1.45    0.54
  -1  -2   4    0.53    0.57
   1  -2  -4   -2.38    0.61
  -1  -2   4    3.49    1.45
  -1  -2   4    1.18    0.62
   1   2  -4    0.91    0.63
  -1   2   4    0.96    0.90
   1  -2  -4    1.33    0.76
   1   2  -4    2.16    1.77
   1   2  -3   36.39    3.22
  -1   2   3   33.28    2.71
  -1   2   3   32.32    1.38
   1  -2  -3   34.81    2.78
   1  -2  -3   32.28    1.49
   1   2  -3   25.20    1.87
  -1  -2   3   32.84    2.70
   1  -2  -3   31.68    1.43
  -1  -2   3   32.34    2.15
  -1   2   3   37.93    2.64
  -1  -2   3   37.28    2.97
   1   2  -2  660.92   15.56
  -1   2   2  697.95   16.62
  -1   2   2  753.93   16.82
   1   2  -2  721.12   16.33
   1  -2  -2  695.70   14.99
  -1   2   2  651.58   16.35
  -1  -2   2  700.56   16.38
  -1  -2   2  704.78   16.99
  -1   2   1 1004.19   20.70
  -1   2   1 1008.54   21.67
  -1  -2   1  948.72   21.42
  -1  -2   1  928.66   21.29
  -1  -2   1  945.74   21.46
   1  -2  -1  963.61   20.33
   1   2  -1 1014.26   21.61
  -1   2   1  991.76   20.42
  -1   2   1 1007.95   21.41
  -1   2   1 1027.32   21.90
   1  -2  -1 1015.88   22.23
  -1  -2   0 4646.26   94.24
   1  -2   0 4776.76   94.91
  -1  -2   0 4587.82   93.81
  -1   2   0 4833.39   94.22
   1   2   0 4782.22   94.30
   1  -2   0 4751.52   94.06
  -1  -2  -1 3828.98   79.91
   1   2   1 3912.30   79.91
  -1   2  -1 3821.51   80.22
   1  -2   1 3866.02   78.56
   1   2   1 3657.42   78.60
  -1  -2  -1 3860.29   79.37
   1  -2   1 3972.45   79.91
   1  -2   1 4050.28   79.98
  -1   2  -2  204.39    7.35
   1   2   2  198.46    7.05
  -1   2  -2  182.61    7.18
  -1  -2  -2  182.91    7.00
   1  -2   2  203.39    7.21
   1  -2   2  196.11    6.65
  -1  -2  -2  195.98    7.01
   1   2   2  190.51    6.75
   1  -2   3   31.19    2.77
  -1  -2  -3   27.17    2.74
  -1   2  -3   32.90    3.14
   1  -2   3   34.64    3.08
   1   2   3   30.72    2.83
   1   2   3   33.64    2.94
   1   2   3   35.01    3.00
  -1  -2  -3   36.22    3.09
  -1   2  -3   31.10    3.08
  -1  -2  -3   28.23    2.69
   1  -2   3   32.63    2.29
   1   2   4  468.46   14.21
  -1  -2  -4  469.05   14.81
  -1   2  -4  516.19   15.98
   1  -2   4  452.32   12.55
  -1   2  -4  458.04   15.36
   1   2   4  498.76   15.23
   1  -2   4  481.87   15.00
  -1  -2  -4  477.19   15.30
   1  -2   4  452.79   14.87
  -1  -2  -4  486.30   15.40
   1   2   4  511.58   15.56
  -1  -2  -5    5.90    1.70
  -1  -2  -5    7.78    2.03
  -1  -2  -5    6.06    1.87
  -1   2  -5    6.28    1.96
   1  -2   5    8.62    2.01
   1   2   5    6.55    2.01
   1   2   5    6.43    1.72
  -1   2  -5    5.82    1.93
   1   2   5    8.21    1.75
   1  -2   5    9.80    1.44
   1  -2   5   10.23    2.19
  -1   2  -6   78.42    6.38
  -1  -2  -6   67.94    5.67
   1   2   6   72.15    5.75
   1  -2   6   83.49    6.30
   1   2   6   70.62    5.07
  -1  -2  -6   69.31    6.02
  -1   2  -6   71.17    6.22
   1   2   6   76.81    6.37
   1  -2   6   76.96    6.15
  -1  -2  -6   70.65    5.82
  -1   2  -7    4.60    2.07
   1   2   7    6.96    2.32
  -1  -2  -7    3.28    1.58
   1  -2   7    3.71    1.83
   1  -2   7    2.23    1.41
  -1  -2  -7   -0.45    1.56
   1   2   7    3.05    1.51
  -1   2  -7    4.95    1.69
  -1  -2  -7    1.13    1.38
  -1   2  -8   -0.15    2.22
  -1  -2  -8    2.60    1.99
   1  -2   8    1.42    1.37
   1  -2   8    2.91    1.52
   1   2   8    0.96    1.51
   1  -2   9    1.10    1.47
  -1   2  -9   -0.44    1.50
  -1  -2  -9   -0.66    1.54
  -1  -3  10    1.57    1.81
   1   3 -10    0.41    2.13
  -1   3   9    1.66    2.13
  -1  -3   9   -0.12    1.43
   1   3  -9   -2.23    2.50
   1  -3  -9   -0.62    2.10
   1  -3  -9    3.77    2.13
   1  -3  -8   23.75    3.88
  -1  -3   8   26.11    4.29
   1   3  -8   21.72    4.16
  -1   3   8   23.09    4.09
  -1  -3   7    7.50    2.59
  -1   3   7    8.22    2.51
  -1   3   7   10.33    2.17
  -1  -3   7    6.00    1.55
   1  -3  -7   10.33    2.68
   1   3  -7   10.59    3.39
  -1  -3   6  574.70   18.65
  -1   3   6  512.99   17.91
  -1   3   6  541.81   16.61
  -1  -3   6  472.70   14.10
  -1  -3   6  473.37   14.77
   1   3  -6  525.15   16.10
   1   3  -6  501.25   17.99
   1  -3  -6  489.93   15.04
   1  -3  -6  503.01   16.68
   1  -3  -5  693.68   17.47
  -1   3   5  669.03   18.58
   1   3  -5  701.50   20.70
   1  -3  -5  661.78   18.89
  -1   3   5  707.33   20.08
  -1  -3   5  595.78   16.90
   1  -3  -5  631.60   15.96
  -1  -3   5  715.40   20.50
  -1   3   5  640.62   15.84
   1   3  -5  677.86   18.10
  -1  -3   5  600.73   16.44
  -1   3   4  616.54   16.08
   1  -3  -4  553.21   13.17
   1  -3  -4  587.84   14.65
   1   3  -4  599.35   17.62
  -1   3   4  549.89   13.02
   1   3  -4  517.16   14.72
   1  -3  -4  584.48   16.05
  -1  -3   4  607.41   17.00
  -1  -3   4  500.15   13.97
  -1   3   4  618.40   16.83
  -1  -3   4  559.66   14.47
  -1  -3   3  732.29   18.05
   1  -3  -3  726.74   15.55
   1   3  -3  704.17   17.37
  -1   3   3  803.25   18.70
   1  -3  -3  743.60   15.26
  -1  -3   3  669.34   17.05
   1   3  -3  785.71   19.93
  -1  -3   3  759.24   19.36
   1  -3  -3  759.71   18.48
   1  -3  -3  727.85   17.40
  -1   3   3  732.93   18.68
  -1   3   2   66.46    3.18
  -1  -3   2   60.78    3.46
  -1   3   2   60.48    3.22
  -1  -3   2   64.40    3.07
  -1   3   2   73.39    3.52
   1   3  -2   71.68    3.86
   1   3  -2   65.40    2.98
   1   3  -2   68.08    3.41
   1  -3  -1  874.77   19.66
  -1   3   1  875.08   19.24
  -1  -3   1  814.93   18.97
   1  -3  -1  813.67   17.76
  -1  -3   1  853.77   18.61
   1   3  -1  839.03   19.13
  -1   3   1  846.30   17.87
  -1   3   1  859.01   19.14
   1  -3  -1  821.67   18.02
  -1   3   1  859.18   18.59
  -1   3   0 2155.75   44.61
   1   3   0 2173.70   44.68
  -1  -3   0 2141.70   44.88
  -1   3   0 2140.08   44.74
  -1  -3   0 2094.94   44.70
   1  -3   0 2163.15   45.45
  -1   3   0 2163.62   43.97
   1  -3   0 2146.16   44.56
   1   3   1 1241.59   26.77
   1  -3   1 1263.67   27.07
  -1  -3  -1 1259.89   28.07
  -1  -3  -1 1207.79   28.37
   1   3   1 1336.03   28.47
   1  -3   1 1294.29   28.44
  -1   3  -1 1329.77   28.69
  -1  -3  -2    5.01    1.20
  -1   3  -2    4.95    1.28
   1  -3   2    7.59    1.41
  -1  -3  -2    7.02    1.34
  -1   3  -2    5.41    1.23
   1   3   2    5.04    1.26
   1  -3   2    6.74    1.19
   1   3   3    0.39    0.84
  -1  -3  -3    0.17    0.76
   1  -3   3    0.21    0.75
   1   3   3    2.60    1.49
  -1   3  -3   -1.43    1.55
   1  -3   3    1.07    0.98
  -1  -3  -3    0.46    0.85
  -1   3  -3    1.15    1.13
   1   3   3    0.30    0.84
   1  -3   3    1.19    0.71
   1   3   4   52.09    4.01
  -1   3  -4   50.37    4.32
   1   3   4   46.33    4.07
  -1  -3  -4   41.89    3.61
   1  -3   4   43.98    2.57
   1   3   4   46.54    3.74
   1  -3   4   50.07    4.14
  -1  -3  -4   45.80    4.16
  -1   3  -4   45.15    4.16
   1  -3   4   47.92    3.93
  -1  -3  -4   48.99    4.15
  -1  -3  -5  102.99    6.58
  -1   3  -5   96.70    6.64
  -1   3  -5   98.14    6.68
   1   3   5   88.33    5.56
  -1  -3  -5   95.08    6.12
   1  -3   5  105.69    6.67
  -1  -3  -5  103.12    6.77
   1   3   5   98.98    6.16
   1  -3   5   94.67    6.27
   1   3   5   96.33    6.57
   1  -3   6    4.89    1.83
  -1  -3  -6    4.86    1.99
  -1  -3  -6    4.40    1.70
   1   3   6    3.01    1.47
  -1   3  -6    4.40    1.82
   1  -3   6    3.35    1.67
   1   3   6    4.16    1.82
  -1  -3  -6    2.06    1.28
   1   3   6    4.68    1.61
  -1   3  -6    1.01    1.65
   1   3   7   41.63    4.62
  -1  -3  -7   45.26    4.89
   1  -3   7   45.17    4.94
  -1  -3  -7   46.22    5.40
   1  -3   7   45.63    5.05
  -1   3  -7   42.16    5.13
  -1   3  -7   35.19    4.78
   1   3   7   46.76    5.40
  -1  -3  -8    1.76    1.76
  -1   3  -8   -0.98    2.22
   1  -3   8    1.08    1.63
   1  -3   8    1.20    1.33
  -1  -3  -9    3.22    2.20
   1  -3   9    3.98    2.20
  -1   3  -9   -1.37    1.68
   1   4 -10   25.58    5.11
   1   4  -9   -0.14    3.05
  -1   4   9    2.32    1.81
  -1  -4   9    4.43    2.21
   1  -4  -9    3.09    1.95
   1  -4  -9   -1.69    2.07
   1  -4  -8    1.03    1.77
  -1   4   8    2.34    1.72
   1  -4  -8   -0.69    1.78
   1   4  -8    2.03    2.15
  -1   4   8    1.28    1.21
  -1  -4   8    0.94    1.62
  -1  -4   7   60.57    5.86
   1   4  -7   57.03    5.90
  -1  -4   7   45.61    4.04
   1  -4  -7   63.03    5.36
   1   4  -7   71.03    5.44
  -1   4   7   62.09    5.38
  -1   4   7   55.01    5.68
   1  -4  -6  126.42    7.00
  -1  -4   6  106.64    5.97
   1  -4  -6  117.62    6.40
  -1  -4   6  136.05    8.30
   1   4  -6  104.51    6.32
  -1   4   6  121.81    7.70
   1   4  -6  115.23    7.95
  -1   4   6  131.18    7.21
   1  -4  -5   79.34    4.61
  -1  -4   5   84.07    5.87
   1   4  -5   78.96    4.82
  -1  -4   5   69.56    4.21
  -1   4   5   68.47    3.34
   1  -4  -5   74.11    4.86
  -1   4   5   78.77    5.07
   1   4  -5   78.15    6.04
  -1  -4   5   66.87    3.55
   1  -4  -5   67.63    3.36
  -1   4   5   69.49    5.24
   1   4  -4   23.99    2.36
   1  -4  -4   26.96    1.70
  -1   4   4   28.64    2.81
  -1  -4   4   27.44    3.00
   1  -4  -4   31.10    2.55
  -1  -4   4   27.56    2.34
   1   4  -4   34.46    3.70
   1  -4  -4   29.75    2.78
  -1   4   4   26.31    2.90
  -1  -4   3    3.15    1.10
   1  -4  -3    1.66    0.98
  -1   4   3    3.57    1.18
   1   4  -3    3.64    1.01
   1   4  -3    2.36    1.73
   1  -4  -3    1.97    0.75
  -1   4   3    3.14    1.11
  -1  -4   3    4.34    1.28
  -1   4   2   10.15    1.38
  -1   4   2    9.10    1.25
  -1   4   2    9.50    0.73
  -1   4   2   12.40    1.52
   1   4  -2    7.99    1.54
  -1  -4   2    7.50    1.34
  -1  -4   2    8.12    1.12
   1   4  -2    8.47    1.70
   1   4  -2    8.49    1.23
   1  -4  -2    7.47    1.17
  -1   4   2   10.14    1.37
   1  -4  -2    8.21    1.20
  -1  -4   1  675.67   16.36
   1  -4  -1  657.35   15.21
  -1   4   1  699.92   16.38
  -1   4   1  710.07   16.47
   1  -4  -1  698.15   16.66
  -1   4   1  670.90   15.11
  -1   4   1  705.76   15.59
   1   4  -1  698.36   16.48
  -1  -4   1  687.97   15.54
   1   4   0  602.52   14.29
   1  -4   0  599.09   14.07
   1  -4   0  589.33   14.82
  -1  -4   0  596.93   14.52
  -1   4   0  604.51   13.29
  -1   4   0  565.81   14.11
   1  -4   0  575.04   12.84
  -1   4   0  621.56   14.14
   1  -4   1  162.13    5.07
   1   4   1  161.05    5.86
   1  -4   1  160.77    5.85
  -1  -4  -1  148.37    5.65
  -1  -4  -1  155.14    5.71
  -1   4  -1  155.62    5.93
   1   4   1  172.55    5.32
   1   4   1  145.54    4.34
  -1  -4  -2   72.00    4.11
   1   4   2   78.32    4.54
  -1  -4  -2   77.41    4.21
   1   4   2   70.35    3.97
  -1   4  -2   70.94    4.20
  -1   4  -2   77.16    4.36
   1  -4   2   68.96    4.05
   1  -4   2   67.28    3.62
   1   4   3  103.57    5.58
   1  -4   3  101.50    3.65
  -1  -4  -3  101.24    5.60
   1  -4   3  109.26    5.64
  -1  -4  -3  102.40    5.47
   1   4   3  100.64    5.29
  -1   4  -3  101.58    5.76
  -1   4  -3   99.18    5.68
   1  -4   3  103.45    5.25
   1  -4   4    2.80    1.26
   1   4   4    2.00    1.09
  -1  -4  -4    0.67    0.98
  -1   4  -4    3.00    1.35
  -1   4  -4    2.76    1.53
   1  -4   4    1.49    0.97
   1  -4   4    3.17    0.72
   1   4   4    1.19    1.36
  -1  -4  -4    4.41    1.66
   1   4   5    3.45    1.50
  -1   4  -5    1.87    1.74
   1   4   5    1.30    1.21
   1  -4   5    3.90    1.57
  -1  -4  -5    4.61    1.86
  -1  -4  -5    4.39    1.59
   1   4   5    2.97    1.18
   1  -4   5    2.41    1.43
  -1   4  -5    3.10    1.60
  -1   4  -6  143.61    9.12
  -1   4  -6  156.08    9.52
   1  -4   6  151.94    8.84
   1   4   6  151.08    8.15
   1   4   6  147.53    8.99
   1  -4   6  138.35    8.38
  -1  -4  -6  145.21    8.63
   1   4   6  142.69    8.16
  -1  -4  -6  138.29    8.86
   1  -4   7   19.33    3.42
   1   4   7   21.75    3.30
  -1   4  -7   19.31    3.57
   1   4   7   17.90    3.26
   1  -4   7   22.85    3.64
  -1   4  -7   24.07    3.93
  -1  -4  -7   21.20    3.90
   1  -4   8   17.61    3.57
   1  -4   8    6.24    2.32
  -1   4  -8   11.52    2.92
  -1   4  -8   12.29    3.12
  -1  -4  -8   13.96    3.41
  -1   4  -9   -0.02    1.31
  -1  -4  -9    4.06    2.19
   1  -4   9    2.60    1.77
   1  -5  -9    7.56    3.01
   1   5  -9    8.72    3.21
  -1   5   9   15.73    3.73
  -1  -5   9   10.35    2.83
   1  -5  -8   21.26    4.22
   1  -5  -8   17.51    3.16
  -1   5   8   19.89    3.29
   1   5  -8   18.04    3.96
  -1   5   8   21.06    3.78
  -1  -5   8   21.84    4.04
  -1  -5   7    0.90    1.47
  -1   5   7    0.32    1.05
   1  -5  -7   -0.37    1.50
   1   5  -7    0.44    2.15
  -1   5   7   -0.18    1.42
   1   5  -7    0.85    0.99
  -1  -5   7    1.81    1.27
   1  -5  -7    1.43    1.99
   1  -5  -6   18.54    3.32
   1  -5  -6   13.97    2.46
   1   5  -6   14.63    3.31
  -1  -5   6   10.99    1.95
  -1   5   6   14.05    2.86
  -1   5   6   13.16    2.42
  -1  -5   6   15.85    3.06
   1   5  -6   16.49    2.60
   1  -5  -6   15.48    2.61
  -1  -5   5   37.56    4.01
   1  -5  -5   47.52    4.44
  -1   5   5   45.13    3.92
   1   5  -5   35.04    3.36
   1  -5  -5   42.37    2.59
   1  -5  -5   43.09    3.57
   1  -5  -5   42.72    3.65
   1   5  -5   42.74    4.65
  -1  -5   5   36.54    3.19
  -1   5   5   39.66    4.08
   1  -5  -4   98.93    5.74
  -1  -5   4   94.54    5.78
   1   5  -4   88.82    4.86
   1   5  -4  102.88    6.44
  -1   5   4   96.37    5.49
   1  -5  -4   99.73    5.00
   1  -5  -4  104.58    5.05
  -1   5   4  102.70    5.54
  -1  -5   3   57.65    4.03
  -1   5   3   61.18    3.88
   1   5  -3   60.92    3.55
   1  -5  -3   59.82    3.34
  -1  -5   3   58.27    3.31
   1  -5  -3   55.37    3.36
   1  -5  -3   62.34    3.90
   1   5  -3   61.57    4.42
  -1   5   3   58.65    3.73
   1   5  -2    1.94    0.86
  -1  -5   2    2.94    0.99
  -1   5   2    4.47    1.23
  -1   5   2    3.68    1.06
  -1  -5   2    1.31    0.67
   1  -5  -2    3.12    0.88
   1   5  -2    2.58    1.36
   1   5  -2    3.50    1.37
   1  -5  -2    1.59    0.71
  -1   5   2    2.91    1.05
  -1   5   2    3.50    0.58
   1  -5  -2    2.46    0.79
   1   5  -1  103.41    4.62
   1  -5  -1  107.72    4.49
  -1   5   1  121.10    4.60
   1  -5  -1  104.16    3.81
  -1  -5   1  109.71    4.61
  -1  -5   1  103.70    3.72
  -1   5   1  109.83    3.79
  -1   5   1  114.46    3.87
   1   5   0 3430.33   70.60
  -1   5   0 3395.98   70.43
   1  -5   0 3351.99   71.04
   1  -5   0 3390.20   69.10
  -1  -5   0 3377.99   70.94
  -1   5   0 3498.29   70.07
  -1   5   0 3475.32   69.00
  -1   5  -1 2847.63   57.57
  -1  -5  -1 2781.12   57.31
   1  -5   1 2726.01   55.99
   1  -5   1 2827.19   57.15
   1   5   1 2626.61   54.58
  -1  -5  -1 2673.12   57.23
   1   5   1 2629.64   56.01
   1  -5   2 2235.03   48.78
   1   5   2 2246.17   47.64
  -1   5  -2 2137.89   49.91
  -1   5  -2 2381.22   50.16
  -1  -5  -2 2265.57   49.89
   1  -5   2 2315.13   49.89
   1   5   2 2327.32   49.67
   1   5   2 2266.97   50.56
  -1  -5  -2 2329.11   49.62
   1   5   3  146.34    5.17
  -1   5  -3  153.56    7.32
  -1  -5  -3  155.44    6.94
   1   5   3  148.51    6.69
   1  -5   3  149.14    4.31
  -1  -5  -3  175.58    7.64
   1  -5   3  159.41    7.14
   1  -5   3  153.01    6.65
   1   5   3  164.10    7.47
  -1   5  -3  140.17    7.03
   1  -5   4   24.55    2.90
   1   5   4   23.71    2.96
  -1  -5  -4   22.90    3.14
   1   5   4   24.83    2.87
  -1   5  -4   22.91    3.16
   1  -5   4   22.73    2.89
  -1   5  -4   21.73    3.01
  -1  -5  -4   27.17    3.19
   1  -5   4   23.54    1.39
   1   5   4   21.76    1.79
   1   5   5  170.05    8.43
   1   5   5  172.83    8.55
   1  -5   5  161.75    8.61
  -1   5  -5  188.61    9.84
  -1   5  -5  165.79    9.30
  -1  -5  -5  182.08    8.93
  -1  -5  -5  179.05    9.49
   1  -5   5  180.50    9.00
  -1   5  -6  150.45    9.40
   1   5   6  157.83    8.63
  -1   5  -6  142.95    9.32
  -1  -5  -6  164.12    8.88
   1  -5   6  157.01    8.97
   1  -5   6  158.94    9.14
  -1  -5  -6  161.28    9.70
   1   5   6  148.54    8.36
  -1   5  -7   16.21    3.22
  -1  -5  -7   14.94    3.37
   1  -5   7   20.00    3.44
   1  -5   7   20.52    3.58
  -1   5  -7   11.17    2.84
   1   5   7   16.65    3.03
   1   5   7   11.59    2.69
   1  -5   8   12.19    3.14
  -1  -5  -8   13.42    3.42
  -1   5  -8   22.70    4.33
   1  -5   8   15.78    3.21
  -1   5  -8    9.19    2.88
   1  -5   9   14.25    3.48
  -1  -5  -9   14.97    3.76
  -1  -6   9   61.46    6.93
   1  -6  -9   64.28    7.47
   1   6  -9   49.83    6.74
  -1   6   8   46.42    5.22
  -1  -6   8   50.00    5.82
   1  -6  -8   48.36    6.12
   1   6  -8   46.57    6.08
  -1   6   8   42.87    5.47
   1   6  -7   49.10    4.78
   1  -6  -7   42.25    5.28
  -1  -6   7   32.08    3.52
  -1  -6   7   41.09    4.86
  -1   6   7   34.82    4.23
   1  -6  -7   37.98    4.10
   1   6  -7   43.61    5.49
  -1   6   7   36.03    4.70
   1  -6  -6   76.39    6.35
  -1  -6   6   67.83    4.85
   1   6  -6   79.03    5.76
   1  -6  -6   71.04    5.43
  -1  -6   6   75.06    6.14
  -1   6   6   79.25    5.83
   1  -6  -6   72.89    5.04
   1   6  -6   72.13    6.31
  -1   6   6   73.02    5.96
  -1   6   5   33.82    3.70
   1   6  -5   29.08    3.24
  -1  -6   5   32.77    3.10
   1   6  -5   36.29    4.34
  -1  -6   5   32.11    3.72
   1  -6  -5   31.91    3.36
   1  -6  -5   30.18    3.73
  -1   6   5   33.71    3.54
   1  -6  -5   30.37    3.03
   1  -6  -4  768.08   20.38
  -1  -6   4  796.21   22.01
   1   6  -4  736.16   20.52
   1  -6  -4  761.46   19.62
  -1   6   4  826.68   21.49
   1   6  -4  777.97   22.45
  -1   6   4  805.11   21.48
   1  -6  -4  826.72   21.88
  -1  -6   3  462.51   12.82
   1  -6  -3  496.87   14.31
   1  -6  -3  499.48   13.26
   1   6  -3  477.42   15.19
   1  -6  -3  496.88   12.88
  -1  -6   3  518.06   14.91
   1  -6  -3  483.62   13.66
   1   6  -3  491.16   13.87
  -1   6   3  544.00   14.83
   1  -6  -2  108.55    4.80
   1  -6  -2  119.13    4.92
   1   6  -2  122.34    5.31
   1  -6  -2  108.77    4.96
   1   6  -2  123.24    5.65
  -1   6   2  128.48    5.20
  -1  -6   2  119.77    5.48
  -1   6   2  126.56    5.47
  -1   6   2  123.61    4.16
  -1  -6   2  119.91    4.30
   1   6  -1  422.70   12.22
  -1  -6   1  436.94   12.21
   1  -6  -1  448.74   11.78
  -1   6   1  443.26   11.07
  -1   6   1  461.37   10.78
   1  -6  -1  444.60   11.82
  -1  -6   1  415.80   10.51
   1  -6  -1  418.44   11.04
  -1   6   1  454.26   11.94
   1  -6   0 1634.65   36.41
  -1   6   0 1578.12   35.46
  -1  -6   0 1670.28   36.72
   1  -6   0 1610.10   34.88
   1   6   0 1630.23   36.19
  -1   6   0 1734.27   34.24
  -1   6   0 1696.90   36.12
  -1   6  -1  290.01    9.18
  -1  -6  -1  293.74    9.02
  -1  -6  -1  287.75    9.16
  -1   6  -1  252.68    7.42
   1   6   1  292.64    8.36
   1  -6   1  278.70    8.16
   1  -6   1  303.13    9.07
   1   6   1  262.76    6.59
  -1  -6  -2    2.71    1.18
  -1  -6  -2    3.70    1.28
   1   6   2    2.87    0.93
   1  -6   2    2.60    1.24
  -1   6  -2    4.89    1.46
   1   6   2    8.42    2.16
   1  -6   2    3.16    1.02
  -1   6  -2    3.81    1.23
  -1  -6  -3    2.23    1.36
  -1   6  -3   -0.82    0.94
   1  -6   3   -0.85    0.98
   1  -6   3    0.76    0.37
   1  -6   3    0.81    1.00
   1   6   3    0.25    1.45
   1   6   3    0.31    0.56
  -1  -6  -3   -0.34    0.97
  -1   6  -3   -0.17    1.55
   1   6   3    0.31    0.86
  -1  -6  -4    9.03    2.10
   1  -6   4    8.90    1.86
   1   6   4    9.19    1.19
  -1   6  -4    9.09    2.09
   1   6   4    5.83    1.83
  -1   6  -4    5.28    1.88
   1   6   4    7.52    1.71
  -1  -6  -4   12.66    2.15
   1  -6   4    9.90    2.03
  -1   6  -5   32.71    4.01
   1   6   5   26.34    3.25
  -1  -6  -5   33.26    4.18
  -1   6  -5   30.17    3.98
   1  -6   5   26.55    3.48
  -1  -6  -5   33.58    3.64
   1   6   5   34.73    3.88
   1  -6   5   33.19    3.89
  -1  -6  -6    4.17    2.06
  -1   6  -6    5.26    2.18
  -1   6  -6    5.79    2.06
   1   6   6    1.06    1.10
   1  -6   6    7.03    2.06
   1  -6   6    3.57    1.73
   1   6   6    6.62    2.17
  -1  -6  -6    3.30    1.47
   1   6   7  136.96    8.74
  -1   6  -7  143.28    9.91
   1  -6   7  123.14    8.48
  -1   6  -7  126.52    9.55
  -1  -6  -7  128.38    9.36
   1  -6   7  119.89    8.54
  -1  -6  -8   72.55    7.49
  -1   6  -8   66.39    7.32
   1  -6   8   64.99    6.53
  -1   6  -8   71.87    7.41
   1  -6   8   57.18    6.26
   1  -6   9   11.06    3.10
  -1  -7   9   10.59    3.07
   1   7  -9    9.05    3.78
   1  -7  -9    8.86    3.17
   1  -7  -8    2.70    2.33
  -1   7   8    2.20    1.83
   1   7  -8    2.48    2.60
  -1  -7   8    2.30    1.84
  -1   7   7    2.14    1.36
   1  -7  -7    0.47    1.63
   1  -7  -7   -0.01    1.29
  -1  -7   7   -0.33    0.91
   1   7  -7    0.88    2.54
  -1  -7   7   -0.34    1.60
   1   7  -7   -0.29    1.05
   1  -7  -6    2.94    1.69
   1  -7  -6    1.28    1.22
  -1   7   6    1.88    1.26
   1  -7  -6    1.72    1.50
  -1   7   6    1.63    1.39
  -1  -7   6    0.39    1.07
   1   7  -6    6.39    2.70
  -1  -7   6    1.86    1.65
   1   7  -6    1.87    1.21
   1  -7  -5   68.20    5.04
  -1  -7   5   73.12    4.78
   1  -7  -5   71.03    4.37
  -1   7   5   69.90    5.18
   1  -7  -5   74.92    5.71
   1   7  -5   72.71    6.26
  -1  -7   5   76.48    5.68
   1   7  -5   77.64    5.34
   1   7  -4    2.77    1.12
   1  -7  -4    3.71    1.68
  -1   7   4    0.35    1.35
   1  -7  -4    2.44    1.06
   1  -7  -4    1.10    0.58
  -1  -7   4    1.67    1.51
   1  -7  -4    0.63    1.12
   1   7  -4    0.91    2.06
  -1  -7   3    0.89    0.94
   1  -7  -3    0.97    1.03
   1  -7  -3    0.83    0.89
   1  -7  -3   -0.36    0.71
   1   7  -3    0.74    1.71
  -1  -7   3    1.37    0.95
  -1   7   3   -0.28    1.24
   1   7  -3    0.15    0.83
   1  -7  -3    1.20    0.65
   1   7  -2    0.68    1.13
   1  -7  -2    0.18    0.61
   1  -7  -2    0.86    0.93
  -1  -7   2    0.26    0.62
  -1   7   2    0.64    0.91
   1   7  -2    1.10    1.07
   1  -7  -2    0.94    0.60
  -1   7   2    0.68    0.57
  -1   7   2    1.04    0.85
  -1  -7   2    0.69    0.86
   1   7  -1  273.12    8.61
  -1   7   1  292.25    8.43
   1  -7  -1  284.42    8.92
  -1  -7   1  298.37    9.55
  -1  -7   1  293.73    7.65
  -1   7   1  309.81    9.18
   1   7  -1  279.58    9.46
  -1   7   1  288.42    7.71
   1  -7  -1  284.48    8.37
   1  -7  -1  295.84    8.88
   1   7   0   22.63    2.34
   1  -7   0   22.17    1.94
  -1  -7   0   25.07    2.42
  -1   7   0   24.76    1.96
  -1   7   0   24.55    1.34
  -1   7   0   24.01    2.11
   1  -7   0   23.39    2.13
   1  -7   0   24.20    1.83
   1  -7   1  112.50    5.29
   1   7   1  119.12    6.05
   1  -7   1  111.70    4.71
  -1   7  -1  106.45    5.21
  -1  -7  -1  117.60    5.48
   1   7   1  121.52    4.96
   1  -7   1  111.16    4.43
  -1   7  -1  101.17    4.01
   1   7   2   17.44    2.60
   1  -7   2   13.10    1.71
   1   7   2   12.64    1.52
  -1  -7  -2   12.94    1.90
   1  -7   2   14.65    2.08
  -1   7  -2   13.63    2.05
   1  -7   2   13.21    1.30
  -1   7  -2   11.51    1.89
  -1  -7  -2    9.77    1.93
   1  -7   3   39.11    3.39
  -1  -7  -3   40.60    3.78
  -1   7  -3   45.19    4.09
   1   7   3   40.47    4.15
  -1  -7  -3   43.23    3.63
   1  -7   3   43.14    3.77
   1  -7   3   43.95    2.14
  -1   7  -3   44.55    3.96
   1   7   3   43.66    2.63
   1  -7   4    0.75    1.27
  -1  -7  -4    1.81    1.45
  -1   7  -4    2.87    1.39
   1   7   4    2.08    1.69
  -1   7  -4   -0.13    1.85
   1  -7   4    3.29    1.36
  -1  -7  -4    1.71    1.07
   1   7   4    4.92    1.53
   1   7   4    2.10    0.69
   1  -7   5    6.95    1.85
  -1  -7  -5    8.23    2.41
   1   7   5    4.94    1.51
  -1   7  -5    8.79    2.18
  -1   7  -5    5.22    2.03
  -1  -7  -5    8.91    2.07
   1  -7   5   11.34    2.51
   1   7   5   10.45    2.38
  -1   7  -6   27.77    4.29
  -1  -7  -6   29.92    4.25
   1  -7   6   29.32    3.93
   1   7   6   30.95    4.05
   1   7   6   26.34    3.45
  -1  -7  -6   32.09    3.79
  -1   7  -6   39.44    4.86
   1  -7   6   29.89    3.95
  -1   7  -7   63.84    6.80
   1   7   7   68.44    6.29
  -1   7  -7   66.86    6.83
   1  -7   7   72.26    6.47
  -1  -7  -7   80.54    7.47
   1  -7   7   62.10    6.13
  -1   7  -8   10.49    3.04
   1  -7   8    8.90    2.82
  -1   7  -8   10.63    3.31
   1  -7   8   12.09    3.10
  -1  -7  -8   12.11    3.42
   1  -7   9   -0.85    1.35
   1  -8  -9   61.83    7.55
  -1   8   9   46.11    5.74
   1   8  -9   38.33    6.12
  -1  -8   9   49.32    6.24
  -1  -8   8   96.84    8.21
   1   8  -8   87.24    8.37
  -1   8   8   85.42    7.36
   1  -8  -8   99.08    8.76
   1   8  -7    3.41    1.69
   1  -8  -7    2.27    1.87
  -1   8   7    2.97    1.71
  -1  -8   7    1.78    1.61
   1   8  -7    6.65    2.92
   1  -8  -7    3.87    2.09
  -1  -8   7    3.04    1.24
   1   8  -6   10.88    2.29
  -1  -8   6    7.53    2.29
   1  -8  -6    9.06    2.39
   1  -8  -6    5.16    2.12
   1   8  -6   10.92    3.24
   1  -8  -6    8.42    1.79
  -1  -8   6    9.79    2.09
  -1   8   6    8.43    2.20
   1  -8  -5    9.65    2.29
   1  -8  -5    9.06    2.30
  -1  -8   5    8.81    2.21
  -1  -8   5   14.45    2.29
   1   8  -5   14.48    3.26
   1   8  -5   11.27    2.30
   1  -8  -5    9.76    1.76
  -1   8   5    7.22    1.99
   1  -8  -5    7.49    1.42
  -1   8   4    9.28    1.99
   1  -8  -4   15.72    2.41
   1   8  -4   13.19    2.20
  -1  -8   4   11.66    2.26
   1   8  -4   15.83    3.08
   1  -8  -4   17.67    2.61
   1  -8  -4   11.43    1.52
   1  -8  -4   16.33    1.80
  -1   8   3   72.29    4.73
   1   8  -3   71.79    4.94
   1  -8  -3   70.28    3.21
  -1  -8   3   68.24    4.75
   1  -8  -3   67.53    4.38
   1   8  -3   68.71    4.47
   1  -8  -3   70.28    3.70
   1  -8  -3   72.18    4.56
  -1  -8   2  113.35    4.10
  -1  -8   2  122.77    5.91
   1  -8  -2  111.55    5.53
  -1   8   2  116.43    4.68
  -1   8   2  125.61    5.84
   1   8  -2  111.63    5.74
   1   8  -2  121.00    5.89
  -1  -8   2  117.90    5.91
   1  -8  -2  113.81    5.21
  -1   8   2  120.23    5.40
   1  -8  -2  114.39    4.82
   1   8  -1  186.94    7.59
  -1  -8   1  184.07    7.42
  -1   8   1  191.07    5.65
  -1   8   1  187.80    6.60
   1  -8  -1  180.88    7.03
  -1  -8   1  185.76    5.55
   1   8  -1  187.82    6.70
   1  -8  -1  200.71    6.86
  -1   8   1  200.69    7.16
   1  -8  -1  191.23    6.55
  -1   8   0    8.01    0.75
   1  -8   0    5.61    1.27
   1   8   0    7.32    1.75
  -1   8   0    8.34    1.31
   1  -8   0    6.73    1.14
  -1  -8   0    6.50    1.46
  -1   8   0    6.58    1.31
   1  -8   1 1471.80   32.32
  -1  -8  -1 1477.97   34.15
   1   8   1 1514.22   33.16
   1  -8   1 1521.32   33.04
   1   8   1 1481.72   34.93
  -1   8  -1 1586.02   34.38
   1  -8   2  640.03   15.92
   1   8   2  680.80   19.52
  -1   8  -2  698.36   19.04
   1   8   2  670.18   16.66
  -1  -8  -2  671.41   18.73
  -1   8  -2  657.67   18.33
   1  -8   2  656.78   18.38
   1  -8   2  647.05   17.52
   1   8   3    1.90    1.81
   1  -8   3    3.98    1.18
  -1   8  -3    3.03    1.48
   1  -8   3    3.09    0.71
  -1   8  -3   -0.37    1.72
  -1  -8  -3    1.94    1.31
  -1  -8  -3    2.63    1.18
   1   8   3    2.94    0.97
   1  -8   3    2.96    1.48
  -1  -8  -4    5.57    1.69
   1   8   4    4.82    1.85
  -1  -8  -4    9.37    1.98
  -1   8  -4    5.52    1.89
   1  -8   4    5.64    1.85
   1  -8   4    5.92    1.60
  -1   8  -4    7.13    1.98
   1   8   5   17.64    3.13
   1  -8   5   12.32    2.55
   1  -8   5   15.72    2.95
  -1   8  -5    8.06    2.34
  -1   8  -5   11.76    2.62
  -1  -8  -5   11.38    2.42
  -1  -8  -5   10.99    2.65
   1   8   5   11.35    2.34
  -1  -8  -6   44.46    4.50
  -1   8  -6   39.75    5.09
  -1  -8  -6   45.02    5.32
   1  -8   6   47.99    4.98
  -1   8  -6   53.30    5.74
   1  -8   6   37.88    4.50
   1   8   6   46.70    4.68
   1   8   6   43.96    4.83
   1   8   7  146.78    9.60
   1  -8   7  140.44    9.34
  -1   8  -7  127.70   10.00
  -1   8  -7  160.88   10.89
  -1  -8  -7  147.76   10.36
   1  -8   7  156.22    9.85
   1  -8   8   78.01    7.35
  -1   8  -8   81.52    8.07
  -1   8  -8   69.49    7.91
  -1  -8  -8   77.10    7.92
   1   8   8   79.97    7.52
   1  -8   8   67.17    6.91
   1  -8   9    2.99    1.89
   1  -9  -9    4.07    2.66
  -1  -9   9    1.55    1.83
   1   9  -9    0.25    2.53
  -1   9   9   -0.24    1.24
   1  -9  -8   30.15    4.92
  -1  -9   8   27.20    4.44
  -1   9   8   22.89    4.02
   1   9  -8   21.32    4.61
   1  -9  -7    3.76    2.03
   1   9  -7    0.88    1.18
   1   9  -7   -0.55    2.46
  -1   9   7    4.41    2.05
   1  -9  -7    1.05    1.85
  -1  -9   7    1.45    1.05
  -1  -9   7    2.36    1.75
  -1  -9   6    0.97    1.27
   1  -9  -6    0.27    1.39
   1   9  -6    0.15    1.14
  -1   9   6   -0.15    1.51
   1   9  -6    0.47    2.13
   1  -9  -6    1.02    1.71
  -1  -9   6    0.93    1.16
  -1  -9   5   26.32    3.65
  -1   9   5   26.80    3.60
   1   9  -5   24.90    4.01
   1  -9  -5   23.89    2.36
   1  -9  -5   25.46    3.47
   1   9  -5   25.70    3.29
   1  -9  -5   24.28    3.44
  -1  -9   5   27.19    3.24
   1  -9  -4   45.85    3.02
   1  -9  -4   51.27    4.40
   1   9  -4   53.07    4.29
   1  -9  -4   47.00    2.82
  -1  -9   4   52.49    4.59
   1   9  -4   47.69    4.70
  -1   9   4   45.14    4.15
   1  -9  -4   46.08    4.14
   1   9  -3  224.93    9.45
   1  -9  -3  219.31    7.32
   1   9  -3  220.29    8.99
  -1  -9   3  227.70    9.44
   1  -9  -3  215.85    6.39
  -1   9   3  234.00    9.38
   1  -9  -3  233.26    8.96
   1  -9  -3  218.61    8.95
  -1   9   2  755.17   19.53
   1  -9  -2  712.39   17.67
   1   9  -2  689.24   18.95
   1  -9  -2  678.30   18.35
  -1  -9   2  677.34   16.15
  -1  -9   2  707.01   19.66
  -1   9   2  727.34   17.77
  -1   9   2  766.98   18.73
   1  -9  -2  715.34   19.05
   1   9  -2  751.24   19.80
   1  -9  -1  143.59    5.75
  -1   9   1  153.20    6.32
  -1   9   1  146.11    5.92
  -1  -9   1  139.98    4.63
   1  -9  -1  150.58    5.91
  -1  -9   1  155.45    6.87
   1  -9  -1  152.38    6.39
   1   9  -1  158.32    6.01
  -1   9   0  143.84    6.26
   1   9   0  143.46    6.87
   1   9   0  148.53    6.59
  -1  -9   0  149.91    6.81
  -1   9   0  149.07    3.99
  -1   9   0  142.02    5.71
   1  -9   0  148.77    6.07
   1  -9   0  149.69    5.77
   1   9   1  322.24   11.30
   1   9   1  309.04    9.83
  -1   9  -1  332.94   10.81
  -1  -9  -1  313.65   10.72
   1  -9   1  308.10    9.27
  -1   9  -1  280.09    8.33
  -1   9  -1  268.63    6.92
   1  -9   2  128.63    6.11
  -1  -9  -2  130.97    6.80
  -1   9  -2  126.91    6.41
  -1   9  -2  139.71    6.99
   1   9   2  139.01    7.36
   1   9   2  132.79    5.67
   1  -9   2  132.17    6.65
   1  -9   2  135.66    5.23
   1  -9   3   67.91    4.71
   1   9   3   72.05    3.78
  -1   9  -3   61.76    4.99
   1  -9   3   67.43    5.02
   1  -9   3   76.78    3.43
   1   9   3   63.41    5.18
  -1  -9  -3   65.12    5.05
  -1   9  -3   63.11    4.95
  -1  -9  -4    2.62    1.31
  -1  -9  -4    4.05    1.57
   1  -9   4    2.43    1.35
   1   9   4    2.01    1.76
  -1   9  -4    2.28    1.75
   1  -9   4    3.31    1.41
  -1   9  -4    3.40    1.77
  -1  -9  -5   25.00    3.81
  -1   9  -5   23.80    3.69
   1  -9   5   22.92    3.48
  -1   9  -5   20.16    3.35
   1   9   5   27.03    3.75
   1  -9   5   27.72    3.60
  -1  -9  -5   22.71    3.10
   1  -9   6    1.34    1.61
  -1   9  -6   -3.36    1.80
   1  -9   6   -0.09    1.14
   1   9   6    0.38    1.41
  -1  -9  -6    2.02    1.80
  -1   9  -6   -1.77    2.23
  -1  -9  -6   -0.33    1.16
   1  -9   7   19.89    3.71
  -1   9  -7   15.92    3.70
   1   9   7   11.95    3.03
   1  -9   7   18.45    3.59
  -1  -9  -7   19.39    4.08
  -1   9  -7   16.00    3.55
   1  -9   8  195.40   12.27
  -1   9  -8  222.72   14.41
   1   9   8  224.11   13.18
   1  -9   8  189.52   11.95
  -1   9  -8  209.12   13.65
  -1  -9  -8  242.52   14.37
   1 -10  -9    2.12    2.00
  -1 -10   9    3.29    2.10
   1  10  -9   -0.22    2.20
  -1  10   9   -1.81    1.65
   1 -10  -8    1.96    1.84
  -1 -10   8    1.52    1.66
  -1  10   8    1.86    1.51
  -1 -10   8   -0.94    1.23
   1  10  -8    1.23    2.54
   1 -10  -7   32.47    4.52
  -1  10   7   28.00    4.08
  -1 -10   7   34.83    4.73
  -1 -10   7   26.28    3.61
   1  10  -7   28.14    4.14
   1 -10  -7   31.49    4.71
   1  10  -7   30.54    5.01
   1 -10  -6   -0.52    1.35
  -1 -10   6    1.03    1.35
   1  10  -6    0.57    2.47
   1 -10  -6    0.68    1.67
   1  10  -6    0.55    1.09
  -1  10   6    0.99    1.66
  -1 -10   6    0.50    0.97
   1 -10  -5   76.29    6.05
  -1 -10   5   73.44    6.11
   1  10  -5   83.09    6.63
   1  10  -5   75.75    5.85
   1 -10  -5   83.01    6.18
  -1  10   5   78.13    5.95
   1  10  -4   41.12    4.04
   1 -10  -4   37.92    2.59
  -1 -10   4   39.89    4.09
  -1  10   4   32.88    3.70
   1 -10  -4   36.11    3.75
   1 -10  -4   37.58    2.32
   1  10  -4   41.46    4.43
   1 -10  -4   39.76    4.13
   1 -10  -3    2.44    1.23
   1 -10  -3    2.45    0.70
   1  10  -3    4.14    1.78
   1 -10  -3    4.09    0.69
  -1 -10   3    4.55    1.66
  -1  10   3    2.48    1.29
   1  10  -3    1.88    1.24
   1  10  -3    6.46    1.30
   1 -10  -3    6.82    2.27
  -1  10   3    3.79    1.40
   1  10  -2  485.84   14.04
   1 -10  -2  509.73   14.91
  -1  10   2  570.10   15.09
   1 -10  -2  526.80   13.83
   1  10  -2  511.00   15.22
   1  10  -2  549.52   16.29
  -1  10   2  558.35   15.95
  -1 -10   2  562.22   16.20
  -1 -10   2  497.15   12.27
  -1  10   2  539.81   14.45
   1 -10  -2  507.85   15.64
   1 -10  -1  260.29    9.32
   1 -10  -1  256.01    8.72
  -1  10   1  274.91    9.27
   1  10  -1  250.00    8.38
  -1 -10   1  233.25    6.77
  -1 -10   1  284.57   10.04
  -1  10   1  256.68    8.81
   1  10  -1  248.31    9.14
   1 -10   0   66.98    3.80
  -1  10   0   57.76    3.93
   1  10   0   62.04    4.45
   1  10   0   54.30    2.81
   1 -10   0   62.39    3.97
  -1  10   0   61.40    3.63
  -1 -10   0   61.18    4.33
  -1  10  -1   89.11    2.72
  -1  10  -1  105.65    4.50
   1  10   1  111.74    6.33
   1  10   1  100.72    3.19
   1 -10   1  115.35    5.20
   1 -10   1  118.34    5.30
  -1 -10  -1  105.66    5.83
   1  10   1  107.11    5.48
  -1  10  -1  120.07    6.23
   1  10   2    6.14    1.58
   1 -10   2    6.51    1.39
  -1  10  -2    3.81    1.61
  -1  10  -2    2.25    1.21
   1 -10   2    4.05    1.30
  -1  10  -2    5.70    0.83
  -1 -10  -2    3.93    1.56
   1 -10   2    8.01    2.04
   1  10   2    6.34    2.35
   1 -10   3   52.24    4.45
  -1  10  -3   43.88    4.15
  -1  10  -3   48.21    4.54
   1  10   3   45.75    3.14
   1 -10   3   43.12    2.82
  -1 -10  -3   43.27    4.31
   1 -10   3   44.72    3.88
   1  10   3   44.04    4.52
   1  10   4   87.79    6.50
  -1  10  -4  104.42    7.18
  -1 -10  -4   85.71    6.53
   1 -10   4   99.46    6.63
   1 -10   4   92.07    6.07
  -1  10  -4   89.05    6.58
   1 -10   5   59.56    5.23
  -1  10  -5   53.92    5.50
  -1  10  -5   62.20    6.00
   1  10   5   50.44    5.15
  -1 -10  -5   53.72    5.50
   1 -10   5   50.26    5.13
  -1 -10  -5   60.06    5.03
  -1 -10  -6    2.58    1.60
  -1  10  -6    1.62    1.51
   1  10   6    4.27    2.03
  -1  10  -6   -0.03    2.03
   1 -10   6    3.89    1.71
   1 -10   6    3.35    2.08
   1 -10   7    1.48    1.35
  -1 -10  -7    2.90    1.83
  -1  10  -7    1.65    1.68
   1  10   7    1.45    1.86
  -1  10  -7   -1.72    2.96
   1 -10   7    3.79    1.87
  -1 -10  -8    2.36    2.19
   1 -10   8    2.56    1.77
  -1  10  -8   -3.61    2.60
  -1  10  -8   -0.55    1.59
   1  10   8   -1.43    1.75
   1 -10   8    0.90    1.91
  -1  11   9   28.94    5.03
   1 -11  -9   22.29    4.69
  -1 -11   9   22.44    4.47
   1  11  -9   21.36    4.85
  -1 -11   8    0.88    1.70
   1 -11  -8    1.20    1.65
   1  11  -8   -0.46    2.64
  -1  11   8    1.38    1.66
  -1 -11   8   -0.80    1.56
  -1  11   7   29.85    4.26
  -1 -11   7   25.81    3.68
   1  11  -7   16.86    3.81
   1  11  -7   28.33    4.22
   1 -11  -7   30.49    4.70
  -1 -11   7   27.31    4.22
   1 -11  -7   24.64    4.13
   1 -11  -6    5.22    2.13
  -1 -11   6    5.28    2.24
   1  11  -6    5.34    2.64
   1  11  -6    3.79    1.64
  -1  11   6    1.51    1.49
   1 -11  -6    4.33    2.30
  -1 -11   6    4.98    1.79
   1 -11  -5    3.77    1.64
  -1 -11   5    4.40    1.96
   1 -11  -5    0.74    2.02
   1  11  -5    3.38    2.41
   1  11  -5    4.82    1.75
  -1  11   5    5.14    1.81
   1  11  -4    0.58    1.19
   1 -11  -4   -0.86    2.13
   1 -11  -4   -0.02    0.97
   1  11  -4    1.50    2.03
  -1  11   4   -0.06    1.50
  -1 -11   4    1.31    1.44
   1  11  -3  189.81    9.13
   1  11  -3  181.12    6.53
   1 -11  -3  222.31    9.58
   1 -11  -3  197.71    6.74
   1 -11  -3  199.22    8.71
  -1  11   3  220.11    9.51
  -1  11   3  201.48    7.66
   1  11  -3  195.30    9.01
  -1  11   3  223.37    8.39
  -1 -11   3  212.69    9.66
   1 -11  -2    5.60    1.45
   1  11  -2    7.03    1.75
   1 -11  -2    8.09    2.19
  -1  11   2    6.19    1.48
  -1  11   2    5.47    1.61
   1  11  -2    7.28    2.08
   1  11  -2    4.52    1.42
  -1  11   2    5.91    1.35
  -1 -11   2    5.36    0.81
  -1 -11   2    5.49    1.69
   1 -11  -2    5.74    1.07
  -1  11   1  449.18   13.54
  -1  11   1  441.25   13.26
   1 -11  -1  462.70   13.98
  -1 -11   1  409.89   10.46
   1 -11  -1  442.87   13.11
   1  11  -1  424.86   12.30
   1  11  -1  440.96   13.58
  -1 -11   1  471.24   14.57
   1  11   0    1.51    1.53
  -1  11   0    2.62    1.35
   1  11   0    1.10    0.67
   1 -11   0    2.97    1.29
  -1  11   0    2.47    0.90
   1 -11   0    1.85    0.91
  -1 -11   0    1.32    0.97
   1  11   1   51.68    2.26
  -1  11  -1   48.46    3.12
   1  11   1   50.00    1.88
   1  11   1   60.73    5.00
  -1 -11  -1   62.31    4.58
  -1  11  -1   60.49    4.48
   1 -11   1   54.01    3.68
   1 -11   1   58.12    3.91
  -1  11  -2   32.75    3.61
  -1 -11  -2   31.84    3.57
   1  11   2   34.63    3.92
   1  11   2   27.62    2.83
  -1  11  -2   27.47    1.95
   1 -11   2   37.15    3.01
   1 -11   2   34.86    3.72
   1 -11   2   33.35    3.25
  -1  11  -2   24.87    2.89
   1 -11   3  191.53    8.76
  -1  11  -3  190.09    9.59
   1 -11   3  201.17    7.19
  -1 -11  -3  182.87    9.30
   1 -11   3  186.33    9.11
   1  11   3  187.30    9.64
  -1  11  -3  192.48    9.23
   1  11   3  170.56    7.04
  -1 -11  -4   14.90    2.99
   1 -11   4   16.10    2.57
   1 -11   4   15.31    2.86
  -1  11  -4   13.21    2.90
   1  11   4   11.81    2.85
  -1  11  -4   11.37    2.66
   1 -11   5   32.82    3.96
  -1 -11  -5   27.56    4.20
  -1  11  -5   28.67    4.21
  -1  11  -5   22.47    3.77
   1 -11   5   23.82    3.78
   1  11   5   29.02    4.08
  -1  11  -6    1.32    1.31
   1 -11   6    1.36    1.42
  -1  11  -6   -1.11    2.49
   1 -11   6   -0.22    1.51
  -1 -11  -6    1.39    1.75
   1 -11   7   22.68    3.99
   1 -11   7   17.89    3.61
  -1  11  -7   20.13    4.17
   1  11   7   22.41    4.19
  -1  11  -7   18.18    3.92
  -1 -11  -7   21.99    4.31
   1 -11   8   -0.91    1.72
   1  11   8    2.25    1.99
  -1  11  -8    3.22    2.25
  -1  11  -8   -0.13    2.26
  -1 -11  -8    2.03    1.65
   1 -11   8   -0.84    1.49
  -1 -12   9    1.52    1.68
  -1  12   9    3.69    2.42
   1 -12  -8    9.13    3.23
  -1 -12   8    4.50    2.05
   1  12  -8    6.08    3.39
  -1  12   8    7.12    2.59
  -1 -12   8    6.41    2.19
  -1  12   7    2.58    1.73
   1 -12  -7    0.76    1.75
   1 -12  -7   -0.94    1.99
   1  12  -7    1.42    2.60
  -1 -12   7   -1.29    1.57
   1  12  -7   -0.79    1.19
  -1 -12   7   -3.03    1.83
   1  12  -6    1.98    2.23
   1 -12  -6    2.70    1.82
   1 -12  -6    4.25    2.53
  -1 -12   6    4.33    2.17
   1  12  -6    0.64    1.39
  -1  12   6    0.42    1.61
  -1 -12   6    1.52    1.36
  -1 -12   5    0.67    1.31
   1 -12  -5    1.23    1.97
   1 -12  -5   -0.08    1.32
   1  12  -5   -2.07    2.14
   1  12  -5    0.25    1.21
  -1  12   5    0.28    1.48
   1  12  -4   89.27    6.39
   1 -12  -4   93.35    6.81
   1  12  -4   87.61    6.58
   1 -12  -4   96.01    6.41
  -1 -12   4   96.73    6.75
  -1  12   4  101.01    6.81
   1  12  -3    0.94    1.22
  -1  12   3    0.75    1.32
  -1 -12   3    1.72    1.52
   1 -12  -3    1.55    0.54
  -1  12   3    2.32    1.06
   1  12  -3    3.23    1.03
   1 -12  -3    0.07    2.21
   1 -12  -3    1.93    1.25
  -1  12   3    0.90    0.92
   1  12  -3    3.46    1.99
   1 -12  -2  495.90   15.25
  -1  12   2  544.93   15.26
  -1  12   2  518.71   14.97
   1 -12  -2  521.17   16.48
  -1 -12   2  549.88   16.73
  -1  12   2  539.51   16.30
   1  12  -2  523.96   16.78
   1  12  -2  478.79   14.20
   1  12  -2  488.47   15.06
  -1 -12   2  481.89   11.48
   1  12  -1  242.33    9.38
   1 -12  -1  262.47   10.22
  -1  12   1  248.57    9.29
   1 -12  -1  248.25    9.20
  -1  12   1  261.11    9.60
   1  12  -1  232.99    8.20
  -1 -12   1  252.51   10.17
  -1 -12   1  221.24    6.36
  -1  12   0   30.80    3.15
  -1  12   0   35.78    3.02
   1 -12   0   35.14    3.32
  -1 -12   0   32.59    3.46
   1 -12   0   35.98    3.07
   1  12   0   34.20    3.60
   1  12   0   31.78    2.06
  -1 -12  -1   11.09    2.16
  -1  12  -1    9.64    1.48
  -1  12  -1    7.51    1.97
   1 -12   1    8.64    1.64
   1  12   1    8.79    2.54
   1  12   1    8.17    0.93
   1 -12   1   13.10    2.31
  -1 -12  -2   11.09    2.40
   1 -12   2    8.59    1.78
  -1  12  -2    9.43    2.21
  -1  12  -2    8.72    1.18
   1 -12   2   11.55    2.00
  -1  12  -2    7.29    1.82
   1  12   2    9.52    2.44
  -1 -12  -3   -0.27    1.34
  -1  12  -3   -1.01    1.75
   1  12   3   -3.24    2.32
  -1  12  -3    2.10    1.67
   1 -12   3   -0.13    0.93
   1 -12   3    0.91    1.22
   1 -12   3    0.48    1.35
   1  12   4   93.29    7.26
   1 -12   4  111.81    7.04
  -1  12  -4  114.89    8.09
  -1  12  -4   92.47    6.93
  -1 -12  -4  104.38    7.40
   1 -12   4  102.91    7.12
  -1  12  -5   44.64    5.27
  -1 -12  -5   53.04    5.67
   1  12   5   53.24    5.63
  -1  12  -5   50.10    5.70
   1 -12   5   44.33    5.17
   1 -12   5   54.42    5.25
  -1 -12  -6    1.08    1.32
  -1  12  -6   -0.31    2.35
   1  12   6    4.60    2.39
   1 -12   6    0.34    1.28
  -1  12  -6    2.18    1.80
   1 -12   6    0.05    1.45
  -1 -12  -7   37.04    5.38
   1  12   7   33.13    5.11
   1 -12   7   25.16    4.15
  -1  12  -7   24.85    4.74
  -1  12  -7   35.99    5.43
   1 -12   7   25.45    4.32
  -1 -12  -8   26.68    4.94
   1 -12   8   23.12    4.19
   1  12   8   17.65    4.21
  -1  12  -8   18.16    4.26
   1 -12   8   18.24    3.87
  -1  13   9   -0.63    1.66
   1 -13  -8   11.64    3.27
  -1 -13   8   12.57    3.34
   1  13  -8   12.54    3.24
   1  13  -8   10.27    3.72
  -1  13   8   13.96    3.56
  -1 -13   8    9.34    2.56
   1  13  -7    1.01    1.53
  -1 -13   7    3.00    1.84
  -1 -13   7    0.24    1.17
   1 -13  -7    1.34    2.47
  -1  13   7    1.25    1.64
   1  13  -7    0.77    2.10
   1 -13  -7    0.11    1.66
  -1 -13   6   13.87    3.01
   1  13  -6    9.15    3.17
  -1  13   6   10.21    2.63
   1 -13  -6   12.71    3.41
   1 -13  -6   16.71    3.29
   1  13  -6    8.17    2.42
  -1 -13   6   12.54    2.75
  -1 -13   5   75.22    6.53
   1  13  -5   70.04    6.19
   1 -13  -5   61.88    6.14
   1 -13  -5   81.14    6.47
   1  13  -5   69.88    6.35
  -1  13   5   72.19    6.22
  -1  13   4   37.71    3.38
   1  13  -4   38.19    4.31
  -1 -13   4   34.10    4.29
   1 -13  -4   36.68    4.04
  -1  13   4   35.96    4.20
   1  13  -4   42.03    4.55
   1 -13  -4   41.42    4.87
  -1  13   3  206.66    8.40
   1 -13  -3  190.67    8.89
  -1  13   3  190.51    9.43
   1  13  -3  191.59    9.63
   1  13  -3  176.87    8.80
   1 -13  -3  190.04    9.72
  -1 -13   3  203.24    9.99
  -1  13   3  190.18    8.10
  -1  13   2  317.67   12.08
   1  13  -2  289.34   10.31
   1 -13  -2  300.11   11.28
  -1  13   2  320.07   11.18
  -1  13   2  327.28   11.15
  -1 -13   2  335.45   12.62
   1 -13  -2  307.58   12.37
   1  13  -2  328.74   12.80
   1  13  -2  303.75   10.98
  -1 -13   1    6.45    0.77
  -1  13   1    5.85    1.61
   1  13  -1    9.62    2.46
   1  13  -1    7.99    2.01
  -1  13   1    8.31    1.80
   1  13  -1    7.01    1.44
  -1 -13   1    5.14    1.71
   1 -13  -1    6.28    1.55
   1 -13  -1   12.46    2.57
  -1  13   0   16.14    2.19
  -1  13   0   14.27    2.39
   1 -13   0   14.80    2.14
   1  13   0   13.71    1.38
   1 -13   0   16.05    2.79
   1  13   0   13.96    2.66
  -1 -13   0   13.40    2.39
   1 -13   1  267.90   10.33
   1 -13   1  279.16   10.21
  -1  13  -1  246.91    8.88
   1  13   1  269.87   11.48
  -1 -13  -1  271.41   11.23
  -1  13  -1  282.32   11.36
   1 -13   2   18.02    2.66
  -1  13  -2   20.53    3.16
   1  13   2   19.00    3.30
   1 -13   2   19.18    2.60
  -1 -13  -2   21.77    3.19
  -1 -13  -3   73.51    6.00
   1 -13   3   74.36    4.66
  -1  13  -3   70.35    5.57
   1  13   3   72.02    6.11
   1 -13   3   71.39    5.85
   1 -13   3   77.64    5.75
  -1  13  -3   74.00    6.21
  -1 -13  -4    4.37    2.01
   1 -13   4    2.77    1.33
   1  13   4    4.58    2.25
  -1  13  -4    3.12    1.58
  -1  13  -4    0.06    1.88
   1 -13   4    2.31    1.67
  -1 -13  -5   25.22    4.08
   1 -13   5   34.87    4.62
  -1  13  -5   37.12    5.00
  -1  13  -5   32.78    4.53
   1 -13   5   34.92    4.31
   1  13   5   30.34    4.56
   1 -13   6    2.79    1.62
  -1 -13  -6    0.38    1.34
   1 -13   6    1.46    1.70
   1  13   6    3.58    2.32
  -1  13  -6   -2.60    2.74
  -1  13  -6    2.86    1.87
   1 -13   7   28.75    4.49
  -1  13  -7   23.44    4.77
   1  13   7   33.23    5.46
   1 -13   7   20.99    4.07
  -1 -13  -7   32.41    5.23
  -1  13  -7   30.15    5.23
   1 -13   8  102.01    9.00
  -1  13  -8  116.34   10.68
   1  13   8  110.34    9.97
   1 -14  -8   10.66    3.28
  -1 -14   8   11.03    3.16
   1  14  -8    8.06    2.85
  -1  14   8    8.10    3.06
  -1 -14   8    7.46    2.39
   1  14  -8   12.70    3.84
   1  14  -7    0.99    1.53
   1 -14  -7    5.33    2.53
  -1  14   7   -1.10    1.75
   1  14  -7   -2.69    2.98
   1 -14  -7    1.82    2.38
  -1 -14   7   -0.07    1.41
  -1 -14   7   -0.01    1.24
   1 -14  -6   32.43    4.65
   1  14  -6   18.66    3.53
  -1 -14   6   27.71    4.18
  -1  14   6   16.24    3.40
   1 -14  -6   20.97    4.23
   1  14  -6   23.60    4.31
  -1 -14   6   24.63    3.79
   1 -14  -5    3.36    1.65
   1  14  -5    6.39    2.53
   1 -14  -5    4.62    2.67
  -1 -14   5    2.95    1.90
  -1  14   5    3.98    2.10
   1  14  -5    4.16    1.71
   1 -14  -4   63.77    6.14
  -1 -14   4   69.14    5.90
   1 -14  -4   59.82    5.25
  -1  14   4   60.15    4.49
   1  14  -4   56.35    5.29
  -1  14   4   53.78    5.37
   1  14  -4   70.81    6.03
  -1  14   3   31.10    3.87
   1  14  -3   31.15    3.87
   1 -14  -3   27.29    4.33
   1 -14  -3   33.10    3.65
  -1  14   3   31.34    3.31
  -1 -14   3   34.23    4.15
   1  14  -3   28.67    3.54
  -1  14   3   33.18    3.28
   1  14  -2    2.54    1.68
   1 -14  -2    0.29    2.34
  -1  14   2    1.75    1.14
  -1  14   2    0.52    1.25
   1  14  -2    1.34    1.08
   1  14  -2    2.75    1.58
  -1  14   2    1.98    1.16
   1 -14  -2    2.42    1.31
  -1 -14   2    3.29    1.78
  -1  14   1   25.85    3.03
  -1  14   1   22.14    2.87
   1  14  -1   27.14    3.72
   1 -14  -1   20.03    3.25
   1  14  -1   26.16    2.48
   1  14  -1   26.13    3.08
   1 -14  -1   26.11    2.96
  -1 -14   1   26.36    3.33
  -1  14   0    7.16    1.60
   1 -14   0    6.13    1.99
  -1 -14   0    7.47    1.91
  -1  14   0    8.52    1.98
   1  14   0    9.13    2.23
   1 -14   0    8.05    1.72
   1 -14   1  768.88   21.23
  -1 -14  -1  738.03   21.97
   1 -14   1  757.77   20.60
  -1  14  -1  710.87   21.67
  -1  14  -1  660.46   18.64
   1  14   1  675.26   21.65
   1 -14   2   79.99    5.66
   1  14   2   79.45    6.28
   1 -14   2   81.83    5.45
  -1  14  -2   84.96    6.48
  -1 -14  -2   77.88    5.99
  -1 -14  -3   13.84    2.73
  -1  14  -3    9.10    2.16
   1 -14   3   15.10    2.69
   1  14   3   14.79    2.96
   1 -14   3   16.93    3.14
  -1  14  -3   18.45    3.35
  -1 -14  -4    0.07    1.50
   1 -14   4    0.52    1.24
   1  14   4    1.00    1.86
  -1  14  -4   -0.62    2.03
  -1  14  -4    0.68    1.63
   1 -14   4    1.15    1.50
  -1 -14  -5   23.05    4.00
   1 -14   5   31.75    4.14
   1  14   5   28.00    4.38
   1 -14   5   31.84    4.42
  -1  14  -5   20.90    3.87
  -1  14  -5   21.55    4.00
  -1 -14  -6   28.60    4.74
   1 -14   6   25.85    3.99
  -1  14  -6   24.15    4.47
   1  14   6   20.15    4.27
  -1  14  -6   14.89    3.49
   1 -14   6   22.63    4.09
   1 -14   7   53.08    6.11
   1 -14   7   49.56    6.11
  -1  14  -7   47.10    6.51
  -1  14  -7   47.22    6.55
  -1 -14  -7   63.12    7.30
   1  14   7   61.02    7.14
   1 -15  -8   -0.63    1.68
  -1 -15   8    1.53    1.68
   1  15  -8    0.06    1.28
  -1 -15   8   -1.78    1.55
  -1  15   8    0.68    1.50
   1  15  -8    3.59    3.11
  -1 -15   7    3.71    2.11
  -1  15   7    8.14    2.87
   1  15  -7    5.78    2.31
   1 -15  -7    2.68    2.63
   1  15  -7    8.31    3.19
  -1 -15   7    2.56    1.48
   1 -15  -7    3.95    1.98
   1  15  -6   13.16    3.10
  -1 -15   6    7.21    2.59
  -1  15   6    9.57    2.92
   1 -15  -6    7.01    2.97
   1  15  -6    3.52    2.76
  -1 -15   6    9.66    2.76
   1 -15  -6    8.81    2.48
  -1  15   5   30.63    4.34
   1 -15  -5   37.53    4.68
   1 -15  -5   25.59    4.56
   1  15  -5   27.89    4.29
  -1 -15   5   33.76    4.61
   1  15  -5   35.88    4.67
   1 -15  -4   -0.35    1.13
  -1  15   4    2.72    1.23
  -1  15   4   -0.24    1.69
   1 -15  -4   -0.84    2.35
   1  15  -4    1.76    1.45
   1  15  -4    1.16    1.79
  -1 -15   4    0.88    1.34
  -1  15   3   38.84    3.66
  -1  15   3   42.39    3.96
   1 -15  -3   38.61    4.82
   1  15  -3   41.78    4.76
   1  15  -3   41.16    4.16
   1 -15  -3   47.09    4.44
  -1 -15   3   40.16    4.62
  -1  15   3   42.87    4.57
   1  15  -2    8.32    1.89
  -1  15   2    6.24    1.75
   1 -15  -2    3.66    2.44
   1  15  -2    5.79    2.22
   1  15  -2    5.14    1.36
  -1  15   2    4.68    1.50
  -1  15   2    5.82    1.76
  -1 -15   2   10.00    2.33
   1 -15  -2    6.80    1.94
  -1  15   1    7.00    1.89
   1 -15  -1    5.89    2.32
   1  15  -1    9.63    2.15
   1  15  -1    6.45    2.26
   1  15  -1    8.77    1.53
  -1 -15   1    9.40    2.39
  -1  15   1    5.80    1.62
   1 -15  -1    7.43    1.76
   1  15   0    6.05    2.08
  -1  15   0    6.10    1.63
  -1 -15   0    5.97    2.02
   1 -15   0    3.92    1.89
  -1  15   0    5.18    1.81
   1 -15   0    5.34    1.61
  -1 -15  -1  115.15    7.46
   1  15   1  121.99    7.65
  -1  15  -1  112.23    5.81
   1 -15   1  122.89    6.83
  -1  15  -1  127.62    7.77
   1 -15   1  125.55    7.40
   1 -15   2   63.48    5.17
   1 -15   2   58.88    4.88
  -1  15  -2   58.09    5.48
   1  15   2   49.60    5.14
  -1 -15  -2   50.28    5.00
  -1 -15  -3   25.92    3.80
   1 -15   3   22.19    3.60
   1 -15   3   24.84    3.46
   1  15   3   24.81    4.12
  -1  15  -3   26.40    4.20
   1 -15   4    0.47    1.63
   1 -15   4   -0.57    1.39
  -1  15  -4   -0.61    1.53
  -1  15  -4   -3.31    2.28
  -1 -15  -4    2.40    1.61
   1  15   4    1.99    1.74
  -1 -15  -5    0.67    1.48
   1 -15   5   -0.95    1.20
   1  15   5    0.12    1.59
  -1  15  -5   -0.46    1.70
  -1  15  -5   -1.86    2.57
   1 -15   5    1.86    1.56
  -1 -15  -6    3.11    2.17
   1  15   6    3.04    2.08
   1 -15   6    0.65    1.23
  -1  15  -6   -1.55    2.56
   1 -15   6   -0.18    1.78
  -1  15  -6    2.42    2.13
  -1  15  -7   80.76    8.71
   1  15   7   76.19    8.13
  -1 -15  -7   74.20    8.08
   1 -15   7   67.17    7.28
   1 -16  -8    8.42    2.74
  -1 -16   8   13.75    3.53
  -1  16   8   19.08    4.30
   1  16  -8    9.50    3.35
   1  16  -8   11.77    3.49
  -1 -16   8   13.94    3.32
  -1  16   7   40.36    5.74
   1  16  -7   41.51    5.83
  -1 -16   7   42.57    5.81
   1  16  -7   50.92    6.68
   1 -16  -7   48.93    6.48
   1 -16  -7   45.02    5.95
  -1 -16   7   35.22    4.97
  -1 -16   6   94.48    8.14
  -1 -16   6   72.80    6.83
   1 -16  -6   69.59    7.37
   1  16  -6   88.00    8.00
   1 -16  -6   85.35    7.62
  -1  16   6   64.88    6.89
   1  16  -6   67.75    7.11
   1 -16  -5    5.97    2.24
  -1  16   5    8.00    2.56
   1 -16  -5    8.39    3.19
   1  16  -5    6.96    2.40
   1  16  -5    7.55    2.84
  -1 -16   5    6.51    2.24
  -1  16   4  101.35    7.71
   1 -16  -4  103.15    8.32
   1  16  -4  102.99    7.79
   1 -16  -4  117.69    7.78
  -1  16   4  102.56    6.36
   1  16  -4  105.48    7.45
  -1 -16   4  110.00    8.06
  -1 -16   3  119.72    8.20
  -1  16   3  125.45    8.21
   1 -16  -3  122.41    8.76
   1  16  -3  120.04    8.19
  -1  16   3  126.28    7.17
  -1  16   3  122.44    6.68
   1 -16  -3  119.21    7.46
   1  16  -3  121.71    7.35
  -1  16   2   24.74    3.41
   1 -16  -2   18.10    3.60
   1  16  -2   18.81    2.46
   1  16  -2   23.75    2.93
   1  16  -2   22.52    3.69
  -1  16   2   14.48    2.66
  -1 -16   2   23.71    3.53
   1 -16  -2   22.89    3.08
  -1  16   2   24.17    2.89
   1 -16  -1   50.85    5.22
   1  16  -1   43.40    4.20
  -1  16   1   39.56    4.08
   1  16  -1   36.47    4.42
  -1 -16   1   44.65    4.63
  -1  16   1   46.12    4.31
   1 -16  -1   47.14    4.25
   1  16   0  312.56   12.99
  -1 -16   0  368.75   14.25
   1 -16   0  356.28   13.03
  -1  16   0  340.78   13.51
   1 -16   0  333.08   13.82
  -1  16   0  327.92   12.31
  -1  16  -1   22.49    3.44
  -1  16  -1   21.50    2.55
   1 -16   1   27.58    3.74
   1  16   1   20.86    3.49
  -1 -16  -1   24.31    3.67
   1 -16   1   24.11    3.11
   1 -16   2    9.82    2.34
  -1  16  -2    9.45    2.60
   1 -16   2    8.77    2.27
   1  16   2   12.10    2.73
  -1 -16  -2    7.10    2.22
  -1  16  -3    5.50    2.45
   1  16   3    3.19    1.99
   1 -16   3    4.73    2.10
   1 -16   3    4.98    1.82
  -1 -16  -3    4.98    1.95
  -1 -16  -4    1.86    1.67
   1 -16   4    0.32    1.13
  -1  16  -4    1.09    1.32
   1 -16   4    2.54    1.78
   1  16   4    3.33    2.14
  -1 -16  -5    0.14    1.54
   1 -16   5    2.35    1.59
  -1  16  -5    0.13    1.21
   1  16   5    2.17    2.17
   1 -16   5    2.95    1.69
  -1 -16  -6   -0.85    1.56
   1 -16   6    2.80    1.86
   1  16   6    1.59    1.77
  -1  16  -6   -0.54    1.45
   1 -16   6   -4.08    2.22
   1  16   7   72.98    8.13
  -1  16  -7   67.55    8.05
  -1 -16  -7   67.90    7.72
   1 -16   7   67.34    7.45
   1  17  -8   10.65    2.88
  -1 -17   8   12.07    3.15
   1 -17  -7   18.70    3.92
  -1 -17   7   26.51    4.62
   1  17  -7   23.01    4.46
  -1 -17   7   19.71    3.76
   1 -17  -7   23.58    4.83
   1  17  -7   22.60    4.80
  -1  17   7   24.99    4.65
   1 -17  -6    6.49    2.27
   1  17  -6    9.71    2.96
  -1  17   6   13.20    3.46
  -1 -17   6   12.97    3.53
   1 -17  -6    9.65    3.43
   1  17  -6    5.33    2.85
  -1 -17   6   11.72    3.11
   1 -17  -5    7.09    2.27
  -1 -17   5    9.42    2.75
  -1  17   5    6.88    2.51
   1 -17  -5    6.65    3.18
   1  17  -5    4.89    2.51
   1  17  -5    6.07    2.49
  -1  17   4    0.07    1.53
   1 -17  -4    0.80    1.28
  -1 -17   4    1.31    1.91
   1  17  -4   -0.44    1.92
   1 -17  -4    1.62    2.54
   1  17  -4    0.59    1.72
  -1  17   3    0.00    1.08
  -1 -17   3   -0.11    1.51
   1  17  -3   -0.68    1.70
  -1  17   3    0.13    1.65
   1  17  -3    0.34    1.47
   1 -17  -3   -0.20    2.66
   1 -17  -3   -0.82    1.14
  -1  17   2    0.83    1.15
   1 -17  -2    2.83    1.52
   1  17  -2    3.44    1.95
  -1  17   2    1.27    1.57
  -1  17   2    2.79    1.50
   1 -17  -2    3.01    2.17
  -1 -17   2    1.35    1.19
   1 -17  -1    0.03    2.32
   1  17  -1    1.43    1.32
  -1  17   1    1.97    1.37
  -1 -17   1    2.28    1.55
   1  17  -1    5.17    2.17
  -1  17   1    3.93    1.53
   1 -17  -1    1.07    1.19
  -1  17   0  208.13    9.62
   1  17   0  227.46   11.48
  -1  17   0  217.99   10.75
   1 -17   0  229.08   10.33
   1  17   0  220.32   10.62
  -1 -17   0  239.91   11.42
   1 -17   0  229.40   11.46
   1  17   1   89.96    6.95
  -1 -17  -1   90.38    6.89
   1 -17   1   84.82    6.67
  -1  17  -1   94.15    7.07
   1 -17   1  100.35    6.56
  -1 -17  -2  175.37   10.04
  -1  17  -2  176.48   10.42
   1 -17   2  171.63    9.32
   1  17   2  175.15   10.27
   1 -17   2  193.35   10.05
  -1  17  -3   30.31    4.73
  -1 -17  -3   36.81    4.63
   1  17   3   34.31    4.75
   1 -17   3   35.40    4.25
   1 -17   3   31.49    4.38
   1 -17   4   17.19    3.23
   1  17   4   13.42    3.61
   1 -17   4   15.98    3.45
  -1  17  -4    9.86    2.95
  -1 -17  -4   18.80    3.52
   1 -17   5   42.56    5.26
   1  17   5   40.71    5.73
  -1 -17  -5   48.15    5.86
  -1  17  -5   55.83    6.74
   1 -17   5   40.28    5.71
   1 -17   6   69.24    6.94
  -1  17  -6   78.87    8.31
   1  17   6   69.93    7.75
  -1 -17  -6   66.28    7.32
   1 -17   6   73.88    7.67
  -1 -18   7    2.25    1.88
  -1  18   7    5.54    2.52
   1  18  -7    7.78    3.16
   1  18  -7    6.36    3.06
   1 -18  -7    6.82    2.73
  -1 -18   7    4.57    2.08
   1 -18  -6    9.21    2.73
  -1 -18   6    9.59    3.27
   1 -18  -6    8.43    3.47
  -1  18   6   13.19    3.61
   1  18  -6    9.63    3.04
   1  18  -6   16.63    4.01
  -1 -18   6   12.66    3.17
   1 -18  -5    1.28    1.49
   1  18  -5    0.37    1.93
   1 -18  -5    3.10    3.02
  -1 -18   5   -0.81    1.62
  -1  18   5    1.07    1.91
   1  18  -5   -1.69    2.69
   1  18  -4    1.96    1.59
   1 -18  -4    1.80    1.60
  -1 -18   4    2.35    1.36
   1  18  -4    4.34    2.06
   1 -18  -4    1.76    2.43
  -1  18   4    3.31    1.77
  -1  18   3   -0.31    1.05
   1 -18  -3    3.88    1.58
  -1  18   3    3.65    1.86
   1 -18  -3    5.63    3.14
  -1 -18   3    3.18    2.01
   1  18  -3    1.86    1.81
  -1  18   2    0.31    1.12
  -1  18   2   -0.05    0.92
   1 -18  -2   -1.51    2.34
  -1  18   2   -1.31    1.76
   1  18  -2    0.73    1.68
  -1 -18   2   -1.69    1.41
   1 -18  -2    1.48    1.31
   1 -18  -1    3.91    2.53
  -1  18   1    1.01    1.42
   1  18  -1    2.63    1.70
  -1  18   1   -0.55    1.48
   1  18  -1    0.10    1.39
  -1 -18   1    1.48    1.41
   1 -18  -1    2.43    1.41
  -1  18   0  141.15    7.89
   1  18   0  148.65    9.35
   1  18   0  139.65    8.44
   1 -18   0  141.17    9.23
  -1 -18   0  159.46    9.38
   1 -18   0  146.57    8.35
  -1  18   0  147.08    8.90
  -1  18  -1   44.41    5.09
   1 -18   1   43.61    5.07
   1  18   1   49.39    5.34
   1 -18   1   43.80    4.46
  -1 -18  -1   46.93    5.17
   1 -18   2    5.83    2.14
   1 -18   2    4.74    2.11
   1  18   2    9.96    3.17
  -1  18  -2    3.31    1.99
  -1 -18  -2    7.13    2.24
   1 -18   3   48.37    5.29
  -1  18  -3   46.05    5.68
   1  18   3   57.51    6.14
  -1 -18  -3   43.38    5.22
   1 -18   3   45.09    5.36
   1 -18   4    5.13    1.99
   1 -18   4    3.84    2.26
  -1  18  -4    6.82    2.82
   1  18   4    8.34    3.28
  -1 -18  -4    3.85    1.97
  -1 -18  -5    0.74    1.45
   1 -18   5    2.64    1.60
  -1  18  -5    0.85    1.76
   1  18   5    1.19    2.45
   1 -18   5    0.87    1.91
  -1 -18  -6   42.43    6.02
  -1  18  -6   40.00    6.21
   1  18   6   46.06    6.42
   1 -18   6   36.34    5.68
   1  19  -7    7.56    3.25
   1 -19  -7    4.89    2.38
  -1 -19   7    7.77    2.99
   1  19  -7    6.43    2.74
   1 -19  -7    7.41    3.40
  -1 -19   7    6.96    2.67
  -1  19   7    6.17    2.81
  -1 -19   6  303.76   16.23
  -1  19   6  296.85   16.21
   1  19  -6  279.23   15.94
   1  19  -6  285.91   15.62
   1 -19  -6  263.29   15.75
   1 -19  -6  308.55   15.79
  -1 -19   6  254.07   14.49
  -1 -19   5  124.17    9.74
   1 -19  -5   96.32    9.21
   1  19  -5  119.34    9.63
  -1  19   5  115.81    9.39
   1  19  -5  120.17    9.15
   1 -19  -5  129.42    9.28
  -1 -19   4   31.03    4.60
   1 -19  -4   25.51    3.88
   1  19  -4   22.18    4.09
  -1  19   4   23.90    4.10
   1 -19  -4   24.87    4.93
  -1 -19   3   24.91    4.23
  -1  19   3   18.09    3.06
   1  19  -3   12.87    3.16
  -1  19   3   24.17    4.08
   1 -19  -3   21.30    4.42
   1 -19  -3   19.26    3.29
   1  19  -2    0.52    1.60
  -1  19   2   -0.08    1.23
  -1  19   2    1.30    1.37
  -1 -19   2    1.32    1.53
   1 -19  -2    1.25    2.47
   1 -19  -2    0.72    1.10
  -1  19   1   16.75    3.04
  -1  19   1   22.31    3.40
   1 -19  -1   20.69    3.21
   1  19  -1   22.88    3.29
   1  19  -1   21.54    3.82
   1 -19  -1   19.45    3.91
  -1 -19   1   17.54    3.31
  -1  19   0   70.16    6.28
   1 -19   0   67.54    5.74
   1  19   0   65.37    6.34
   1 -19   0   60.30    6.39
   1  19   0   70.48    6.10
  -1 -19   0   65.95    6.12
  -1  19   0   64.99    5.38
   1  19   1   23.76    3.89
  -1 -19  -1   26.15    4.01
   1 -19   1   22.86    3.92
   1  19   1   28.40    4.29
  -1  19  -1   21.37    3.75
   1 -19   1   30.04    3.81
   1 -19   2    2.83    1.77
   1  19   2    2.62    1.67
  -1  19  -2    2.52    1.69
  -1 -19  -2    4.57    2.23
   1 -19   2    4.36    2.32
   1 -19   3    2.84    2.23
  -1  19  -3    1.56    1.80
   1 -19   3    0.08    1.45
   1  19   3    0.38    2.13
  -1 -19  -3    1.51    1.77
   1 -19   4   37.34    5.00
   1  19   4   36.48    5.47
  -1  19  -4   36.79    5.55
   1 -19   4   37.81    5.29
  -1 -19  -4   36.61    5.25
   1 -19   5   28.59    4.50
   1 -19   5   28.26    4.94
   1  19   5   40.93    6.04
  -1  19  -5   33.77    5.64
  -1 -19  -5   42.11    5.75
  -1 -19  -6    2.69    2.58
  -1  19  -6    6.19    2.89
   1  19   6    6.61    2.77
   1 -19   6    4.80    2.48
   1  20  -7    6.37    3.17
   1 -20  -6   43.31    5.90
  -1 -20   6   42.45    6.12
   1  20  -6   34.08    5.51
  -1  20   6   32.21    5.42
   1  20  -6   41.45    5.95
   1 -20  -6   32.79    5.92
  -1 -20   6   32.40    5.16
  -1  20   5    0.00    1.59
   1 -20  -5    5.58    3.13
   1  20  -5    0.34    1.60
  -1 -20   5    1.55    1.83
   1 -20  -5   -0.28    1.28
   1 -20  -4    1.07    2.59
   1  20  -4    4.48    2.58
  -1  20   4    8.75    2.86
  -1 -20   4    1.24    1.73
   1 -20  -4    4.78    1.98
  -1 -20   3    9.79    3.00
  -1  20   3   14.51    3.31
   1 -20  -3    9.02    3.39
  -1  20   3    4.90    1.86
   1  20  -3    7.14    2.73
   1 -20  -3   13.85    2.87
   1  20  -2   17.79    3.71
  -1  20   2   14.65    2.93
   1 -20  -2   19.77    4.27
  -1  20   2   26.23    3.98
  -1 -20   2   24.76    3.97
   1 -20  -2   24.07    3.64
   1 -20  -1    5.28    2.83
  -1 -20   1    5.56    2.11
  -1  20   1    6.62    2.02
  -1  20   1    3.26    1.76
  -1  20   1    4.01    1.72
   1 -20  -1    3.77    1.65
   1  20  -1    4.02    1.91
   1  20   0  156.59   10.15
   1  20   0  156.48    9.52
   1 -20   0  177.10    9.72
  -1 -20   0  160.70   10.15
  -1  20   0  144.85    9.51
   1 -20   0  136.99    9.87
   1  20   1   33.24    4.90
   1 -20   1   44.65    5.48
  -1  20  -1   29.20    4.41
   1 -20   1   39.31    4.50
  -1 -20  -1   43.30    5.19
   1  20   1   46.84    5.41
   1  20   2    4.62    2.31
   1 -20   2    1.32    1.59
  -1  20  -2    0.05    1.74
  -1 -20  -2   -0.67    1.45
   1 -20   3    6.82    2.28
   1  20   3   11.22    3.39
  -1  20  -3    4.42    2.32
  -1 -20  -3    7.30    2.56
   1 -20   3    4.36    2.43
   1 -20   4   65.79    6.76
   1  20   4   57.70    6.99
  -1  20  -4   63.01    7.47
  -1 -20  -4   65.81    7.10
   1 -20   4   62.78    6.88
   1  20   5    4.63    2.82
  -1  20  -5    7.39    3.11
  -1 -20  -5   10.53    3.07
   1 -20   5    4.96    2.51
  -1 -21   6    2.52    1.98
   1  21  -6    2.41    2.03
   1 -21  -6    7.94    3.63
  -1  21   6   -0.32    2.16
  -1 -21   6    2.14    1.99
   1 -21  -6    4.21    2.10
   1  21  -5    2.44    2.32
  -1 -21   5    2.80    2.45
   1 -21  -5    5.21    2.26
  -1  21   5    4.46    2.54
   1 -21  -5    6.87    3.53
   1 -21  -4    4.03    2.91
   1  21  -4    2.33    2.21
   1 -21  -4    1.84    1.68
  -1 -21   4    3.80    2.02
  -1  21   4    4.58    2.30
  -1 -21   3    1.16    1.67
   1 -21  -3    2.21    2.81
   1  21  -3   -0.23    1.43
  -1  21   3    0.11    1.31
  -1  21   3   -1.55    1.39
   1 -21  -3   -1.88    1.48
   1 -21  -2   23.96    4.78
  -1  21   2   23.07    3.83
   1  21  -2   14.30    3.46
  -1  21   2   24.34    3.75
  -1 -21   2   21.41    3.89
   1 -21  -2   28.20    4.00
   1 -21  -1   21.23    4.70
   1 -21  -1   17.99    3.21
  -1  21   1   24.74    3.76
   1  21  -1   31.62    4.76
  -1 -21   1   27.36    4.30
  -1  21   1   24.09    3.89
   1  21   0    0.11    1.75
  -1  21   0    3.50    2.49
   1  21   0    4.24    2.41
   1 -21   0   -0.23    1.14
  -1 -21   0    2.38    1.94
   1 -21   0    3.29    2.63
  -1  21  -1   17.20    3.66
   1  21   1   23.09    3.95
   1  21   1   12.44    3.23
   1 -21   1   23.29    4.22
   1 -21   1   19.24    3.21
  -1 -21  -1   22.41    3.99
   1 -21   2    0.04    1.22
  -1  21  -2    0.42    1.69
   1  21   2   -1.19    1.85
   1  21   2    1.59    1.92
  -1 -21  -2    0.08    1.31
   1 -21   3   88.88    7.77
   1  21   3   99.45    8.97
  -1  21  -3   95.52    8.88
  -1 -21  -3   89.18    8.19
   1 -21   3   91.56    8.22
   1  21   4   14.27    3.82
  -1  21  -4    7.87    3.03
   1 -21   4   16.04    3.72
  -1 -21  -4   11.54    3.16
  -1  21  -5    6.20    2.84
   1  21   5   12.47    4.13
   1 -21   5    7.96    3.01
  -1 -21  -5    7.58    2.91
   1 -22  -6    5.54    2.34
  -1  22   5   18.33    4.15
   1 -22  -5   18.67    4.64
  -1 -22   5   17.80    4.06
   1  22  -5   14.10    3.76
   1 -22  -5   21.39    3.97
  -1  22   4    1.70    1.81
   1  22  -4    1.49    1.96
   1 -22  -4    3.41    1.94
  -1 -22   4   -0.62    1.64
   1 -22  -4    6.81    3.59
  -1 -22   3   21.63    4.25
   1  22  -3   16.93    3.77
  -1  22   3   26.92    4.50
   1 -22  -3   16.95    4.91
   1 -22  -3   27.87    4.36
  -1  22   2    1.01    1.30
  -1  22   2    1.97    1.80
   1  22  -2    3.12    2.12
  -1 -22   2   -0.60    1.44
   1 -22  -2    3.11    2.76
   1 -22  -2    3.59    1.90
   1  22  -1  147.54   10.44
  -1 -22   1  152.73   10.33
   1 -22  -1  143.93   10.94
  -1  22   1  155.41    9.81
   1 -22  -1  153.48    9.72
  -1  22   1  150.54    9.93
   1  22   0   35.08    4.66
  -1  22   0   35.68    4.99
   1 -22   0   39.71    4.79
   1  22   0   30.57    4.85
   1 -22   0   32.77    5.13
  -1 -22   0   36.93    5.08
   1  22   1    5.38    2.63
  -1  22  -1    9.51    3.08
   1  22   1    7.29    2.63
   1 -22   1    6.48    2.89
  -1 -22  -1    9.29    2.88
   1 -22   2    4.57    2.10
  -1  22  -2    4.84    2.36
   1  22   2    6.82    2.86
   1  22   2   10.51    3.35
  -1 -22  -2    6.26    2.37
   1 -22   3    1.71    1.60
  -1  22  -3   -0.08    1.40
   1  22   3    2.01    2.04
  -1 -22  -3    0.12    1.38
   1  22   3    3.93    2.49
   1 -22   3    2.14    2.21
  -1  22  -4    2.19    1.92
   1  22   4    4.64    2.53
  -1 -22  -4    5.07    2.49
   1 -22   4    3.20    2.39
  -1 -23   5    7.13    2.87
   1 -23  -5   10.07    2.92
  -1  23   5    5.98    2.75
  -1  23   4    0.55    1.31
   1  23  -4    1.08    1.75
   1 -23  -4    1.54    3.20
  -1 -23   4   -1.31    1.56
   1 -23  -4    1.57    1.47
   1  23  -3    5.14    2.41
  -1  23   3    0.35    1.47
   1 -23  -3    1.73    2.69
   1 -23  -3    2.51    1.56
  -1 -23   3    6.16    2.84
  -1 -23   2   38.78    5.63
  -1  23   2   29.22    4.30
   1  23  -2   24.78    4.68
  -1  23   2   35.83    5.11
   1 -23  -2   27.65    5.54
  -1 -23   2   30.70    4.89
   1 -23  -2   34.99    4.75
  -1 -23   1   11.74    3.41
   1 -23  -1   14.05    4.24
   1  23  -1    8.56    3.08
   1 -23  -1   10.24    2.72
  -1  23   1   10.95    2.88
  -1  23   0   13.56    3.33
   1  23   0   14.10    3.43
   1 -23   0   14.42    4.01
  -1 -23   0   14.57    3.64
   1  23   1   36.95    5.49
   1 -23   1   42.58    5.52
  -1  23  -1   42.36    5.84
  -1 -23  -1   60.17    6.67
   1  23   1   47.30    5.99
   1 -23   1   50.19    6.37
   1 -23   2   -0.93    1.52
  -1  23  -2   -1.16    2.02
   1 -23   2    0.90    1.72
   1  23   2    2.46    2.17
   1  23   2   -1.11    2.29
  -1 -23  -2   -1.07    1.42
   1  23   3   22.04    4.37
   1  23   3   18.24    4.21
  -1  23  -3   12.68    3.54
  -1 -23  -3   18.01    3.93
   1 -23   3   17.05    3.95
   1  23   4    8.29    3.45
  -1 -23  -4   -1.15    1.47
  -1  24   4    2.44    1.98
   1  24  -4    3.78    2.59
   1 -24  -4    2.83    3.19
  -1 -24   4   -1.10    1.60
   1 -24  -4    1.65    1.41
   1 -24  -3    5.10    3.53
   1  24  -3   -0.13    1.48
  -1  24   3    2.38    1.88
  -1 -24   3   -1.57    1.62
   1 -24  -3    4.79    2.14
   1  24  -2    3.28    2.19
   1 -24  -2   13.28    4.16
  -1  24   2   15.37    3.27
  -1 -24   2    8.64    2.89
  -1  24   2    9.06    2.80
   1 -24  -2    8.09    2.42
  -1  24   1   15.96    3.45
   1  24  -1   17.16    4.08
   1 -24  -1   22.21    5.07
  -1 -24   1   19.29    4.01
  -1  24   0   33.54    5.07
   1 -24   0   36.34    5.94
  -1 -24   0   33.81    5.21
   1  24   0   30.47    5.05
   1  24   1  133.24   10.21
   1  24   1   97.36    8.92
  -1 -24  -1  122.94    9.86
  -1  24  -1  113.27    9.72
   1 -24   1  120.69    9.92
   1 -24   1  120.78    9.53
  -1  24  -2   16.36    4.03
  -1 -24  -2   17.62    3.82
   1  24   2   15.45    3.77
   1  24   2   12.80    3.60
   1 -24   2   12.78    3.28
   1  24   3   10.69    3.23
   1  24   3   16.78    4.21
  -1  24  -3   10.36    3.43
   1 -24   3   17.60    4.00
  -1 -24  -3   11.75    3.21
   1 -25  -4   24.16    4.31
   1  25  -3    6.25    2.73
   1 -25  -3    2.85    3.31
  -1 -25   3   -2.75    1.90
   1 -25  -3    3.66    1.86
  -1  25   3    5.18    2.28
   1  25  -2   -0.28    1.39
   1 -25  -2    4.07    3.13
  -1  25   2    1.00    1.59
  -1  25   1   17.53    3.87
   1 -25  -1   18.96    4.87
   1  25  -1   13.56    3.60
  -1 -25   1   16.27    3.70
  -1  25   0   35.43    5.41
   1 -25   0   44.80    6.61
  -1 -25   0   36.26    5.39
   1  25   0   26.77    4.87
   1  25   1   46.44    6.21
  -1  25  -1   42.20    6.03
   1  25   1   44.05    6.15
  -1 -25  -1   49.77    6.35
   1  25   2    5.28    2.72
   1 -25   2    2.47    1.95
   1  25   2   10.58    3.33
  -1  25  -2    7.30    2.91
  -1 -25  -2   12.85    3.29
   1  25   3    3.26    2.11
  -1  26   3    2.22    1.85
  -1 -26   2    3.57    2.56
   1 -26  -1   22.93    5.21
  -1  26   1   24.36    4.54
  -1 -26   1   25.88    4.64
   1  26  -1   22.09    4.67
   1  26   0   -1.51    1.99
  -1 -26   0   -2.83    1.95
  -1  26   0    1.17    1.55
   1  26   1    2.11    2.08
  -1 -26  -1   -1.09    1.27
  -1  26  -1    3.54    2.39
   1  26   2   -0.75    1.74
   1  26   2    3.07    2.17
  -1  27   1    4.13    2.35
  -2   0  10   18.31    4.15
   2   0 -10   13.81    3.71
  -2   0   9   -0.37    1.61
   2   0  -9    1.31    2.08
  -2   0   8    2.60    1.92
   2   0  -8    1.70    2.36
  -2   0   7    0.26    1.51
  -2   0   7    0.33    0.75
   2   0  -7   -1.32    2.44
  -2   0   6   -1.26    1.47
   2   0  -6   -0.05    0.84
  -2   0   6    3.11    1.14
   2   0  -6    1.95    2.30
  -2   0   5    0.27    0.31
   2   0  -5    0.55    0.40
   2   0  -5    0.65    1.87
  -2   0   5    0.75    1.06
  -2   0   5   -0.50    1.25
   2   0  -4  150.25    4.41
  -2   0   4  172.30    7.36
   2   0  -4  159.46    5.79
  -2   0   4  161.20    6.85
  -2   0   4  174.70    7.42
  -2   0   3   -0.81    0.94
  -2   0   3    0.35    1.01
   2   0  -3    0.35    0.74
  -2   0   3   -0.82    1.21
  -2   0   2  363.56    9.76
   2   0  -2  358.89   10.23
  -2   0   2  357.58    8.93
  -2   0   2  348.47   10.40
  -2   0   1    1.02    0.81
  -2   0   1    0.20    0.56
   2   0  -1    0.34    0.74
  -2   0   1    2.51    0.78
   2   0  -1    0.26    0.48
  -2   0   1    0.78    0.40
   2   0   0  577.47   16.42
   2   0   0  579.46   15.33
  -2   0   0  579.27   15.42
  -2   0   0  612.68   13.52
  -2   0  -1    0.38    0.88
   2   0   1    0.08    0.72
  -2   0  -1    0.23    0.54
   2   0   1    2.18    1.20
   2   0   2    6.19    1.14
  -2   0  -2    8.66    1.43
   2   0   2    7.83    1.42
  -2   0  -2    6.98    1.65
   2   0   2    7.09    1.75
   2   0   3   -0.76    0.92
  -2   0  -3    0.66    0.96
  -2   0  -3    0.86    1.08
   2   0   3    1.23    1.16
   2   0   4  287.45   11.06
  -2   0  -4  305.75   12.69
  -2   0  -4  298.22   11.41
   2   0   4  305.96   12.46
   2   0   4  299.35   11.24
  -2   0  -5    0.70    1.24
  -2   0  -5    1.70    1.60
   2   0   5   -0.03    1.11
   2   0   5    0.21    1.13
   2   0   5   -0.02    1.17
  -2   0  -6   58.83    5.97
   2   0   6   60.38    5.53
   2   0   6   55.13    5.64
  -2   0  -6   60.69    5.68
   2   0   7    2.68    1.82
  -2   0  -7    1.65    1.49
  -2   0  -7   -0.39    1.71
  -2   0  -8   33.16    4.88
   2   0   8   34.14    4.93
  -2   1  10    6.77    2.83
   2  -1 -10    7.53    3.09
   2   1 -10    4.63    2.75
  -2  -1  10    7.12    2.78
  -2   1   9   12.58    3.32
  -2  -1   9   10.51    3.12
   2  -1  -9   12.97    3.53
   2   1  -9   16.68    4.00
  -2   1   8   -0.07    1.65
  -2  -1   8    0.62    1.48
   2  -1  -8   -0.71    1.92
   2   1  -8    2.95    2.49
  -2  -1   7   15.06    3.11
   2   1  -7   14.70    3.38
  -2   1   7   13.46    2.44
  -2   1   7   15.07    3.13
  -2  -1   7   15.10    2.44
   2  -1  -7   18.26    3.51
  -2   1   6  140.47    8.23
   2   1  -6  130.40    5.32
   2  -1  -6  137.29    5.91
  -2  -1   6  142.31    7.21
  -2   1   6  140.91    7.40
  -2  -1   6  141.24    8.38
   2   1  -6  148.68    8.86
   2  -1  -6  151.24    8.80
  -2  -1   5   35.13    3.72
   2   1  -5   26.38    1.98
   2  -1  -5   31.95    3.73
  -2  -1   5   31.50    3.09
   2  -1  -5   24.61    1.34
  -2   1   5   27.91    2.95
  -2   1   5   31.89    3.45
  -2  -1   5   28.12    3.50
   2   1  -5   27.28    3.87
  -2   1   5   24.76    1.35
  -2  -1   5   26.94    1.86
  -2   1   4  393.84   12.49
  -2  -1   4  398.65   12.66
  -2  -1   4  394.32   12.45
  -2   1   4  395.24   12.57
  -2   1   4  397.92   12.37
  -2  -1   4  390.35   11.98
   2   1  -4  378.11   10.94
   2   1  -4  338.88    9.42
   2  -1  -4  367.96   10.20
  -2   1   3  815.03   20.41
  -2  -1   3  825.86   20.82
  -2  -1   3  853.23   20.85
  -2   1   3  883.94   21.38
  -2   1   3  838.89   20.97
   2  -1  -3  831.64   17.19
  -2  -1   3  830.06   21.17
   2  -1  -3  815.01   19.40
   2   1  -3  810.76   19.91
  -2  -1   2  197.54    6.52
  -2   1   2  201.41    5.42
   2  -1  -2  184.06    5.36
  -2   1   2  189.19    6.06
  -2  -1   2  189.26    6.89
   2   1  -2  200.20    6.87
  -2   1   2  212.85    7.53
  -2   1   2  201.13    6.94
  -2   1   2  198.29    6.96
   2  -1  -1   16.36    2.03
  -2   1   1   16.93    1.02
  -2  -1   1   13.66    1.24
  -2   1   1   16.75    1.98
  -2  -1   1   15.75    1.56
  -2  -1   1   16.56    1.58
  -2  -1   1   13.82    1.24
  -2   1   1   16.59    1.53
   2   1  -1   15.40    1.56
   2  -1  -1   14.32    1.44
  -2  -1   1   15.26    1.73
  -2   1   1   13.99    1.91
   2   1  -1   14.53    1.89
  -2   1   0  139.74    5.70
   2   1   0  148.15    5.87
   2   1   0  142.35    6.26
   2  -1   0  136.16    6.16
  -2  -1   0  136.23    5.67
  -2   1   0  140.25    3.87
   2  -1   0  154.82    5.84
  -2  -1   0  136.19    4.62
   2  -1   1  420.11   12.75
  -2  -1  -1  406.82   11.06
  -2   1  -1  422.76   12.76
   2  -1   1  437.88   12.78
  -2  -1  -1  429.49   12.85
  -2   1  -1  397.50   10.43
   2   1   1  430.56   12.75
   2   1   1  434.28   12.39
   2   1   2    2.63    0.99
  -2  -1  -2    1.38    0.86
  -2   1  -2    1.31    0.76
  -2  -1  -2    0.36    0.81
   2  -1   2    1.22    0.66
   2  -1   2    2.60    1.32
  -2   1  -2    1.55    1.04
   2   1   2    2.16    1.08
  -2   1  -3   81.63    5.66
   2   1   3   73.79    5.25
   2  -1   3   84.34    5.61
  -2  -1  -3   77.60    4.78
  -2  -1  -3   78.75    5.52
  -2   1  -3   72.47    4.48
   2  -1   3   67.54    4.29
   2   1   4    3.78    1.40
   2  -1   4    4.07    1.69
  -2  -1  -4    5.96    1.78
  -2   1  -4    4.80    1.50
  -2  -1  -4    3.06    1.57
   2   1   4    6.69    2.12
   2  -1   4   10.25    2.24
  -2   1  -4    2.30    1.65
   2   1   4    2.97    1.29
   2  -1   4    3.81    1.96
   2   1   5    2.06    1.40
   2  -1   5    0.57    1.07
  -2  -1  -5    2.80    1.36
  -2   1  -5    0.29    0.90
  -2  -1  -5    2.84    1.46
   2  -1   5    0.98    1.09
   2   1   5    1.83    1.40
  -2   1  -5    2.51    1.51
   2   1   5    2.05    1.60
   2  -1   5    3.55    1.75
   2  -1   6   18.64    3.14
  -2   1  -6   18.19    3.14
  -2  -1  -6   16.05    3.08
  -2   1  -6   17.15    3.44
   2   1   6   14.44    2.90
   2  -1   6   15.64    3.11
  -2  -1  -6   20.36    3.34
   2   1   6   11.62    2.86
  -2  -1  -7   28.02    4.28
  -2   1  -7   33.46    4.50
   2   1   7   31.51    4.54
  -2  -1  -7   23.64    4.13
  -2   1  -7   23.90    4.16
   2  -1   7   29.10    4.47
   2  -1   7   26.80    4.12
   2  -1   8    0.95    1.39
  -2   1  -8    3.76    1.91
   2  -1   8    1.46    2.09
  -2  -1  -8    3.01    1.76
  -2  -2  10    5.67    3.00
  -2   2  10    6.82    2.68
   2   2 -10    7.87    3.25
   2  -2 -10    4.52    2.77
  -2   2   9    1.97    1.71
  -2  -2   9    2.15    2.06
   2  -2  -9   -0.57    1.95
   2   2  -9   -0.28    2.23
  -2   2   8    9.39    2.89
  -2  -2   8    3.31    2.14
  -2   2   8    7.05    2.05
   2   2  -8    5.42    2.84
   2  -2  -8    7.85    2.67
  -2  -2   7   19.96    3.61
  -2   2   7   20.64    3.07
   2  -2  -7   26.00    3.97
   2   2  -7   18.92    4.07
  -2  -2   7   17.50    2.50
  -2   2   7   15.07    3.06
  -2  -2   6  276.32   11.98
   2  -2  -6  256.16    9.00
  -2   2   6  252.67   10.73
  -2  -2   6  247.36    9.81
   2   2  -6  278.28   12.67
   2  -2  -6  268.27   11.86
  -2  -2   6  229.34    8.03
  -2   2   6  271.46   11.88
  -2  -2   5   58.02    4.83
  -2  -2   5   46.53    2.74
  -2   2   5   57.29    4.33
  -2  -2   5   52.38    3.82
  -2   2   5   55.31    4.52
   2   2  -5   49.71    3.07
   2   2  -5   66.04    5.66
  -2  -2   5   62.14    4.82
   2  -2  -5   51.06    4.69
  -2   2   4    0.64    0.90
  -2  -2   4    0.56    1.07
   2   2  -4    2.61    1.59
  -2  -2   4    3.09    1.12
   2   2  -4    3.67    0.80
   2  -2  -4    2.54    0.75
  -2  -2   4    3.25    1.54
   2   2  -4    2.51    1.17
  -2   2   4    2.23    1.04
  -2   2   4    2.80    1.56
  -2  -2   3 1358.01   31.43
  -2   2   3 1385.81   31.68
  -2  -2   3 1355.82   31.69
   2  -2  -3 1351.55   29.88
  -2   2   3 1460.17   32.21
  -2   2   3 1361.62   30.95
   2   2  -3 1299.64   30.78
  -2   2   2  688.60   15.91
  -2  -2   2  672.97   16.76
   2   2  -2  698.39   17.21
  -2   2   2  721.84   18.00
  -2   2   2  678.81   15.08
  -2   2   2  694.19   17.33
   2  -2  -2  659.51   15.08
  -2  -2   2  667.90   17.13
   2  -2  -2  718.76   18.58
  -2   2   2  674.53   17.09
  -2   2   1  768.08   18.22
   2   2  -1  727.76   17.83
  -2   2   1  735.63   17.38
   2  -2  -1  774.56   19.71
  -2  -2   1  737.80   17.21
   2   2  -1  754.87   18.43
   2  -2  -1  725.78   17.29
  -2  -2   1  751.76   17.83
  -2  -2   1  721.63   18.10
  -2   2   1  774.84   18.12
  -2   2   1  722.26   15.37
   2   2   0 1759.49   37.83
  -2  -2   0 1603.06   35.18
   2  -2   0 1697.31   37.02
   2  -2   0 1742.23   38.44
  -2   2   0 1737.83   37.29
  -2  -2   0 1665.78   37.39
  -2  -2   0 1662.76   35.92
   2   2   0 1631.12   37.25
   2   2   1  254.69    9.12
  -2   2  -1  265.30    9.34
   2  -2   1  259.10    9.11
   2  -2   1  268.37    9.38
   2   2   1  262.27    8.68
  -2  -2  -1  252.17    7.98
  -2  -2  -1  263.74    9.40
  -2   2  -1  249.68    6.98
   2  -2   1  251.55    6.82
  -2   2  -2   61.97    4.49
   2   2   2   59.01    3.52
   2   2   2   58.66    4.23
   2  -2   2   56.19    4.17
  -2  -2  -2   52.28    3.51
  -2  -2  -2   52.30    4.21
  -2   2  -2   56.38    3.24
   2  -2   2   52.24    3.13
  -2  -2  -3  298.90   11.57
  -2   2  -3  280.49   11.38
   2   2   3  282.71   11.12
   2  -2   3  282.08   11.19
  -2  -2  -3  284.63   10.39
   2  -2   3  266.32    9.53
   2  -2   4    7.43    1.69
  -2  -2  -4    7.22    1.83
  -2  -2  -4    5.51    1.79
   2   2   4    9.92    2.39
   2  -2   4    9.72    1.97
   2  -2   4    7.12    2.22
   2   2   4    6.89    2.05
  -2   2  -4    6.70    2.01
   2   2   5   45.67    4.78
   2   2   5   46.51    4.48
  -2   2  -5   47.35    5.09
  -2  -2  -5   51.04    5.34
   2  -2   5   48.93    5.07
  -2  -2  -5   49.23    4.77
  -2   2  -5   52.64    4.66
   2  -2   5   48.54    4.46
   2  -2   6   11.96    2.69
  -2  -2  -6   11.41    2.57
  -2   2  -6    7.93    2.14
   2  -2   6   10.86    2.64
  -2   2  -6   12.28    3.01
   2   2   6    6.86    2.08
   2   2   6   10.92    2.71
  -2  -2  -6   10.30    2.60
   2  -2   7    5.05    2.00
  -2   2  -7    3.87    1.92
  -2  -2  -7    0.12    1.17
  -2  -2  -7    0.35    1.39
  -2   2  -7    2.22    1.66
   2   2   7    0.69    1.47
   2  -2   7    1.14    1.43
   2  -2   8    0.53    1.27
  -2  -2  -8   -1.32    1.68
  -2   2  -8   -0.04    1.36
  -2   2  -8   -0.33    1.30
   2  -2   8   -0.13    1.17
  -2   3  10    9.80    3.23
  -2  -3  10    7.81    3.00
   2  -3 -10   11.42    3.64
   2  -3 -10    5.26    2.62
   2   3 -10    6.38    2.93
  -2  -3   9   10.08    3.00
   2  -3  -9   12.39    3.37
   2   3  -9   11.86    3.50
  -2   3   9   14.95    3.66
  -2   3   8   -0.96    1.71
  -2  -3   8    0.72    1.69
  -2   3   8   -0.49    1.14
   2  -3  -8    2.30    2.05
   2   3  -8    0.66    2.45
  -2   3   7    5.46    2.14
  -2  -3   7    8.80    2.50
   2  -3  -7   10.85    2.83
  -2   3   7    9.76    2.25
   2   3  -7    5.67    2.56
  -2  -3   6  570.43   18.65
  -2   3   6  536.26   18.01
   2   3  -6  529.51   15.01
  -2  -3   6  487.41   15.32
   2   3  -6  537.61   19.27
  -2  -3   6  467.34   13.87
   2  -3  -6  531.06   17.92
   2  -3  -6  536.02   15.19
  -2   3   6  520.38   17.15
  -2   3   5    4.59    1.55
   2  -3  -5    4.91    1.89
  -2  -3   5    6.96    1.86
  -2  -3   5    9.99    2.43
   2   3  -5    4.43    2.35
   2   3  -5    4.36    1.00
  -2   3   5    6.68    1.71
  -2  -3   5    5.96    1.13
  -2  -3   4  165.64    7.52
  -2  -3   4  150.68    6.87
   2   3  -4  139.97    5.46
  -2   3   4  164.40    7.27
   2  -3  -4  147.20    5.02
   2   3  -4  148.92    6.50
   2   3  -4  165.03    8.21
  -2   3   4  158.18    7.26
  -2   3   4  160.68    7.02
  -2  -3   3   18.29    2.28
  -2   3   3   10.95    1.51
  -2   3   3   15.67    2.08
  -2   3   3   16.06    2.13
  -2  -3   3   10.93    1.77
   2   3  -3   11.38    1.78
  -2   3   2   37.46    1.87
   2  -3  -2   36.38    1.84
  -2   3   2   37.96    2.15
  -2   3   2   43.14    3.17
  -2  -3   2   35.34    2.64
  -2   3   2   41.62    3.03
   2   3  -2   43.72    3.00
  -2  -3   2   36.73    2.77
  -2   3   2   38.91    2.77
   2  -3  -2   40.70    3.41
  -2   3   1  239.29    7.35
   2  -3  -1  249.59    9.20
  -2   3   1  266.16    8.60
  -2   3   1  257.21    7.85
  -2  -3   1  248.18    7.56
   2   3  -1  261.33    8.32
  -2  -3   1  242.74    7.86
  -2   3   1  253.80    8.20
   2  -3  -1  228.06    7.13
   2  -3  -1  229.45    5.47
  -2  -3   1  235.60    7.88
   2   3   0   40.44    2.97
   2  -3   0   39.44    3.20
  -2   3   0   40.08    2.96
  -2  -3   0   35.29    1.89
  -2  -3   0   40.53    2.61
  -2  -3   0   39.36    2.97
   2   3   0   41.23    3.15
   2  -3   0   34.93    2.65
   2   3   1  341.53   10.53
  -2   3  -1  370.27   11.79
   2  -3   1  357.30    8.93
  -2  -3  -1  365.83   11.74
   2  -3   1  377.38   11.83
   2  -3   1  366.69   11.49
   2   3   1  354.33   11.46
  -2  -3  -1  354.34   10.47
   2   3   2  151.91    7.05
   2   3   2  141.26    5.75
  -2   3  -2  151.56    7.36
  -2  -3  -2  156.59    7.34
  -2  -3  -2  135.35    6.18
   2  -3   2  148.40    7.09
   2  -3   2  137.44    5.43
  -2  -3  -3  367.33   12.51
   2  -3   3  377.85   13.34
  -2  -3  -3  344.82   13.02
  -2   3  -3  374.77   13.66
   2   3   3  364.95   13.02
   2  -3   3  341.27   11.28
  -2   3  -4  510.69   17.72
  -2  -3  -4  493.70   16.58
   2   3   4  510.66   16.90
  -2  -3  -4  508.50   17.56
   2  -3   4  528.43   17.54
   2   3   4  519.48   17.18
   2  -3   4  494.40   14.60
   2  -3   4  475.99   15.48
  -2   3  -5   32.14    4.33
  -2  -3  -5   28.66    3.78
   2   3   5   27.60    3.54
   2   3   5   31.32    3.93
  -2  -3  -5   33.77    4.35
   2  -3   5   25.52    3.85
   2  -3   5   32.59    3.67
  -2  -3  -6    1.11    1.33
  -2   3  -6    0.56    1.18
   2   3   6   -0.45    1.36
   2  -3   6    0.93    1.07
  -2  -3  -6    0.40    1.43
  -2   3  -6    0.60    1.28
   2   3   6    0.17    1.27
   2  -3   6   -0.24    1.42
   2  -3   7   34.66    4.40
  -2  -3  -7   28.08    4.41
  -2   3  -7   32.45    4.40
   2   3   7   34.85    4.77
  -2   3  -7   36.87    5.22
   2  -3   7   29.71    4.67
  -2  -3  -7   33.45    4.86
  -2  -3  -8    1.54    1.77
  -2   3  -8    2.54    1.61
  -2   3  -8    1.86    1.62
   2  -3   8    1.99    1.57
   2  -3   8   -0.78    1.33
  -2   4  10    2.34    1.84
  -2  -4  10    0.57    1.81
   2  -4 -10   -2.48    2.15
   2   4 -10    0.19    2.36
  -2   4   9    3.39    2.34
  -2  -4   9    5.12    2.55
   2  -4  -9    5.30    2.39
   2  -4  -9    9.23    3.22
   2   4  -9    2.87    2.70
   2  -4  -8   22.50    3.78
  -2  -4   8   29.28    4.49
  -2   4   8   17.71    3.23
   2   4  -8   22.90    4.39
  -2   4   8   20.83    3.83
  -2  -4   7    7.12    2.47
  -2   4   7    6.32    2.33
  -2   4   7    6.77    2.06
   2  -4  -7    5.64    2.18
   2   4  -7    6.27    2.95
  -2  -4   6   20.47    3.39
   2  -4  -6   20.45    2.54
  -2   4   6   19.30    3.08
   2   4  -6   19.14    2.39
  -2   4   6   15.93    2.69
   2  -4  -6   19.27    3.36
   2   4  -6   25.16    4.47
  -2  -4   6   16.36    2.03
  -2  -4   5   28.50    3.49
  -2  -4   5   29.82    3.40
   2  -4  -5   25.22    2.58
  -2   4   5   27.95    3.16
   2   4  -5   23.37    2.34
  -2   4   5   29.29    3.27
   2  -4  -5   23.48    3.23
   2   4  -5   24.75    4.02
  -2  -4   4   92.70    5.59
  -2  -4   4   93.99    5.22
  -2   4   4   97.87    5.60
   2   4  -4   83.24    4.18
  -2   4   4   90.58    5.04
  -2   4   4   91.52    5.51
   2   4  -4   86.11    6.03
   2   4  -4   89.91    5.10
   2  -4  -4   82.88    3.42
  -2   4   3    0.95    0.68
  -2  -4   3    1.09    1.13
  -2   4   3    2.56    1.19
   2  -4  -3    2.16    0.98
   2   4  -3    0.89    1.09
  -2  -4   3    1.92    1.20
  -2   4   3    1.14    1.16
  -2   4   2    3.73    0.78
   2  -4  -2    3.11    0.58
  -2   4   2    4.38    1.19
  -2   4   2    3.33    0.61
  -2   4   2    3.51    1.11
   2   4  -2    2.85    1.15
  -2  -4   2    4.43    1.18
  -2  -4   2    2.54    1.06
  -2   4   2    4.11    1.28
   2  -4  -2    5.76    1.52
   2  -4  -1   53.70    3.85
  -2   4   1   51.60    2.92
  -2   4   1   56.04    3.52
   2   4  -1   55.97    3.48
  -2  -4   1   51.24    3.18
   2  -4  -1   52.36    1.75
   2  -4  -1   52.39    2.84
  -2  -4   1   49.02    3.12
  -2   4   1   62.29    3.29
  -2  -4   0  198.55    7.35
   2  -4   0  206.84    8.14
  -2  -4   0  213.37    7.13
  -2   4   0  206.28    7.44
   2   4   0  198.49    7.31
   2  -4   0  214.66    7.27
   2   4   0  217.31    7.46
   2   4   0  204.31    7.65
  -2   4   0  212.81    6.93
   2  -4   1  545.82   12.87
   2   4   1  538.97   14.54
  -2  -4  -1  575.06   15.92
  -2  -4  -1  545.60   14.81
   2  -4   1  567.64   16.05
   2   4   1  547.85   15.77
   2  -4   1  541.47   15.61
  -2   4  -1  540.69   15.87
   2  -4   2   11.64    1.53
  -2  -4  -2   11.92    1.85
  -2  -4  -2   14.71    2.22
   2   4   2   10.19    1.41
  -2   4  -2    8.41    1.86
   2   4   2   11.11    2.07
   2  -4   2    9.55    1.85
   2  -4   3   42.28    3.30
   2   4   3   48.22    4.28
  -2   4  -3   44.79    4.27
  -2  -4  -3   41.92    4.07
   2  -4   3   42.70    4.07
  -2  -4  -3   55.02    4.21
  -2  -4  -4   15.30    2.68
   2  -4   4   12.79    2.20
  -2  -4  -4   12.86    2.59
  -2   4  -4    7.22    2.16
   2   4   4   12.78    2.78
   2  -4   4   14.94    2.06
   2   4   4   11.82    2.52
   2  -4   4   14.50    2.79
   2   4   5   66.90    5.81
   2  -4   5   67.60    5.97
  -2  -4  -5   73.76    6.23
   2   4   5   66.39    5.56
  -2   4  -5   70.35    6.29
  -2  -4  -5   69.30    5.80
   2  -4   5   69.24    5.40
  -2   4  -6   92.64    7.76
   2   4   6   86.84    6.63
  -2  -4  -6   88.99    7.30
   2   4   6   96.64    7.47
   2  -4   6   82.86    7.07
  -2  -4  -6   85.74    7.05
   2  -4   6   91.13    6.74
   2  -4   7    3.34    1.97
  -2  -4  -7   -0.03    1.57
  -2   4  -7    2.33    1.51
   2  -4   7    3.39    1.90
  -2   4  -7   -0.58    1.68
  -2  -4  -7    1.87    1.71
   2   4   7    0.94    1.25
   2  -4   8    2.39    1.62
  -2  -4  -8    2.92    2.14
  -2   4  -8    5.96    2.30
  -2   4  -8    0.49    1.44
  -2   5  10    8.01    2.88
   2  -5 -10    8.83    3.28
  -2  -5  10    8.58    2.92
   2   5 -10    8.32    3.65
  -2   5   9    4.41    2.16
  -2  -5   9    2.56    2.10
   2  -5  -9    6.28    2.75
   2   5  -9    4.52    3.06
   2  -5  -8    3.65    2.30
  -2   5   8   -0.77    1.42
  -2  -5   8    1.40    1.58
   2  -5  -8    2.16    1.49
  -2   5   8    2.10    1.57
   2   5  -8    4.01    2.96
  -2   5   7    0.00    1.36
  -2  -5   7   -0.44    1.51
  -2   5   7    0.56    1.09
   2   5  -7    0.09    2.70
   2  -5  -7    3.72    1.64
   2  -5  -7    1.79    1.78
  -2   5   6   22.23    3.28
  -2  -5   6   21.34    3.46
   2   5  -6   23.40    4.21
   2   5  -6   25.32    2.86
  -2   5   6   22.00    3.21
   2  -5  -6   24.67    3.54
  -2  -5   6   19.67    2.33
   2  -5  -6   22.97    2.77
  -2  -5   5  594.97   18.82
  -2  -5   5  605.53   17.79
   2  -5  -5  591.51   16.83
   2   5  -5  593.03   16.73
  -2   5   5  628.24   18.84
   2   5  -5  593.74   20.12
   2  -5  -5  601.36   18.26
  -2   5   5  580.29   18.04
  -2  -5   4  123.60    6.58
  -2  -5   4  118.04    5.90
  -2   5   4  120.90    6.31
   2   5  -4  115.77    5.33
   2   5  -4  111.82    7.07
  -2   5   4  120.35    6.39
   2  -5  -4  105.86    3.92
   2   5  -4  107.08    5.99
  -2   5   4  108.16    5.70
  -2  -5   3   77.29    4.60
  -2   5   3   79.41    4.45
  -2   5   3   75.48    4.62
   2   5  -3   75.15    4.55
   2  -5  -3   64.53    2.01
   2  -5  -3   74.69    4.79
  -2   5   3   66.47    3.76
  -2  -5   3   81.72    4.27
  -2  -5   2  231.78    8.20
   2   5  -2  233.20    8.39
  -2   5   2  238.95    8.58
  -2   5   2  221.47    6.54
  -2   5   2  232.39    8.35
   2  -5  -2  221.28    6.35
   2  -5  -2  211.68    6.68
   2  -5  -2  253.08    9.20
  -2  -5   2  217.82    7.72
  -2   5   2  228.99    7.68
   2  -5  -1  415.72   13.08
   2  -5  -1  418.92   11.22
  -2   5   1  418.67   11.40
  -2   5   1  455.63   12.70
  -2   5   1  434.43   11.54
   2  -5  -1  407.45    9.41
  -2  -5   1  404.79   11.68
   2   5  -1  425.48   12.40
  -2  -5   1  419.56   12.09
   2  -5   0  149.85    4.07
  -2  -5   0  157.09    6.50
   2  -5   0  147.90    6.84
   2  -5   0  146.38    6.02
   2   5   0  163.00    6.43
  -2  -5   0  147.13    6.09
  -2   5   0  147.87    5.57
  -2   5   0  149.65    6.24
   2   5   0  143.35    5.92
   2   5   1  363.30   10.34
   2  -5   1  387.12   12.11
   2   5   1  361.72   11.77
   2   5   1  357.64   10.85
  -2  -5  -1  378.34   11.83
  -2   5  -1  386.38   12.00
  -2  -5  -1  376.41   11.20
   2  -5   1  350.95    9.00
   2  -5   1  390.23   11.81
   2  -5   2   70.61    3.75
  -2  -5  -2   83.85    5.31
   2   5   2   68.31    3.46
   2   5   2   70.65    4.23
  -2   5  -2   75.24    5.17
   2   5   2   77.77    5.05
  -2  -5  -2   72.59    4.64
   2  -5   2   73.50    5.02
   2  -5   3  152.63    6.76
   2   5   3  161.72    8.53
  -2   5  -3  153.98    8.26
  -2  -5  -3  157.89    8.15
   2   5   3  153.69    7.85
   2  -5   3  161.51    8.20
  -2  -5  -3  162.00    7.78
   2  -5   4  249.69   10.08
  -2  -5  -4  267.20   11.72
   2   5   4  236.52   11.19
   2  -5   4  264.12   11.49
  -2  -5  -4  260.22   11.27
  -2   5  -4  265.57   12.07
   2   5   4  257.51   11.24
  -2  -5  -5   21.40    3.39
   2  -5   5   19.14    2.91
  -2   5  -5   20.98    3.58
   2   5   5   22.24    3.54
  -2  -5  -5   22.96    3.68
   2  -5   5   16.55    3.00
   2   5   5   18.38    3.09
   2  -5   6   -0.21    1.00
   2   5   6    0.87    1.59
  -2   5  -6    0.07    1.15
  -2  -5  -6    1.48    1.63
  -2  -5  -6    1.05    1.52
   2   5   6    0.08    1.54
   2  -5   6    0.53    1.19
   2  -5   7   -2.01    1.37
  -2  -5  -7    0.30    1.42
   2  -5   7    2.81    1.95
  -2  -5  -7    0.26    1.12
  -2   5  -7    0.18    1.33
   2   5   7   -0.29    1.35
  -2  -5  -8    0.44    1.39
  -2   5  -8   -1.56    1.79
   2  -5   8    1.04    1.57
  -2   6  10   10.97    3.29
   2  -6 -10    9.47    3.34
   2   6 -10    4.26    2.79
  -2  -6   9   18.01    4.14
  -2   6   9   16.16    3.79
   2  -6  -9   17.00    4.05
  -2   6   9    5.42    1.88
   2   6  -9    8.78    3.42
  -2   6   8    2.37    1.65
  -2  -6   8    0.39    1.31
   2  -6  -8    4.45    2.13
   2  -6  -8    2.53    1.47
  -2   6   8    1.23    1.31
  -2  -6   7  128.89    8.79
  -2   6   7  129.13    8.53
   2  -6  -7  124.78    7.40
   2   6  -7  124.26    9.37
   2  -6  -7  122.17    7.69
  -2   6   7  138.06    8.56
   2  -6  -7  133.38    9.08
  -2  -6   6  197.19   10.23
   2   6  -6  213.69    9.27
  -2   6   6  212.73   10.25
   2   6  -6  204.35   11.37
   2  -6  -6  209.70    8.97
  -2  -6   6  185.65    8.00
   2  -6  -6  215.09   10.67
   2  -6  -6  213.59    9.75
  -2   6   6  209.89   10.11
  -2  -6   5  418.29   15.14
  -2  -6   5  429.75   13.87
  -2   6   5  444.51   15.07
   2   6  -5  415.95   13.30
   2  -6  -5  417.32   14.12
   2  -6  -5  409.93   13.36
   2   6  -5  420.41   16.07
   2  -6  -5  441.81   15.00
  -2   6   5  394.92   14.16
   2   6  -4    9.03    1.62
  -2   6   4    9.11    1.68
   2  -6  -4    9.61    1.81
  -2  -6   4    8.51    1.80
   2   6  -4    5.87    2.13
   2  -6  -4   11.76    2.00
   2  -6  -4    5.79    0.86
  -2  -6   4    8.16    2.03
   2   6  -4    9.07    2.41
  -2   6   4    8.51    1.92
  -2   6   4   11.61    2.47
   2  -6  -3    0.64    0.68
   2  -6  -3    1.18    0.76
  -2  -6   3    0.74    1.01
  -2  -6   3    0.75    0.99
  -2   6   3    0.50    0.95
   2   6  -3    0.62    1.34
  -2   6   3   -0.56    1.19
  -2   6   3    1.95    1.38
  -2   6   3    1.20    0.40
   2  -6  -3    0.42    0.27
  -2   6   2   31.65    2.51
  -2  -6   2   25.18    2.55
   2  -6  -2   28.55    2.92
  -2   6   2   29.42    2.76
  -2   6   2   28.83    2.71
   2  -6  -2   26.15    1.80
  -2  -6   2   31.23    2.80
   2   6  -2   32.26    3.02
   2  -6  -2   25.73    1.93
  -2   6   2   25.86    1.89
  -2  -6   2   28.07    2.37
   2  -6  -1   61.65    3.30
  -2   6   1   62.90    3.43
  -2   6   1   65.58    3.95
   2  -6  -1   60.76    4.17
   2  -6  -1   57.32    2.36
  -2  -6   1   68.30    4.08
   2   6  -1   65.25    4.11
  -2  -6   1   57.70    3.43
  -2   6   1   65.33    3.37
   2  -6   0   49.26    3.87
   2  -6   0   52.87    2.26
  -2  -6   0   50.09    3.69
  -2   6   0   49.39    3.43
  -2   6   0   54.05    3.48
   2   6   0   44.32    3.41
  -2  -6   0   52.39    3.61
   2  -6   0   50.44    3.40
  -2   6   0   50.61    2.97
   2  -6   1   88.40    3.72
   2   6   1   95.05    4.36
  -2  -6  -1  101.81    5.60
   2  -6   1   98.82    5.64
   2   6   1   98.55    5.62
  -2  -6  -1  102.02    5.26
   2  -6   1   96.29    5.27
   2   6   1   96.59    4.94
  -2   6  -1  101.98    5.55
   2  -6   2   26.97    2.30
   2   6   2   29.29    2.72
   2   6   2   28.42    2.03
  -2   6  -2   32.70    3.45
  -2  -6  -2   27.61    3.17
   2   6   2   25.26    3.04
  -2  -6  -2   33.94    3.18
   2  -6   2   30.92    3.36
   2  -6   3  272.25    9.65
   2   6   3  255.83   11.60
   2   6   3  255.54    9.30
  -2  -6  -3  279.33   11.35
  -2   6  -3  263.72   11.46
   2   6   3  273.15   11.10
  -2  -6  -3  273.85   10.96
   2  -6   3  276.55   11.20
   2  -6   4   25.74    2.95
  -2  -6  -4   22.21    3.24
  -2  -6  -4   27.41    3.69
  -2   6  -4   27.78    3.84
   2   6   4   22.46    2.41
   2   6   4   18.84    3.35
   2   6   4   20.68    3.13
   2  -6   4   22.37    3.29
  -2   6  -5   59.52    5.94
  -2  -6  -5   67.78    5.96
   2   6   5   58.93    5.53
   2  -6   5   62.32    5.75
  -2  -6  -5   62.91    5.72
   2   6   5   52.57    5.31
   2  -6   5   61.65    5.07
  -2  -6  -6    2.25    2.06
   2  -6   6    0.90    1.52
  -2   6  -6    0.44    1.28
   2   6   6    0.70    1.77
   2   6   6    1.89    1.51
   2  -6   6    2.22    1.70
  -2  -6  -6    2.21    1.51
   2   6   7   58.40    6.09
  -2  -6  -7   48.74    5.59
  -2  -6  -7   58.10    6.33
   2   6   7   48.36    5.49
  -2   6  -7   47.11    6.15
   2  -6   7   42.78    5.49
   2  -6   7   47.36    5.25
  -2  -6  -8    5.85    2.43
  -2   6  -8    2.75    1.93
   2  -6   8    4.20    2.19
  -2  -7   9   12.91    3.37
   2  -7  -9    8.05    2.82
  -2   7   9    4.67    2.03
   2   7  -9    3.96    3.01
  -2   7   8   17.05    3.55
  -2  -7   8   18.95    3.78
   2  -7  -8   12.77    3.35
  -2   7   8   17.08    3.44
   2   7  -8   18.78    4.30
  -2  -7   7   91.00    7.32
   2  -7  -7   82.91    6.20
  -2   7   7   86.94    6.95
   2  -7  -7   83.22    6.16
   2   7  -7   78.93    7.46
  -2  -7   7   78.04    5.27
   2  -7  -7  101.26    7.82
  -2   7   7   85.46    7.02
  -2   7   6   -1.35    1.69
   2  -7  -6    4.55    1.71
   2  -7  -6    1.56    1.48
  -2  -7   6    0.12    1.47
   2   7  -6    0.82    0.93
   2  -7  -6    4.70    1.91
   2   7  -6    4.74    2.78
  -2   7   6    1.68    1.61
  -2  -7   6    1.58    1.10
  -2  -7   5   36.60    4.03
   2   7  -5   34.00    3.33
   2   7  -5   37.02    4.66
   2  -7  -5   34.82    3.36
  -2   7   5   37.85    3.98
   2  -7  -5   41.23    3.78
   2  -7  -5   35.16    3.76
   2  -7  -5   37.50    3.66
  -2   7   5   31.04    3.45
   2  -7  -4    1.53    0.96
   2   7  -4    0.46    0.86
   2  -7  -4    0.54    1.29
   2  -7  -4    1.88    1.02
  -2   7   4    1.05    0.24
  -2  -7   4    2.61    1.26
   2   7  -4   -0.10    1.91
  -2  -7   4    1.40    1.23
   2  -7  -4    1.04    0.25
  -2   7   4    2.51    1.46
  -2  -7   3   10.62    1.96
   2  -7  -3   10.76    1.58
  -2   7   3   11.52    1.93
   2   7  -3   15.87    2.63
  -2   7   3    9.70    0.96
  -2  -7   3   12.76    1.84
   2  -7  -3   12.20    2.00
   2   7  -3   10.49    1.82
   2   7  -3    8.89    2.19
  -2   7   3   13.15    2.11
   2  -7  -3   10.89    1.00
  -2   7   3   13.85    2.12
  -2   7   2   35.47    2.71
   2  -7  -2   41.81    3.43
  -2   7   2   38.67    2.40
  -2   7   2   34.71    3.14
  -2  -7   2   38.21    3.25
  -2   7   2   37.71    3.23
   2   7  -2   38.26    3.64
   2  -7  -2   34.97    2.35
   2  -7  -2   39.85    2.33
  -2  -7   2   33.35    2.68
   2  -7  -1    1.20    0.88
  -2  -7   1    1.01    0.70
  -2   7   1    1.83    0.84
  -2   7   1    1.10    0.68
   2   7  -1    2.92    1.50
  -2   7   1    4.14    1.18
  -2  -7   1    1.67    1.08
   2  -7  -1    1.68    0.78
   2  -7  -1    1.83    0.52
  -2   7   0   48.48    3.46
  -2  -7   0   54.39    3.84
   2   7   0   46.39    3.63
   2  -7   0   51.42    3.91
  -2   7   0   54.83    3.72
   2  -7   0   54.41    3.57
  -2   7   0   53.66    3.05
  -2  -7  -1 1326.23   32.30
   2  -7   1 1276.94   29.02
  -2   7  -1 1334.69   32.18
   2   7   1 1263.65   29.39
  -2  -7  -1 1328.15   31.66
   2   7   1 1364.70   31.15
   2  -7   1 1365.85   31.96
   2  -7   1 1382.59   32.66
   2  -7   2  235.15    8.11
  -2  -7  -2  257.09   10.31
   2  -7   2  264.12   10.26
   2   7   2  236.20    8.67
  -2   7  -2  259.85   10.47
   2   7   2  263.71   10.36
  -2  -7  -2  257.77    9.91
   2   7   2  233.69    6.93
   2  -7   3  101.75    5.43
  -2   7  -3  105.80    6.94
   2   7   3  112.82    7.47
  -2  -7  -3  107.40    6.70
   2   7   3  100.97    5.27
  -2  -7  -3  100.63    6.36
   2  -7   3  106.08    6.60
   2   7   3  109.19    6.62
  -2  -7  -4    4.46    1.81
  -2  -7  -4    6.12    2.04
   2   7   4    4.87    2.59
  -2   7  -4    6.66    2.17
   2   7   4    6.16    1.41
   2   7   4    3.55    1.71
   2  -7   4    4.11    1.64
   2  -7   4    5.36    1.52
   2  -7   5  132.63    7.57
  -2   7  -5  128.98    8.85
  -2  -7  -5  126.22    8.25
   2   7   5  110.18    7.56
   2  -7   5  103.22    7.71
  -2  -7  -5  109.47    7.88
   2   7   5  115.00    8.02
  -2  -7  -6   17.66    3.59
   2  -7   6   13.29    2.65
  -2  -7  -6   14.82    3.30
   2   7   6   11.19    2.86
  -2   7  -6   20.14    3.83
   2   7   6   15.08    3.10
   2  -7   6    9.80    2.76
  -2  -7  -7    6.07    2.30
  -2   7  -7   -0.25    1.63
   2   7   7    1.66    1.83
   2  -7   7    2.46    1.72
   2   7   7    4.91    2.16
  -2   7  -8   67.70    7.88
  -2  -7  -8   70.09    7.59
   2  -7   8   63.27    7.10
  -2  -8   9    4.08    2.21
   2  -8  -9    8.78    3.04
   2   8  -9    2.30    2.72
  -2   8   9    4.55    1.97
  -2  -8   8   20.69    3.97
   2  -8  -8   24.81    4.47
  -2   8   8   18.52    3.49
   2   8  -8   22.62    4.76
   2  -8  -7    3.27    2.14
  -2  -8   7    0.38    1.55
  -2  -8   7   -0.80    0.91
  -2   8   7   -0.51    1.44
   2  -8  -7    1.52    1.51
   2   8  -7   -0.66    2.20
   2   8  -7    0.00    1.08
  -2  -8   6   36.46    4.37
   2  -8  -6   28.29    3.51
  -2   8   6   29.71    3.89
   2  -8  -6   34.67    3.59
   2   8  -6   30.31    4.82
   2  -8  -6   36.21    4.32
  -2  -8   6   29.74    3.21
   2   8  -6   34.19    3.73
   2  -8  -6   29.72    3.38
  -2  -8   5  166.11    9.08
   2   8  -5  154.38    7.71
   2  -8  -5  167.54    7.66
   2  -8  -5  148.47    7.59
   2   8  -5  175.22    9.82
   2  -8  -5  175.62    8.77
  -2   8   5  175.23    9.05
   2  -8  -5  173.22    8.21
  -2  -8   4  130.60    7.30
  -2  -8   4  136.58    6.17
   2  -8  -4  127.43    6.48
  -2   8   4  107.25    3.65
  -2   8   4  148.90    7.62
   2   8  -4  126.68    7.81
   2  -8  -4  133.39    6.77
   2  -8  -4  127.40    6.55
   2   8  -4  126.11    6.44
  -2   8   3  144.08    5.00
  -2  -8   3  156.13    7.70
  -2   8   3  154.98    6.71
   2  -8  -3  157.85    7.50
   2   8  -3  147.90    7.54
  -2   8   3  169.14    7.81
  -2   8   3  165.94    7.44
   2   8  -3  154.43    7.24
   2  -8  -3  147.97    6.39
   2   8  -3  150.66    7.85
  -2  -8   3  156.43    6.26
  -2   8   2   22.50    2.16
  -2   8   2   22.19    1.90
  -2   8   2   20.95    2.51
   2  -8  -2   21.51    2.48
  -2   8   2   22.45    2.74
  -2  -8   2   21.30    2.63
   2  -8  -2   20.36    1.89
   2  -8  -2   22.84    1.87
   2   8  -2   23.09    3.04
  -2  -8   2   23.28    2.15
  -2   8   1  622.67   16.86
  -2   8   1  602.95   15.85
   2   8  -1  581.22   16.94
   2  -8  -1  580.18   14.24
  -2  -8   1  634.24   17.39
   2  -8  -1  568.70   15.43
  -2  -8   1  569.63   15.51
   2  -8  -1  595.13   17.19
  -2   8   1  616.26   14.98
   2   8   0  391.90   12.73
  -2   8   0  413.68   12.45
  -2  -8   0  422.62   13.32
   2  -8   0  407.26   13.29
  -2   8   0  409.37   12.81
   2  -8   0  407.31   12.44
  -2   8   0  418.07   11.23
   2   8   1 1348.85   30.85
   2   8   1 1427.40   33.12
  -2  -8  -1 1430.10   34.06
   2  -8   1 1389.80   31.13
  -2   8  -1 1431.03   34.26
  -2  -8  -1 1444.71   33.98
   2  -8   1 1393.61   33.94
   2  -8   2   35.74    2.79
   2   8   2   35.91    1.89
  -2  -8  -2   38.30    3.69
   2   8   2   33.28    3.03
  -2  -8  -2   41.93    3.87
   2  -8   2   41.88    3.86
  -2   8  -2   38.00    3.85
   2  -8   3   99.25    5.43
   2   8   3  101.52    6.57
  -2   8  -3   96.11    6.68
   2   8   3  113.90    7.74
   2   8   3   98.69    5.32
  -2  -8  -3  104.08    6.63
  -2  -8  -3  104.73    6.61
   2  -8   3  111.53    6.95
  -2  -8  -4    0.55    1.37
   2  -8   4    0.51    0.86
  -2   8  -4   -0.74    1.60
  -2  -8  -4    0.70    1.09
   2   8   4   -1.07    1.84
   2   8   4    1.71    1.27
   2  -8   4    1.64    1.77
  -2  -8  -5    3.28    1.71
   2  -8   5    4.02    1.53
  -2   8  -5    4.59    1.85
  -2  -8  -5    2.24    1.70
   2   8   5    2.20    1.89
   2   8   5    3.68    1.86
   2  -8   5    5.04    2.09
  -2  -8  -6   30.55    4.47
   2  -8   6   28.25    3.74
  -2   8  -6   28.00    4.49
   2   8   6   31.70    4.41
   2   8   6   30.40    4.25
  -2  -8  -6   25.87    3.96
   2  -8   6   36.56    4.76
  -2   8  -7    1.74    1.50
   2   8   7    2.43    2.02
   2  -8   7   -2.19    1.81
  -2  -8  -8    9.42    2.93
  -2   8  -8    4.33    2.31
   2  -8   8   11.71    3.11
  -2  -9   9    4.08    2.17
   2  -9  -9    3.80    2.24
  -2   9   9    3.30    1.88
   2   9  -9    5.05    3.25
   2  -9  -8   16.68    3.83
  -2  -9   8   15.19    3.43
  -2   9   8   12.64    3.15
   2   9  -8   13.45    4.06
   2   9  -7    3.02    1.46
   2  -9  -7    0.00    1.45
  -2  -9   7   -1.62    1.46
  -2  -9   7    0.06    0.97
   2  -9  -7    0.59    1.47
   2   9  -7   -1.74    2.24
  -2   9   7    2.74    1.88
  -2  -9   6   56.56    5.54
   2  -9  -6   56.87    5.18
   2   9  -6   56.38    5.03
  -2   9   6   53.95    5.27
   2  -9  -6   61.61    5.72
   2   9  -6   57.64    6.13
   2  -9  -5  311.86   11.73
  -2  -9   5  309.04   13.17
   2  -9  -5  289.08   11.59
   2   9  -5  319.94   12.13
   2  -9  -5  310.49   11.01
   2   9  -5  285.31   13.46
   2  -9  -5  331.72   12.84
  -2   9   5  335.77   13.33
   2  -9  -4   16.65    2.32
   2  -9  -4   16.16    2.45
   2  -9  -4   15.60    2.32
  -2   9   4   14.88    1.28
  -2   9   4   18.01    2.85
   2   9  -4   11.11    2.23
   2   9  -4   15.46    3.24
  -2  -9   4   14.47    2.68
  -2  -9   4   19.13    2.28
  -2  -9   3   52.15    3.43
  -2  -9   3   53.15    4.50
  -2   9   3   52.37    3.73
   2  -9  -3   52.54    4.08
   2  -9  -3   50.04    3.94
  -2   9   3   48.53    2.77
   2   9  -3   54.77    4.27
  -2   9   3   62.74    4.74
   2   9  -3   46.20    4.58
  -2   9   3   54.46    4.23
   2   9  -3   48.94    4.45
   2  -9  -3   55.50    3.72
   2  -9  -2   31.53    3.02
  -2   9   2   26.73    2.26
  -2   9   2   31.61    2.57
   2   9  -2   33.40    3.62
  -2   9   2   31.62    3.21
  -2  -9   2   27.11    3.12
   2  -9  -2   29.99    2.37
  -2   9   2   28.84    2.97
  -2  -9   2   29.82    2.41
  -2   9   1   95.15    5.19
  -2   9   1   85.66    4.61
   2  -9  -1   91.91    4.01
   2  -9  -1  103.64    5.65
  -2  -9   1   98.06    5.71
   2  -9  -1   91.73    4.60
  -2  -9   1   87.98    4.40
   2   9  -1   84.70    5.49
  -2   9   1   93.27    4.11
   2  -9   0   31.31    3.13
  -2   9   0   31.14    3.04
  -2   9   0   33.17    2.90
   2   9   0   28.94    3.17
   2  -9   0   33.67    2.20
  -2  -9   0   28.64    3.11
   2  -9   0   32.51    2.91
  -2   9   0   32.22    2.25
   2   9   1  112.38    4.61
   2  -9   1  118.79    5.17
  -2   9  -1  126.74    6.77
   2   9   1  126.52    6.29
  -2  -9  -1  119.12    6.48
   2  -9   1  131.02    6.57
  -2   9  -1  116.79    4.81
  -2  -9  -2    5.15    1.78
   2  -9   2    4.93    1.20
  -2   9  -2    3.43    1.63
  -2  -9  -2    5.12    1.78
   2   9   2    2.68    1.29
   2   9   2    9.06    3.39
   2  -9   2    7.33    2.09
   2  -9   3   63.46    4.33
   2   9   3   64.13    4.31
   2   9   3   64.09    6.03
  -2  -9  -3   70.51    5.54
  -2  -9  -3   61.75    5.25
   2  -9   3   75.01    5.79
  -2   9  -3   69.08    5.74
  -2  -9  -4   -0.49    1.22
  -2  -9  -4    0.54    1.28
   2  -9   4    1.19    1.11
   2   9   4   -1.44    2.04
   2  -9   4    2.00    1.73
  -2   9  -4    1.28    1.41
  -2  -9  -5   -1.52    1.69
   2  -9   5   -0.13    0.94
  -2   9  -5    0.56    1.40
   2   9   5   -1.41    1.88
   2  -9   5    0.46    1.33
  -2  -9  -5   -0.37    1.21
  -2  -9  -6   21.41    4.01
   2  -9   6   20.53    3.23
  -2  -9  -6   24.92    3.84
  -2   9  -6   18.54    3.83
   2   9   6   24.78    4.19
   2  -9   6   17.90    3.57
  -2   9  -7   56.38    6.89
   2   9   7   72.70    7.31
   2  -9   7   49.84    6.06
  -2  -9  -7   56.75    6.63
  -2   9  -8   27.13    5.28
   2  -9   8   24.87    4.55
   2 -10  -9    8.80    3.14
  -2 -10   9    4.57    2.20
   2  10  -9    9.67    3.69
  -2  10   9    5.06    2.46
  -2 -10   8  103.45    8.66
  -2  10   8   92.43    8.30
   2  10  -8   97.21    8.97
   2 -10  -8  113.02    9.35
   2 -10  -7    2.20    1.45
  -2 -10   7    2.61    1.96
   2  10  -7    0.16    1.14
  -2  10   7    0.93    1.78
   2 -10  -7    0.24    1.83
   2  10  -7   -0.81    2.40
  -2 -10   7    2.37    1.54
  -2 -10   6    5.38    2.15
   2  10  -6    1.30    1.22
   2  10  -6    1.73    2.38
   2 -10  -6    4.31    2.02
   2 -10  -6    3.54    1.77
  -2  10   6    4.19    1.90
   2 -10  -5   18.38    2.52
  -2  10   5   19.23    3.21
   2 -10  -5   21.19    3.05
  -2 -10   5   24.09    3.57
   2  10  -5   18.85    3.65
   2 -10  -5   16.99    2.89
   2  10  -5   18.34    2.87
  -2 -10   4   59.27    5.09
  -2 -10   4   55.63    3.75
   2 -10  -4   51.39    4.04
   2 -10  -4   49.69    4.38
  -2  10   4   47.83    2.64
   2  10  -4   53.70    5.25
   2  10  -4   47.94    4.24
   2 -10  -4   56.62    4.36
  -2  10   4   59.25    5.04
  -2 -10   3   48.10    3.19
  -2 -10   3   42.52    4.15
   2 -10  -3   44.73    3.88
   2  10  -3   46.62    4.16
  -2  10   3   50.72    4.34
  -2  10   3   50.00    4.15
   2  10  -3   43.07    4.25
   2 -10  -3   47.08    3.52
  -2  10   3   44.25    2.81
   2 -10  -3   45.59    3.71
   2 -10  -2    1.58    0.80
  -2  10   2    1.84    1.09
   2 -10  -2   -0.12    1.36
   2 -10  -2    1.25    0.82
  -2  10   2    0.89    0.68
   2  10  -2    3.23    2.36
  -2  10   2   -0.54    1.50
   2  10  -2    0.81    1.45
  -2  10   2    1.42    0.92
  -2 -10   2   -0.35    0.80
  -2 -10   2    1.88    1.29
  -2  10   1   14.47    1.62
   2 -10  -1   15.25    2.23
  -2 -10   1   11.27    1.61
  -2  10   1   14.16    2.08
  -2  10   1   15.91    1.99
   2  10  -1   14.71    2.66
   2 -10  -1   13.43    1.57
  -2 -10   1   15.91    2.51
   2 -10  -1   12.74    1.85
  -2  10   0   55.86    4.15
  -2  10   0   61.76    4.07
   2 -10   0   58.28    3.20
   2  10   0   57.85    4.60
  -2 -10   0   53.83    4.37
   2 -10   0   57.85    4.39
   2 -10   0   57.81    4.06
  -2  10   0   57.82    3.02
   2  10   1   42.44    2.60
   2 -10   1   47.95    3.25
  -2  10  -1   46.67    4.13
  -2  10  -1   40.06    3.11
   2  10   1   50.43    4.07
  -2  10  -1   44.67    2.70
   2 -10   1   50.46    4.09
  -2 -10  -1   54.31    4.40
   2 -10   2 1055.10   26.83
  -2 -10  -2 1084.22   29.27
  -2  10  -2 1116.55   30.02
   2  10   2 1142.50   27.87
   2  10   2 1126.25   31.38
   2 -10   2 1111.42   29.46
   2 -10   3   43.13    3.62
  -2  10  -3   40.93    4.48
   2 -10   3   43.15    2.99
   2  10   3   47.01    5.24
   2  10   3   43.76    3.61
  -2 -10  -3   41.34    4.53
  -2 -10  -3   43.45    4.45
   2 -10   3   47.19    4.60
  -2 -10  -4   -0.11    1.40
   2 -10   4   -1.21    1.01
  -2 -10  -4    1.53    1.48
   2  10   4   -0.61    1.91
  -2  10  -4    2.74    1.78
   2 -10   4    2.10    1.68
  -2 -10  -5    5.66    2.20
   2 -10   5    7.44    1.93
  -2 -10  -5    7.68    2.22
  -2  10  -5    7.99    2.54
   2  10   5    7.63    2.95
   2 -10   5    4.75    2.08
  -2 -10  -6   36.24    5.04
  -2 -10  -6   37.11    4.76
   2  10   6   37.73    5.30
  -2  10  -6   30.78    5.04
   2 -10   6   32.60    4.66
  -2 -10  -7   29.21    4.99
  -2  10  -7   35.19    5.55
   2  10   7   36.25    5.42
   2 -10   7   38.44    5.34
  -2  10  -8   92.40    9.48
   2 -10   8   91.75    8.74
   2 -11  -9    0.92    1.70
  -2 -11   9    2.29    1.99
  -2  11   9   -1.32    1.95
   2  11  -9   -1.67    2.92
   2 -11  -8    2.27    1.91
  -2 -11   8    2.52    1.85
  -2  11   8    3.88    2.00
   2  11  -8    1.52    2.89
   2 -11  -7    8.85    2.58
  -2  11   7    3.68    1.74
  -2 -11   7    6.71    2.38
   2 -11  -7    2.46    2.03
   2  11  -7    2.14    1.33
   2  11  -7    4.95    2.63
  -2 -11   7    4.94    1.72
  -2  11   6   53.22    5.52
  -2 -11   6   47.38    5.31
   2 -11  -6   49.22    5.09
   2  11  -6   47.98    5.74
   2  11  -6   54.99    5.18
   2 -11  -6   54.50    5.39
   2 -11  -5   13.64    2.66
  -2  11   5   11.02    2.67
   2  11  -5    9.79    3.06
   2 -11  -5   19.33    3.18
   2  11  -5   13.02    2.58
  -2 -11   5    7.31    2.32
  -2 -11   4  658.20   20.42
  -2 -11   4  626.55   16.71
   2 -11  -4  592.07   17.73
   2 -11  -4  637.60   19.14
  -2  11   4  541.59   14.88
   2  11  -4  639.88   19.53
  -2  11   4  687.43   20.63
   2  11  -4  583.73   20.03
   2 -11  -4  647.39   18.81
   2 -11  -3    4.66    1.21
   2 -11  -3    4.68    1.21
   2  11  -3    7.71    2.12
  -2 -11   3    4.22    1.71
   2 -11  -3    4.77    1.73
  -2  11   3    8.07    2.16
  -2  11   3    6.35    1.22
  -2 -11   3    4.94    1.18
   2  11  -3    5.88    2.25
  -2  11   3    7.90    2.04
  -2  11   2   77.29    4.14
  -2  11   2   87.08    5.46
   2 -11  -2   76.90    5.18
  -2  11   2   83.85    5.44
   2  11  -2   65.53    5.49
   2  11  -2   66.20    4.81
   2 -11  -2   74.23    4.86
  -2 -11   2   82.21    5.74
   2 -11  -2   78.06    4.36
  -2  11   2   78.79    4.40
  -2 -11   2   70.46    3.86
  -2 -11   1    0.11    0.63
   2 -11  -1   -1.00    1.58
  -2  11   1    1.25    0.99
  -2  11   1    1.44    0.79
   2 -11  -1    0.80    0.89
   2  11  -1    0.64    1.96
   2 -11  -1    0.81    0.90
  -2  11   1    0.02    0.93
  -2 -11   1    0.90    1.15
   2 -11  -1    0.87    0.60
   2 -11   0    1.28    1.20
   2 -11   0    1.54    1.19
  -2  11   0    1.11    0.62
  -2  11   0    1.29    0.92
   2  11   0    0.50    1.54
  -2  11   0    1.70    0.89
   2 -11   0    0.95    0.61
  -2 -11   0    0.01    1.14
  -2 -11  -1    6.45    1.90
   2 -11   1    5.57    1.26
   2 -11   1    6.63    1.50
  -2  11  -1    5.71    1.61
  -2  11  -1    6.17    1.06
   2  11   1    5.94    1.98
  -2  11  -1    4.84    1.35
   2  11   1    9.41    3.58
   2  11   1    5.70    0.94
   2 -11   1    4.98    1.72
   2 -11   2 1791.26   41.80
   2 -11   2 1871.50   41.10
  -2  11  -2 1775.89   44.89
   2  11   2 1728.17   45.87
   2  11   2 1853.89   42.59
  -2 -11  -2 1824.55   44.37
   2 -11   2 1834.00   44.32
  -2 -11  -3    0.99    1.46
   2 -11   3    2.47    1.08
  -2  11  -3    0.77    1.36
   2  11   3    2.77    1.40
   2  11   3    2.57    2.41
   2 -11   3    0.44    1.53
  -2 -11  -4    2.62    1.74
  -2 -11  -4    6.08    2.22
   2 -11   4    3.50    1.40
  -2  11  -4    3.41    1.89
   2  11   4    1.20    2.47
   2 -11   4    1.07    1.47
   2 -11   5    9.15    2.12
  -2  11  -5    2.26    1.77
  -2 -11  -5    5.92    2.05
   2  11   5    7.42    2.42
  -2 -11  -5    4.37    1.97
   2 -11   5    5.34    2.16
  -2 -11  -6   16.38    3.59
  -2  11  -6   18.01    4.02
  -2 -11  -6   24.31    3.90
   2  11   6   19.87    4.06
   2 -11   6   16.74    3.59
  -2 -11  -7    3.37    1.94
   2  11   7    3.05    1.93
  -2  11  -7    1.41    1.71
   2 -11   7    2.03    1.83
  -2  12   9    6.15    2.43
   2 -12  -9   -0.71    1.60
  -2 -12   9    4.67    2.33
   2  12  -9    2.97    2.74
   2 -12  -8   37.67    5.46
  -2 -12   8   26.26    4.68
  -2  12   8   38.69    5.43
   2  12  -8   32.17    5.53
   2 -12  -7    8.15    2.55
  -2 -12   7    4.01    2.05
   2 -12  -7    5.44    2.38
   2  12  -7    8.97    2.34
   2  12  -7    7.37    3.07
  -2  12   7    7.17    2.52
  -2 -12   7    6.05    1.97
   2 -12  -6   12.28    2.81
  -2 -12   6    9.81    2.89
  -2  12   6   11.17    2.92
   2  12  -6    7.27    2.09
   2 -12  -6    3.43    1.98
   2  12  -6    8.21    3.08
  -2 -12   5   44.68    5.13
   2  12  -5   44.50    5.24
   2  12  -5   50.92    4.93
  -2  12   5   44.91    4.98
   2 -12  -5   39.55    4.51
   2 -12  -5   45.05    4.54
   2 -12  -4    9.60    2.07
  -2 -12   4    4.88    2.10
   2 -12  -4    9.01    2.39
   2  12  -4    6.02    2.06
   2  12  -4    9.42    2.72
  -2  12   4   11.66    2.72
  -2 -12   4    8.15    1.57
   2 -12  -4    7.27    1.56
  -2 -12   3   34.29    2.64
  -2 -12   3   36.68    4.12
   2 -12  -3   40.56    4.05
  -2  12   3   35.85    2.82
   2  12  -3   41.25    4.32
   2 -12  -3   33.77    3.24
  -2  12   3   41.52    4.01
   2  12  -3   39.45    4.20
   2 -12  -3   32.28    3.16
  -2  12   3   40.13    4.20
   2 -12  -2    5.38    1.92
   2 -12  -2    8.36    1.66
  -2  12   2    4.16    1.21
  -2  12   2    5.68    1.64
  -2  12   2    3.41    1.55
   2  12  -2    4.14    1.64
  -2 -12   2    4.96    1.11
  -2 -12   2    6.66    2.05
   2 -12  -2    7.34    1.39
  -2  12   1    0.43    0.91
  -2 -12   1   -0.14    0.64
   2  12  -1    3.67    2.36
   2  12  -1   -0.81    1.14
  -2  12   1   -0.59    0.94
   2 -12  -1    1.30    0.98
  -2  12   1    0.88    0.67
  -2 -12   1    0.32    1.35
   2 -12  -1   -0.19    0.55
   2 -12  -1   -2.09    1.51
  -2 -12   0   31.45    3.60
   2 -12   0   31.38    3.25
  -2  12   0   32.41    3.40
  -2  12   0   32.96    3.20
   2 -12   0   37.48    2.86
   2  12   0   30.28    3.81
   2 -12   0   39.15    3.60
  -2  12   0   29.32    2.00
   2 -12   1   93.01    5.20
   2  12   1   77.46    5.59
   2 -12   1   90.35    5.32
  -2  12  -1   95.10    6.30
  -2  12  -1   83.77    4.83
   2  12   1  100.03    7.33
  -2 -12  -1   90.58    6.27
   2 -12   1   93.74    5.97
   2 -12   2  333.12   11.79
   2 -12   2  337.08   11.24
  -2  12  -2  331.44   13.81
   2  12   2  321.29   12.18
   2  12   2  347.30   14.87
  -2 -12  -2  369.72   13.97
   2 -12   2  338.62   13.38
   2 -12   3   47.39    4.11
   2  12   3   49.43    4.12
   2 -12   3   50.06    4.99
  -2  12  -3   41.68    4.78
   2  12   3   47.40    5.48
  -2 -12  -3   40.85    4.57
  -2 -12  -4   -0.35    1.23
   2 -12   4    0.30    0.96
  -2  12  -4   -1.51    1.59
   2  12   4   -2.18    2.39
   2 -12   4    1.73    1.67
  -2 -12  -5    2.32    1.71
  -2  12  -5    2.05    1.83
   2  12   5    0.26    1.95
   2 -12   5    1.05    1.50
  -2 -12  -6    1.79    1.73
   2  12   6    2.29    2.29
  -2  12  -6    2.33    2.23
   2 -12   6    0.19    1.25
  -2 -12  -7   12.04    3.29
  -2  12  -7    9.00    2.95
   2  12   7    7.38    2.93
   2 -12   7    6.21    2.50
  -2  13   9    5.75    2.15
   2 -13  -9    6.98    2.91
   2 -13  -8    1.87    1.99
  -2 -13   8    4.13    2.27
  -2  13   8    2.80    2.02
   2 -13  -8    0.75    2.09
   2  13  -8    0.87    2.56
   2 -13  -7   13.05    3.10
  -2 -13   7    7.65    2.66
   2  13  -7    4.79    1.92
   2 -13  -7    8.55    2.98
  -2  13   7    7.92    2.57
   2  13  -7   13.17    3.78
  -2 -13   7    7.02    2.27
  -2 -13   6   50.18    5.74
   2 -13  -6   50.98    5.64
  -2  13   6   55.22    5.90
   2  13  -6   60.47    5.88
   2  13  -6   51.09    5.98
   2 -13  -6   65.22    6.14
  -2 -13   5  189.15   10.65
  -2  13   5  162.80    9.84
   2  13  -5  201.93   10.26
   2 -13  -5  156.17    9.37
   2  13  -5  158.64    9.92
   2 -13  -5  187.36    9.71
  -2 -13   4   46.28    4.85
   2  13  -4   41.21    4.52
  -2  13   4   49.94    4.98
   2 -13  -4   42.95    4.56
   2  13  -4   50.71    5.23
   2 -13  -4   47.09    4.31
   2 -13  -3   14.37    2.23
   2  13  -3   16.48    2.96
   2  13  -3   18.64    3.11
  -2  13   3   14.38    2.69
  -2 -13   3   13.13    2.64
  -2  13   3   16.19    2.06
  -2 -13   3   13.38    1.67
  -2  13   3   16.25    2.68
   2 -13  -3   14.52    2.84
   2 -13  -3   17.26    2.28
   2 -13  -2    0.39    1.42
  -2 -13   2   -0.25    0.74
  -2  13   2    0.88    0.88
  -2  13   2   -1.74    1.30
  -2  13   2   -1.04    1.53
   2  13  -2    0.23    1.27
  -2 -13   2   -0.08    1.44
   2 -13  -2    0.68    0.60
   2 -13  -2    2.55    1.02
  -2  13   1   73.38    3.53
  -2  13   1   73.28    5.12
  -2  13   1   78.66    5.14
   2 -13  -1   79.36    4.55
  -2 -13   1   73.19    5.73
   2  13  -1   76.57    5.99
   2 -13  -1   80.94    5.45
  -2 -13   1   64.86    3.82
   2  13  -1   68.72    4.50
   2 -13   0   -0.16    1.23
   2  13   0    0.39    2.10
   2  13   0    1.97    2.88
  -2  13   0    0.29    0.71
  -2  13   0   -0.37    1.03
   2 -13   0    0.29    0.58
  -2 -13   0   -0.58    1.39
   2 -13   0    1.39    1.32
   2 -13   1  132.07    6.66
   2 -13   1  144.49    7.07
  -2  13  -1  125.04    6.21
  -2  13  -1  131.01    7.71
   2  13   1  125.53    7.46
  -2 -13  -1  128.81    7.88
   2 -13   1  131.19    7.48
   2  13   1  147.49    9.28
   2 -13   2   32.34    3.30
   2  13   2   25.56    3.32
   2  13   2   34.45    4.69
  -2  13  -2   28.67    3.93
   2 -13   2   28.76    3.74
   2 -13   2   33.09    3.20
  -2 -13  -2   29.05    3.91
  -2  13  -3   72.51    6.56
   2 -13   3   84.79    5.75
  -2 -13  -3   86.70    6.84
   2 -13   3   81.14    6.55
   2  13   3   78.92    7.08
  -2 -13  -4    0.20    1.32
  -2  13  -4   -0.65    1.58
   2 -13   4   -0.04    1.14
   2  13   4   -1.61    2.50
   2 -13   4    0.64    1.68
  -2 -13  -5   19.05    3.82
  -2  13  -5   22.68    4.24
   2  13   5   13.41    3.49
   2 -13   5   28.52    4.36
  -2 -13  -6    7.87    2.78
   2  13   6    9.34    3.26
  -2  13  -6    6.99    2.58
   2 -13   6   11.71    3.05
  -2 -13  -7   24.40    4.67
   2 -13   7   19.29    4.03
   2  13   7   22.07    4.64
  -2  13  -7   17.89    4.30
   2 -14  -8    2.50    2.15
  -2 -14   8    9.50    3.11
  -2  14   8    6.95    2.76
   2 -14  -8    6.39    2.95
   2  14  -8    2.69    2.31
   2 -14  -7    1.45    1.46
  -2 -14   7    4.06    2.18
   2 -14  -7    3.45    2.67
   2  14  -7    0.84    1.26
  -2  14   7    2.14    1.84
   2  14  -7    4.70    2.82
  -2 -14   7    5.33    2.06
  -2 -14   6   33.68    4.80
   2  14  -6   37.40    4.75
   2 -14  -6   31.31    4.65
  -2  14   6   33.31    4.75
   2 -14  -6   40.41    4.89
   2  14  -6   35.26    5.01
  -2 -14   5  155.20    9.77
   2 -14  -5  140.06    9.06
   2  14  -5  165.78    9.54
  -2  14   5  143.95    9.30
   2 -14  -5  145.68    8.66
   2  14  -5  139.14    9.35
  -2 -14   4   66.20    6.13
   2 -14  -4   67.17    5.83
   2  14  -4   70.35    6.05
  -2  14   4   64.95    5.97
   2  14  -4   65.32    5.92
  -2  14   4   78.07    5.69
   2 -14  -4   67.94    5.33
  -2 -14   3   18.90    3.27
  -2  14   3   23.86    2.62
   2 -14  -3   20.15    3.41
  -2  14   3   23.55    3.36
   2  14  -3   22.82    3.32
   2 -14  -3   23.80    2.88
  -2  14   3   25.50    3.34
   2  14  -3   24.78    3.79
   2 -14  -3   22.27    2.57
   2 -14  -2    5.68    1.43
   2 -14  -2    6.28    2.34
  -2  14   2    6.76    1.58
  -2  14   2    8.90    2.11
   2  14  -2   10.77    2.95
  -2  14   2    7.70    2.05
   2  14  -2    4.17    1.74
  -2 -14   2    6.00    2.11
   2 -14  -2    8.08    1.68
  -2  14   1  378.72   13.34
   2  14  -1  349.80   11.99
   2 -14  -1  390.04   13.94
   2  14  -1  383.51   14.90
  -2  14   1  358.29   13.53
   2 -14  -1  405.78   12.61
  -2 -14   1  412.75   15.14
  -2 -14   1  342.63   10.82
   2 -14   0  150.98    7.95
  -2  14   0  157.08    8.33
  -2  14   0  160.22    7.81
   2  14   0  155.85    9.44
   2  14   0  144.72    8.59
   2 -14   0  165.07    8.09
   2 -14   0  169.53    7.30
  -2 -14   0  164.37    9.06
   2 -14   1  260.75   10.18
  -2  14  -1  216.62    8.98
   2  14   1  221.88   10.58
  -2  14  -1  248.15   11.35
   2  14   1  257.87   12.59
   2 -14   1  257.70   10.26
  -2 -14  -1  250.61   11.54
   2 -14   1  238.59   10.82
   2 -14   2   10.65    2.11
   2 -14   2   12.90    2.23
   2  14   2   12.11    2.66
   2  14   2    9.53    3.21
  -2  14  -2   14.42    2.98
   2 -14   2   13.03    2.63
  -2 -14  -2   11.15    2.51
   2 -14   3  111.66    6.92
  -2  14  -3  110.14    8.26
   2  14   3  114.41    8.66
  -2 -14  -3  107.88    7.95
   2 -14   3  110.31    7.88
  -2 -14  -4   -3.47    1.86
   2  14   4   -1.33    2.49
  -2  14  -4    3.34    1.90
   2 -14   4   -3.61    1.96
  -2 -14  -5    3.86    2.31
  -2  14  -5    2.21    1.79
   2  14   5   -0.66    2.55
   2 -14   5    3.09    2.12
  -2 -14  -6    6.46    2.60
  -2  14  -6    7.37    2.97
   2  14   6   10.68    3.53
   2 -14   6    2.87    1.99
  -2  14  -7   -1.30    1.87
   2  14   7    1.04    2.19
   2 -14   7    1.25    1.78
   2 -15  -8   -6.00    2.59
  -2 -15   8   -2.46    1.93
  -2  15   8   -2.99    2.01
   2 -15  -8   -2.37    2.13
   2  15  -8   -4.04    3.27
   2 -15  -7   38.92    5.37
  -2 -15   7   36.62    5.30
   2  15  -7   35.83    5.01
   2  15  -7   40.53    5.84
   2 -15  -7   31.03    5.09
  -2  15   7   30.54    4.97
  -2 -15   7   30.15    4.32
   2 -15  -6    0.83    1.29
   2  15  -6    1.99    1.52
  -2 -15   6    0.40    1.47
  -2  15   6    4.25    2.09
   2  15  -6    1.29    2.46
   2 -15  -6   -1.03    2.37
   2 -15  -5    3.45    1.66
  -2 -15   5    3.76    2.36
  -2  15   5    1.02    1.77
   2  15  -5    7.25    2.79
   2  15  -5    3.62    1.76
   2 -15  -5   -1.20    2.43
   2 -15  -4   25.88    4.15
   2  15  -4   25.89    3.83
  -2  15   4   23.24    3.58
  -2  15   4   27.16    3.47
   2  15  -4   27.03    3.94
   2 -15  -4   31.23    3.71
  -2 -15   4   24.77    3.95
  -2  15   3   -0.29    0.70
  -2 -15   3   -0.78    2.29
   2  15  -3   -0.52    1.43
   2  15  -3    1.11    1.49
   2  15  -3   -1.79    1.63
  -2  15   3   -0.28    1.17
   2 -15  -3    1.34    1.88
  -2  15   3   -0.93    1.42
   2 -15  -3    0.49    0.86
  -2  15   2   -0.66    1.38
  -2  15   2    1.85    1.03
   2  15  -2    2.09    1.91
  -2  15   2    2.63    1.44
   2 -15  -2    3.55    1.87
   2  15  -2    4.85    2.29
  -2 -15   2   -0.23    1.48
   2  15  -2    1.62    1.42
   2 -15  -2    0.89    1.18
   2 -15  -1   10.43    2.49
  -2  15   1    5.93    1.64
  -2  15   1    6.76    1.81
   2  15  -1   10.24    3.21
  -2 -15   1   13.45    2.81
   2 -15  -1    7.94    1.69
  -2  15   0   83.68    6.14
   2  15   0   79.56    6.71
   2 -15   0   82.32    5.86
   2 -15   0   87.78    5.26
  -2 -15   0   87.52    6.64
  -2  15   0   68.18    5.10
   2 -15   0   82.96    5.90
   2 -15   1  282.24   11.14
   2 -15   1  290.26   11.37
  -2  15  -1  261.82   12.14
   2  15   1  261.18   13.07
   2  15   1  236.51   11.41
  -2 -15  -1  278.32   12.59
   2 -15   1  255.92   11.66
   2 -15   2   49.14    4.45
   2  15   2   38.05    4.29
   2  15   2   42.27    5.31
   2 -15   2   47.54    4.22
  -2  15  -2   44.34    4.96
  -2 -15  -2   42.89    4.86
   2 -15   2   45.42    4.81
   2  15   3    6.47    2.86
  -2  15  -3    7.13    2.47
   2 -15   3    7.50    2.38
  -2 -15  -3    6.92    2.44
  -2 -15  -4    6.13    2.42
  -2  15  -4    5.55    2.45
   2  15   4    3.62    2.33
   2 -15   4    9.69    2.90
   2  15   5   47.50    6.17
  -2  15  -5   51.34    6.44
  -2 -15  -5   43.56    5.87
   2 -15   5   54.60    6.35
  -2 -15  -6   25.68    4.66
  -2  15  -6   25.32    4.81
   2  15   6   26.25    4.92
   2 -15   6   25.53    4.61
   2 -16  -8    4.64    2.29
  -2 -16   8   -0.24    1.28
  -2  16   8   -3.19    2.06
   2 -16  -8    7.75    3.53
   2  16  -8   -2.56    2.76
  -2 -16   8   -1.65    1.42
  -2 -16   7  103.05    8.92
  -2  16   7   93.85    8.59
   2 -16  -7   77.72    8.10
   2 -16  -7   93.44    8.25
   2  16  -7   92.98    8.79
  -2 -16   7   75.29    6.96
   2  16  -7   79.98    7.74
  -2 -16   6   83.02    7.78
   2  16  -6   88.93    7.72
   2 -16  -6   62.04    7.08
   2  16  -6   70.55    7.12
   2 -16  -6   85.61    7.27
  -2  16   6   72.05    7.32
  -2 -16   5   82.71    7.41
   2 -16  -5   68.92    6.90
   2  16  -5   84.34    7.20
  -2  16   5   89.53    7.64
   2  16  -5   70.42    6.76
   2 -16  -5   90.30    6.92
   2 -16  -4    3.45    1.48
  -2 -16   4   -0.79    1.58
   2 -16  -4    2.20    2.02
   2  16  -4    3.71    2.20
  -2  16   4    0.60    1.59
  -2  16   4    2.60    1.46
   2  16  -4   -0.06    1.49
  -2 -16   3   -0.78    2.26
  -2  16   3    0.70    1.52
  -2  16   3    1.19    0.96
  -2  16   3    0.38    1.22
   2 -16  -3    1.77    2.02
   2  16  -3    2.99    1.94
   2  16  -3   -1.19    1.78
   2 -16  -3    0.30    1.02
   2 -16  -2    1.61    2.01
  -2  16   2   -0.08    1.18
   2  16  -2    1.62    1.70
  -2  16   2    1.02    1.35
   2  16  -2   -0.11    1.21
   2  16  -2    1.42    1.92
  -2 -16   2   -1.72    1.49
  -2  16   2    0.36    1.07
   2 -16  -2   -0.61    0.81
  -2  16   1   48.46    4.59
   2  16  -1   50.19    5.18
  -2 -16   1   52.75    5.31
  -2  16   1   46.51    4.50
   2 -16  -1   43.50    3.88
   2 -16  -1   49.60    4.83
   2 -16   0   12.31    2.61
  -2  16   0    9.05    2.27
  -2  16   0   10.19    2.10
   2  16   0   13.24    3.31
   2 -16   0   10.80    2.03
  -2 -16   0   17.25    3.13
   2 -16   0   14.27    2.71
  -2  16  -1   25.35    3.79
   2 -16   1   20.60    3.02
   2  16   1   24.90    4.14
   2 -16   1   25.61    3.42
  -2 -16  -1   23.79    3.77
   2 -16   1   26.10    3.66
   2 -16   2    3.01    1.52
   2  16   2   -0.88    2.56
   2 -16   2    2.47    1.45
  -2  16  -2   -0.51    1.53
   2 -16   2    0.76    1.45
  -2 -16  -2    0.27    1.35
  -2  16  -3   49.96    5.83
   2  16   3   38.53    5.48
  -2 -16  -3   47.60    5.48
   2 -16   3   45.80    5.49
  -2  16  -4   11.32    3.37
   2  16   4    5.46    2.78
   2 -16   4   10.19    2.86
  -2 -16  -4   13.05    3.14
  -2 -16  -5   28.38    4.82
   2  16   5   24.91    4.86
  -2  16  -5   32.52    5.32
   2 -16   5   27.06    4.58
  -2 -16  -6    3.44    2.17
  -2  16  -6   -2.57    2.16
   2  16   6   -1.10    2.37
   2 -16   6   -0.23    1.45
   2 -17  -8    4.56    2.36
   2 -17  -8    0.41    2.12
   2  17  -8    8.82    3.38
  -2 -17   8    2.70    1.91
   2 -17  -7    1.41    1.31
  -2 -17   7    5.13    2.32
   2  17  -7    8.55    2.85
   2 -17  -7    6.73    3.09
   2  17  -7    7.64    3.26
  -2  17   7   10.02    3.31
  -2 -17   7   10.03    2.82
   2 -17  -6    1.66    1.27
  -2 -17   6    1.39    1.58
   2  17  -6    2.99    1.87
   2  17  -6    3.06    2.29
   2 -17  -6   -0.13    2.41
  -2  17   6    5.18    2.56
  -2 -17   5  102.92    8.47
   2 -17  -5   84.39    7.98
   2  17  -5   97.24    7.93
   2  17  -5   90.03    7.71
   2 -17  -5   95.81    7.29
  -2  17   5  100.20    8.33
   2 -17  -4    6.55    2.49
  -2 -17   4    7.97    2.54
   2  17  -4    7.74    2.63
  -2  17   4   13.09    2.96
   2  17  -4    9.87    2.66
  -2  17   4   10.94    2.42
   2 -17  -4    9.44    2.32
   2 -17  -3    0.63    1.13
  -2  17   3   -0.98    0.79
  -2 -17   3   -1.09    2.09
  -2  17   3   -0.67    1.44
   2  17  -3    1.50    1.54
   2  17  -3    0.06    1.41
  -2  17   3    1.63    1.57
   2 -17  -3    0.06    2.13
  -2  17   2  105.91    6.78
  -2  17   2  106.99    7.47
   2 -17  -2  115.66    8.14
  -2  17   2  100.75    7.03
  -2 -17   2  111.87    8.16
   2 -17  -2  117.12    6.92
   2  17  -2  112.99    7.52
   2  17  -2  108.26    8.27
   2  17  -1   57.61    5.68
   2 -17  -1   57.24    5.65
  -2  17   1   51.72    4.88
  -2  17   1   59.47    5.23
   2 -17  -1   63.46    4.87
  -2 -17   1   54.99    5.67
   2 -17   0   84.38    6.43
  -2  17   0   73.04    5.53
   2  17   0   84.54    7.18
  -2 -17   0   77.35    6.67
   2 -17   0   77.33    6.11
  -2  17   0   67.82    5.96
   2 -17   1   16.36    2.79
  -2  17  -1   13.51    2.86
   2  17   1   14.35    3.43
   2 -17   1   18.39    3.13
  -2 -17  -1   14.30    3.06
   2 -17   1   11.78    2.61
   2  17   2   -0.67    2.14
   2 -17   2    0.61    1.61
  -2  17  -2    0.04    1.98
  -2 -17  -2    0.58    1.62
   2 -17   2    6.14    2.39
  -2  17  -3   29.85    4.69
   2  17   3   29.75    4.86
   2 -17   3   32.11    4.57
  -2 -17  -3   32.13    4.73
  -2  17  -4   34.34    5.40
   2  17   4   37.92    5.63
   2 -17   4   47.05    5.87
  -2 -17  -4   40.38    5.36
  -2 -17  -5   27.66    4.85
  -2  17  -5   30.88    5.36
   2  17   5   31.92    5.41
   2 -17   5   26.77    4.77
  -2  17  -6   -1.38    1.95
   2  17   6    2.91    2.43
   2 -17   6    4.74    2.36
   2 -18  -8   11.99    3.97
  -2 -18   8   10.35    3.04
   2 -18  -7   14.35    3.36
  -2 -18   7   15.46    3.86
   2 -18  -7   10.83    3.60
  -2  18   7   17.07    4.13
   2  18  -7   17.76    3.95
   2  18  -7   12.97    3.78
  -2 -18   7   14.92    3.49
   2 -18  -6    7.53    2.59
  -2 -18   6   14.05    3.78
  -2  18   6    8.26    3.10
   2 -18  -6    7.89    3.23
   2  18  -6    7.87    2.98
   2  18  -6    9.97    2.96
   2 -18  -5    0.42    1.32
  -2 -18   5    4.32    2.30
   2 -18  -5    0.05    2.28
  -2  18   5    7.02    2.65
   2  18  -5    2.84    1.86
   2  18  -5    2.97    2.16
   2 -18  -4   12.39    3.72
  -2  18   4   11.34    2.80
   2  18  -4    2.71    1.85
  -2 -18   4    8.84    3.05
  -2  18   4    6.26    1.87
   2  18  -4    9.45    2.82
   2 -18  -4    5.26    1.75
   2 -18  -3    8.12    2.08
  -2 -18   3    8.83    2.56
  -2  18   3    6.67    1.68
   2  18  -3    7.64    2.57
  -2  18   3    6.08    2.30
  -2  18   3    6.10    1.93
   2 -18  -3    3.02    2.21
  -2  18   2    1.84    1.26
   2  18  -2    0.07    2.03
   2  18  -2   -1.87    1.52
  -2  18   2    2.39    2.07
  -2 -18   2    0.45    1.45
  -2  18   2    1.08    1.48
   2 -18  -2   -3.79    2.54
   2 -18  -2   -0.94    0.97
   2 -18  -1   -0.46    2.15
   2  18  -1    4.41    2.41
  -2  18   1    1.73    1.21
   2  18  -1   -0.47    1.87
  -2  18   1    0.76    1.07
  -2 -18   1    1.19    1.43
   2 -18   0   36.98    4.68
  -2  18   0   31.74    4.16
   2  18   0   38.15    4.99
  -2 -18   0   30.82    4.35
   2 -18   0   31.56    4.05
   2 -18   1   20.21    3.31
   2 -18   1   16.39    3.13
  -2  18  -1   13.82    3.02
   2  18   1   19.17    3.94
  -2 -18  -1   10.27    2.71
   2 -18   1   10.44    2.73
   2 -18   2   12.05    2.89
  -2  18  -2    7.47    2.41
   2  18   2   12.00    3.38
  -2 -18  -2    7.16    2.47
   2  18   3   -1.72    2.60
  -2  18  -3    5.60    2.25
   2 -18   3    1.69    1.75
  -2 -18  -3    3.35    1.81
  -2  18  -4   14.88    3.72
   2  18   4   19.34    4.37
   2 -18   4   17.40    3.77
  -2 -18  -4   15.69    3.55
  -2  18  -5   23.48    4.97
   2  18   5   23.83    4.98
   2 -18   5   19.09    4.23
  -2 -18  -5   21.81    4.23
   2 -19  -7   28.61    4.74
  -2 -19   7   49.31    6.52
  -2  19   7   32.60    5.47
   2 -19  -7   26.37    5.33
   2  19  -7   24.58    4.68
   2  19  -7   29.03    5.25
  -2 -19   7   34.08    5.17
  -2 -19   6   68.73    7.64
   2  19  -6   69.15    7.39
   2 -19  -6   56.39    7.40
  -2  19   6   77.69    7.99
   2  19  -6   54.03    6.55
   2 -19  -6   68.68    6.91
  -2 -19   5   -1.79    2.03
   2 -19  -5   -1.38    2.30
  -2  19   5    5.34    2.55
   2  19  -5    0.13    1.95
   2  19  -5   -0.42    1.47
   2 -19  -5    0.95    1.32
  -2 -19   4   17.48    3.79
   2 -19  -4   12.21    3.73
  -2  19   4   20.59    3.83
   2  19  -4   10.04    2.91
   2 -19  -4   10.10    2.38
  -2 -19   3   16.08    3.57
   2  19  -3   16.40    3.52
  -2  19   3   18.99    3.67
  -2  19   3   18.47    3.17
   2 -19  -3   17.98    3.02
   2 -19  -3   15.51    3.75
  -2 -19   2    9.69    2.83
   2 -19  -2   11.19    3.29
  -2  19   2    6.66    2.13
  -2  19   2    6.77    2.16
   2  19  -2    6.21    2.52
  -2  19   2   11.34    2.46
   2 -19  -2    9.92    2.17
   2  19  -1    4.92    2.51
   2 -19  -1    5.75    2.66
  -2  19   1    3.22    1.64
  -2  19   1    3.36    1.70
   2  19  -1    2.73    1.72
  -2 -19   1    4.79    2.04
  -2  19   0   -1.51    1.68
   2 -19   0    0.73    1.89
   2  19   0    0.85    1.95
  -2 -19   0    2.39    1.66
   2 -19   0    1.27    1.29
  -2  19  -1   -2.09    2.39
   2  19   1   -0.99    2.70
   2 -19   1   -1.75    1.99
  -2 -19  -1    0.37    1.35
   2 -19   1    1.68    1.61
   2  19   2   -2.02    3.08
  -2  19  -2    2.73    1.66
  -2 -19  -2    0.78    1.74
   2 -19   2    3.62    2.19
  -2  19  -3  112.35    9.50
   2  19   3   98.68    8.90
  -2 -19  -3  111.90    9.05
   2 -19   3   96.23    8.32
  -2  19  -4  103.01    9.56
   2  19   4   99.70    9.37
   2 -19   4   93.90    8.61
  -2 -19  -4  105.47    9.23
  -2  19  -5   -4.00    2.40
   2  19   5   -0.28    1.78
   2 -19   5    0.57    1.59
  -2 -19  -5   -0.67    1.68
   2 -20  -7   -0.95    1.29
   2  20  -7   -5.19    2.83
  -2 -20   7    0.98    2.17
   2 -20  -6    8.63    2.70
  -2 -20   6    4.76    2.48
   2 -20  -6    8.27    3.66
   2  20  -6    8.18    3.28
  -2  20   6   10.88    3.59
  -2 -20   5    6.22    2.60
   2 -20  -5    6.99    3.14
   2  20  -5    8.81    3.02
  -2  20   5   10.70    3.25
   2 -20  -5    6.77    2.23
  -2 -20   4   -0.15    1.84
   2 -20  -4    2.14    2.72
  -2  20   4    0.72    1.46
   2  20  -4    0.57    1.53
   2 -20  -4    2.31    1.26
  -2 -20   3   89.93    8.19
   2 -20  -3   75.05    6.25
   2  20  -3   72.31    7.38
  -2  20   3   77.46    7.22
   2 -20  -3   80.65    7.86
  -2  20   2    6.00    2.10
  -2  20   2    4.71    1.88
   2 -20  -2    6.61    2.70
  -2  20   2    3.80    1.51
  -2 -20   2    2.11    1.90
   2  20  -2    6.59    2.66
  -2  20   1    6.01    2.09
   2 -20  -1    6.13    2.74
   2  20  -1    7.03    2.78
  -2  20   1    8.13    2.23
   2  20  -1    8.45    2.53
  -2 -20   1    6.66    2.29
   2 -20   0    9.87    2.98
   2  20   0   14.84    3.33
  -2  20   0    8.99    2.62
  -2 -20   0   15.63    3.37
   2 -20   0   15.58    3.05
   2 -20   1    5.12    2.38
  -2  20  -1    6.49    2.40
   2  20   1    3.34    2.40
  -2 -20  -1    4.23    1.96
   2 -20   1    6.61    2.48
  -2  20  -2    3.16    2.04
   2  20   2   -2.09    2.65
  -2 -20  -2    0.04    1.67
   2 -20   2    0.13    1.55
   2  20   3   50.74    6.83
  -2  20  -3   47.65    6.32
   2 -20   3   48.66    5.88
  -2 -20  -3   40.25    5.60
  -2  20  -4    0.67    1.83
   2  20   4   -0.68    2.18
   2 -20   4   -1.12    1.81
  -2 -20  -4    0.72    1.60
  -2 -21   6   43.88    6.41
   2  21  -6   49.52    6.72
  -2  21   6   35.91    5.88
   2 -21  -6   41.61    6.67
   2 -21  -6   54.07    6.22
   2  21  -5   -0.19    1.90
   2 -21  -5    3.75    3.11
  -2  21   5    2.67    2.13
  -2 -21   5    4.37    2.75
   2 -21  -5    3.88    1.76
  -2 -21   4   21.51    4.30
   2 -21  -4   19.59    4.71
   2  21  -4   13.52    3.41
  -2  21   4   22.80    4.20
  -2 -21   3   26.32    4.63
   2  21  -3   22.50    4.42
  -2  21   3   25.17    4.63
   2 -21  -3   18.63    4.51
  -2  21   2   22.66    3.69
   2  21  -2   28.77    4.87
  -2  21   2   23.23    3.87
   2 -21  -2   24.62    4.81
  -2 -21   2   24.15    4.33
  -2  21   2   19.38    3.38
  -2  21   1   -1.40    1.34
   2 -21  -1    0.20    2.27
   2  21  -1    4.46    2.50
   2  21  -1    1.87    2.05
  -2  21   1    1.79    1.51
  -2 -21   1    3.85    1.92
  -2  21   0   28.18    4.36
   2 -21   0   31.09    4.97
   2  21   0   28.41    5.04
   2  21   0   29.59    4.66
  -2 -21   0   29.20    4.62
   2 -21   0   29.69    4.18
  -2  21  -1   13.02    3.38
   2  21   1   15.37    4.03
   2 -21   1   19.95    3.98
  -2 -21  -1   14.65    3.47
   2 -21   1    9.60    2.82
  -2  21  -2    6.53    2.51
   2  21   2   10.89    3.54
  -2 -21  -2   10.89    3.06
   2 -21   2    7.47    2.62
  -2  21  -3   -0.21    1.68
   2  21   3    3.75    2.72
  -2 -21  -3    0.44    1.25
   2 -21   3   -0.71    1.65
  -2  21  -4    2.98    2.21
   2 -21   4    1.85    1.83
  -2 -21  -4    0.53    1.42
  -2 -22   5    3.83    2.39
   2 -22  -5   -2.14    2.58
   2  22  -5    0.82    1.72
  -2  22   5    1.70    2.21
   2  22  -4   11.21    3.48
  -2  22   4   14.39    3.64
  -2 -22   4   18.93    4.43
   2 -22  -4   14.42    4.15
  -2 -22   3   -3.63    2.28
   2  22  -3    0.45    1.79
   2 -22  -3    2.54    2.97
  -2  22   3    0.21    1.31
   2 -22  -2   11.15    3.65
   2  22  -2   12.50    3.50
  -2  22   2   12.14    3.06
  -2  22   2   13.27    2.96
  -2 -22   2   12.73    3.39
  -2  22   1    6.61    2.16
   2 -22  -1    3.26    2.63
   2  22  -1    6.30    3.11
  -2  22   1    8.78    2.61
  -2 -22   1    4.16    1.91
  -2  22   0   10.30    3.10
   2  22   0   10.45    3.47
   2 -22   0   16.02    4.02
  -2 -22   0   14.29    3.39
   2  22   0   18.87    3.94
   2 -22   0    9.49    2.72
  -2  22  -1    2.10    1.70
   2 -22   1    0.36    2.03
   2  22   1    4.65    2.50
  -2 -22  -1    3.54    1.94
   2 -22   1    1.23    1.51
   2  22   2   16.10    4.10
  -2  22  -2    7.97    2.73
  -2 -22  -2    5.10    2.62
   2 -22   2   13.24    3.28
  -2  22  -3    1.14    1.61
   2  22   3    1.68    2.40
  -2 -22  -3    0.17    1.51
   2 -22   3   -1.32    2.16
   2  23  -5   -0.01    1.47
  -2  23   5    4.72    2.55
  -2 -23   4    7.79    2.90
   2  23  -4   10.62    3.05
  -2  23   4    6.40    2.62
   2 -23  -4   10.90    4.14
  -2 -23   3   18.20    4.00
   2  23  -3   16.90    3.91
  -2  23   3   16.49    3.75
   2 -23  -3   14.74    4.34
   2 -23  -2    2.53    2.62
  -2  23   2    0.17    1.62
   2  23  -2    4.60    2.65
  -2 -23   2    5.29    2.35
  -2  23   1    2.29    1.65
   2 -23  -1    1.53    2.82
  -2 -23   1    2.56    1.90
   2  23  -1    2.13    2.10
   2 -23   0   17.59    4.22
   2  23   0   18.84    4.06
   2  23   0   19.27    4.19
  -2  23   0   17.27    3.78
  -2 -23   0   12.97    3.37
   2 -23   0   16.06    3.32
   2  23   1    8.13    3.25
   2  23   1    8.96    3.29
  -2 -23  -1    6.57    2.53
   2 -23   1    4.93    2.06
   2  23   2    4.86    2.45
  -2 -23  -2    2.59    2.14
   2 -23   2    1.69    1.66
  -2  23  -3    2.78    1.63
   2  23   3    3.49    2.55
   2 -23   3    0.50    1.48
  -2  24   4    1.00    1.70
  -2 -24   4   -0.15    2.03
  -2 -24   3   41.30    6.11
  -2  24   3   43.96    6.02
   2 -24  -3   46.89    6.99
   2  24  -3   37.73    5.89
   2 -24  -2   35.36    6.11
  -2 -24   2   25.90    4.64
   2  24  -2   20.48    4.41
   2  24  -1   38.30    5.77
   2 -24  -1   35.32    5.95
  -2  24   1   31.61    4.89
  -2 -24   1   35.81    5.50
   2 -24  -1   35.53    5.06
  -2  24   0   92.15    8.55
   2 -24   0   82.98    8.59
   2  24   0   89.04    8.94
  -2 -24   0  110.30    9.41
   2 -24   0   87.23    8.02
   2  24   1   17.90    4.19
  -2  24  -1   17.28    3.83
   2  24   1   22.92    4.61
  -2 -24  -1   17.97    4.18
   2 -24   1   21.10    4.14
   2  24   2   -1.36    1.74
   2  24   2   10.07    3.49
  -2  24  -2    3.72    2.22
  -2 -24  -2    6.17    2.83
   2 -24   2    5.80    2.25
  -2  25   3   -0.25    1.33
  -2 -25   2   -0.56    1.73
   2  25  -2    3.02    2.30
   2 -25  -2   -0.24    2.47
  -2 -25   2   -2.81    1.89
   2  25  -1    4.39    2.55
  -2  25   1    6.49    2.63
   2 -25  -1    6.10    3.22
  -2 -25   1    6.87    2.62
   2 -25  -1    9.52    2.92
  -2  25   0    1.97    1.81
   2 -25   0    3.65    2.89
  -2 -25   0   -0.19    1.54
   2  25   0   -0.47    1.76
   2 -25   0    2.23    1.83
   2  25   1   28.98    5.26
  -2  25  -1   26.88    5.07
   2  25   1   15.13    3.86
   2 -25   1   26.07    4.65
   2 -26  -1    6.79    3.25
  -2  26   1    3.54    2.09
  -2  26   0    1.31    1.69
   2 -26   0    0.62    1.99
   2 -26   0    1.98    2.18
   2  26   1   40.95    6.41
  -3   0  10   -2.40    1.92
   3   0 -10    2.19    2.68
  -3   0   9   35.24    5.25
   3   0  -9   32.29    5.30
  -3   0   8   -0.97    1.05
  -3   0   8    0.73    1.67
   3   0  -8    3.21    2.49
  -3   0   7  114.55    7.86
  -3   0   7   91.91    6.56
   3   0  -7   92.52    7.86
  -3   0   6   -0.04    1.20
   3   0  -6   -2.25    2.62
  -3   0   6   -0.77    1.08
   3   0  -6    0.85    1.03
  -3   0   6    2.43    2.23
  -3   0   5    6.07    1.71
  -3   0   5    7.80    1.79
   3   0  -5    3.57    1.24
  -3   0   5    6.15    2.26
  -3   0   4    0.46    0.73
   3   0  -4    1.47    1.07
  -3   0   4    1.80    1.61
  -3   0   3  303.40    9.66
   3   0  -3  318.80   10.59
  -3   0   3  294.70   10.53
  -3   0   2    0.16    0.49
  -3   0   2    0.07    1.24
  -3   0   2   -0.67    0.64
   3   0  -2    1.71    1.17
  -3   0   2    1.04    1.16
   3   0  -2   -0.13    0.62
   3   0  -1  133.73    7.24
  -3   0   1  124.06    4.17
  -3   0   1  133.48    5.72
   3   0  -1  128.10    5.87
  -3   0   1  143.90    6.54
  -3   0   1  139.27    6.03
  -3   0   0   -0.86    1.12
   3   0   0    0.35    1.12
   3   0   0   -1.13    1.37
  -3   0   0    1.76    0.70
   3   0   1  150.47    7.42
  -3   0  -1  148.89    7.53
  -3   0  -1  141.08    5.43
   3   0   1  155.11    7.79
  -3   0  -2   -0.47    0.63
  -3   0  -2   -0.41    1.40
   3   0   2    0.99    1.39
   3   0   2    0.40    0.89
  -3   0  -3   40.79    4.60
   3   0   3   43.14    4.61
  -3   0  -3   36.69    3.35
  -3   0  -4    1.79    1.12
  -3   0  -4    2.12    1.65
   3   0   4    3.08    1.89
  -3   0  -5   16.46    2.92
  -3   0  -5   14.54    3.23
   3   0   5   16.83    3.50
  -3   0  -6    1.37    1.30
  -3   0  -6   -0.43    1.32
   3   0   6   -2.56    1.86
  -3   0  -7    1.29    1.60
   3   0   7   -0.20    1.69
  -3   0  -8    2.36    1.85
   3   0   8    3.60    2.11
  -3   1  10   11.43    3.20
  -3  -1  10    9.89    3.13
   3  -1 -10    8.40    3.48
   3   1 -10   10.71    3.83
  -3   1   9    8.24    2.77
  -3  -1   9    6.11    2.49
   3   1  -9    5.78    3.34
   3  -1  -9    8.65    3.20
  -3   1   8   17.37    3.51
  -3  -1   8   15.55    3.34
   3  -1  -8   20.46    4.12
  -3   1   8   16.16    3.00
   3   1  -8   24.35    4.64
  -3   1   7    9.85    2.53
  -3  -1   7   10.37    2.73
  -3  -1   7   10.71    2.40
  -3   1   7    8.64    2.21
   3  -1  -7   10.61    3.27
   3   1  -7   11.94    3.35
  -3   1   6    7.60    2.10
  -3  -1   6    9.20    2.38
  -3  -1   6    6.91    1.81
  -3   1   6    6.35    1.89
   3  -1  -6    7.22    1.57
   3   1  -6    3.71    2.55
   3  -1  -6    4.64    2.32
   3   1  -6    6.87    1.72
  -3  -1   6    8.84    2.81
  -3   1   6    9.85    2.96
  -3   1   5   13.01    2.23
  -3  -1   5    9.25    1.96
  -3   1   5    7.19    1.77
   3   1  -5    5.47    0.84
   3   1  -5    7.04    1.67
   3  -1  -5    8.64    1.59
  -3  -1   5   12.26    2.55
  -3   1   5    9.62    2.70
  -3   1   4   -0.73    1.07
  -3  -1   4    0.70    0.94
  -3   1   4    0.14    0.88
   3   1  -4    0.86    1.04
  -3  -1   4    2.77    1.64
  -3   1   4    0.11    1.75
   3  -1  -4    1.98    1.05
  -3   1   3  166.26    6.38
  -3  -1   3  166.79    6.80
   3   1  -3  173.99    7.36
   3  -1  -3  173.86    7.22
  -3  -1   3  177.87    7.68
  -3   1   3  160.24    7.24
  -3   1   3  171.11    5.50
  -3   1   2  121.80    4.36
  -3  -1   2  116.46    4.80
  -3   1   2  118.65    4.97
   3   1  -2  124.39    6.11
  -3  -1   2  117.90    5.13
  -3   1   2  126.28    5.83
   3   1  -2  117.82    5.28
   3  -1  -2  119.49    5.07
  -3  -1   2  120.97    6.03
  -3   1   2  120.42    5.95
   3   1  -2  121.68    6.80
   3  -1  -2  120.30    6.95
   3  -1  -1    6.26    1.86
  -3  -1   1    7.02    1.68
  -3   1   1    5.64    0.66
  -3   1   1    5.49    1.47
  -3   1   1    4.42    1.15
  -3  -1   1    6.37    1.31
  -3  -1   1    4.76    1.26
  -3   1   1    4.75    1.40
   3   1  -1    6.08    1.43
  -3  -1   1    5.36    0.95
   3  -1  -1    5.21    1.35
   3   1  -1    4.65    1.52
  -3  -1   0 1921.06   42.84
   3   1   0 1885.88   43.99
   3  -1   0 1877.42   43.96
  -3   1   0 1898.08   42.66
  -3  -1   0 1799.01   40.60
  -3  -1   0 1817.09   39.71
   3   1   0 1807.90   42.48
   3  -1   0 1879.19   42.66
  -3   1   0 1845.51   38.44
  -3  -1  -1    1.36    0.71
  -3   1  -1    0.99    0.57
   3   1   1    1.76    1.01
   3  -1   1    0.88    0.95
  -3   1  -1    1.65    1.12
  -3  -1  -1    0.74    1.08
   3   1   1    1.63    1.31
   3  -1   1    0.31    1.12
  -3  -1  -2    4.15    1.13
  -3   1  -2    3.61    0.97
  -3   1  -2    6.11    2.20
   3  -1   2    2.49    1.29
  -3  -1  -2    2.15    1.29
   3   1   2    2.90    1.17
   3   1   2    1.90    1.21
   3  -1   2    1.78    1.43
  -3  -1  -3    4.50    1.39
  -3   1  -3    6.06    1.46
  -3   1  -3    2.88    1.92
   3   1   3    4.75    1.86
   3  -1   3    8.52    2.53
  -3  -1  -3    4.65    1.85
  -3  -1  -4    3.82    1.50
  -3   1  -4    2.40    1.20
  -3  -1  -4    3.24    1.69
  -3   1  -4    2.96    1.79
   3   1   4    3.21    1.86
   3  -1   4    3.99    2.11
  -3  -1  -5    3.07    1.51
  -3   1  -5    1.94    1.37
  -3   1  -5    2.57    1.56
  -3  -1  -5    3.76    1.87
   3   1   5    5.49    2.08
   3   1   5    0.20    1.42
   3  -1   5    5.69    2.20
  -3  -1  -6    7.75    2.28
  -3   1  -6    9.69    2.43
  -3   1  -6    5.97    2.40
  -3  -1  -6    8.72    2.92
   3   1   6    6.33    2.33
   3  -1   6    9.86    3.07
  -3   1  -7   49.53    6.65
  -3  -1  -7   39.12    5.92
   3  -1   7   47.26    6.34
  -3  -1  -7   47.15    5.56
   3   1   7   42.92    5.88
   3   1   8    1.57    1.55
   3  -1   8    5.02    2.26
  -3   2  10    7.26    2.71
  -3  -2  10    4.78    2.57
   3  -2 -10    8.80    3.40
   3   2 -10    6.41    3.23
  -3   2   9    4.70    2.50
  -3  -2   9    3.20    2.08
   3  -2  -9    1.41    2.27
   3   2  -9    4.46    3.03
  -3  -2   8   54.29    5.96
  -3   2   8   53.37    5.45
   3   2  -8   50.13    6.31
   3  -2  -8   56.37    6.29
  -3   2   8   62.31    6.23
  -3  -2   7   88.39    7.04
   3  -2  -7   86.52    5.37
  -3   2   7   78.04    6.36
   3   2  -7   82.43    7.53
   3  -2  -7   83.23    7.25
  -3   2   7   82.04    6.73
  -3   2   6  105.42    6.90
  -3  -2   6  110.80    7.34
  -3  -2   6  114.85    7.42
  -3   2   6  106.79    7.29
  -3   2   6  113.83    7.18
   3   2  -6   96.75    5.82
   3   2  -6  107.70    8.12
   3  -2  -6  110.04    7.79
  -3   2   5    0.52    0.90
  -3  -2   5    0.55    0.99
  -3   2   5    0.65    1.84
  -3   2   5    0.64    1.06
   3   2  -5    0.78    1.15
   3  -2  -5    0.97    0.88
  -3  -2   5   -0.05    1.66
   3   2  -5   -0.30    0.45
  -3   2   4  113.02    5.75
  -3  -2   4  109.77    6.26
  -3   2   4  111.32    6.33
  -3  -2   4  118.44    6.17
  -3   2   4  116.96    6.59
   3   2  -4  110.60    5.86
   3  -2  -4  118.87    5.51
  -3   2   3  149.11    5.83
  -3  -2   3  154.60    6.59
  -3   2   3  162.06    7.67
  -3   2   3  150.66    4.96
   3   2  -3  158.07    7.08
   3  -2  -3  162.91    8.27
  -3  -2   3  152.15    6.95
  -3   2   3  145.27    6.80
  -3   2   2   35.30    2.03
   3  -2  -2   46.17    4.17
  -3  -2   2   41.58    2.81
   3   2  -2   43.21    3.57
  -3   2   2   45.27    3.48
  -3  -2   2   38.22    2.88
  -3   2   2   39.98    2.64
   3  -2  -2   39.13    2.70
  -3  -2   2   39.01    3.42
  -3   2   2   40.93    3.33
   3  -2  -1  597.15   18.02
  -3  -2   1  553.18   15.40
  -3   2   1  540.13   15.11
  -3   2   1  566.20   15.53
  -3  -2   1  527.60   14.18
  -3  -2   1  509.55   13.87
   3   2  -1  530.32   15.45
   3  -2  -1  535.45   15.16
  -3  -2   1  550.28   16.04
  -3   2   1  565.69   15.83
   3   2  -1  560.59   17.14
   3   2   0   73.02    5.15
  -3   2   0   68.94    4.60
  -3  -2   0   62.16    3.49
  -3  -2   0   68.45    4.74
  -3   2   0   70.31    2.37
  -3  -2   0   74.11    3.80
   3   2   0   64.19    4.64
   3  -2   0   63.90    4.44
   3  -2   0   73.08    5.17
   3  -2   1  220.60    9.49
  -3  -2  -1  227.61    9.65
  -3   2  -1  214.72    9.36
   3   2   1  214.15    8.94
   3   2   1  215.04    9.36
  -3   2  -1  198.48    6.24
   3  -2   1  219.89    9.43
  -3  -2  -1  204.07    7.49
  -3   2  -2   22.39    3.24
  -3  -2  -2   24.73    3.29
   3   2   2   19.44    2.59
   3  -2   2   21.90    2.82
  -3  -2  -2   17.31    2.16
  -3   2  -2   20.85    2.02
   3   2   2   22.70    3.15
   3  -2   2   23.08    3.29
  -3  -2  -3    1.66    1.13
  -3   2  -3    1.38    0.88
  -3  -2  -3    0.07    1.57
  -3   2  -3   -0.05    1.30
   3  -2   3    1.83    1.90
   3   2   3   -0.02    1.57
   3  -2   4   20.29    2.71
  -3  -2  -4   25.45    3.30
  -3   2  -4   20.78    2.78
  -3  -2  -4   23.09    3.78
  -3   2  -4   28.77    4.15
   3   2   4   21.93    3.68
   3  -2   4   19.12    3.42
   3  -2   5   26.24    3.37
  -3  -2  -5   24.88    3.56
  -3   2  -5   24.24    3.32
  -3   2  -5   20.27    3.69
   3   2   5   28.49    4.10
   3   2   5   35.01    4.69
  -3  -2  -5   27.76    4.42
   3  -2   5   24.70    4.17
  -3  -2  -6   40.55    5.59
  -3   2  -6   39.02    5.46
  -3  -2  -6   38.37    4.76
   3   2   6   42.32    5.45
   3  -2   6   38.89    5.51
  -3  -2  -7    1.59    1.26
  -3   2  -7    0.42    1.45
  -3  -2  -7   -1.53    1.69
   3   2   7    4.11    2.27
   3  -2   7    2.27    1.91
   3   2   8    0.66    1.38
  -3   3  10   13.70    3.57
  -3  -3  10   14.19    3.65
   3  -3 -10   14.05    3.58
   3   3 -10   16.30    4.32
  -3   3   9   12.76    3.34
  -3  -3   9    8.97    2.94
   3  -3  -9    7.46    3.10
   3   3  -9    7.64    3.15
  -3   3   8    5.07    2.08
  -3  -3   8    4.22    2.17
  -3   3   8    0.52    1.06
   3   3  -8    5.45    3.12
   3  -3  -8    3.24    2.41
  -3   3   7   25.53    3.80
  -3  -3   7   33.42    4.35
   3  -3  -7   28.56    3.11
  -3   3   7   27.25    3.87
   3   3  -7   24.94    4.66
   3  -3  -7   33.93    4.83
  -3  -3   6   72.27    5.83
  -3  -3   6   74.46    5.90
  -3   3   6   73.49    6.01
  -3   3   6   75.67    5.93
   3  -3  -6   63.76    5.92
   3   3  -6   56.14    4.57
   3   3  -6   64.30    6.33
  -3   3   6   59.90    5.16
  -3   3   5   19.24    2.62
  -3  -3   5   19.03    2.73
   3   3  -5   16.85    1.80
  -3   3   5   24.35    3.17
   3  -3  -5   18.67    1.98
  -3  -3   5   14.96    2.77
  -3   3   5   19.90    3.28
   3   3  -5   22.02    2.87
  -3  -3   4  258.91   10.19
  -3   3   4  264.15   10.35
  -3  -3   4  275.97   10.33
  -3   3   4  274.27   10.99
   3   3  -4  247.02    9.83
   3  -3  -4  270.89    9.12
  -3   3   4  268.32    9.51
  -3  -3   3  123.89    6.05
  -3   3   3  141.11    4.60
  -3   3   3  148.55    7.34
   3   3  -3  146.12    6.91
  -3   3   3  149.88    6.99
   3  -3  -3  137.22    4.58
  -3  -3   3  139.87    6.62
   3  -3  -3  146.21    7.84
  -3   3   3  133.63    6.49
  -3   3   3  129.68    5.29
  -3   3   2    0.10    0.39
  -3  -3   2    0.11    0.61
  -3  -3   2   -0.02    0.69
  -3   3   2   -0.03    0.56
  -3   3   2   -0.68    1.25
  -3  -3   2   -0.01    1.03
   3   3  -2   -2.25    1.29
  -3   3   2    1.17    1.10
   3  -3  -2   -0.53    0.68
   3  -3  -2    1.87    1.12
  -3  -3   1   10.13    1.92
  -3   3   1    9.34    1.76
   3  -3  -1   10.35    2.14
  -3  -3   1    6.70    1.46
  -3   3   1    6.64    1.35
   3   3  -1    7.96    1.88
  -3   3   1    9.34    1.77
   3   3  -1    8.08    1.78
  -3  -3   1    7.82    1.26
   3   3  -1    8.71    1.70
  -3  -3   1    6.29    1.18
   3  -3  -1    5.80    1.22
   3   3   0  289.27   10.97
  -3  -3   0  285.85   10.53
  -3   3   0  303.79   10.71
   3  -3   0  289.41   11.32
  -3  -3   0  262.91    8.14
  -3  -3   0  280.10    9.16
   3   3   0  268.76   10.44
   3  -3   0  287.97   10.45
  -3  -3  -1   83.52    5.73
   3   3   1   89.89    5.39
  -3   3  -1   96.84    6.00
   3  -3   1  100.63    6.13
  -3   3  -1   80.91    3.24
  -3  -3  -1   85.18    4.63
   3  -3   1   90.53    5.75
   3   3   1   82.29    5.69
  -3  -3  -2    4.06    1.18
  -3   3  -2    3.86    0.93
  -3  -3  -2    3.05    1.79
  -3   3  -2    6.50    1.99
   3  -3   2    4.49    1.54
   3   3   2    5.36    2.01
   3   3   2    3.82    1.23
   3  -3   2    2.08    1.42
  -3   3  -3  606.01   20.66
  -3  -3  -3  659.55   21.25
   3   3   3  656.01   20.77
   3  -3   3  644.90   20.90
  -3  -3  -3  631.27   18.73
  -3   3  -3  603.31   17.24
   3  -3   3  600.01   16.84
   3  -3   4    7.27    1.61
  -3  -3  -4   12.98    2.44
  -3   3  -4    8.87    1.88
  -3  -3  -4    7.10    2.39
  -3   3  -4    7.25    2.12
   3   3   4   10.94    2.84
   3  -3   4    9.18    2.70
  -3  -3  -5    2.16    1.43
  -3   3  -5    1.47    1.09
  -3  -3  -5    0.97    1.47
  -3   3  -5    2.98    1.97
   3   3   5    1.93    1.51
   3   3   5    2.87    1.79
   3  -3   5   -0.70    1.65
  -3  -3  -6    1.16    1.05
  -3  -3  -6    3.48    2.02
  -3   3  -6   -2.21    1.74
   3   3   6    1.87    1.67
   3  -3   6    2.67    1.97
  -3  -3  -7    3.04    1.68
  -3  -3  -7    0.00    1.34
   3   3   7    2.47    1.92
   3  -3   7   -0.56    1.48
  -3   4  10    9.57    3.39
  -3  -4  10   -1.12    2.07
   3  -4 -10   11.64    3.75
   3   4 -10   13.35    4.47
  -3   4   9    7.60    2.67
  -3  -4   9    7.32    2.63
  -3   4   9    7.63    2.33
   3  -4  -9    4.08    2.52
   3   4  -9    8.49    3.71
  -3   4   8    0.79    1.45
  -3  -4   8    2.90    1.88
  -3   4   8   -0.77    1.22
   3   4  -8    0.96    2.33
   3  -4  -8    2.49    2.20
  -3   4   7    4.28    2.01
  -3  -4   7    5.47    2.42
   3  -4  -7    1.08    1.00
  -3   4   7    6.99    2.26
   3   4  -7    2.25    2.51
   3  -4  -7    5.38    2.57
  -3  -4   6   77.97    6.05
  -3  -4   6   80.57    6.15
  -3   4   6   76.65    6.15
  -3   4   6   68.79    5.85
   3  -4  -6   76.36    6.29
   3   4  -6   66.58    6.70
  -3   4   6   70.94    5.59
  -3   4   5   16.33    2.44
  -3  -4   5   20.56    2.93
   3   4  -5   16.01    1.86
  -3   4   5   21.74    3.05
   3  -4  -5   21.97    2.07
   3   4  -5   25.40    3.12
  -3  -4   5   17.00    2.88
  -3   4   5   20.56    3.28
  -3   4   4   13.15    1.89
  -3  -4   4   17.74    2.52
  -3   4   4   20.56    2.83
   3   4  -4   17.85    2.63
   3  -4  -4   15.77    2.56
  -3  -4   4   21.90    2.86
   3  -4  -4   15.51    1.88
  -3   4   4   18.62    2.81
  -3  -4   3   93.17    5.17
  -3   4   3   91.31    3.54
  -3   4   3   97.27    5.84
   3   4  -3   95.41    5.58
  -3   4   3   98.67    5.64
   3  -4  -3   87.28    3.50
  -3  -4   3   90.59    5.21
  -3   4   3   90.76    4.15
  -3   4   3   97.46    5.36
   3  -4  -3   97.75    6.32
  -3  -4   2  256.88    9.11
   3  -4  -2  295.15   11.68
  -3   4   2  262.45    8.45
  -3   4   2  288.17   10.80
   3   4  -2  284.04   10.38
  -3   4   2  282.44   10.14
   3  -4  -2  259.46    8.48
  -3  -4   2  286.40   10.10
  -3   4   2  271.02    9.63
   3  -4  -1  234.07   10.20
  -3  -4   1  222.35    8.79
   3   4  -1  223.62    9.19
  -3   4   1  236.09    9.21
  -3  -4   1  228.70    8.19
   3  -4  -1  220.82    8.29
  -3  -4   1  228.25    8.97
  -3   4   1  229.57    8.49
  -3   4   1  243.29    8.78
   3   4  -1  237.47    9.80
   3   4   0   49.69    4.04
   3  -4   0   55.64    4.58
  -3   4   0   48.72    3.90
  -3  -4   0   47.09    4.08
   3   4   0   51.22    4.14
  -3  -4   0   45.83    2.58
   3   4   0   41.50    3.87
   3  -4   0   51.25    3.94
  -3   4   0   51.01    3.74
  -3  -4   0   49.47    3.43
   3  -4   1   12.34    2.27
   3   4   1    9.68    1.74
  -3  -4  -1   11.21    2.29
  -3   4  -1   10.89    2.32
  -3   4  -1   10.47    0.97
   3   4   1    9.62    2.07
   3  -4   1   11.49    2.23
  -3  -4  -1    9.97    1.68
  -3  -4  -2    4.44    1.38
   3  -4   2    1.00    0.58
   3   4   2    2.61    1.03
  -3   4  -2    3.03    0.83
  -3  -4  -2    2.67    1.55
   3  -4   2    3.41    1.59
  -3   4  -2    1.28    1.33
   3   4   2    1.83    1.57
   3  -4   2    1.57    1.34
  -3   4  -3  244.68   11.87
  -3  -4  -3  270.60   12.25
   3   4   3  256.26   11.80
  -3  -4  -3  257.77   10.56
   3  -4   3  250.27   11.76
  -3   4  -3  251.80    9.17
   3  -4   3  244.38    8.85
  -3  -4  -4   -1.25    1.51
  -3   4  -4   -0.21    0.93
  -3  -4  -4    0.12    1.29
  -3   4  -4   -0.86    1.55
   3   4   4    0.60    2.12
   3   4   4   -3.09    1.88
   3  -4   4   -1.42    1.64
  -3  -4  -5   13.18    2.74
  -3   4  -5   10.46    2.89
   3   4   5   13.23    3.09
   3   4   5    7.21    2.50
  -3  -4  -5   10.78    2.79
   3  -4   5   10.22    2.83
  -3  -4  -6   -0.42    1.09
  -3  -4  -6    0.88    1.38
  -3   4  -6   -0.75    1.52
   3   4   6    0.12    1.44
   3  -4   6    0.39    1.48
  -3  -4  -7   16.26    3.43
  -3  -4  -7   16.25    3.84
  -3   4  -7   13.98    3.57
   3   4   7    9.69    3.01
   3  -4   7   12.23    3.36
  -3   5  10    0.91    1.61
  -3  -5  10    4.68    2.35
   3  -5 -10    0.69    1.93
   3   5 -10   -1.56    2.72
  -3   5   9    3.87    2.07
  -3  -5   9    6.28    2.65
   3  -5  -9    1.82    1.97
  -3   5   9    3.97    1.90
   3  -5  -9    5.03    2.64
   3   5  -9    5.64    3.44
  -3   5   8   11.02    2.69
  -3  -5   8    6.33    2.41
   3   5  -8   12.27    3.69
   3  -5  -8   11.52    3.16
  -3   5   8    9.40    2.47
  -3  -5   7  163.29    9.86
   3  -5  -7  166.00    8.37
  -3   5   7  162.02    9.78
   3   5  -7  159.08   10.81
   3  -5  -7  167.69    9.97
  -3   5   7  174.09    9.74
  -3  -5   6   90.91    6.63
  -3  -5   6   85.81    6.35
  -3   5   6   90.84    6.75
   3  -5  -6   86.74    6.71
   3   5  -6   86.45    7.45
  -3   5   6   91.32    6.26
  -3  -5   5   41.10    4.18
  -3  -5   5   45.53    4.31
  -3   5   5   44.99    4.48
   3   5  -5   42.29    3.26
  -3   5   5   43.60    4.41
   3   5  -5   41.55    4.04
   3  -5  -5   39.91    2.74
   3   5  -5   36.68    4.83
   3  -5  -5   42.27    4.42
  -3   5   5   45.13    3.95
  -3  -5   4  209.10    9.12
  -3   5   4  190.11    8.72
  -3   5   4  219.35    9.85
   3   5  -4  196.66    8.86
   3  -5  -4  213.09    9.98
  -3   5   4  194.26    7.77
  -3  -5   4  210.34    8.84
   3  -5  -3   43.14    4.28
  -3  -5   3   46.88    3.70
  -3   5   3   43.13    2.33
  -3   5   3   49.89    4.25
   3   5  -3   40.02    3.81
  -3   5   3   47.65    4.11
   3  -5  -3   41.83    2.33
  -3  -5   3   45.09    3.67
  -3   5   3   41.55    2.75
  -3   5   3   43.27    3.59
  -3  -5   2   70.88    4.38
   3  -5  -2   85.92    6.00
  -3   5   2   76.00    3.95
  -3   5   2   81.19    5.21
   3   5  -2   77.43    5.16
  -3   5   2   74.31    4.87
  -3  -5   2   76.64    4.54
   3  -5  -2   70.85    3.77
   3  -5  -2   69.46    2.79
  -3  -5   2   78.39    4.89
  -3   5   2   81.73    4.63
  -3  -5   1   13.26    2.10
  -3   5   1   15.09    2.12
   3   5  -1   12.61    2.10
   3   5  -1   15.56    2.47
   3  -5  -1   13.81    2.39
  -3  -5   1   14.21    2.09
  -3   5   1   16.94    2.12
  -3  -5   1   14.99    2.02
   3  -5  -1   11.36    1.69
  -3   5   0    9.45    1.73
   3  -5   0   13.22    2.32
  -3  -5   0   11.51    2.19
  -3   5   0   12.13    2.08
   3   5   0   10.23    2.00
   3   5   0   12.68    2.27
   3  -5   0   12.32    2.07
   3   5   0   12.57    2.05
  -3  -5   0   12.69    1.87
   3   5   1   48.10    3.79
  -3  -5  -1   46.98    4.48
   3  -5   1   53.61    4.54
  -3  -5  -1   43.43    2.33
   3   5   1   47.59    4.00
  -3   5  -1   53.25    4.52
  -3  -5  -1   48.21    3.69
   3   5   1   47.53    4.45
   3  -5   1   53.08    4.37
  -3   5  -1   49.60    2.07
   3  -5   1   49.22    2.07
  -3   5  -2   81.96    6.06
  -3  -5  -2   70.77    5.81
   3   5   2   74.05    5.79
  -3  -5  -2   69.81    4.83
   3  -5   2   73.74    5.62
  -3   5  -2   76.75    3.69
   3   5   2   75.05    4.74
   3  -5   2   68.43    3.49
  -3  -5  -3   94.72    7.06
  -3   5  -3   81.39    6.55
   3   5   3   80.83    6.31
  -3  -5  -3   76.32    5.55
   3  -5   3   81.06    6.33
  -3   5  -3   77.20    4.46
   3  -5   3   72.63    4.32
  -3  -5  -4  130.69    8.83
   3   5   4  109.23    8.11
  -3   5  -4  137.08    9.09
   3   5   4  114.70    8.12
   3  -5   4  125.59    8.51
  -3  -5  -4  125.04    7.75
  -3  -5  -5    9.84    2.52
  -3  -5  -5    9.35    2.85
   3   5   5    8.95    3.08
   3   5   5    5.84    2.17
   3  -5   5    8.11    2.52
  -3  -5  -6    3.68    2.00
  -3  -5  -6    3.16    1.85
  -3   5  -6    0.33    1.43
   3   5   6    2.05    1.69
   3   5   6    1.10    1.57
   3  -5   6    3.40    2.14
  -3  -5  -7   28.03    4.50
  -3   5  -7   27.78    5.17
  -3  -5  -7   36.43    5.41
   3   5   7   25.27    4.67
   3  -5   7   23.55    4.52
  -3   6  10   20.81    4.31
  -3  -6  10   18.25    4.16
   3  -6 -10   17.97    4.48
   3   6 -10   17.53    4.83
  -3   6   9    3.90    2.27
  -3  -6   9    5.05    2.27
   3  -6  -9    1.56    2.07
  -3   6   9    5.62    2.22
   3   6  -9    5.37    3.45
  -3   6   8    0.99    1.50
  -3  -6   8   -2.15    1.69
   3  -6  -8    2.15    1.85
  -3   6   8    1.33    1.34
   3  -6  -8    0.89    1.70
   3   6  -8    2.37    2.86
  -3   6   7    7.53    2.22
  -3  -6   7   14.28    3.14
   3  -6  -7   10.67    2.36
  -3   6   7   10.97    2.87
   3   6  -7   18.46    4.22
   3  -6  -7   12.55    3.07
  -3   6   6   17.93    2.84
  -3  -6   6   14.02    2.95
   3   6  -6   14.44    3.60
   3  -6  -6   19.41    2.75
  -3   6   6   15.96    3.17
   3   6  -6   13.20    2.07
   3  -6  -6   13.09    2.67
   3  -6  -6   16.27    2.99
  -3  -6   6   16.33    3.00
  -3   6   5    2.33    1.12
  -3  -6   5    5.02    2.01
   3   6  -5    2.56    2.34
   3   6  -5    2.97    1.22
   3  -6  -5    2.55    1.45
  -3  -6   5    2.33    1.51
  -3   6   5    2.81    1.47
   3  -6  -5    4.70    1.01
  -3   6   5    4.11    2.24
   3  -6  -4   57.31    4.99
  -3  -6   4   53.25    4.42
  -3   6   4   52.55    4.30
  -3   6   4   56.68    4.84
   3   6  -4   51.20    4.55
   3  -6  -4   50.16    3.74
  -3   6   4   52.34    3.68
  -3  -6   4   61.79    4.52
   3  -6  -3    0.00    0.91
   3  -6  -3    1.39    0.62
  -3  -6   3    0.46    0.92
  -3   6   3    0.62    0.38
  -3  -6   3   -0.03    1.14
  -3   6   3    3.04    1.41
   3   6  -3    0.35    1.69
  -3   6   3    3.68    1.47
  -3   6   3    2.92    1.71
   3  -6  -3    1.79    0.66
   3  -6  -2   42.87    4.31
  -3   6   2   40.26    2.90
  -3   6   2   46.94    3.95
   3   6  -2   39.54    3.85
  -3   6   2   45.27    3.88
  -3  -6   2   46.48    3.67
   3  -6  -2   38.23    1.96
   3  -6  -2   39.08    2.76
  -3  -6   2   43.16    3.62
  -3   6   2   40.19    3.24
   3  -6  -1  346.95   13.28
  -3   6   1  346.41   11.47
  -3  -6   1  352.94   11.68
   3  -6  -1  338.56   11.09
   3   6  -1  334.09   12.05
  -3  -6   1  336.35   11.61
  -3   6   1  356.17   11.34
  -3   6   0   60.39    4.47
   3   6   0   58.51    4.36
  -3  -6   0   57.61    4.71
   3  -6   0   63.89    5.04
   3   6   0   55.12    4.42
  -3  -6   0   56.39    4.03
   3  -6   0   58.21    4.29
  -3   6   0   58.20    3.93
   3   6   1   36.54    3.29
  -3  -6  -1   33.04    3.82
  -3   6  -1   39.77    3.96
   3  -6   1   43.91    4.19
   3   6   1   34.44    3.50
  -3  -6  -1   30.84    1.67
  -3  -6  -1   39.74    3.50
   3   6   1   34.07    3.88
   3  -6   1   39.74    3.81
  -3   6  -1   33.55    1.61
   3  -6   1   34.02    1.75
  -3  -6  -2  436.04   15.64
   3   6   2  425.89   14.06
  -3   6  -2  425.12   15.58
   3   6   2  422.35   15.30
  -3  -6  -2  410.16   13.98
   3  -6   2  425.03   15.36
  -3   6  -2  412.13   11.20
   3   6   2  399.96   12.62
   3  -6   2  391.22   11.09
  -3  -6  -3    8.27    1.98
  -3  -6  -3    6.68    2.12
   3   6   3    5.26    1.74
  -3   6  -3    8.82    2.33
   3   6   3    8.88    2.38
   3  -6   3    7.78    2.16
   3   6   4  196.48   11.27
  -3  -6  -4  236.44   12.07
  -3   6  -4  207.29   11.50
   3   6   4  193.26    9.16
   3   6   4  209.96   11.24
  -3  -6  -4  208.65   10.48
   3  -6   4  210.93   11.36
  -3  -6  -5    7.83    2.23
  -3  -6  -5    6.00    2.48
   3   6   5   11.02    3.18
  -3   6  -5    5.19    2.15
   3   6   5    8.47    2.52
   3  -6   5    3.21    2.07
  -3  -6  -6   11.25    2.92
  -3  -6  -6   12.32    3.24
  -3   6  -6    8.40    2.82
   3   6   6    6.55    2.43
   3   6   6    7.80    2.80
   3  -6   6    5.65    2.36
  -3  -6  -7   29.26    4.69
  -3  -6  -7   26.72    4.81
  -3   6  -7   32.40    5.67
   3   6   7   23.02    4.44
   3  -6   7   38.31    5.71
   3  -7 -10    1.66    1.83
  -3   7   9    1.74    1.78
  -3  -7   9    1.50    2.01
   3  -7  -9   -0.64    1.59
  -3   7   9   -0.05    1.54
   3   7  -9   -1.07    2.62
  -3   7   8   28.80    4.37
  -3  -7   8   27.05    4.30
   3  -7  -8   30.37    4.72
  -3   7   8   22.84    4.15
   3   7  -8   32.58    5.61
  -3   7   7    0.52    1.34
  -3  -7   7    0.91    1.57
   3  -7  -7    0.84    1.30
   3  -7  -7    0.83    1.17
  -3   7   7    2.13    2.05
   3  -7  -7    0.97    1.55
   3   7  -7    3.11    2.83
   3  -7  -7    2.74    1.49
  -3  -7   6   65.88    5.90
  -3  -7   6   63.94    5.31
   3  -7  -6   60.76    5.13
   3   7  -6   72.31    4.94
  -3   7   6   75.81    6.34
   3   7  -6   54.51    6.32
   3  -7  -6   82.59    6.31
   3  -7  -6   75.46    5.94
   3  -7  -6   65.66    5.84
  -3   7   6   62.54    5.22
  -3  -7   5  157.88    8.85
  -3  -7   5  164.01    8.12
  -3   7   5  168.33    8.61
   3   7  -5  151.54    7.35
   3   7  -5  143.53    8.22
  -3   7   5  187.95    9.64
   3   7  -5  165.77    9.87
   3  -7  -5  169.93    8.29
  -3   7   5  153.68    7.69
   3  -7  -5  166.39    9.14
   3  -7  -4    0.04    0.86
  -3  -7   4    1.42    1.41
   3   7  -4    4.32    2.35
  -3  -7   4    2.47    1.61
  -3   7   4    0.63    1.39
  -3   7   4    0.04    1.49
   3  -7  -4    2.81    1.61
  -3   7   3   91.58    5.31
  -3  -7   3   95.24    5.82
   3  -7  -3   92.32    6.40
  -3   7   3   89.50    4.02
  -3   7   3   99.16    6.24
   3   7  -3   84.16    5.82
  -3   7   3   97.39    6.04
   3  -7  -3   87.50    3.83
   3  -7  -3   91.79    4.35
  -3  -7   3   92.10    5.32
  -3  -7   2   15.68    2.33
  -3   7   2   11.94    2.16
   3  -7  -2   12.31    2.31
  -3   7   2   12.51    1.84
   3   7  -2   13.23    2.57
  -3   7   2   16.93    2.63
   3  -7  -2   13.93    1.19
  -3  -7   2   15.26    2.31
  -3   7   2   14.10    1.79
   3  -7  -2   13.09    1.62
  -3   7   1   30.33    2.91
   3  -7  -1   31.47    3.62
  -3   7   1   28.76    3.14
   3   7  -1   30.14    3.39
  -3  -7   1   32.73    3.22
   3  -7  -1   28.71    2.75
  -3  -7   1   32.49    3.11
  -3   7   1   34.12    2.97
  -3   7   0   16.62    2.15
  -3  -7   0   12.30    2.41
  -3   7   0   17.25    2.52
   3   7   0   13.41    2.43
   3  -7   0   18.46    2.81
   3   7   0   15.07    2.17
   3  -7   0   17.75    2.41
  -3  -7   0   17.33    2.43
   3   7   1   60.48    4.11
  -3  -7  -1   55.13    4.90
   3  -7   1   57.69    4.89
   3   7   1   47.92    4.27
  -3   7  -1   58.50    4.87
  -3  -7  -1   53.79    4.24
   3  -7   1   58.44    4.84
   3  -7   1   56.40    2.53
  -3   7  -2  800.15   24.18
   3   7   2  789.18   20.35
   3   7   2  742.46   22.24
  -3  -7  -2  828.89   24.20
   3   7   2  830.11   24.35
  -3  -7  -2  787.27   22.61
   3  -7   2  811.21   23.91
   3   7   3   73.90    5.34
  -3   7  -3   74.55    6.36
   3   7   3   70.63    6.20
  -3  -7  -3   70.16    5.52
   3  -7   3   76.62    6.21
  -3  -7  -3   78.45    6.37
  -3  -7  -4   -0.28    1.16
  -3  -7  -4    0.12    1.41
   3   7   4    1.78    2.27
  -3   7  -4    0.81    1.47
   3   7   4    0.89    1.60
   3  -7   4    0.54    1.39
  -3  -7  -5    0.98    1.99
   3   7   5   -0.34    2.02
   3   7   5    2.08    1.49
  -3  -7  -5    0.49    1.50
   3  -7   5    0.38    1.56
  -3   7  -5    0.73    1.31
  -3  -7  -6    3.85    1.82
  -3  -7  -6    2.62    1.72
  -3   7  -6   -0.42    1.65
   3   7   6    0.75    1.87
   3   7   6   -1.66    1.63
   3  -7   6   -0.65    1.64
  -3  -7  -7    6.65    2.51
  -3  -7  -7    0.48    1.41
  -3   7  -7    2.29    2.15
   3   7   7    5.90    2.41
   3  -7   7    5.74    2.59
   3  -8 -10   20.61    4.66
  -3   8  10   12.04    3.46
  -3  -8   9   37.10    5.49
   3  -8  -9   39.88    5.86
  -3   8   9   31.91    5.10
   3   8  -9   33.15    6.12
  -3  -8   8   38.06    5.09
   3  -8  -8   33.96    5.06
  -3   8   8   30.42    4.74
   3   8  -8   37.95    5.99
  -3   8   7    0.12    1.14
   3  -8  -7    2.46    1.56
  -3  -8   7   -2.63    1.83
   3  -8  -7   -0.54    1.29
  -3   8   7   -0.03    1.49
   3   8  -7    0.14    2.60
   3  -8  -7    1.64    1.41
  -3  -8   6  145.78    9.00
  -3  -8   6  153.12    8.26
   3  -8  -6  145.72    8.12
   3   8  -6  141.84    7.57
  -3   8   6  156.67    9.43
   3   8  -6  131.92    9.67
   3  -8  -6  160.48    8.75
   3  -8  -6  166.73    9.07
   3  -8  -6  133.27    8.55
   3  -8  -5    4.43    1.61
  -3  -8   5    7.25    2.25
   3   8  -5    5.97    2.61
   3   8  -5   11.51    2.91
  -3   8   5   10.09    2.43
  -3  -8   5    9.35    2.18
   3  -8  -5    8.65    2.19
   3   8  -5    5.56    1.52
  -3   8   5    6.52    2.34
  -3  -8   4  626.69   17.92
  -3  -8   4  614.87   19.34
  -3   8   4  581.59   18.11
   3  -8  -4  636.54   20.25
   3   8  -4  568.04   17.84
  -3   8   4  670.05   20.37
   3   8  -4  563.97   19.03
  -3   8   4  662.53   19.47
   3  -8  -4  616.86   17.39
  -3   8   3   81.51    5.00
  -3  -8   3   76.45    5.49
   3  -8  -3   85.18    6.15
  -3   8   3   79.02    3.92
  -3   8   3   87.23    5.89
   3   8  -3   83.46    6.00
  -3   8   3   83.24    5.66
   3  -8  -3   78.78    3.73
   3  -8  -3   71.45    3.89
  -3  -8   3   77.79    5.01
  -3   8   2   78.45    5.37
   3   8  -2   82.81    5.81
  -3   8   2   70.02    4.23
   3  -8  -2   81.96    5.87
  -3   8   2   78.05    5.49
  -3  -8   2   84.92    5.44
   3  -8  -2   78.91    3.27
   3  -8  -2   78.19    4.22
  -3  -8   2   80.58    5.05
  -3   8   2   78.36    4.59
  -3  -8   1   12.13    2.10
   3  -8  -1   16.67    2.66
   3   8  -1   10.51    2.35
  -3   8   1   13.55    2.25
  -3   8   1   12.44    1.81
  -3  -8   1   12.77    2.17
   3  -8  -1   13.57    1.94
  -3   8   1   13.80    2.06
   3  -8   0   63.52    2.47
  -3   8   0   79.69    5.28
   3   8   0   79.38    5.37
   3  -8   0   77.78    5.78
  -3  -8   0   86.70    5.42
   3  -8   0   81.09    5.14
  -3   8   0   82.82    4.63
   3   8   0   74.27    4.97
   3   8   1  138.31    6.62
  -3  -8  -1  157.31    7.95
  -3   8  -1  159.40    8.36
  -3  -8  -1  164.40    8.55
   3  -8   1  159.89    8.60
   3   8   1  169.74    8.06
   3  -8   1  158.42    8.12
  -3   8  -1  164.11    7.17
  -3  -8  -2   19.62    2.91
  -3  -8  -2   23.39    3.56
   3   8   2   13.49    2.41
  -3   8  -2   13.89    2.80
   3  -8   2   21.31    3.22
  -3  -8  -3   18.13    2.93
  -3  -8  -3   10.94    2.60
   3   8   3   15.91    2.50
  -3   8  -3    9.99    2.64
   3   8   3   16.42    3.23
   3  -8   3   14.76    2.89
  -3  -8  -4    0.76    1.12
  -3  -8  -4    1.68    1.87
  -3   8  -4    1.48    1.79
   3   8   4    0.85    2.22
   3   8   4    1.60    1.71
   3  -8   4    1.09    1.45
  -3  -8  -5   27.42    4.04
  -3  -8  -5   22.77    4.16
  -3   8  -5   28.81    4.67
   3   8   5   28.37    4.55
   3   8   5   28.15    4.33
   3  -8   5   27.57    4.40
  -3  -8  -6   69.98    7.23
  -3   8  -6   77.56    8.01
   3   8   6   75.34    7.50
   3   8   6   67.70    7.25
  -3  -8  -6   70.65    7.02
   3  -8   6   73.16    7.45
  -3  -8  -7    6.75    2.57
  -3  -8  -7   13.93    3.48
  -3   8  -7   11.54    3.52
   3   8   7    9.31    3.19
   3  -8   7   11.25    3.13
  -3   9  10   12.66    3.61
   3  -9  -9   -0.10    1.43
  -3  -9   9    0.35    1.84
  -3   9   9    2.23    2.20
   3   9  -9   -2.69    2.70
   3  -9  -8   14.93    3.52
  -3  -9   8   19.34    3.82
  -3   9   8   12.23    3.10
   3   9  -8   17.35    4.32
   3  -9  -7    7.98    2.39
  -3  -9   7    0.97    1.44
   3  -9  -7    3.57    1.65
  -3   9   7    2.51    1.59
   3   9  -7    7.29    3.11
   3  -9  -6    0.67    1.29
  -3  -9   6   -0.17    1.71
   3  -9  -6    0.43    1.30
   3   9  -6    1.86    1.23
  -3   9   6   -0.93    1.80
   3   9  -6    0.61    2.38
   3  -9  -6   -0.47    1.50
   3  -9  -6    0.44    0.88
  -3  -9   6    1.19    1.59
  -3  -9   5   26.95    3.79
   3   9  -5   30.87    3.39
   3  -9  -5   21.84    3.10
  -3   9   5   22.90    3.62
   3   9  -5   21.98    4.06
  -3  -9   5   24.42    3.10
   3  -9  -5   27.45    3.29
   3  -9  -5   27.62    3.66
  -3  -9   4   98.41    5.69
  -3  -9   4   99.34    6.64
  -3   9   4   98.14    6.02
   3  -9  -4  102.30    6.96
   3   9  -4  100.50    6.29
  -3   9   4  104.19    6.95
   3   9  -4   87.30    6.85
   3   9  -4   86.03    6.90
  -3   9   4  112.33    6.84
   3  -9  -4   95.68    5.39
  -3   9   3   33.96    3.20
  -3  -9   3   31.64    3.52
   3  -9  -3   29.57    3.65
  -3   9   3   31.20    2.47
  -3   9   3   39.21    4.00
   3   9  -3   28.97    3.73
  -3   9   3   34.71    3.81
   3  -9  -3   32.31    2.56
   3  -9  -3   30.84    2.36
  -3  -9   3   29.95    3.05
  -3  -9   2    3.02    1.29
  -3   9   2    4.28    1.51
  -3   9   2    2.79    1.36
   3   9  -2    2.50    1.88
  -3   9   2    0.17    1.65
  -3   9   2    3.64    1.07
  -3  -9   2    1.18    1.15
   3  -9  -2    1.37    0.95
   3  -9  -2    3.75    1.06
   3  -9  -2    2.25    0.59
  -3  -9   1    1.22    0.97
  -3   9   1    3.08    1.34
   3  -9  -1    0.85    0.93
   3   9  -1    2.30    1.71
  -3   9   1    0.78    0.85
  -3   9   1    0.34    0.95
  -3  -9   1    3.13    1.38
   3  -9  -1    1.43    1.00
  -3   9   0   84.62    5.62
   3   9   0   86.54    5.81
  -3  -9   0   84.67    5.66
   3  -9   0   85.22    6.10
   3  -9   0   87.22    5.51
  -3   9   0   88.58    4.90
   3   9   0   80.52    5.19
   3   9   1   96.32    5.33
  -3  -9  -1  114.29    7.22
  -3   9  -1  113.54    7.06
   3  -9   1  120.69    7.43
   3   9   1  120.29    6.82
  -3  -9  -1  119.93    7.00
   3  -9   1  119.70    6.98
  -3   9  -1  118.29    5.89
  -3   9  -2  270.91   12.43
   3   9   2  269.12   11.06
  -3  -9  -2  302.06   12.81
  -3  -9  -2  275.43   11.79
   3  -9   2  296.40   12.47
  -3   9  -3   29.30    4.24
  -3  -9  -3   43.46    4.90
   3   9   3   47.70    5.64
   3   9   3   43.73    4.04
  -3  -9  -3   31.57    3.98
   3  -9   3   36.21    4.44
  -3  -9  -4   -0.77    1.14
  -3   9  -4   -0.03    1.42
  -3  -9  -4    0.84    1.65
   3   9   4    4.58    2.55
   3  -9   4    0.22    1.67
  -3  -9  -5   -2.75    1.69
  -3  -9  -5   -2.46    1.69
   3   9   5   -0.58    2.39
  -3   9  -5   -2.38    1.79
   3   9   5    1.64    2.02
   3  -9   5    0.30    1.43
  -3  -9  -6   -0.53    1.37
  -3   9  -6   -1.62    1.61
   3   9   6   -0.98    2.82
   3  -9   6    1.72    1.84
  -3  -9  -7    6.38    2.53
  -3   9  -7    6.01    2.65
   3   9   7    4.61    2.56
   3  -9   7    1.82    2.28
  -3  10  10    2.13    1.80
   3 -10  -9    8.90    3.03
  -3 -10   9    9.30    3.01
  -3  10   9    8.70    2.92
   3  10  -9    7.98    3.52
   3 -10  -8    0.13    1.70
  -3 -10   8    4.94    2.37
   3 -10  -8    5.86    2.31
  -3  10   8    1.98    1.44
   3  10  -8    5.28    3.21
   3 -10  -7    7.61    2.31
  -3 -10   7    2.57    2.07
   3 -10  -7    5.06    2.23
  -3  10   7    4.02    1.99
   3  10  -7    4.79    2.64
   3 -10  -6    0.81    1.18
  -3 -10   6    0.39    1.41
   3  10  -6    0.67    1.01
   3 -10  -6   -0.26    1.30
  -3  10   6   -1.01    1.46
   3  10  -6   -0.63    2.26
  -3 -10   6    0.96    1.43
   3 -10  -6    1.14    1.14
  -3 -10   5   30.64    3.49
   3 -10  -5   34.46    3.69
   3 -10  -5   22.67    3.47
   3 -10  -5   31.94    3.81
  -3 -10   5   29.89    4.09
   3  10  -5   31.56    3.65
  -3  10   5   29.37    4.14
   3  10  -5   33.15    4.89
  -3 -10   4   46.83    3.95
  -3 -10   4   44.18    4.68
  -3  10   4   41.67    3.93
   3 -10  -4   44.84    4.51
   3  10  -4   46.12    4.34
   3  10  -4   47.33    5.09
  -3  10   4   40.73    4.51
   3  10  -4   35.45    4.47
   3 -10  -4   44.29    3.63
  -3  10   4   48.48    4.69
   3 -10  -3   11.78    1.57
  -3  10   3   15.16    1.81
  -3 -10   3   10.46    2.17
  -3 -10   3   13.40    2.12
  -3  10   3   15.55    2.68
   3  10  -3   13.72    3.03
   3 -10  -3   15.86    2.66
  -3  10   3   12.80    2.22
  -3  10   3    9.76    2.31
   3 -10  -3   12.74    1.59
   3 -10  -2    1.85    1.22
  -3  10   2    0.65    0.77
  -3 -10   2    2.02    1.09
  -3  10   2    1.96    1.07
   3  10  -2    1.36    1.87
  -3  10   2    2.65    1.22
  -3  10   2    0.09    1.71
  -3 -10   2    1.70    1.29
   3 -10  -2    0.25    0.71
   3 -10  -2    0.44    0.44
  -3 -10   1   15.21    2.27
  -3  10   1   14.30    2.20
  -3  10   1   18.38    2.62
   3  10  -1   13.50    2.68
   3 -10  -1   19.81    2.92
  -3 -10   1   21.84    3.06
   3 -10  -1   15.77    2.24
  -3  10   1   17.03    2.16
  -3  10   0   39.75    3.85
   3 -10   0   39.81    4.10
   3  10   0   37.23    4.05
  -3 -10   0   33.44    3.68
   3 -10   0   34.54    3.50
  -3  10   0   40.64    3.21
   3  10   0   36.94    3.44
  -3  10  -1  624.86   20.19
   3  10   1  640.55   19.62
  -3 -10  -1  631.22   20.09
   3 -10   1  658.25   20.21
  -3  10  -1  651.81   17.79
  -3 -10  -2  158.22    8.75
   3  10   2  171.54    8.42
  -3  10  -2  156.87    9.20
  -3 -10  -2  162.30    9.27
   3 -10   2  167.24    9.13
  -3  10  -3   86.98    7.27
  -3 -10  -3   97.36    7.43
   3  10   3   96.80    8.20
   3  10   3  108.25    6.52
  -3 -10  -3  103.22    7.28
   3 -10   3   96.44    7.30
  -3 -10  -4    1.44    1.36
  -3  10  -4   -1.15    1.56
   3  10   4    2.66    2.50
  -3 -10  -4   -0.38    1.37
   3 -10   4    1.12    1.56
  -3  10  -5   63.91    6.96
  -3 -10  -5   64.99    6.74
  -3 -10  -5   58.92    6.31
   3 -10   5   73.95    7.15
   3  10   5   57.74    6.65
  -3 -10  -6    4.21    2.06
  -3 -10  -6    6.45    2.44
  -3  10  -6    2.46    2.22
   3  10   6    0.31    2.35
   3 -10   6    1.39    1.81
  -3 -10  -7    8.38    2.91
   3  10   7    5.63    2.70
   3 -11  -9   -1.31    1.60
  -3 -11   9    5.09    2.62
  -3  11   9    2.43    2.01
   3  11  -9    4.90    3.16
   3 -11  -8    4.41    2.27
  -3 -11   8   10.34    2.90
   3 -11  -8    1.58    1.90
  -3  11   8    2.91    1.96
   3  11  -8    6.24    3.23
   3 -11  -7    3.82    2.06
  -3 -11   7    1.39    1.69
   3 -11  -7    3.65    1.93
  -3  11   7    2.20    1.81
   3  11  -7    4.87    2.96
   3 -11  -6   -0.41    0.95
  -3 -11   6    0.12    1.46
   3  11  -6    0.48    1.15
  -3  11   6    2.60    1.70
   3  11  -6    0.38    2.47
   3 -11  -6    0.74    1.54
  -3 -11   6    1.45    1.35
  -3 -11   5 1416.88   38.58
  -3 -11   5 1436.41   35.09
   3 -11  -5 1488.79   37.93
   3 -11  -5 1385.40   36.98
   3  11  -5 1416.93   36.62
  -3  11   5 1420.16   38.75
   3 -11  -5 1486.70   36.31
  -3 -11   4   26.26    2.98
   3 -11  -4   16.95    2.85
   3  11  -4   27.01    3.46
  -3  11   4   25.87    3.67
  -3 -11   4   19.13    3.21
   3  11  -4   21.56    3.77
   3 -11  -4   19.50    3.02
   3  11  -4   20.65    3.79
   3 -11  -4   22.12    2.68
  -3  11   4   29.82    3.71
  -3  11   4   26.88    3.22
   3 -11  -3    0.67    0.56
  -3 -11   3   -1.69    2.12
  -3 -11   3    1.56    1.17
   3  11  -3    1.59    2.14
  -3  11   3    2.12    0.87
  -3  11   3    1.85    1.36
  -3  11   3    1.36    1.45
  -3  11   3    2.63    1.46
   3 -11  -3    0.13    0.94
   3 -11  -3    1.33    0.67
  -3  11   2    3.83    1.55
   3 -11  -2    2.31    1.25
  -3  11   2    4.92    1.41
   3  11  -2    5.66    2.69
  -3 -11   2    2.52    1.43
  -3  11   2    2.55    1.19
  -3  11   2    0.73    1.71
  -3 -11   2    4.29    1.90
   3 -11  -2    2.69    0.98
   3 -11  -2    2.32    0.75
   3 -11  -1    1.35    1.37
  -3 -11   1   -0.28    1.05
  -3  11   1   -0.36    0.97
  -3  11   1    0.34    0.86
   3  11  -1    0.42    1.80
  -3  11   1    0.77    0.78
  -3 -11   1    1.09    1.29
   3 -11  -1    1.45    0.95
  -3  11   0   12.43    2.30
   3  11   0   13.89    2.14
   3  11   0   13.38    2.73
   3 -11   0   18.59    2.83
  -3  11   0   16.70    2.59
  -3  11   0   18.45    2.17
  -3 -11   0   14.36    2.67
   3 -11   0   16.51    2.50
  -3  11  -1  105.92    7.03
   3  11   1  109.56    6.85
  -3 -11  -1  102.33    6.89
   3 -11   1  105.56    6.86
  -3  11  -1  103.41    5.38
  -3  11  -2    1.97    1.62
   3  11   2    0.55    1.41
   3 -11   2    2.19    1.62
  -3 -11  -2    2.62    1.59
  -3 -11  -3    2.55    1.70
  -3 -11  -3    1.54    1.89
  -3  11  -3   -1.11    1.68
   3  11   3    4.88    1.80
   3  11   3   -0.25    2.39
   3 -11   3    1.73    1.72
  -3 -11  -4    4.23    2.02
  -3 -11  -4    1.61    1.33
   3  11   4   -0.20    2.08
  -3  11  -4    2.72    1.65
   3 -11   4    7.11    2.61
  -3  11  -5   71.35    7.66
  -3 -11  -5   77.16    7.35
   3  11   5   67.86    7.37
  -3 -11  -5   67.68    6.81
   3 -11   5   75.62    7.28
  -3 -11  -6   -2.13    1.58
  -3 -11  -6   -3.54    1.92
  -3  11  -6    0.09    1.32
   3  11   6   -2.70    2.75
   3 -11   6   -7.04    2.66
   3  11   7    3.76    2.07
   3 -12  -9    1.17    1.90
  -3 -12   9   -2.50    1.96
  -3  12   9   -1.78    1.87
   3  12  -9    1.00    2.83
   3 -12  -8    0.65    1.44
  -3 -12   8    4.12    2.29
   3 -12  -8    2.11    2.23
  -3  12   8    0.84    1.38
   3  12  -8    1.64    2.44
   3 -12  -7    4.86    2.07
  -3 -12   7    4.02    2.01
  -3  12   7    9.00    2.65
   3  12  -7    7.82    3.40
   3 -12  -7    9.96    2.73
   3 -12  -6    3.10    1.40
  -3 -12   6    4.16    2.10
   3 -12  -6    3.37    2.03
   3  12  -6    3.80    1.75
  -3  12   6   -0.36    1.34
   3  12  -6    1.59    2.54
  -3 -12   5   39.39    4.98
  -3 -12   5   42.99    3.88
   3 -12  -5   42.14    4.41
   3  12  -5   39.45    4.44
  -3  12   5   36.02    4.66
   3 -12  -5   37.05    4.47
   3  12  -5   27.92    4.52
   3 -12  -5   40.67    4.09
  -3 -12   4   40.91    3.58
  -3  12   4   45.43    4.11
   3 -12  -4   42.56    4.41
   3 -12  -4   43.45    4.56
   3  12  -4   42.83    4.48
  -3  12   4   49.90    4.84
  -3  12   4   44.49    4.92
  -3 -12   4   37.13    4.51
   3  12  -4   37.83    4.75
   3 -12  -4   44.91    3.79
  -3  12   3   23.01    2.82
   3 -12  -3   25.72    3.33
  -3  12   3   23.03    2.46
   3 -12  -3   22.09    3.13
  -3  12   3   21.90    3.46
   3  12  -3   23.48    4.02
  -3 -12   3   20.58    3.47
  -3  12   3   24.49    3.41
   3  12  -3   21.97    3.45
   3 -12  -3   22.64    2.40
   3 -12  -3   22.12    2.24
  -3 -12   3   23.74    2.70
  -3  12   2    7.98    1.68
  -3  12   2   11.08    2.32
   3  12  -2    9.57    3.03
  -3  12   2    8.51    2.35
  -3  12   2    6.51    1.52
   3 -12  -2    7.94    1.99
  -3 -12   2    9.03    1.83
  -3 -12   2    9.21    2.54
   3 -12  -2   10.54    1.76
  -3 -12   1    3.95    1.38
  -3  12   1    6.61    1.76
   3 -12  -1    4.80    1.53
  -3  12   1    8.97    1.60
   3  12  -1    6.30    2.42
  -3  12   1    8.17    1.81
  -3 -12   1    8.18    2.22
   3 -12  -1    4.51    1.47
   3 -12   0   14.02    2.54
  -3  12   0   12.08    1.80
  -3  12   0   10.36    2.10
   3  12   0   10.55    1.92
  -3  12   0   10.36    2.17
   3  12   0    8.75    2.58
  -3 -12   0    8.85    2.15
   3 -12   0   10.80    2.20
  -3  12  -1  176.57    9.57
   3  12   1  183.50    9.34
  -3 -12  -1  170.92    9.49
   3 -12   1  182.92    9.45
   3  12   2  237.57   13.09
  -3  12  -2  245.32   12.17
   3  12   2  250.53   11.10
  -3 -12  -2  244.76   11.80
   3 -12   2  255.43   12.05
  -3  12  -3  153.86   10.08
   3  12   3  152.86   10.62
  -3 -12  -3  153.91    9.48
   3 -12   3  170.77   10.08
  -3 -12  -4    1.18    1.63
  -3  12  -4    1.07    1.70
   3  12   4    0.31    2.29
   3 -12   4    0.37    1.60
  -3 -12  -5   -1.19    1.50
  -3 -12  -5    7.48    2.62
  -3  12  -5    3.74    2.61
   3  12   5    3.41    2.69
   3 -12   5    5.73    2.40
  -3 -12  -6   -4.46    2.13
   3  12   6   -0.07    1.84
  -3  12  -6   -0.26    1.65
   3 -12   6    0.53    1.61
   3 -13  -9    4.11    2.38
  -3  13   9   -0.66    1.51
   3 -13  -8    2.58    1.80
  -3 -13   8    3.47    2.10
   3 -13  -8   -0.15    1.96
  -3  13   8    2.10    1.57
   3  13  -8    2.39    2.78
   3 -13  -7    5.87    2.26
  -3 -13   7    2.09    1.82
   3 -13  -7    4.88    2.41
   3  13  -7    6.90    2.14
  -3  13   7   -0.13    1.65
   3  13  -7    0.96    2.54
   3 -13  -6    1.84    1.35
  -3 -13   6   -1.24    1.58
   3 -13  -6    3.09    1.96
   3  13  -6    0.06    1.21
  -3  13   6   -0.20    1.51
   3  13  -6   -0.02    2.15
   3 -13  -5    1.81    1.31
  -3 -13   5    0.82    1.66
   3  13  -5    0.06    1.53
  -3  13   5    1.30    1.62
   3  13  -5    4.07    2.73
   3 -13  -5    0.40    1.56
  -3 -13   4   30.03    3.06
  -3 -13   4   33.35    4.38
   3 -13  -4   38.02    4.04
   3  13  -4   37.39    4.37
   3 -13  -4   32.90    4.24
  -3  13   4   32.81    4.25
  -3  13   4   37.35    4.29
   3  13  -4   28.95    4.33
   3 -13  -4   30.13    3.23
  -3 -13   3  118.38    8.09
  -3  13   3  120.67    6.30
   3 -13  -3  110.71    7.22
   3 -13  -3  109.09    7.04
  -3  13   3  108.47    5.82
   3  13  -3  113.26    8.09
  -3  13   3  128.79    8.15
  -3  13   3  124.12    7.96
   3  13  -3   92.25    6.97
   3 -13  -3  123.52    6.02
  -3 -13   3  111.62    5.91
   3 -13  -2    8.48    2.12
  -3 -13   2    8.95    1.82
  -3  13   2    8.47    1.76
  -3  13   2   11.80    2.54
   3 -13  -2    5.79    1.91
   3  13  -2   13.10    3.30
  -3  13   2   10.38    2.77
  -3  13   2   13.20    2.03
  -3 -13   2    8.08    2.49
   3 -13  -2   11.03    1.91
  -3 -13   1    3.63    1.36
   3 -13  -1    4.01    1.48
   3 -13  -1    2.63    1.41
  -3  13   1    5.26    1.55
  -3  13   1    4.14    1.48
   3  13  -1    5.01    2.43
  -3 -13   1    5.64    2.03
   3 -13  -1    6.22    1.81
  -3  13   0   23.78    3.06
  -3  13   0   27.41    3.45
   3  13   0   23.61    3.72
   3 -13   0   30.51    3.60
  -3 -13   0   29.82    3.91
  -3  13  -1   30.39    4.06
   3  13   1   34.57    4.15
  -3 -13  -1   33.72    4.25
   3 -13   1   38.46    4.27
   3 -13   2  205.41    8.84
  -3  13  -2  178.64   10.48
   3  13   2  200.43   12.05
   3  13   2  194.19    9.85
  -3 -13  -2  184.17   10.44
   3 -13   2  200.74   10.69
  -3  13  -3   46.30    5.53
   3  13   3   43.12    5.95
  -3 -13  -3   45.54    5.20
   3 -13   3   50.16    5.62
  -3 -13  -4   35.70    4.99
  -3  13  -4   36.04    5.38
   3  13   4   38.07    5.68
   3 -13   4   36.65    5.08
  -3 -13  -5    4.37    2.19
  -3  13  -5    5.42    2.40
   3  13   5    2.50    2.32
   3 -13   5    5.42    2.30
  -3 -13  -6    7.68    2.78
  -3  13  -6   11.41    3.44
   3  13   6    4.93    2.63
   3 -13   6    7.77    2.92
   3 -14  -9   22.05    4.34
   3 -14  -8   41.22    5.68
  -3 -14   8   32.53    5.25
  -3  14   8   41.66    5.87
   3 -14  -8   32.44    5.36
   3  14  -8   45.67    6.68
   3 -14  -7    2.42    1.31
  -3 -14   7   -2.35    2.03
   3 -14  -7    0.91    1.89
   3  14  -7    3.48    2.01
  -3  14   7   -0.13    1.49
   3  14  -7    2.30    2.44
  -3 -14   6   75.85    7.27
   3  14  -6   77.23    6.62
   3 -14  -6   75.99    6.85
   3  14  -6   63.46    6.97
   3 -14  -6   73.30    6.29
  -3  14   6   69.04    6.83
   3 -14  -5    0.26    1.00
   3 -14  -5    1.40    1.69
   3  14  -5    1.56    1.23
  -3  14   5   -0.75    1.43
  -3 -14   5    2.18    2.01
   3  14  -5   -0.61    2.14
  -3 -14   4  219.59   11.74
   3 -14  -4  215.83   10.87
   3  14  -4  181.18   10.29
   3 -14  -4  217.85   10.24
  -3  14   4  215.25   11.47
  -3  14   4  201.35   10.49
   3  14  -4  188.93   10.87
   3 -14  -4  212.00    9.29
  -3 -14   3   99.71    7.61
  -3  14   3  100.71    5.73
   3 -14  -3   96.76    6.93
  -3  14   3   92.33    5.46
  -3  14   3   98.57    7.18
   3  14  -3   75.13    6.97
  -3  14   3   94.03    6.91
   3  14  -3   84.82    6.62
   3 -14  -3   94.04    6.52
   3 -14  -2  146.68    8.42
  -3  14   2  133.74    7.34
   3 -14  -2  144.33    8.21
   3  14  -2  120.11    8.67
  -3  14   2  155.32    9.13
  -3  14   2  153.53    8.85
   3  14  -2  141.64    8.02
  -3 -14   2  164.14    9.41
   3 -14  -2  145.61    7.22
  -3 -14   2  149.89    7.06
  -3 -14   1    1.90    1.14
  -3  14   1    2.33    1.20
   3 -14  -1    0.71    1.62
  -3  14   1    1.47    1.44
   3  14  -1    2.44    2.36
   3 -14  -1    2.38    1.23
  -3 -14   1    0.43    1.25
   3 -14  -1    2.85    1.40
   3 -14   0    8.18    2.05
   3  14   0    8.15    2.73
  -3  14   0   12.46    2.52
  -3  14   0   10.21    2.26
  -3 -14   0   13.09    2.92
   3 -14   0   13.14    2.52
   3 -14   1   49.30    4.35
  -3  14  -1   43.87    4.82
   3  14   1   51.42    5.18
  -3 -14  -1   41.60    4.80
   3 -14   1   48.39    4.96
   3  14   1   56.77    6.39
  -3  14  -2    1.76    1.41
   3 -14   2    2.29    1.32
   3  14   2    6.51    2.22
   3  14   2    0.93    2.48
   3 -14   2    0.52    1.48
  -3 -14  -2    2.35    1.72
  -3  14  -3    1.63    1.74
   3  14   3    7.97    3.39
   3 -14   3    5.36    2.39
  -3 -14  -3    2.51    1.59
  -3  14  -4   -1.21    1.76
   3  14   4   -2.07    2.66
   3 -14   4   -0.47    1.52
  -3 -14  -4    0.71    1.46
  -3 -14  -5    5.58    2.33
  -3  14  -5    5.72    2.55
   3  14   5    3.75    2.78
   3 -14   5    7.84    2.65
  -3 -14  -6   15.81    3.66
   3  14   6   24.24    4.93
   3 -15  -8   33.28    5.00
  -3 -15   8   27.95    4.97
   3 -15  -8   23.88    4.88
  -3  15   8   25.28    4.80
   3  15  -8   23.44    5.32
   3 -15  -7    7.03    2.30
  -3 -15   7    6.66    2.54
   3 -15  -7    1.46    2.13
   3  15  -7    3.13    2.05
  -3  15   7    6.73    2.61
   3  15  -7    3.47    2.65
  -3 -15   6   46.59    5.87
   3  15  -6   36.02    4.73
  -3  15   6   32.69    4.81
   3  15  -6   31.71    5.20
   3 -15  -6   42.57    4.78
   3 -15  -6   39.25    5.25
   3 -15  -5   24.49    3.33
  -3 -15   5   18.85    3.65
   3 -15  -5   24.23    4.03
   3  15  -5   23.96    3.81
  -3  15   5   22.76    3.98
   3  15  -5   25.39    4.34
  -3 -15   4    4.37    2.12
   3  15  -4    4.72    2.17
  -3  15   4    3.20    1.88
   3 -15  -4    4.49    2.27
   3  15  -4    1.54    1.75
  -3  15   4    5.55    2.03
  -3 -15   3   -1.27    2.28
   3 -15  -3    1.51    1.09
   3 -15  -3    3.47    2.06
  -3  15   3    0.68    1.30
   3  15  -3    3.34    1.84
   3  15  -3    0.09    1.68
  -3  15   3    0.14    1.54
   3 -15  -2   -1.19    1.53
  -3  15   2    0.01    1.13
   3  15  -2   -0.57    2.28
   3 -15  -2    0.22    0.72
  -3  15   2   -1.60    1.82
   3  15  -2   -1.83    1.60
  -3  15   2    0.40    0.77
  -3 -15   2   -0.69    1.54
   3 -15  -2    1.36    1.12
  -3 -15   1   14.22    2.26
   3 -15  -1   13.26    2.64
   3  15  -1   15.69    3.43
  -3  15   1   13.23    2.48
  -3  15   1   20.41    3.25
  -3 -15   1   15.30    3.13
   3 -15  -1   15.89    2.56
  -3  15   0    4.34    1.74
   3 -15   0    1.15    1.28
   3  15   0    2.53    1.94
   3  15   0    9.64    3.38
  -3 -15   0    3.53    2.06
  -3  15   0    3.07    1.27
   3 -15   0    2.89    1.37
   3 -15   1   47.19    4.42
  -3  15  -1   41.70    4.92
   3  15   1   38.46    4.79
   3  15   1   43.40    6.01
  -3 -15  -1   48.21    5.26
   3 -15   1   43.75    4.82
  -3  15  -2  194.79   11.38
   3  15   2  200.71   12.77
   3  15   2  194.88   10.47
  -3 -15  -2  203.57   11.44
   3 -15   2  204.75   11.28
  -3  15  -3   47.69    5.92
   3  15   3   35.12    5.52
  -3 -15  -3   44.22    5.49
   3 -15   3   49.62    5.73
  -3  15  -4    0.86    1.52
   3  15   4    1.46    2.41
   3 -15   4    1.30    1.83
  -3 -15  -4    1.98    1.77
  -3  15  -5    7.34    2.96
   3  15   5    1.50    2.31
   3 -15   5    4.24    2.48
  -3 -15  -5    2.32    1.84
   3 -16  -8    5.18    2.24
  -3 -16   8    2.56    2.50
   3 -16  -8    6.00    3.11
  -3  16   8    0.70    2.10
   3  16  -8    7.32    3.53
   3 -16  -7    6.67    2.34
  -3 -16   7   10.15    3.18
   3  16  -7    9.13    2.74
   3 -16  -7    7.30    3.03
  -3  16   7    3.24    2.14
   3  16  -7    7.70    3.31
   3 -16  -6   -2.56    1.46
  -3 -16   6    4.06    2.20
   3 -16  -6    5.11    2.61
   3  16  -6    1.70    1.55
  -3  16   6    3.79    2.02
   3  16  -6    1.89    2.42
  -3 -16   5    5.23    2.48
   3  16  -5    6.02    2.17
   3  16  -5    9.52    2.97
  -3  16   5    8.78    2.52
   3 -16  -5   11.39    3.12
  -3 -16   4    8.39    2.75
   3 -16  -4   11.62    3.08
   3  16  -4   10.20    2.65
  -3  16   4   11.26    2.87
   3  16  -4   10.34    2.88
  -3  16   4    9.54    2.64
   3 -16  -3    0.35    0.83
  -3 -16   3    0.84    1.81
   3 -16  -3    1.34    1.82
  -3  16   3    1.33    1.28
   3  16  -3    2.01    2.05
   3  16  -3    0.18    1.44
  -3  16   3   -0.15    1.54
   3 -16  -2  114.21    7.82
  -3  16   2  107.58    6.86
  -3  16   2  110.70    7.88
   3 -16  -2  108.19    7.18
  -3  16   2  123.15    8.35
  -3 -16   2  129.29    8.82
   3 -16  -2  118.57    6.89
  -3  16   1  116.59    7.55
  -3  16   1  129.67    8.20
   3  16  -1  121.67    9.21
   3  16  -1   97.86    7.96
   3 -16  -1  124.53    7.88
  -3 -16   1  120.73    8.59
   3 -16  -1  114.19    7.15
   3 -16   0    6.39    2.14
  -3  16   0    7.83    2.19
   3  16   0    6.35    2.68
   3  16   0    7.44    3.07
  -3 -16   0    3.40    1.94
   3 -16   0    8.15    2.26
  -3  16  -1   43.55    5.12
   3  16   1   32.91    4.52
   3  16   1   50.85    6.40
  -3 -16  -1   46.67    5.27
   3 -16   1   44.69    4.44
   3 -16   1   39.81    4.68
  -3  16  -2  138.49    9.73
   3  16   2  139.47   10.77
   3  16   2  133.42    8.83
   3 -16   2  153.99    9.87
  -3 -16  -2  140.46    9.61
  -3  16  -3    7.23    2.47
   3  16   3    4.41    2.70
   3 -16   3    9.10    2.68
  -3 -16  -3    3.05    2.14
  -3  16  -4   93.47    8.94
   3  16   4   88.15    8.85
  -3 -16  -4  101.52    8.83
   3 -16   4  107.18    9.02
  -3  16  -5    4.32    2.32
   3  16   5    0.27    2.18
   3 -16   5    0.91    1.52
  -3 -16  -5    2.02    1.85
   3 -17  -8   10.21    4.11
   3  17  -8   16.96    4.50
  -3 -17   7   44.42    6.16
   3  17  -7   41.83    5.55
   3 -17  -7   47.87    6.54
  -3  17   7   38.27    5.80
   3  17  -7   43.55    6.29
  -3 -17   6   21.27    4.15
   3 -17  -6   17.31    4.07
   3  17  -6   20.32    3.83
  -3  17   6   16.53    3.95
   3  17  -6   24.96    4.66
   3 -17  -5    1.97    2.30
   3  17  -5   -2.75    1.90
  -3  17   5    2.72    1.73
   3  17  -5    6.81    2.70
  -3 -17   5    2.24    1.86
  -3 -17   4   10.07    3.05
   3 -17  -4    7.81    2.68
   3  17  -4    7.13    2.62
  -3  17   4    9.36    2.61
   3  17  -4    4.87    2.34
  -3  17   4    7.92    2.47
  -3  17   3   20.77    3.72
  -3 -17   3   26.48    4.26
   3 -17  -3   17.90    3.46
   3  17  -3   19.85    3.91
  -3  17   3   20.84    3.69
   3 -17  -2   13.60    3.05
  -3  17   2   11.03    2.28
  -3  17   2    7.74    2.27
   3  17  -2   14.94    3.85
  -3  17   2    7.55    2.56
  -3 -17   2   11.50    3.07
   3 -17  -2   10.70    2.20
  -3  17   1   30.52    4.18
   3 -17  -1   28.67    3.96
  -3  17   1   26.95    3.75
   3  17  -1   33.32    5.21
  -3 -17   1   26.36    4.19
   3 -17  -1   24.58    3.45
   3 -17   0    0.23    1.31
  -3  17   0    0.17    1.22
   3  17   0   -0.22    1.97
   3  17   0    0.41    2.53
  -3 -17   0    2.15    1.81
   3 -17   0    0.45    1.15
   3 -17   1    0.93    1.14
  -3  17  -1   -1.88    1.53
   3  17   1    3.54    2.26
   3  17   1   -1.61    2.30
  -3 -17  -1   -0.65    1.49
   3 -17   1   -0.24    1.23
  -3  17  -2   12.31    3.27
   3  17   2   12.47    3.81
   3 -17   2   12.73    3.05
  -3 -17  -2   14.00    3.46
   3  17   3    5.12    2.59
  -3  17  -3    3.67    1.93
   3 -17   3    6.58    2.37
  -3 -17  -3    4.86    2.25
  -3  17  -4   45.07    6.35
   3  17   4   50.56    6.98
  -3 -17  -4   49.22    6.30
   3 -17   4   59.04    6.82
   3  17   5   -3.89    3.06
  -3 -17  -5   -3.45    2.08
  -3 -18   7   22.41    4.40
   3  18  -7   15.94    3.71
   3 -18  -7   13.99    4.01
  -3  18   7   10.75    3.25
   3  18  -7   15.98    4.16
  -3 -18   6   -0.15    1.61
   3 -18  -6    0.54    2.35
   3  18  -6   -0.12    1.31
  -3  18   6   -0.18    1.43
   3  18  -6   -0.28    2.07
   3 -18  -5    2.22    1.99
   3  18  -5   -0.04    1.50
  -3  18   5    0.73    1.53
  -3 -18   5    2.27    1.72
   3  18  -5   -1.13    1.82
  -3 -18   4   -0.44    1.59
   3 -18  -4   -0.12    2.00
   3  18  -4    0.91    1.69
  -3  18   4   -1.34    1.65
  -3  18   4    0.90    1.50
  -3 -18   3   35.43    5.19
  -3  18   3   37.86    4.94
   3  18  -3   30.06    4.76
   3 -18  -3   36.20    4.95
  -3  18   3   28.46    4.13
   3 -18  -2    2.26    1.90
  -3  18   2    1.86    1.23
  -3  18   2    0.82    1.20
   3  18  -2    4.97    2.82
  -3  18   2    2.51    2.00
  -3 -18   2    4.35    2.35
   3 -18  -2    1.53    1.35
   3 -18  -1    8.77    2.71
  -3  18   1    6.89    2.05
  -3  18   1   13.09    2.73
   3  18  -1   14.45    3.73
  -3 -18   1   11.04    2.87
   3 -18  -1    8.82    2.17
  -3  18   0   -0.78    1.17
   3 -18   0    1.48    1.57
   3  18   0    0.99    2.48
  -3 -18   0    2.63    1.93
   3 -18   0   -2.53    1.56
  -3  18  -1   -3.77    2.01
   3 -18   1    1.86    1.54
   3  18   1   -0.66    2.44
  -3 -18  -1    0.05    1.44
   3 -18   1    0.66    1.45
  -3  18  -2    0.78    1.50
   3  18   2    5.17    2.88
   3 -18   2   -0.01    1.46
  -3 -18  -2    0.44    2.11
  -3  18  -3   11.04    3.17
   3  18   3   14.66    4.22
   3 -18   3   14.12    3.51
  -3 -18  -3   18.44    3.92
  -3  18  -4    0.37    1.59
   3 -18   4    0.89    1.49
  -3 -18  -4    1.00    1.66
   3  19  -7    7.13    2.65
   3 -19  -7    7.99    3.66
   3  19  -7    7.78    3.31
  -3 -19   6   17.77    4.03
   3  19  -6    8.84    2.77
   3 -19  -6   14.81    3.99
  -3  19   6    9.97    3.50
   3  19  -6   23.21    4.53
  -3 -19   5    0.82    1.48
   3 -19  -5   -3.00    3.31
   3  19  -5   -2.01    1.70
  -3  19   5    3.29    2.08
  -3 -19   4    3.65    2.30
   3 -19  -4    9.08    3.40
   3  19  -4    5.65    2.43
  -3  19   4    3.78    2.13
  -3  19   4    5.07    2.06
  -3 -19   3    9.55    3.19
   3 -19  -3   16.09    3.53
  -3  19   3   13.86    3.19
   3  19  -3   10.80    3.23
  -3  19   3   11.49    2.97
  -3  19   2    0.30    0.98
  -3  19   2    0.01    1.17
   3  19  -2    0.83    2.40
   3  19  -2    0.73    1.77
  -3  19   2    2.01    1.65
   3 -19  -2    3.73    2.41
  -3 -19   2   -2.22    1.61
   3 -19  -1    1.41    2.15
  -3  19   1    1.20    1.04
   3  19  -1    2.47    2.58
  -3 -19   1    1.73    1.62
   3 -19  -1    1.44    1.22
   3 -19   0   82.82    6.99
  -3 -19   0   83.16    7.72
   3  19   0   97.61    8.75
   3 -19   0   79.14    6.85
  -3  19   0   80.51    7.20
   3 -19   1   13.53    2.96
  -3  19  -1   10.14    3.00
   3  19   1   16.79    4.18
  -3 -19  -1    9.70    3.01
   3 -19   1    8.18    2.50
  -3  19  -2    3.89    2.39
   3  19   2    8.76    3.33
  -3 -19  -2    7.31    2.70
   3 -19   2    6.70    2.65
  -3  19  -3  109.00    9.71
   3  19   3  128.37   10.87
  -3 -19  -3  101.13    9.06
   3 -19   3  120.58    9.80
  -3  19  -4   33.99    5.79
   3  19   4   43.11    6.78
   3 -19   4   39.94    5.86
  -3 -19  -4   33.64    5.51
   3  20  -7    1.80    1.82
  -3 -20   6   29.28    5.23
   3  20  -6   27.98    4.80
   3 -20  -6   23.27    5.07
  -3  20   6   24.51    4.60
  -3 -20   5    5.42    2.76
   3 -20  -5   13.74    3.98
   3  20  -5    4.92    2.37
  -3  20   5   10.19    3.12
  -3 -20   4    9.69    3.08
   3 -20  -4    7.33    3.23
   3  20  -4    9.63    2.99
  -3  20   4    9.63    2.88
  -3  20   4    8.19    2.57
  -3 -20   3    3.96    2.20
   3 -20  -3    3.23    2.50
  -3  20   3   -0.16    1.29
   3  20  -3    1.31    2.03
  -3  20   3    5.79    2.36
   3 -20  -2    1.25    1.88
  -3  20   2   -0.08    1.14
   3  20  -2    1.22    2.08
  -3  20   2   -2.48    1.92
  -3 -20   2   -0.61    1.31
  -3  20   1   38.75    4.84
   3 -20  -1   45.14    5.58
   3  20  -1   43.00    5.77
  -3  20   1   46.62    5.72
   3 -20  -1   39.74    4.72
  -3 -20   1   34.48    5.06
  -3  20   0    2.82    1.75
   3 -20   0    3.22    2.18
   3  20   0   -0.70    2.59
  -3 -20   0    0.63    1.47
   3 -20   0    0.16    1.28
  -3  20  -1   15.46    3.56
   3  20   1   14.99    3.94
  -3 -20  -1   16.55    3.67
   3 -20   1   17.83    3.64
  -3  20  -2    5.77    2.37
   3  20   2    5.46    2.37
  -3 -20  -2    3.10    2.09
   3 -20   2    3.44    2.03
   3  20   3   -2.35    2.79
  -3  20  -3    0.34    1.59
   3 -20   3    0.38    1.79
  -3 -20  -3    0.74    1.54
   3  21  -6    4.53    2.26
   3  21  -5    7.38    3.02
   3 -21  -5    1.77    2.47
  -3  21   5    5.81    2.53
  -3 -21   5    5.24    2.67
  -3 -21   4    2.82    2.13
   3 -21  -4    0.98    2.32
   3  21  -4   -0.46    1.74
  -3  21   4   -2.73    2.01
  -3 -21   3   18.53    4.10
   3 -21  -3   15.42    3.70
  -3  21   3    8.49    2.91
   3  21  -3   16.91    4.03
  -3  21   3   16.16    3.57
   3 -21  -2    9.84    3.37
  -3  21   2    9.85    2.79
   3  21  -2    7.72    3.23
  -3  21   2    7.61    2.46
  -3 -21   2   12.73    3.40
  -3  21   1   13.39    3.03
   3 -21  -1   18.82    4.02
   3  21  -1   17.14    3.95
  -3  21   1   17.48    3.77
  -3 -21   1   16.13    3.80
   3 -21  -1   14.04    3.03
   3 -21   0   56.13    6.29
  -3  21   0   61.25    6.71
  -3 -21   0   63.63    7.03
   3 -21   0   59.00    6.27
   3  21   0   64.83    7.42
  -3  21  -1    0.19    1.30
   3  21   1   -1.91    2.55
  -3 -21  -1    2.36    2.21
   3 -21   1   -1.41    1.61
  -3  21  -2    1.54    1.58
   3  21   2   -1.72    2.98
  -3 -21  -2   -0.67    1.67
   3 -21   2   -2.15    1.76
  -3  21  -3    9.56    3.24
   3  21   3   17.12    4.56
   3 -21   3   14.92    3.88
  -3 -21  -3   10.90    3.31
   3  22  -5   -3.04    2.52
  -3 -22   5   -1.91    1.95
   3 -22  -5    4.98    3.02
  -3  22   5   -1.14    1.96
  -3 -22   4   -0.07    1.66
   3 -22  -4    1.38    2.81
  -3  22   4   -1.31    1.71
   3  22  -4    1.33    1.85
  -3 -22   3   11.39    3.30
   3 -22  -3   10.93    3.73
  -3  22   3   10.41    3.02
   3  22  -3   11.64    3.47
  -3  22   3   13.76    3.24
   3 -22  -2   17.41    4.37
   3  22  -2   14.98    3.84
  -3  22   2   16.78    3.57
  -3 -22   2   13.99    3.64
  -3  22   1    6.37    2.28
   3 -22  -1   -1.21    2.32
   3  22  -1   -1.36    2.06
   3  22  -1    0.82    2.08
  -3  22   1    8.11    2.99
  -3 -22   1    2.52    1.98
   3 -22  -1    2.27    1.76
  -3  22   0    1.55    1.56
   3 -22   0    0.90    2.14
   3  22   0   -1.62    2.16
  -3 -22   0    7.05    2.58
   3 -22   0    1.78    1.82
  -3  22  -1   23.30    4.58
   3  22   1   26.73    5.39
  -3 -22  -1   28.17    5.00
   3 -22   1   15.82    3.40
  -3  22  -2   -0.90    1.50
   3  22   2    1.29    2.54
  -3 -22  -2   -0.81    1.42
   3 -22   2   -0.80    1.45
  -3 -23   4    1.20    2.20
   3  23  -4    0.25    2.22
   3 -23  -4    1.36    2.57
  -3  23   4   -1.52    1.70
  -3 -23   3    0.05    1.89
   3 -23  -3   -2.07    2.80
  -3  23   3   -0.12    1.23
   3  23  -3    3.09    2.36
   3 -23  -2   14.13    4.07
   3  23  -2   16.33    4.24
  -3  23   2   17.35    3.88
  -3 -23   2   11.97    3.60
  -3  23   1    7.80    2.74
   3 -23  -1    9.51    3.53
   3  23  -1   12.63    3.98
  -3  23   1    3.51    2.22
  -3 -23   1    6.04    2.58
   3 -23   0   93.07    8.75
  -3  23   0   75.06    7.85
   3  23   0   86.37    8.89
  -3 -23   0   96.38    8.97
   3 -23   0   87.32    7.98
  -3  23  -1    1.79    1.82
  -3 -23  -1   -2.17    1.92
   3 -23   1    1.77    1.74
  -3  24   4   -0.38    1.49
  -3  24   3   32.95    5.23
   3 -24  -3   34.00    6.18
   3 -24  -2   15.41    4.57
   3  24  -2   15.40    4.01
  -3 -24   2   13.91    3.66
   3 -24  -1   32.55    5.78
   3  24  -1   36.32    6.03
  -3  24   1   28.28    4.83
  -3 -24   1   43.34    6.04
  -3  24   0   11.20    3.47
   3 -24   0    5.84    2.95
   3  24   0    8.08    3.32
   3  24   0   15.55    4.10
   3 -24   0   14.75    3.57
  -3  24  -1    0.86    1.35
   3  24   1    2.21    2.30
   3 -24   1    3.09    1.97
   3 -25  -1    1.21    2.72
  -3  25   0   -2.41    1.79
  -3  25   0   -0.67    1.85
   3 -25   0   -0.77    1.11
  -4   0  10    1.77    1.64
   4   0 -10    3.77    3.10
  -4   0   9    0.19    1.64
   4   0  -9    2.18    2.78
  -4   0   8   26.22    4.10
   4   0  -8   30.53    5.21
  -4   0   7    1.20    1.55
   4   0  -7   -2.43    2.93
  -4   0   7    1.70    2.11
  -4   0   6  159.05    8.69
  -4   0   6  149.61    8.80
   4   0  -6  144.77    7.43
  -4   0   5    0.65    0.97
   4   0  -5    0.90    1.15
  -4   0   5   -2.20    2.27
  -4   0   4   44.23    3.52
   4   0  -4   47.40    4.28
  -4   0   4   45.85    4.33
  -4   0   3    3.54    0.96
  -4   0   3    4.90    1.24
  -4   0   3    4.73    1.95
   4   0  -3    4.94    1.72
   4   0  -3    7.00    2.31
   4   0  -2  689.03   22.05
  -4   0   2  645.72   16.06
  -4   0   2  679.66   18.50
  -4   0   2  685.11   18.81
   4   0  -2  635.01   18.49
  -4   0   2  698.29   20.34
  -4   0   1    0.11    1.78
   4   0  -1    0.92    1.68
  -4   0   1    0.03    0.35
  -4   0   1   -0.53    1.03
  -4   0   1    0.44    0.97
   4   0  -1   -0.84    1.19
  -4   0   0   11.66    2.20
   4   0   0   13.28    2.62
  -4   0   0   11.80    2.11
  -4   0   0   12.94    1.46
   4   0   0   13.19    2.62
  -4   0  -1   -0.43    1.26
   4   0   1    0.07    1.16
   4   0   1    0.14    1.33
  -4   0  -1   -0.24    0.45
  -4   0  -2   -1.04    1.43
   4   0   2   -1.02    1.07
   4   0   2   -1.03    1.81
  -4   0  -3    0.24    1.50
   4   0   3   -0.43    1.59
  -4   0  -4   20.26    4.11
   4   0   4   19.62    3.78
  -4   0  -5    2.11    2.13
   4   0   5   -0.14    1.68
  -4   0  -6    4.85    2.67
   4   0   6    7.29    2.92
  -4   1  10    1.26    1.63
  -4  -1  10   -1.85    1.68
   4   1 -10    2.98    2.84
   4  -1 -10    1.47    2.17
  -4   1   9   32.94    4.92
  -4  -1   9   32.46    4.88
   4   1  -9   36.95    5.89
   4  -1  -9   34.43    5.65
  -4   1   8    0.43    1.55
  -4  -1   8    2.04    1.71
  -4   1   8    3.80    1.83
   4   1  -8    1.07    2.70
   4  -1  -8    3.44    2.73
  -4   1   7   65.90    5.93
  -4  -1   7   62.62    5.93
  -4  -1   7   67.47    6.33
  -4   1   7   68.54    6.38
  -4   1   7   66.72    6.28
   4   1  -7   58.67    6.70
   4  -1  -7   62.47    6.68
  -4   1   6   19.19    2.96
  -4  -1   6   24.16    3.37
   4   1  -6   18.30    2.65
   4  -1  -6   17.44    2.54
  -4  -1   6   22.85    3.73
  -4   1   6   22.29    3.75
  -4   1   5   11.56    2.18
  -4  -1   5    8.88    1.93
   4   1  -5    6.50    1.83
   4  -1  -5   10.52    2.15
  -4  -1   5   10.40    2.54
  -4   1   5    6.14    2.31
  -4   1   4    1.98    0.89
  -4  -1   4    1.43    1.04
  -4  -1   4    1.67    1.90
  -4   1   4    2.06    1.56
   4  -1  -4   -0.91    1.74
   4   1  -4    1.18    1.25
   4  -1  -4   -0.22    1.45
  -4   1   3    1.83    0.68
  -4  -1   3    1.10    0.76
  -4  -1   3    0.62    0.82
  -4   1   3    2.30    0.97
  -4  -1   3    1.28    1.44
  -4   1   3    1.38    1.49
   4   1  -3    1.74    1.53
   4   1  -3    0.41    1.37
   4  -1  -3    1.28    1.52
   4  -1  -3    2.03    0.81
   4   1  -2   73.95    6.07
  -4   1   2   65.06    2.89
  -4  -1   2   68.76    3.60
   4  -1  -2   71.84    6.07
  -4  -1   2   65.60    4.41
  -4   1   2   73.85    4.89
  -4  -1   2   68.41    4.50
  -4   1   2   68.85    4.41
   4   1  -2   67.86    4.61
   4  -1  -2   62.20    4.30
  -4  -1   2   75.07    5.46
  -4   1   2   76.45    5.44
  -4  -1   1  249.03    7.64
   4   1  -1  261.47   12.18
   4  -1  -1  278.12   12.55
  -4   1   1  266.76   10.39
  -4  -1   1  266.43   10.46
  -4   1   1  257.01    9.85
  -4  -1   1  257.25    9.43
  -4  -1   1  250.98    8.13
   4   1  -1  244.87   10.31
   4  -1  -1  262.73   10.43
  -4  -1   1  258.60   10.95
  -4   1   1  267.29   10.88
  -4  -1   0  151.17    8.17
   4   1   0  132.15    8.10
  -4   1   0  137.92    7.71
   4  -1   0  154.69    8.72
  -4  -1   0  138.22    6.45
  -4   1   0  138.07    4.74
  -4  -1   0  135.87    5.59
   4   1   0  134.73    7.81
   4  -1   0  146.34    7.97
   4   1   1   -0.08    1.11
  -4  -1  -1    1.41    1.42
  -4   1  -1   -1.50    1.45
   4  -1   1    1.45    1.21
   4   1   1    1.97    1.49
   4  -1   1    1.29    1.48
  -4  -1  -1   -0.01    0.60
  -4  -1  -2   11.72    1.89
   4  -1   2   15.08    2.71
  -4  -1  -2   14.38    2.99
  -4   1  -2   12.64    2.85
   4   1   2   12.40    2.49
   4   1   2   13.81    3.02
   4  -1   2   13.14    2.82
  -4  -1  -3    2.18    2.22
  -4   1  -3    1.18    1.41
   4   1   3    1.09    1.70
   4  -1   3    1.76    1.83
  -4   1  -4  344.45   16.38
   4   1   4  311.16   15.41
   4  -1   4  334.16   15.95
  -4  -1  -4  337.87   16.28
  -4   1  -5   34.76    5.31
  -4  -1  -5   36.31    5.37
   4   1   5   39.04    5.49
   4  -1   5   26.67    4.64
  -4  -1  -6   -1.78    1.74
  -4   1  -6   -1.97    1.77
   4   1   6    4.16    2.34
   4  -1   6   -1.05    1.76
  -4   2  10    1.45    1.55
  -4  -2  10    2.21    1.99
   4   2 -10   -0.92    2.98
   4  -2 -10   -1.41    2.32
  -4   2   9    0.31    1.39
  -4  -2   9    4.18    2.08
  -4   2   9    1.66    1.38
   4   2  -9    0.25    2.47
   4  -2  -9    1.89    2.52
  -4   2   8   23.02    3.82
  -4  -2   8   22.63    3.85
  -4   2   8   22.96    3.94
   4   2  -8   14.86    3.90
   4  -2  -8   20.53    4.21
  -4   2   7   25.37    3.82
  -4  -2   7   28.05    3.93
  -4   2   7   22.21    3.66
   4   2  -7   22.31    4.75
   4  -2  -7   24.02    4.59
  -4  -2   7   24.24    4.18
  -4   2   7   29.99    4.39
  -4   2   6    5.85    1.77
  -4  -2   6    5.35    1.74
  -4   2   6    2.71    1.54
   4   2  -6    3.72    1.61
   4  -2  -6    4.39    1.33
  -4  -2   6    4.47    2.14
  -4   2   6    3.68    2.24
  -4   2   5    0.60    0.91
  -4  -2   5    1.45    1.06
   4   2  -5    1.74    1.64
   4  -2  -5   -0.02    0.98
  -4  -2   5    1.39    1.66
  -4   2   5    0.37    1.77
  -4   2   4   38.48    3.10
  -4  -2   4   37.30    3.42
   4   2  -4   38.39    3.94
   4  -2  -4   36.47    3.56
   4  -2  -4   36.62    4.45
  -4  -2   4   35.12    3.83
  -4   2   4   40.65    4.03
  -4   2   3   93.79    4.26
   4  -2  -3   99.23    7.31
  -4  -2   3  100.02    5.23
   4   2  -3  100.67    6.39
  -4   2   3  100.51    6.03
   4  -2  -3   94.13    4.80
  -4   2   3  105.55    4.90
  -4  -2   3   93.77    6.13
   4   2  -3  107.57    7.41
  -4   2   3  104.77    6.24
  -4  -2   2  185.18    6.93
   4  -2  -2  202.13   10.52
  -4  -2   2  179.82    7.95
  -4   2   2  191.34    7.86
   4   2  -2  198.74    9.32
  -4   2   2  198.52    8.60
   4   2  -2  189.57    8.32
   4  -2  -2  184.19    7.82
  -4  -2   2  190.83    9.06
  -4   2   2  214.25    9.25
  -4   2   2  175.24    4.98
   4   2  -2  187.60   10.23
   4   2  -1    5.90    1.75
  -4  -2   1    7.52    2.17
   4  -2  -1    7.52    2.09
  -4   2   1    7.82    2.08
  -4   2   1    6.59    1.61
  -4  -2   1    7.69    1.76
  -4   2   1    5.62    1.46
  -4  -2   1    6.59    1.57
   4   2  -1    3.39    1.49
  -4  -2   1    7.19    1.25
   4  -2  -1    7.51    1.77
   4   2   0   61.53    5.37
  -4  -2   0   60.82    5.00
   4  -2   0   55.82    5.19
  -4  -2   0   52.20    3.67
  -4   2   0   55.07    4.70
  -4  -2   0   56.40    3.62
   4   2   0   54.20    4.83
   4  -2   0   61.18    4.96
  -4   2   0   65.69    5.04
  -4  -2  -1  100.93    7.12
  -4   2  -1  102.27    7.01
   4   2   1   92.23    6.51
   4  -2   1  105.15    7.15
  -4  -2  -1  104.63    5.35
   4   2   1   94.03    6.87
   4  -2   1  103.64    7.20
  -4  -2  -2   45.61    5.24
  -4   2  -2   46.24    5.01
   4   2   2   45.42    4.42
   4  -2   2   50.30    4.89
  -4  -2  -2   42.87    3.60
   4   2   2   45.07    4.98
   4  -2   2   44.97    5.11
  -4  -2  -3  332.91   15.22
  -4   2  -3  328.25   14.96
   4   2   3  324.16   14.80
  -4  -2  -3  288.61   11.51
   4  -2   3  322.18   14.93
  -4  -2  -4   55.49    6.44
  -4   2  -4   43.79    5.63
   4   2   4   55.16    6.14
   4  -2   4   49.50    5.99
  -4  -2  -5    1.48    1.68
  -4   2  -5    2.21    1.51
   4   2   5    2.49    1.92
   4  -2   5   -0.42    1.83
  -4   2  -6    0.16    1.79
   4   2   6   -2.65    1.99
  -4  -2  -6   -0.14    1.44
   4  -2   6   -0.93    1.79
  -4   3  10    0.35    1.42
  -4  -3  10   -5.02    2.38
   4   3 -10    3.92    3.51
   4  -3 -10    2.75    2.47
  -4   3   9    2.76    1.96
  -4  -3   9    1.99    1.70
  -4   3   9    6.13    2.34
   4   3  -9    5.44    3.10
   4  -3  -9    8.66    3.35
  -4   3   8   17.38    3.41
  -4  -3   8   23.87    4.00
  -4   3   8   21.60    3.78
   4   3  -8   19.85    4.41
   4  -3  -8   22.94    4.65
  -4   3   7   16.38    2.92
  -4  -3   7   14.28    2.90
  -4   3   7   14.56    3.13
   4   3  -7   14.26    2.68
   4   3  -7   10.94    3.48
   4  -3  -7   13.05    3.28
  -4  -3   7   14.90    3.48
  -4   3   7   19.71    3.97
  -4   3   6   -0.08    1.02
  -4  -3   6    1.96    1.59
  -4   3   6   -0.06    1.18
   4   3  -6    3.33    1.60
  -4  -3   6    0.39    1.75
  -4   3   6    0.73    1.96
  -4   3   5   15.33    2.32
  -4  -3   5   12.25    2.38
  -4   3   5   15.12    2.81
   4   3  -5   15.05    2.67
   4  -3  -5   13.63    3.07
   4  -3  -5   14.06    2.27
  -4  -3   5   17.69    3.04
  -4   3   5   12.16    2.73
  -4  -3   4  156.72    7.60
   4   3  -4  166.68    8.47
   4  -3  -4  166.98    7.90
  -4  -3   4  147.07    7.92
   4  -3  -4  171.28    9.79
  -4   3   4  154.14    8.13
  -4   3   4  151.85    6.53
   4  -3  -3  162.24    9.49
  -4  -3   3  140.03    6.74
  -4   3   3  158.45    6.28
   4   3  -3  158.71    8.26
  -4   3   3  172.87    8.26
   4  -3  -3  145.20    6.19
  -4  -3   3  166.86    8.27
  -4   3   3  163.19    7.94
  -4   3   3  150.68    5.42
   4  -3  -2    3.23    1.88
  -4  -3   2    2.41    0.88
  -4  -3   2    4.85    1.86
  -4  -3   2    0.93    1.09
  -4   3   2    1.81    0.86
  -4   3   2    4.19    1.75
   4   3  -2    0.24    1.58
   4   3  -2    2.26    1.53
  -4   3   2    3.95    1.38
   4  -3  -2    3.42    1.22
  -4  -3   1   15.04    2.61
  -4   3   1   19.76    2.90
  -4  -3   1   16.48    2.57
  -4   3   1   12.21    2.03
   4  -3  -1   14.86    2.87
   4   3  -1   18.85    2.95
  -4   3   1   14.92    2.41
  -4  -3   1   16.97    2.03
  -4  -3   1   15.52    2.00
   4   3  -1   15.14    2.61
   4  -3  -1   17.44    2.53
   4   3  -1   16.80    2.96
   4  -3   0   12.45    2.71
  -4   3   0   11.08    2.28
  -4  -3   0   15.18    2.70
  -4   3   0   17.20    2.83
   4   3   0   13.68    2.61
  -4  -3   0   15.39    1.89
   4   3   0   13.70    2.65
   4  -3   0   13.92    2.70
  -4  -3   0   14.51    1.98
  -4  -3  -1  146.04    8.65
   4   3   1  134.28    7.84
   4  -3   1  133.03    8.30
  -4  -3  -1  130.97    6.02
  -4   3  -1  137.02    8.24
  -4  -3  -1  129.66    6.40
   4   3   1  129.03    8.23
   4  -3   1  143.31    8.57
  -4  -3  -2   58.85    5.74
  -4   3  -2   52.28    5.37
   4   3   2   52.84    4.65
   4  -3   2   54.92    5.15
  -4  -3  -2   45.52    3.88
   4   3   2   48.53    5.27
   4  -3   2   57.62    5.70
  -4  -3  -3   14.29    2.36
  -4  -3  -3   20.28    3.88
  -4   3  -3   19.45    3.60
   4   3   3   19.83    3.76
   4  -3   3   16.90    3.51
  -4  -3  -4   70.41    7.11
  -4   3  -4   62.17    6.66
   4   3   4   57.56    6.26
  -4  -3  -4   56.96    5.07
   4  -3   4   64.68    6.74
  -4  -3  -5    3.92    2.13
  -4   3  -5    1.28    1.72
   4   3   5    2.11    2.22
   4   3   5    1.41    1.55
   4  -3   5    2.56    2.41
  -4   3  -6   -0.30    1.70
  -4  -3  -6    4.54    2.27
   4   3   6    3.64    2.19
   4  -3   6    2.62    1.89
  -4   4  10   13.02    3.59
  -4  -4  10   11.82    3.26
   4   4 -10    6.37    3.30
   4  -4 -10    5.05    2.71
  -4   4   9    1.38    1.60
  -4  -4   9   -0.59    1.52
  -4   4   9    3.30    1.89
   4   4  -9    5.26    3.07
   4  -4  -9    4.11    2.89
  -4   4   8   11.12    2.74
  -4  -4   8   14.33    3.21
  -4   4   8    8.49    2.54
   4   4  -8   18.41    4.38
   4  -4  -8    6.61    3.07
  -4   4   7   -1.04    1.43
  -4  -4   7    1.28    1.62
  -4   4   7    0.16    1.34
   4   4  -7    7.38    2.23
   4   4  -7    0.34    2.17
   4  -4  -7    3.07    2.17
  -4  -4   7    3.09    2.12
  -4   4   7    2.28    2.43
  -4   4   6    7.48    1.90
  -4  -4   6    7.89    2.14
  -4   4   6    5.11    1.90
   4  -4  -6    9.13    2.59
   4   4  -6    8.07    2.22
  -4  -4   6    6.73    2.43
  -4   4   6    5.46    2.52
  -4  -4   5   44.26    4.42
  -4  -4   5   40.52    4.12
  -4   4   5   45.24    4.60
  -4   4   5   47.26    5.03
   4   4  -5   43.76    4.51
   4  -4  -5   54.83    4.12
   4  -4  -5   45.62    5.11
  -4   4   5   45.52    3.80
   4  -4  -4  121.66    8.35
  -4  -4   4  123.93    6.83
  -4   4   4  126.91    7.99
   4   4  -4  124.52    7.39
  -4  -4   4  123.16    7.15
  -4   4   4  118.34    5.50
  -4   4   4  116.42    6.90
  -4  -4   3  208.11    8.56
   4  -4  -3  223.34   11.40
  -4   4   3  221.37    7.72
   4   4  -3  222.32   10.07
  -4   4   3  217.90    9.71
   4  -4  -3  212.45    7.72
  -4  -4   3  229.51    9.89
  -4   4   3  208.99    9.28
  -4   4   3  202.05    6.53
   4  -4  -2    1.10    1.60
  -4  -4   2   -0.25    0.68
  -4  -4   2    1.12    1.52
  -4  -4   2   -0.46    0.86
  -4   4   2    1.35    1.46
  -4   4   2   -0.24    0.80
   4   4  -2    0.69    1.65
   4   4  -2    2.18    1.56
  -4   4   2   -0.73    1.61
   4  -4  -2   -0.91    0.82
  -4  -4   1    6.08    1.98
  -4   4   1    5.91    1.77
  -4  -4   1    3.41    1.54
  -4   4   1    5.85    1.59
   4   4  -1    4.93    1.91
   4  -4  -1    4.47    1.78
  -4   4   1    4.14    1.72
   4   4  -1    7.50    2.06
  -4  -4   1    4.74    1.23
   4  -4  -1    6.55    1.59
   4   4  -1    4.83    1.67
  -4   4   0    1.64    1.24
   4  -4   0    3.22    1.77
   4   4   0    3.67    1.45
  -4   4   0    4.11    1.63
   4   4   0    1.78    1.91
  -4  -4   0    3.12    1.04
   4   4   0    2.00    1.72
  -4  -4   0    3.64    1.46
   4  -4   0    2.42    1.49
  -4  -4   0    3.98    1.25
  -4   4  -1   53.63    5.05
   4   4   1   47.39    4.56
   4  -4   1   46.96    4.92
  -4  -4  -1   44.38    4.76
  -4  -4  -1   43.37    3.04
  -4  -4  -1   53.42    4.08
   4   4   1   43.97    4.85
   4  -4   1   53.35    5.16
  -4  -4  -2  205.82   11.01
  -4   4  -2  186.11   10.53
   4  -4   2  216.01   10.76
   4   4   2  192.85    9.37
  -4  -4  -2  200.16    8.89
   4   4   2  200.73   10.86
   4  -4   2  213.67   11.25
  -4  -4  -3  122.08    8.94
   4   4   3  123.77    8.79
  -4  -4  -3  116.94    7.08
   4  -4   3  120.74    8.83
  -4   4  -3  131.77    9.23
  -4  -4  -4    1.51    1.26
  -4  -4  -4   -3.64    2.09
  -4   4  -4    0.53    1.36
   4   4   4   -0.33    1.70
   4  -4   4   -2.44    1.94
  -4  -4  -5   76.66    7.85
  -4   4  -5   63.88    7.17
   4   4   5   62.09    6.68
   4   4   5   54.38    6.68
   4  -4   5   60.02    6.89
  -4  -4  -6    2.39    1.98
  -4   4  -6    5.00    2.50
   4   4   6    4.53    2.04
   4  -4   6    1.90    1.82
  -4  -5  10    4.37    2.38
   4  -5 -10    2.09    2.23
   4   5 -10    0.22    2.45
  -4  -5   9   74.72    7.45
  -4   5   9   56.71    6.64
   4  -5  -9   58.62    6.96
   4   5  -9   53.54    7.37
  -4   5   9   67.76    6.88
  -4   5   8   28.60    4.22
  -4  -5   8   25.89    4.30
  -4   5   8   19.86    3.89
   4   5  -8   26.92    5.30
   4  -5  -8   27.15    4.65
  -4   5   7    3.32    1.68
  -4  -5   7    2.17    1.54
  -4   5   7    3.98    2.11
   4   5  -7    4.97    1.99
   4  -5  -7    5.72    2.20
   4   5  -7    2.45    3.13
   4  -5  -7    4.61    2.39
  -4  -5   7    4.03    2.19
  -4   5   7    5.88    2.55
  -4   5   6    7.61    1.92
  -4  -5   6   12.51    2.60
  -4   5   6   10.38    2.73
   4   5  -6   10.05    2.70
   4  -5  -6   11.67    2.87
  -4  -5   6    7.05    2.30
   4   5  -6    6.40    2.72
  -4   5   6   12.66    3.01
  -4  -5   5   99.55    6.59
  -4  -5   5   99.19    6.59
  -4   5   5   86.51    6.38
  -4   5   5  108.97    7.44
   4   5  -5   95.37    5.40
   4   5  -5   97.34    6.69
   4  -5  -5  102.84    5.74
  -4   5   5   93.19    5.64
   4  -5  -5   99.03    7.72
  -4   5   4   93.44    6.14
   4  -5  -4  104.82    7.69
  -4  -5   4   96.39    6.07
  -4   5   4  104.86    7.05
   4   5  -4   91.46    6.64
  -4  -5   4   92.82    6.15
  -4   5   4   95.34    4.81
   4  -5  -3    0.55    1.18
  -4   5   3   -0.42    0.79
  -4  -5   3    0.05    1.61
  -4   5   3    1.67    1.67
   4   5  -3    3.24    1.93
  -4  -5   3   -0.40    0.95
  -4   5   3    2.50    1.80
   4  -5  -3    0.08    0.79
  -4  -5   2    3.97    1.99
  -4  -5   2    2.30    0.84
   4  -5  -2    2.79    1.43
  -4   5   2    3.51    1.22
   4   5  -2    3.39    1.57
   4   5  -2    4.26    2.15
  -4   5   2    3.11    1.55
  -4   5   2    2.16    1.30
  -4  -5   2    3.42    1.09
   4  -5  -2    5.24    1.37
  -4  -5   1   -0.66    1.59
  -4   5   1    0.39    1.16
  -4  -5   1    0.49    1.16
  -4   5   1    1.77    0.99
   4   5  -1    0.91    1.53
  -4   5   1    0.56    1.44
   4  -5  -1    0.26    1.36
   4   5  -1    0.91    1.34
  -4  -5   1   -0.45    0.96
   4  -5  -1    0.13    0.95
   4   5   0   46.06    4.64
  -4  -5   0   45.78    4.59
   4  -5   0   42.56    4.73
   4   5   0   35.87    4.04
  -4   5   0   49.85    4.58
  -4  -5   0   43.25    2.85
  -4  -5   0   49.23    3.89
   4   5   0   58.97    5.36
   4  -5   0   46.24    4.49
  -4   5   0   45.45    4.23
   4  -5   1    1.53    1.39
  -4   5  -1    1.80    1.55
  -4  -5  -1    3.65    1.66
   4   5   1   -0.15    1.40
   4   5   1    2.53    1.70
   4   5   1    3.88    1.34
   4  -5   1    2.01    1.58
  -4  -5  -1    2.07    1.04
  -4  -5  -2   81.25    6.77
  -4   5  -2   66.66    6.23
   4   5   2   79.11    5.53
   4  -5   2   77.76    6.43
   4   5   2   71.85    5.87
  -4  -5  -2   70.65    5.14
   4   5   2   81.46    6.77
   4  -5   2   74.24    6.59
  -4  -5  -3  205.29   11.70
  -4   5  -3  185.88   11.19
   4   5   3  198.93   11.44
  -4  -5  -3  195.20    9.72
   4  -5   3  216.63   11.89
  -4  -5  -4    4.12    1.55
  -4  -5  -4    4.99    2.34
   4   5   4    3.76    1.62
  -4   5  -4    4.55    2.06
   4   5   4    5.40    2.45
   4  -5   4    1.27    1.52
  -4  -5  -5   29.95    4.21
  -4  -5  -5   30.28    5.01
  -4   5  -5   26.41    4.89
   4   5   5   30.34    5.14
   4   5   5   24.81    4.68
   4  -5   5   30.46    4.99
  -4  -5  -6   28.39    5.18
  -4   5  -6   35.86    5.71
   4   5   6   26.22    4.92
   4  -5   6   39.12    6.05
  -4   6  10    8.20    2.97
  -4  -6  10    4.83    2.34
   4  -6 -10    7.86    2.98
  -4   6   9    8.39    2.68
  -4  -6   9    5.66    2.40
   4  -6  -9    5.82    2.49
  -4   6   9    8.23    2.72
   4   6  -9    5.87    3.83
  -4   6   8    3.48    1.82
  -4  -6   8    0.79    1.49
   4  -6  -8   -1.23    1.44
  -4   6   8   -1.65    1.57
   4  -6  -8    3.28    1.77
   4   6  -8    3.91    3.20
   4  -6  -8    3.42    2.25
  -4   6   7    3.10    1.67
  -4  -6   7    0.64    1.16
  -4   6   7   -0.31    1.45
   4  -6  -7    0.02    0.98
   4   6  -7   -1.46    2.30
   4  -6  -7   -1.28    2.25
  -4  -6   7    0.19    1.84
  -4   6   6   11.36    2.26
  -4  -6   6    5.85    1.92
  -4   6   6    9.18    2.46
   4   6  -6   10.50    2.65
   4  -6  -6    9.40    2.75
  -4  -6   6   10.06    2.48
   4   6  -6   10.43    3.14
  -4   6   6   10.63    2.96
  -4  -6   5   35.10    3.94
   4  -6  -5   35.91    4.73
  -4  -6   5   40.12    4.32
  -4   6   5   38.15    4.35
  -4   6   5   39.33    4.58
   4   6  -5   40.42    3.62
   4   6  -5   35.21    4.38
   4  -6  -5   37.33    3.39
  -4   6   5   33.71    3.29
  -4   6   4  109.22    6.75
  -4  -6   4  117.55    6.89
   4  -6  -4  116.47    8.13
  -4   6   4  126.85    7.84
   4   6  -4  110.08    7.33
  -4   6   4  116.69    7.42
   4  -6  -4  114.00    5.46
  -4  -6   4  106.90    6.67
  -4  -6   3  268.64   10.83
   4  -6  -3  311.89   14.03
  -4   6   3  289.91    9.55
  -4   6   3  297.73   12.56
   4   6  -3  272.39   12.14
  -4   6   3  312.45   12.30
   4  -6  -3  286.40    9.53
  -4  -6   3  284.72   11.47
  -4   6   3  269.35   10.88
  -4  -6   2  124.96    6.63
   4  -6  -2  129.15    8.52
  -4   6   2  130.17    6.50
   4   6  -2  134.41    7.83
  -4   6   2  133.66    7.66
  -4  -6   2  133.13    6.91
   4  -6  -2  130.79    6.47
  -4  -6   2  136.96    7.64
  -4   6   2  125.42    6.86
  -4  -6   1   -0.36    1.60
  -4   6   1    3.94    1.69
  -4  -6   1    1.89    1.32
  -4   6   1    3.08    1.20
   4   6  -1    2.44    1.71
  -4   6   1    2.59    1.74
   4   6  -1    5.29    1.92
  -4  -6   1    2.11    1.16
   4  -6  -1    5.47    1.60
   4  -6  -1    2.64    1.69
   4   6   0  141.81    8.35
  -4  -6   0  142.99    8.41
  -4   6   0  137.54    7.96
   4  -6   0  151.72    9.04
   4   6   0  133.68    7.92
  -4  -6   0  151.00    7.42
   4   6   0  138.09    8.44
   4  -6   0  151.47    8.13
  -4   6   0  154.60    7.91
  -4  -6  -1  134.27    8.35
   4   6   1  140.45    7.76
  -4   6  -1  138.34    8.43
   4  -6   1  136.29    8.62
   4   6   1  121.74    7.86
  -4  -6  -1  140.97    7.34
   4   6   1  141.99    8.82
   4  -6   1  147.44    8.69
  -4  -6  -2   46.78    5.30
  -4   6  -2   42.67    4.92
   4   6   2   44.32    4.03
   4   6   2   45.57    4.60
  -4  -6  -2   39.38    3.96
   4   6   2   45.99    5.23
   4  -6   2   44.42    5.09
  -4  -6  -3   -2.02    1.32
  -4  -6  -3    0.20    1.83
  -4   6  -3    2.22    1.86
   4   6   3   -0.41    1.47
   4   6   3   -3.33    2.06
   4  -6   3   -1.06    1.61
  -4  -6  -4   -0.38    1.01
  -4   6  -4   -1.96    1.69
  -4  -6  -4   -0.22    1.77
   4   6   4    4.04    2.76
   4   6   4   -0.09    1.72
   4  -6   4   -0.20    1.59
  -4  -6  -5   15.25    3.09
  -4  -6  -5   17.71    4.02
  -4   6  -5   19.65    4.06
   4   6   5   12.79    3.67
   4   6   5   14.83    3.84
   4  -6   5   11.74    3.37
  -4  -6  -6   16.38    3.99
  -4   6  -6   12.07    3.47
   4   6   6   13.99    4.00
   4  -6   6   15.58    3.96
   4  -7 -10   -0.40    1.71
  -4   7  10   -2.97    2.08
  -4   7   9    0.09    1.41
  -4  -7   9    3.02    2.05
   4  -7  -9    4.29    2.22
  -4   7   9   -0.06    1.31
   4   7  -9    6.58    3.58
  -4   7   8    3.36    1.73
  -4  -7   8    5.04    2.22
   4  -7  -8    4.62    1.99
   4  -7  -8    7.71    2.31
  -4   7   8    3.29    2.15
   4  -7  -8    4.26    2.09
   4   7  -8    0.61    2.42
   4  -7  -8    4.14    2.48
  -4   7   7   11.41    2.57
  -4  -7   7    8.63    2.50
   4  -7  -7   10.93    2.67
   4  -7  -7   10.83    2.39
  -4   7   7   11.74    3.03
   4  -7  -7   12.87    3.02
   4   7  -7   12.00    3.59
   4  -7  -7   12.14    3.00
  -4  -7   7   11.81    2.81
  -4   7   6    6.33    1.84
   4  -7  -6    8.21    1.95
  -4  -7   6    7.97    2.34
  -4   7   6    6.67    2.21
   4   7  -6    9.06    2.83
  -4  -7   6    2.78    1.85
   4   7  -6    5.87    2.84
   4  -7  -6    7.81    2.45
  -4   7   6    5.00    2.29
  -4  -7   5   81.19    5.91
  -4  -7   5   77.60    6.12
   4  -7  -5   78.37    6.92
  -4   7   5   74.19    5.80
  -4   7   5   82.14    6.61
   4   7  -5   68.46    4.97
   4   7  -5   75.03    6.21
   4  -7  -5   80.43    5.01
   4  -7  -5   76.21    5.16
  -4   7   4  106.25    6.68
  -4  -7   4  108.65    6.87
   4  -7  -4  120.87    8.41
  -4   7   4  123.68    7.89
   4   7  -4  104.07    7.47
  -4   7   4  133.83    7.94
  -4  -7   4  122.79    7.04
  -4  -7   3   29.76    3.37
   4  -7  -3   42.73    4.93
  -4   7   3   39.37    4.35
  -4   7   3   35.68    2.92
   4   7  -3   36.89    4.39
  -4   7   3   42.43    4.37
   4  -7  -3   36.93    2.94
  -4  -7   3   37.43    3.95
  -4   7   3   34.41    3.64
   4  -7  -2   93.50    7.14
  -4   7   2   89.18    5.38
   4   7  -2   95.49    6.68
  -4   7   2   87.11    6.31
  -4  -7   2   90.69    5.91
   4  -7  -2   89.57    5.29
  -4  -7   2   93.55    6.20
  -4   7   2   90.66    5.71
   4  -7  -1   17.84    3.22
  -4  -7   1   13.81    2.61
  -4  -7   1   16.43    2.78
  -4   7   1   18.60    2.66
  -4   7   1   15.63    2.47
   4   7  -1   15.59    2.99
  -4   7   1   16.07    2.92
   4   7  -1   13.61    2.67
  -4  -7   1   14.94    2.38
   4  -7  -1   14.41    2.26
   4   7   0    1.49    1.25
  -4   7   0   -0.68    1.30
  -4   7   0    0.82    1.13
   4   7   0   -0.81    1.63
  -4  -7   0    0.37    1.56
   4  -7   0   -0.42    1.46
   4  -7   0    0.09    1.37
  -4  -7   0    1.13    1.03
   4   7   1  120.58    6.98
  -4   7  -1  111.14    7.52
   4  -7   1  122.75    8.02
   4   7   1   96.94    6.82
  -4  -7  -1  115.38    7.79
  -4  -7  -1  112.11    6.72
   4   7   1  101.49    7.53
   4  -7   1  109.41    7.46
  -4   7  -1  119.87    6.99
  -4  -7  -2    0.04    1.34
   4   7   2    0.75    1.24
   4   7   2   -0.83    1.73
   4  -7   2   -2.43    1.70
  -4  -7  -2    1.45    1.21
  -4  -7  -3   30.42    4.56
  -4   7  -3   27.05    4.29
   4   7   3   36.20    4.21
  -4  -7  -3   34.17    4.08
   4   7   3   26.85    4.36
   4  -7   3   30.27    4.38
  -4  -7  -4    2.83    1.53
  -4  -7  -4    5.88    2.23
  -4   7  -4    6.68    2.56
   4   7   4   10.61    3.41
   4   7   4    7.94    2.72
   4  -7   4    1.40    1.83
  -4  -7  -5    9.64    2.68
  -4  -7  -5   11.35    3.29
  -4   7  -5    5.29    2.35
   4   7   5   14.03    3.82
   4   7   5    6.18    2.51
   4  -7   5    5.04    2.83
  -4  -7  -6   -0.46    1.55
  -4   7  -6   -0.88    1.77
   4   7   6   -0.56    1.25
   4  -7   6   -2.34    1.95
   4  -8 -10   44.05    6.50
  -4   8  10   55.84    7.15
  -4  -8   9    7.18    2.56
   4  -8  -9    6.69    2.76
  -4   8   9   11.64    3.43
   4   8  -9    8.40    3.79
  -4  -8   8   17.46    3.66
   4  -8  -8   20.12    3.77
   4  -8  -8   13.34    2.93
  -4   8   8   17.87    3.99
   4   8  -8   20.76    5.09
   4  -8  -7   -1.88    1.30
  -4  -8   7    0.25    1.28
   4  -8  -7   -1.98    1.74
  -4   8   7    1.58    1.63
   4   8  -7   -1.50    2.38
   4  -8  -7   -1.19    2.42
   4  -8  -7    1.06    1.30
  -4  -8   7    1.51    1.83
   4  -8  -6    4.05    1.61
  -4  -8   6   -0.11    1.28
  -4   8   6    2.43    1.55
   4   8  -6    1.20    2.09
   4   8  -6    0.23    2.47
  -4  -8   6    1.05    1.48
  -4   8   6    2.80    1.92
   4  -8  -6    2.51    1.28
   4  -8  -5    9.15    2.41
   4  -8  -5   11.10    2.02
  -4  -8   5    9.57    2.38
  -4   8   5   11.70    2.76
   4   8  -5    8.98    2.02
   4   8  -5    9.81    2.77
  -4  -8   5   11.24    2.52
  -4   8   5    8.28    2.26
  -4   8   4   36.34    3.95
   4  -8  -4   29.46    4.20
  -4  -8   4   28.84    3.58
  -4   8   4   31.57    4.06
   4   8  -4   28.74    4.16
  -4   8   4   36.81    4.25
  -4  -8   4   32.67    3.72
  -4  -8   3   -0.44    1.50
  -4  -8   3   -0.28    1.32
  -4   8   3    1.27    0.78
  -4   8   3   -0.55    1.07
   4  -8  -3   -0.02    1.26
  -4   8   3    1.36    1.37
   4   8  -3    1.66    2.00
  -4   8   3   -0.68    1.82
   4  -8  -3    0.73    0.76
  -4  -8   2    7.37    2.11
  -4   8   2    2.21    1.03
  -4   8   2    1.52    1.26
   4   8  -2   -0.77    2.32
  -4   8   2    5.70    1.99
   4  -8  -2    2.39    1.49
  -4  -8   2    3.03    1.42
   4  -8  -2    3.46    1.13
  -4   8   1   59.37    4.83
   4  -8  -1   55.50    5.48
   4   8  -1   58.55    5.31
  -4  -8   1   56.23    4.74
   4  -8  -1   60.93    4.81
  -4  -8   1   58.34    5.00
  -4   8   1   66.51    4.86
   4   8  -1   52.50    5.06
   4   8   0   76.16    5.89
  -4  -8   0   81.42    6.37
  -4   8   0   82.94    6.15
   4  -8   0   78.03    6.56
   4   8   0   83.76    6.29
  -4  -8   0   86.03    5.89
   4  -8   0   85.95    6.11
  -4   8   0   88.17    5.76
  -4   8  -1    3.11    1.39
  -4  -8  -1    8.24    2.55
  -4   8  -1    2.74    1.57
   4  -8   1    5.58    2.26
   4   8   1    4.33    1.80
   4   8   1    4.63    1.44
   4  -8   1    4.15    1.80
  -4  -8  -1    5.08    1.64
  -4   8  -2   75.36    6.59
   4   8   2   64.85    5.76
  -4  -8  -2   72.40    6.65
  -4  -8  -2   69.06    5.62
   4   8   2   73.06    6.65
   4  -8   2   77.92    6.62
  -4   8  -3    6.94    2.41
   4   8   3    9.29    2.33
  -4  -8  -3   12.76    3.02
   4   8   3   12.19    3.19
   4  -8   3   15.95    3.35
  -4  -8  -3   12.83    2.60
  -4  -8  -4    7.63    2.38
  -4  -8  -4    5.25    2.52
   4   8   4    3.76    2.63
   4   8   4    3.99    2.04
  -4   8  -4    7.92    2.62
   4  -8   4    6.86    2.50
  -4  -8  -5   97.35    8.97
  -4   8  -5   94.01    8.93
   4   8   5   79.87    8.20
  -4  -8  -5   86.91    7.57
   4  -8   5  100.39    8.95
   4   8   5   92.54    8.83
  -4  -8  -6   65.86    7.94
   4   8   6   66.23    7.59
   4   8   6   79.71    8.39
  -4  -8  -6   72.16    7.24
  -4   9  10    0.60    1.05
   4  -9  -9    2.87    1.97
  -4  -9   9   -2.72    1.95
  -4   9   9    0.48    1.38
   4   9  -9   -1.62    2.51
   4  -9  -8   -0.48    1.30
  -4  -9   8   -0.12    1.61
   4  -9  -8    1.51    1.53
  -4   9   8   -2.51    1.90
   4   9  -8    0.32    2.45
   4  -9  -7   19.54    3.37
  -4  -9   7   11.81    2.89
   4  -9  -7   17.53    3.21
  -4   9   7   14.90    3.50
   4   9  -7   14.38    4.49
  -4  -9   7   16.71    3.24
   4  -9  -7   10.79    2.97
   4  -9  -6    9.74    2.19
  -4  -9   6   11.65    2.70
  -4   9   6    9.30    2.64
   4   9  -6    9.63    2.79
   4   9  -6    9.77    3.53
  -4  -9   6   10.14    2.42
  -4   9   6   11.89    2.81
   4  -9  -6    9.00    2.48
  -4  -9   5  182.12    9.18
  -4  -9   5  178.08    9.94
  -4   9   5  174.58    9.35
   4  -9  -5  192.58   11.26
  -4   9   5  205.42   11.16
   4   9  -5  184.09    9.12
   4   9  -5  171.11   10.19
  -4   9   4  116.18    7.03
  -4  -9   4  118.24    7.61
   4  -9  -4  136.26    8.97
  -4   9   4  121.89    8.28
   4   9  -4  108.59    7.90
  -4   9   4  135.41    8.24
  -4  -9   4  115.25    6.90
  -4  -9   3   13.83    2.65
  -4   9   3   15.64    2.03
  -4  -9   3   11.12    2.22
  -4   9   3   13.99    2.76
   4   9  -3   17.36    3.41
  -4   9   3   15.72    2.44
   4  -9  -3   15.84    2.91
  -4   9   3   17.95    3.33
  -4   9   2   34.53    3.46
   4  -9  -2   35.97    4.45
  -4   9   2   39.94    4.37
   4   9  -2   33.47    4.33
  -4   9   2   39.19    4.38
  -4  -9   2   38.46    4.07
   4  -9  -2   29.77    3.11
  -4  -9   2   33.08    3.75
  -4   9   2   34.98    3.44
  -4   9   1  274.88   11.53
   4   9  -1  273.70   12.27
  -4  -9   1  282.30   11.86
   4  -9  -1  276.11   13.08
   4  -9  -1  280.80   11.23
  -4  -9   1  270.83   11.78
  -4   9   1  290.92   11.00
   4   9  -1  280.26   12.53
   4   9   0    0.89    0.84
   4  -9   0   -0.69    1.20
  -4   9   0   -0.03    1.09
  -4   9   0   -0.73    1.25
   4   9   0    2.81    1.84
   4  -9   0    0.25    1.39
  -4  -9   0    1.48    1.27
  -4   9  -1   25.38    3.20
  -4  -9  -1   30.87    4.20
   4  -9   1   25.12    3.81
   4   9   1   28.59    3.82
  -4   9  -1   27.15    3.77
   4  -9   1   28.28    3.83
  -4  -9  -1   27.47    3.55
  -4  -9  -2   22.27    3.87
  -4   9  -2   18.99    3.68
   4   9   2   23.96    3.67
   4  -9   2   19.70    3.56
  -4  -9  -2   23.04    3.44
  -4  -9  -3    1.46    1.84
  -4   9  -3    1.42    1.47
   4   9   3    3.19    1.64
  -4  -9  -3    1.10    1.20
  -4  -9  -4    6.03    2.33
  -4   9  -4    1.49    1.48
  -4  -9  -4    0.62    1.40
   4   9   4    4.35    2.59
   4  -9   4    3.77    1.74
  -4  -9  -5   -2.74    1.67
  -4  -9  -5    0.37    1.78
   4   9   5   -5.43    2.76
   4  -9   5   -2.97    2.03
  -4  -9  -6    2.80    1.73
  -4  -9  -6    5.64    2.74
   4   9   6    3.29    2.25
   4 -10  -9   -1.58    1.59
  -4 -10   9    1.98    1.85
  -4  10   9    1.62    1.70
   4  10  -9   -1.68    2.83
   4 -10  -8    0.96    1.44
  -4 -10   8    2.43    1.74
   4 -10  -8    1.42    1.50
  -4  10   8   -1.40    1.70
   4  10  -8    4.08    3.37
   4 -10  -7   18.51    3.28
  -4 -10   7   17.78    3.74
   4 -10  -7   20.52    3.54
  -4  10   7   13.30    3.44
   4  10  -7   22.10    4.93
  -4 -10   7   23.02    3.66
   4 -10  -6    2.47    1.63
  -4 -10   6    2.11    1.91
   4 -10  -6   -1.09    1.97
  -4  10   6   -2.65    1.67
   4  10  -6    0.54    0.98
   4  10  -6   -1.27    1.99
   4  10  -6    1.15    2.37
  -4 -10   6   -1.11    1.43
  -4  10   6    0.32    1.68
  -4 -10   5   -0.63    1.39
   4 -10  -5   -0.76    1.11
  -4  10   5   -1.47    1.51
   4  10  -5    0.83    1.16
   4  10  -5    2.89    2.15
  -4 -10   5   -0.51    1.32
   4  10  -5   -2.11    2.50
  -4  10   5   -1.13    1.70
  -4  10   4  111.80    6.99
  -4 -10   4  119.98    7.90
   4 -10  -4  126.80    8.71
  -4  10   4  132.67    8.65
   4  10  -4  125.41    8.52
  -4  10   4  130.71    8.28
  -4 -10   4  125.93    7.24
  -4 -10   3    9.79    2.40
  -4  10   3   14.80    2.08
  -4 -10   3   10.12    2.32
  -4  10   3   13.38    2.72
   4  10  -3   11.18    3.12
  -4  10   3   14.80    2.41
   4 -10  -3   16.08    3.12
  -4  10   3   15.53    3.23
  -4  10   2   65.86    4.92
  -4  10   2   60.32    5.54
   4 -10  -2   57.53    5.71
   4  10  -2   55.82    5.57
  -4  10   2   68.03    5.94
  -4 -10   2   73.94    5.77
   4 -10  -2   64.77    4.62
  -4 -10   2   59.75    5.10
  -4  10   2   61.51    4.63
  -4 -10   1   14.76    2.67
  -4  10   1   12.85    2.44
   4  10  -1   18.66    3.41
   4  10  -1   13.31    2.66
   4 -10  -1   14.95    2.97
  -4  10   1   12.37    2.16
  -4 -10   1   19.42    3.11
   4 -10  -1   15.73    2.50
  -4  10   0    9.85    1.99
  -4  10   0   11.13    2.53
   4 -10   0    8.72    2.41
   4  10   0    4.22    2.40
   4 -10   0    7.90    2.09
  -4 -10   0    9.16    2.21
   4  10   0   10.21    2.17
  -4  10  -1    2.13    1.20
   4 -10   1    0.70    1.64
  -4 -10  -1    3.37    1.98
  -4  10  -1    0.10    1.09
   4  10   1    0.40    1.42
   4 -10   1    1.18    1.21
  -4 -10  -1    1.37    1.26
  -4  10  -2    4.96    1.66
  -4 -10  -2    7.65    2.72
  -4  10  -2    3.94    1.92
   4  10   2    4.99    2.06
   4 -10   2    7.02    2.30
  -4 -10  -2    6.14    1.91
  -4 -10  -3    9.23    2.89
  -4  10  -3    7.54    2.59
   4  10   3    5.45    1.94
   4  10   3   13.84    3.99
   4 -10   3   12.58    3.09
  -4 -10  -3   10.64    2.60
  -4 -10  -4    1.24    1.54
  -4  10  -4    0.27    1.80
   4  10   4   -1.62    2.68
   4 -10   4   -0.29    1.50
  -4 -10  -4    0.43    1.25
  -4 -10  -5    3.27    1.79
  -4 -10  -5    9.22    2.91
  -4  10  -5    4.78    2.33
   4  10   5    6.48    3.06
   4 -10   5    6.80    2.67
  -4 -10  -6   11.59    3.18
  -4 -10  -6   16.39    4.15
   4  10   6    8.68    3.05
   4 -11  -9   -3.52    2.04
  -4 -11   9   -0.33    1.18
  -4  11   9    0.40    1.79
   4  11  -9   -5.17    3.19
   4 -11  -8    6.94    2.35
  -4 -11   8    8.51    2.77
   4 -11  -8   10.38    2.94
  -4  11   8    9.20    2.86
   4  11  -8   10.50    3.99
  -4 -11   7    0.73    1.43
   4 -11  -7   -2.04    1.92
  -4  11   7   -1.09    1.44
   4  11  -7   -1.71    2.79
  -4 -11   7    3.67    2.05
  -4 -11   6   28.94    4.32
   4 -11  -6   27.01    4.25
  -4  11   6   26.52    4.37
   4  11  -6   24.65    3.54
   4 -11  -6   28.00    4.07
   4  11  -6   26.67    4.73
  -4 -11   6   28.29    3.80
  -4 -11   5   20.11    3.62
   4 -11  -5   20.77    3.66
  -4  11   5   17.42    3.34
   4  11  -5   13.80    2.70
   4  11  -5   14.77    3.53
  -4 -11   5   18.87    3.09
   4  11  -5   14.21    3.65
  -4  11   5   18.09    3.19
  -4 -11   4   13.20    2.89
  -4  11   4   15.98    3.13
  -4 -11   4   18.12    2.80
   4  11  -4   13.61    3.66
   4 -11  -4   16.67    3.12
  -4  11   4   17.82    2.83
  -4  11   4   17.22    3.26
  -4 -11   3   -1.23    1.92
  -4 -11   3   -1.91    1.63
  -4  11   3    1.17    1.56
   4  11  -3    0.54    1.99
  -4  11   3   -1.14    1.63
  -4  11   3    0.09    1.98
   4 -11  -3   -1.15    1.40
  -4 -11   2   -0.57    1.33
   4 -11  -2   -0.58    1.39
  -4  11   2   -0.34    0.97
  -4  11   2    1.30    1.16
  -4  11   2    1.65    1.10
   4  11  -2    1.74    2.58
  -4  11   2   -0.03    1.90
  -4 -11   2    2.23    1.40
   4 -11  -2    0.61    0.80
  -4 -11   1    1.02    1.14
  -4  11   1    1.86    1.18
  -4  11   1    1.75    0.99
   4  11  -1   -0.98    1.86
   4  11  -1    1.19    1.05
  -4 -11   1    2.03    1.39
   4 -11  -1    1.53    1.18
   4 -11  -1    2.45    1.58
  -4  11   0  161.74    9.25
   4 -11   0  165.67    9.82
   4  11   0  143.07    9.01
  -4 -11   0  178.20    9.56
   4 -11   0  178.18    9.27
  -4  11   0  175.18    8.29
  -4  11  -1    1.61    0.99
  -4  11  -1    2.01    1.61
   4  11   1    2.53    1.73
   4 -11   1    1.98    1.58
  -4 -11  -1    3.98    1.91
  -4 -11  -2   11.10    3.03
  -4  11  -2   15.68    3.22
   4  11   2    9.15    2.47
   4 -11   2   14.57    3.01
  -4 -11  -2   18.17    3.25
  -4 -11  -3    2.92    1.86
  -4  11  -3   -2.72    1.78
   4  11   3    4.41    3.48
   4 -11   3    2.78    2.40
  -4 -11  -3    2.34    1.76
  -4 -11  -4   35.57    5.42
  -4  11  -4   44.60    5.93
   4  11   4   45.93    6.58
  -4 -11  -4   46.15    5.59
   4 -11   4   46.00    5.96
  -4 -11  -5    3.82    1.99
  -4 -11  -5    0.84    1.68
  -4  11  -5   -2.11    1.85
   4  11   5   -1.17    2.05
   4 -11   5   -0.34    1.88
  -4 -11  -6    8.03    2.68
  -4  12   9    3.13    2.10
  -4 -12   8    0.21    1.44
   4 -12  -8    0.31    1.57
  -4  12   8    2.21    2.13
   4  12  -8   -0.38    2.64
  -4 -12   7   15.95    3.68
   4 -12  -7   20.06    3.83
  -4  12   7   20.44    4.13
   4  12  -7   18.69    4.54
  -4 -12   6    2.72    1.74
   4 -12  -6    5.31    2.12
  -4  12   6    2.45    1.61
   4  12  -6    1.21    1.18
   4  12  -6    4.39    2.88
  -4 -12   6    5.42    1.87
  -4 -12   5    1.10    1.67
   4 -12  -5    3.90    1.79
  -4  12   5    4.83    2.45
   4  12  -5    4.43    1.87
   4  12  -5    5.19    2.62
   4 -12  -5    2.52    1.73
  -4 -12   5    0.45    1.46
   4  12  -5   -3.84    2.66
  -4  12   5    4.02    1.81
  -4 -12   4  153.29    9.62
  -4  12   4  134.82    7.74
   4 -12  -4  149.52    9.47
  -4  12   4  159.24    9.89
   4  12  -4  142.77    9.65
  -4  12   4  144.97    9.18
  -4 -12   4  143.41    7.84
   4 -12  -3   10.87    2.64
  -4 -12   3   11.25    2.32
  -4 -12   3   10.85    2.70
  -4  12   3   11.66    2.69
   4  12  -3   11.55    3.36
  -4  12   3   11.00    2.11
  -4  12   3    5.94    2.21
  -4  12   2   43.06    4.10
  -4  12   2   40.51    4.72
   4 -12  -2   33.75    4.44
   4  12  -2   35.52    4.78
  -4  12   2   43.14    5.03
  -4 -12   2   43.71    4.80
   4 -12  -2   42.04    3.89
  -4 -12   2   39.35    4.19
  -4  12   2   40.44    3.71
  -4 -12   1    1.59    1.26
   4 -12  -1    0.79    1.20
  -4  12   1    0.17    0.98
  -4  12   1    1.00    1.09
   4  12  -1    1.11    1.13
   4  12  -1   -0.09    2.16
  -4 -12   1    1.77    1.49
   4 -12  -1    2.35    1.34
  -4  12   0   -0.04    1.11
   4  12   0    1.30    1.82
  -4 -12   0    3.13    1.69
   4 -12   0    3.46    1.55
   4 -12   0    1.62    1.48
  -4  12  -1   15.79    3.18
   4  12   1   13.76    3.09
   4 -12   1   16.52    3.07
  -4 -12  -1   12.27    2.69
  -4  12  -2   41.26    5.23
   4  12   2   38.22    4.60
  -4 -12  -2   37.52    4.74
   4 -12   2   38.90    4.92
  -4  12  -3   10.14    2.87
   4  12   3   15.33    4.25
   4 -12   3   12.32    3.23
  -4 -12  -3    7.53    2.46
  -4 -12  -4   16.80    3.97
  -4  12  -4   19.13    4.03
   4  12   4   11.93    3.71
   4 -12   4   18.59    3.85
  -4 -12  -4   10.08    2.93
  -4 -12  -5    8.66    3.10
  -4  12  -5   14.51    3.86
   4  12   5    1.42    2.55
   4 -12   5   13.83    3.53
  -4 -12  -5   11.82    3.16
  -4 -13   8    0.69    1.55
   4 -13  -8    2.82    1.99
  -4  13   8    1.25    1.46
   4  13  -8    0.67    3.02
  -4 -13   7   24.15    4.43
  -4  13   7   18.49    4.04
   4  13  -7   20.32    4.68
   4 -13  -7   25.81    4.32
  -4 -13   6    6.35    2.77
   4 -13  -6    9.95    2.83
  -4  13   6   12.37    3.13
   4  13  -6    7.64    2.19
   4  13  -6    8.65    3.16
  -4 -13   5   78.41    7.07
  -4  13   5   65.60    5.64
   4 -13  -5   74.26    6.60
   4 -13  -5   67.80    6.37
   4  13  -5   64.60    5.97
  -4  13   5   62.98    6.61
   4  13  -5   60.28    6.69
   4  13  -5   61.64    6.74
  -4 -13   4  299.07   14.08
  -4  13   4  269.13   11.51
   4 -13  -4  297.15   13.56
   4 -13  -4  275.95   13.45
  -4  13   4  298.48   14.36
   4  13  -4  248.62   13.48
  -4  13   4  297.05   13.70
   4  13  -4  255.46   13.65
  -4 -13   4  261.72   11.05
  -4 -13   3   10.15    2.66
   4 -13  -3   10.73    2.60
  -4 -13   3   11.56    2.40
  -4  13   3   16.49    3.14
   4  13  -3    8.42    3.00
  -4  13   3   11.22    2.19
  -4  13   3   14.95    3.25
  -4  13   2   42.86    3.84
  -4  13   2   42.03    4.83
   4 -13  -2   47.12    5.15
   4  13  -2   37.87    5.12
  -4  13   2   47.33    5.40
  -4 -13   2   49.92    5.28
  -4  13   2   39.98    4.09
   4 -13  -2   41.36    3.88
  -4 -13   2   45.88    4.60
  -4  13   1  116.54    7.53
   4 -13  -1  111.58    8.00
   4  13  -1  112.75    8.15
  -4 -13   1  117.25    8.10
   4 -13  -1  120.47    7.23
  -4 -13   1  100.64    6.91
   4 -13   0    9.42    2.57
  -4  13   0    6.26    2.07
   4  13   0    9.05    2.68
  -4 -13   0    7.93    2.33
   4 -13   0    9.44    2.24
  -4  13  -1   34.92    4.71
   4  13   1   34.82    4.52
  -4 -13  -1   35.05    4.59
   4 -13   1   37.68    4.63
  -4  13  -2   22.69    4.05
   4  13   2   22.56    3.73
   4  13   2   26.56    5.13
   4 -13   2   22.49    3.80
  -4 -13  -2   14.29    3.18
  -4  13  -3   21.09    4.11
   4  13   3   24.18    5.22
   4 -13   3   24.02    4.17
  -4 -13  -3   20.81    3.80
  -4  13  -4    5.26    2.51
   4  13   4    3.49    3.19
   4 -13   4    3.72    2.02
  -4 -13  -4    3.33    1.70
   4  13   5    1.23    2.15
  -4 -13  -5   -0.15    0.98
  -4 -14   8    7.62    2.77
   4 -14  -8   12.00    3.59
  -4  14   8   10.39    3.31
   4  14  -8    6.89    3.42
  -4 -14   7    0.25    1.71
   4 -14  -7    3.27    2.46
  -4  14   7    0.78    1.61
   4  14  -7    1.97    3.05
  -4 -14   6    1.88    1.73
   4 -14  -6    2.82    2.15
  -4  14   6    1.24    1.75
   4  14  -6    1.09    1.04
   4  14  -6    4.65    3.06
   4 -14  -5   -0.01    1.56
  -4  14   5    2.11    2.22
   4  14  -5    0.68    1.27
  -4 -14   5    1.30    1.41
   4  14  -5    3.51    2.37
   4 -14  -5    1.42    1.16
  -4 -14   4   47.96    5.69
  -4  14   4   53.30    4.84
   4 -14  -4   65.86    6.20
   4 -14  -4   53.90    5.56
  -4  14   4   56.01    6.13
   4  14  -4   47.63    6.08
  -4  14   4   57.59    5.89
   4  14  -4   48.03    5.71
  -4 -14   3   20.95    3.91
   4 -14  -3   22.78    3.69
  -4 -14   3   16.06    2.72
  -4  14   3   16.92    3.49
   4  14  -3   21.04    4.33
   4 -14  -3   18.29    3.32
  -4  14   3   16.58    3.40
   4 -14  -2    3.83    1.78
  -4 -14   2    3.10    1.63
  -4  14   2    1.83    1.37
  -4  14   2    2.40    1.43
   4  14  -2    3.61    2.34
  -4  14   2    5.81    2.55
  -4 -14   2    3.92    1.99
   4 -14  -2    5.49    1.66
  -4 -14   1   26.98    3.59
  -4  14   1   31.87    4.35
   4 -14  -1   30.63    4.30
  -4  14   1   29.39    3.79
   4  14  -1   29.15    4.46
  -4 -14   1   29.36    4.16
   4 -14  -1   29.26    3.66
  -4 -14   0   19.58    3.13
  -4  14   0   21.80    3.47
   4  14   0   23.13    3.99
  -4 -14   0   23.22    3.77
   4 -14   0   17.53    3.02
  -4  14  -1   27.32    4.23
   4  14   1   20.40    3.74
   4 -14   1   24.74    3.82
  -4 -14  -1   23.94    3.90
  -4  14  -2   57.56    6.42
   4  14   2   54.84    7.20
   4  14   2   45.19    5.24
  -4 -14  -2   47.45    5.61
   4 -14   2   54.46    5.91
  -4  14  -3   23.42    4.37
   4  14   3   22.42    4.95
   4 -14   3   26.48    4.46
  -4 -14  -3   18.38    3.60
  -4  14  -4    0.00    1.42
   4  14   4    1.23    2.58
   4 -14   4    0.99    1.52
  -4 -14  -4   -2.69    1.74
  -4 -14  -5   15.46    3.58
  -4 -15   8    7.44    3.09
   4 -15  -8    6.71    2.87
  -4  15   8    1.47    1.97
   4  15  -8    7.60    3.73
  -4 -15   7    6.65    2.66
   4 -15  -7    6.29    2.70
  -4  15   7    5.68    2.48
   4  15  -7    3.40    3.09
  -4 -15   6   18.53    3.85
   4 -15  -6   12.41    3.32
  -4  15   6   18.09    3.83
   4  15  -6   10.17    2.71
   4  15  -6   14.44    3.97
  -4 -15   5    3.21    1.93
   4 -15  -5    4.54    2.31
  -4  15   5    2.97    2.09
   4  15  -5    4.93    2.19
   4  15  -5    5.27    2.64
  -4 -15   4    5.60    2.63
   4 -15  -4   10.92    2.92
  -4  15   4    9.69    2.68
   4  15  -4   11.81    3.07
   4  15  -4   10.12    3.69
   4 -15  -4   10.35    2.52
   4  15  -4    6.33    2.69
  -4  15   4    9.88    2.85
  -4 -15   3   63.11    6.54
   4 -15  -3   74.04    6.49
  -4  15   3   62.85    6.34
   4 -15  -3   57.39    5.80
   4  15  -3   55.29    6.33
  -4  15   3   70.31    6.78
   4  15  -3   54.71    5.80
  -4 -15   3   72.93    6.89
   4 -15  -2    3.23    1.73
  -4  15   2    5.27    1.77
  -4  15   2    3.89    1.81
   4  15  -2    5.40    2.67
  -4  15   2    6.49    2.52
   4 -15  -2    8.29    2.35
  -4 -15   2    4.92    2.07
   4 -15  -2    5.72    1.68
  -4 -15   1    3.78    1.65
   4 -15  -1   -0.71    1.65
  -4  15   1    3.25    1.53
   4  15  -1    3.72    2.40
  -4  15   1    3.00    1.73
  -4 -15   1   -0.96    1.42
   4 -15  -1    1.64    1.18
   4 -15  -1    2.19    1.61
  -4 -15   0   -0.41    1.04
   4 -15   0   -0.37    1.37
  -4  15   0    0.22    1.16
   4  15   0    0.43    1.92
  -4 -15   0    1.79    1.67
   4 -15   0    1.21    1.36
   4 -15   1   62.43    5.50
  -4  15  -1   56.94    6.07
   4  15   1   65.11    7.54
   4  15   1   50.40    5.71
  -4 -15  -1   52.15    5.82
   4 -15   1   54.93    5.74
  -4  15  -2    1.63    1.56
   4  15   2    3.06    2.03
   4  15   2    7.63    3.54
   4 -15   2    7.12    2.49
  -4 -15  -2    7.88    2.57
  -4  15  -3   34.89    5.31
   4  15   3   31.56    5.72
   4 -15   3   42.04    5.74
  -4 -15  -3   36.70    5.27
  -4  15  -4    0.92    1.63
   4  15   4    2.00    2.32
   4 -15   4    0.83    1.57
  -4 -15  -4   -3.11    1.86
   4 -16  -8    1.78    2.22
   4  16  -8    3.95    2.89
  -4 -16   7   11.00    3.43
   4 -16  -7    8.61    2.98
  -4  16   7    5.52    2.45
   4  16  -7    6.99    3.35
  -4 -16   6    0.59    1.62
   4 -16  -6    1.79    1.79
  -4  16   6    1.00    1.61
   4  16  -6    0.74    1.22
   4  16  -6    0.98    2.36
   4 -16  -5   44.45    5.56
  -4 -16   5   40.19    5.66
  -4  16   5   37.46    5.30
   4  16  -5   38.06    5.03
   4  16  -5   32.91    5.19
  -4 -16   4   46.49    5.82
   4 -16  -4   49.20    5.64
  -4  16   4   51.44    6.01
   4  16  -4   51.61    5.90
   4 -16  -4   42.41    4.96
  -4  16   4   53.30    5.95
   4  16  -4   46.70    5.73
  -4 -16   3  243.97   13.40
   4 -16  -3  240.33   12.52
  -4  16   3  253.77   13.33
   4 -16  -3  230.05   12.07
   4  16  -3  205.58   12.88
  -4  16   3  269.13   13.60
   4  16  -3  214.86   11.88
  -4 -16   3  256.26   13.61
   4 -16  -2   22.34    3.70
  -4  16   2   24.21    3.40
  -4  16   2   28.16    4.13
   4 -16  -2   22.00    3.61
   4  16  -2   19.72    4.19
  -4  16   2   22.25    3.99
  -4 -16   2   23.84    4.02
  -4  16   1    9.28    2.32
   4 -16  -1    2.00    1.47
  -4  16   1    4.76    1.90
   4  16  -1    5.57    2.72
  -4 -16   1    4.16    1.89
   4 -16  -1    8.03    2.11
   4 -16   0   83.69    6.64
  -4  16   0   73.37    6.68
   4  16   0   71.91    6.96
  -4 -16   0   77.42    7.11
   4 -16   0   80.80    6.67
  -4 -16   0   69.92    5.83
   4 -16   1   29.01    3.82
  -4  16  -1   18.86    3.71
   4  16   1   26.49    4.51
   4  16   1   24.92    5.31
  -4 -16  -1   26.47    4.32
   4 -16   1   29.16    4.34
  -4  16  -2    4.23    2.19
   4  16   2    6.85    3.80
   4 -16   2    7.72    2.52
  -4 -16  -2    5.09    2.19
  -4  16  -3   -1.14    2.01
   4  16   3    5.37    3.23
   4 -16   3    1.59    1.78
  -4 -16  -3    3.69    2.20
  -4  16  -4   -2.84    2.10
   4  16   4    1.28    2.53
   4 -16   4   -3.16    2.02
  -4 -16  -4    3.24    2.04
  -4 -17   7   13.93    3.73
   4 -17  -7   14.02    4.08
  -4  17   7    9.05    3.13
   4  17  -7   12.05    3.49
  -4 -17   6    6.09    2.65
   4 -17  -6    0.02    2.03
  -4  17   6    5.55    2.63
   4  17  -6    0.71    1.38
   4  17  -6    3.57    2.48
  -4 -17   5    4.22    2.29
   4 -17  -5    5.83    2.67
  -4  17   5   -1.58    1.67
   4  17  -5    1.64    1.80
   4  17  -5    1.48    1.91
  -4 -17   4   13.09    3.43
   4 -17  -4   17.11    3.61
  -4  17   4   18.46    3.82
   4  17  -4   19.11    3.88
   4  17  -4   12.21    3.37
  -4  17   4   21.80    3.96
   4 -17  -3   10.82    2.72
  -4 -17   3    4.77    2.14
   4 -17  -3    0.50    1.68
  -4  17   3    4.89    2.34
   4  17  -3    2.69    3.04
  -4  17   3    3.49    2.06
   4 -17  -2   -0.29    1.64
  -4  17   2    2.95    1.93
   4  17  -2    2.52    2.59
  -4  17   2    1.20    2.10
  -4 -17   2   -1.40    1.96
   4 -17  -2   -0.67    1.08
   4 -17  -1    3.98    2.02
  -4  17   1    3.78    1.70
  -4  17   1    7.45    2.23
   4  17  -1    6.08    2.88
  -4  17   1    1.90    2.02
  -4 -17   1   -0.08    1.42
   4 -17  -1    8.24    2.37
   4 -17   0   34.36    4.35
  -4  17   0   31.37    4.49
   4  17   0   32.52    5.03
   4  17   0   35.83    6.04
  -4 -17   0   38.51    5.24
   4 -17   0   34.47    4.59
  -4  17  -1    5.17    2.20
   4  17   1    6.60    2.68
   4  17   1    1.51    2.61
  -4 -17  -1    6.24    2.69
   4 -17   1    6.64    2.48
  -4  17  -2   19.35    4.11
   4  17   2   18.59    4.62
   4 -17   2   15.51    3.44
  -4 -17  -2   17.47    3.74
  -4  17  -3   80.30    8.51
   4  17   3  101.66   10.17
  -4 -17  -3   80.30    8.07
   4 -17   3  106.37    9.18
   4 -18  -7    6.03    3.07
   4  18  -7    0.99    2.16
  -4 -18   6   33.37    5.44
   4 -18  -6   34.13    5.39
  -4  18   6   27.63    5.16
   4  18  -6   22.92    4.22
   4  18  -6   18.80    4.15
  -4 -18   5   13.29    3.64
   4 -18  -5   19.65    4.04
  -4  18   5   13.15    3.45
   4  18  -5    8.57    2.81
  -4 -18   4    3.67    2.30
   4 -18  -4    1.63    2.15
  -4  18   4    4.58    2.34
   4  18  -4    4.49    2.49
  -4  18   4    4.78    2.29
  -4 -18   3   16.57    3.75
   4 -18  -3   16.10    3.48
  -4  18   3   13.78    3.20
   4 -18  -3   16.71    3.11
  -4  18   3   14.00    3.47
   4 -18  -2    6.82    2.54
  -4  18   2    7.59    2.39
   4  18  -2    8.99    3.40
  -4  18   2   10.50    2.86
  -4 -18   2    9.52    2.64
   4 -18  -1    4.92    2.31
  -4  18   1    9.05    2.52
   4  18  -1    1.21    2.08
  -4  18   1    0.84    1.94
   4  18  -1    4.82    3.69
  -4 -18   1    3.69    2.20
   4 -18  -1    3.03    1.35
   4 -18   0   -0.23    1.51
  -4  18   0    1.95    1.51
   4  18   0   -2.97    2.46
  -4 -18   0    1.05    1.45
   4 -18   0   -0.97    1.29
  -4  18  -1   24.10    4.28
   4  18   1   25.55    4.55
   4  18   1   25.25    5.52
  -4 -18  -1   24.09    4.29
   4 -18   1   27.06    4.37
  -4  18  -2   19.20    4.12
   4  18   2   25.96    5.66
   4 -18   2   21.99    4.14
  -4 -18  -2   19.63    4.10
  -4  18  -3   36.10    5.88
   4  18   3   47.74    7.10
   4 -18   3   51.43    6.52
  -4 -18  -3   42.39    5.99
   4  19  -7    3.50    2.48
  -4 -19   6   -2.71    2.22
  -4  19   6   -1.71    1.80
   4  19  -6    0.17    1.76
  -4 -19   5   -0.86    1.67
  -4  19   5   -2.41    1.89
   4  19  -5   -1.60    2.06
   4 -19  -5    2.45    2.20
  -4 -19   4   21.84    4.37
   4 -19  -4   23.33    4.40
  -4  19   4   17.15    3.78
   4  19  -4   17.10    3.92
  -4  19   4   18.52    3.81
  -4 -19   3   75.13    7.79
   4 -19  -3   84.53    7.86
  -4  19   3   63.34    6.99
   4  19  -3   71.82    7.85
  -4  19   3   73.09    7.38
   4 -19  -2   -1.60    1.71
  -4  19   2    0.43    1.08
   4  19  -2    1.83    3.09
  -4  19   2   -0.75    1.82
  -4 -19   2    3.09    2.09
   4 -19  -1    2.47    1.97
  -4  19   1    1.02    1.31
   4  19  -1    1.28    2.24
  -4  19   1   -1.17    2.07
   4  19  -1    5.07    3.15
  -4 -19   1   -0.58    1.34
   4 -19  -1   -4.29    1.69
   4 -19   0   -2.30    1.66
  -4  19   0    2.34    1.60
   4  19   0    3.92    2.55
   4  19   0    2.16    2.27
  -4 -19   0   -0.64    1.64
   4 -19   0   -0.25    1.19
  -4  19  -1    7.61    2.65
   4  19   1    9.72    3.27
   4  19   1    7.62    3.77
  -4 -19  -1   11.54    3.16
   4 -19   1   10.17    2.92
  -4  19  -2   19.01    4.02
   4  19   2   17.01    4.81
   4 -19   2   21.64    4.26
  -4 -19  -2   16.89    4.02
   4  20  -6   18.75    4.09
  -4 -20   5   -1.92    2.17
   4 -20  -5    2.92    2.69
  -4  20   5    1.57    1.59
   4  20  -5    0.44    1.72
  -4 -20   4    1.63    2.26
   4 -20  -4    1.98    2.07
  -4  20   4    0.84    1.67
   4  20  -4   -1.19    1.67
  -4  20   4    2.55    1.94
  -4 -20   3   23.35    4.60
   4 -20  -3   20.39    4.19
  -4  20   3   15.96    3.61
   4  20  -3   28.45    5.08
  -4  20   3   18.66    3.93
   4 -20  -2    5.30    2.55
   4  20  -2    8.76    3.52
  -4  20   2    3.43    2.36
  -4 -20   2    6.13    2.53
   4 -20  -1    3.04    2.26
  -4  20   1    0.47    1.02
   4  20  -1    3.67    3.06
  -4  20   1   -2.58    2.19
  -4 -20   1   -3.99    2.19
   4 -20   0    8.90    2.75
  -4  20   0    6.73    2.37
   4  20   0    9.89    3.74
  -4 -20   0    7.84    2.87
   4 -20   0    9.19    2.59
  -4  20  -1    2.72    2.05
   4  20   1    8.92    3.55
  -4 -20  -1    2.24    1.90
   4 -20   1    8.53    2.90
  -4  20  -2   12.87    3.52
   4  20   2   14.11    4.36
  -4 -20  -2   10.84    3.20
   4 -20   2   13.31    3.42
  -4 -21   5    2.37    1.96
  -4  21   5   -1.78    1.75
   4  21  -5    2.49    2.03
  -4 -21   4    1.97    2.91
   4 -21  -4    3.57    2.97
  -4  21   4   -2.31    1.77
   4  21  -4    3.93    2.42
  -4  21   4    1.78    1.76
  -4 -21   3    0.63    1.55
   4 -21  -3    3.63    2.73
  -4  21   3   -0.07    1.22
   4  21  -3    2.37    2.22
  -4  21   3    0.34    1.88
   4 -21  -2   24.35    4.58
  -4  21   2   27.22    4.75
  -4 -21   2   32.57    5.24
   4 -21  -1   27.45    4.71
   4  21  -1   24.49    5.04
  -4  21   1   23.17    4.77
  -4 -21   1   24.26    4.61
  -4  21   0   24.40    4.36
   4 -21   0   28.54    4.56
   4  21   0   23.85    5.34
  -4 -21   0   23.39    4.68
   4 -21   0   28.70    4.62
  -4  21  -1    2.04    1.87
   4  21   1    0.62    2.50
  -4 -21  -1    4.43    2.48
   4 -21   1    1.39    1.50
  -4  22   4    5.25    2.32
   4  22  -4    7.39    3.24
  -4  22   4    2.42    1.97
  -4 -22   3   20.86    4.43
   4 -22  -3   17.57    4.34
  -4  22   3   15.15    3.61
   4  22  -3   22.83    4.85
  -4  22   3   22.25    4.48
   4 -22  -2   86.58    8.49
   4  22  -2   92.60    9.47
  -4  22   2   81.34    8.16
  -4 -22   2   76.77    8.26
   4 -22  -1    4.54    2.55
   4  22  -1    3.81    3.14
  -4  22   1   -2.08    2.58
  -4 -22   1   -2.98    2.06
  -4  22   0    3.27    1.87
   4  22   0    2.35    2.56
  -4 -22   0    4.72    2.28
   4 -22   0    5.58    2.37
  -4  22  -1   -0.69    1.53
   4 -22   1    0.83    1.29
  -4  23   4    9.75    3.17
  -4  23   4   -0.73    1.51
  -4  23   3    3.44    2.22
   4 -23  -2    5.92    3.02
  -4  23   2    2.80    1.88
   4 -23  -1   22.65    4.58
   4  23  -1   19.11    4.56
  -4  23   1   18.04    4.22
  -4  23   0    2.54    1.83
  -5   0  10    3.72    2.11
   5   0 -10   15.17    4.17
   5   0  -9   60.55    7.72
  -5   0   9   80.60    7.58
  -5   0   8   -3.28    1.78
   5   0  -8   -1.73    2.71
  -5   0   8    0.46    2.18
  -5   0   7   11.82    2.58
  -5   0   7   11.10    3.20
  -5   0   6    0.44    1.10
   5   0  -6   -0.46    1.35
  -5   0   6   -0.66    2.34
  -5   0   5    8.45    1.84
  -5   0   5    4.93    2.18
   5   0  -5    4.27    1.90
   5   0  -5    2.58    1.70
  -5   0   4   -1.90    2.02
   5   0  -4    1.96    1.65
   5   0  -4   -5.37    2.29
   5   0  -3  755.53   26.12
  -5   0   3  735.99   20.99
   5   0  -3  790.78   24.16
  -5   0   3  773.35   23.61
   5   0  -2    3.98    1.84
  -5   0   2    4.15    2.48
  -5   0   2    4.36    1.61
  -5   0   2    5.40    2.02
   5   0  -2    3.06    1.55
  -5   0   1   16.55    3.07
  -5   0   1   16.15    2.78
   5   0  -1   18.04    3.59
  -5   0   1   16.77    2.66
   5   0  -1   16.02    3.03
  -5   0   0   -1.97    2.13
  -5   0   0   -0.88    1.41
  -5   0   0    0.47    1.16
   5   0   0   -3.71    1.76
   5   0   0   -4.05    1.84
  -5   0  -1    8.56    2.65
   5   0   1    3.61    1.89
  -5   0  -1    8.82    2.09
   5   0   1    6.78    2.66
   5   0   2    0.14    0.99
   5   0   2    2.13    2.06
  -5   0  -3   87.93    8.28
   5   0   3   91.00    8.27
  -5   0  -4    1.24    2.08
   5   0   4    0.10    2.10
  -5   0  -5   19.25    4.35
   5   0   5   22.51    4.66
  -5   1  10   -0.07    2.00
  -5  -1  10    3.71    2.17
   5  -1 -10    4.45    3.01
  -5   1   9    7.27    2.62
  -5  -1   9    4.34    2.12
   5   1  -9    5.57    2.98
   5  -1  -9   10.45    3.86
  -5   1   8    3.55    1.73
  -5  -1   8    1.22    1.37
   5   1  -8    3.72    3.06
   5  -1  -8    1.69    2.57
  -5  -1   8    3.55    2.42
  -5   1   8    6.26    2.80
  -5   1   7    0.88    1.12
  -5  -1   7    3.35    1.94
  -5  -1   7    0.31    1.90
  -5   1   7    1.17    2.09
  -5   1   6    0.13    0.89
  -5  -1   6   -0.87    1.42
   5  -1  -6    3.05    2.19
   5   1  -6   -1.76    1.89
   5  -1  -6   -1.07    1.46
  -5  -1   6   -3.32    2.29
  -5   1   6   -0.42    2.04
  -5  -1   5    3.94    1.28
   5   1  -5    7.74    2.77
  -5  -1   5    8.15    2.53
  -5   1   5    2.96    1.80
   5   1  -5    5.99    2.25
   5  -1  -5    7.37    2.17
   5  -1  -5    4.85    2.07
  -5  -1   4    0.63    1.88
  -5   1   4    1.87    1.53
   5   1  -4    0.00    1.78
   5  -1  -4    2.67    1.98
   5   1  -4   -0.68    1.69
   5  -1  -4    3.14    1.69
   5   1  -3  502.39   20.11
   5  -1  -3  486.81   19.99
  -5  -1   3  495.25   15.80
  -5   1   3  506.76   15.55
   5   1  -3  515.48   18.29
   5  -1  -3  482.21   15.79
  -5  -1   3  516.00   18.03
  -5   1   3  502.05   17.72
   5   1  -2   59.88    6.28
   5  -1  -2   67.55    6.68
  -5  -1   2   59.25    4.82
  -5   1   2   60.33    4.81
   5   1  -2   56.92    5.45
  -5   1   2   59.02    4.95
  -5  -1   2   56.09    4.54
   5   1  -2   53.21    4.85
   5  -1  -2   54.31    4.76
  -5  -1   2   67.91    5.91
  -5   1   2   62.31    5.60
  -5  -1   1   25.84    3.75
  -5   1   1   28.39    3.92
  -5  -1   1   27.25    3.60
  -5   1   1   24.77    3.41
   5   1  -1   27.54    4.37
   5  -1  -1   27.28    4.26
  -5  -1   1   28.08    3.18
  -5   1   1   25.35    3.24
   5   1  -1   27.38    3.69
   5  -1  -1   27.10    3.66
   5  -1   0    7.92    2.38
  -5  -1   0    4.64    2.16
  -5   1   0    6.12    1.99
  -5  -1   0    9.25    2.46
  -5   1   0    7.23    2.10
  -5   1   0    9.18    2.14
  -5  -1   0    5.57    1.50
   5   1   0    8.92    2.55
   5   1   0    2.96    1.83
   5  -1   0   12.39    2.83
  -5  -1  -1    9.72    2.93
  -5   1  -1   12.33    3.02
   5   1   1   10.59    2.67
  -5  -1  -1   11.25    2.17
   5  -1   1    9.16    2.61
   5   1   1   11.64    2.93
   5  -1   1   10.10    2.46
  -5  -1  -2    5.39    2.25
  -5   1  -2    3.18    1.89
   5  -1   2    5.01    1.87
   5   1   2    6.68    2.53
   5  -1   2    5.53    2.46
   5   1   2    3.95    1.69
  -5  -1  -3  149.36   10.68
  -5   1  -3  127.27    9.91
   5   1   3  141.49   10.46
   5  -1   3  147.08   10.61
  -5  -1  -4  115.95    9.89
  -5   1  -4  118.34   10.03
   5   1   4  104.87    9.47
   5  -1   4  109.76    9.56
  -5  -1  -5   12.22    3.61
  -5   1  -5   16.21    4.12
   5   1   5   14.11    3.73
   5  -1   5   18.75    4.38
  -5   2  10   26.88    4.78
  -5  -2  10   27.37    4.81
   5  -2 -10   15.36    4.27
  -5   2   9    0.29    1.24
  -5  -2   9   -0.12    1.24
   5   2  -9    1.14    2.39
   5  -2  -9    5.33    3.11
  -5   2   8    2.34    1.60
  -5  -2   8    4.59    2.07
   5   2  -8    5.61    2.94
   5  -2  -8    2.70    2.02
  -5  -2   8    3.24    2.21
  -5   2   8    7.58    2.91
  -5   2   7    4.14    1.72
  -5  -2   7    5.02    1.90
   5  -2  -7    1.00    1.57
   5   2  -7    3.27    1.81
  -5  -2   7    2.17    2.14
  -5   2   7    2.80    2.28
  -5  -2   6   82.34    6.13
  -5  -2   6   69.18    6.16
  -5   2   6   54.02    5.65
   5   2  -6   65.83    5.79
   5  -2  -6   73.91    5.63
   5  -2  -6   69.78    7.45
  -5   2   6   61.76    5.13
  -5  -2   5    2.79    1.11
  -5  -2   5    6.55    2.47
   5   2  -5    7.69    2.47
  -5   2   5    4.69    2.26
   5  -2  -5    7.01    2.11
   5  -2  -5    4.79    2.50
  -5  -2   4   18.45    2.41
  -5  -2   4   18.22    3.16
  -5   2   4   17.99    3.00
   5   2  -4   16.09    3.20
   5  -2  -4   16.56    2.85
   5   2  -4   13.59    3.12
   5  -2  -4   16.14    3.53
   5   2  -3   63.52    6.82
   5  -2  -3   57.88    6.48
  -5  -2   3   55.96    4.48
  -5   2   3   64.40    4.49
   5   2  -3   76.31    6.47
  -5   2   3   71.28    5.60
   5  -2  -3   59.11    4.55
  -5  -2   3   77.12    6.30
  -5   2   3   63.97    5.60
   5   2  -2  173.70   10.89
   5  -2  -2  173.27   10.96
  -5  -2   2  157.06    8.35
  -5   2   2  167.28    8.42
   5   2  -2  160.23    9.50
  -5   2   2  166.84    8.59
   5   2  -2  161.26    8.86
   5  -2  -2  175.35    8.75
  -5  -2   2  180.78    9.87
  -5   2   2  180.97    9.72
  -5  -2   1    1.88    1.63
  -5   2   1    0.45    1.78
   5   2  -1    1.58    1.60
  -5  -2   1    3.71    1.73
  -5   2   1    4.13    1.66
   5  -2  -1    5.57    2.24
  -5   2   1   -0.24    1.45
  -5  -2   1    4.43    1.46
   5   2  -1    2.75    1.57
   5  -2  -1    3.29    1.60
  -5  -2   0   16.06    3.27
   5  -2   0   18.08    3.45
  -5   2   0   16.16    3.10
  -5  -2   0   17.75    3.20
  -5   2   0   14.09    2.90
  -5   2   0   17.18    2.87
  -5  -2   0   19.18    2.56
   5   2   0   18.29    3.39
   5   2   0   18.35    3.45
   5  -2   0   16.24    3.20
  -5  -2  -1   -0.51    1.41
  -5   2  -1    0.84    1.32
   5   2   1   -0.79    1.33
   5   2   1   -1.01    1.41
   5  -2   1   -0.08    1.41
   5  -2   1   -2.51    1.53
  -5  -2  -2    1.74    1.73
  -5   2  -2    1.84    1.71
   5  -2   2   -1.08    1.20
   5   2   2    0.74    0.91
   5   2   2    0.53    1.56
   5  -2   2    1.53    1.74
  -5  -2  -3   61.25    6.85
  -5   2  -3   55.22    6.64
   5   2   3   54.77    6.48
   5  -2   3   58.39    6.73
  -5  -2  -4   -1.22    1.83
  -5   2  -4   -0.73    1.91
   5   2   4   -4.31    2.57
   5  -2   4    1.03    2.00
  -5  -2  -5    0.82    1.49
  -5   2  -5    1.75    1.97
   5   2   5    4.06    2.16
   5  -2   5    1.34    1.95
  -5   3  10   12.83    3.51
  -5  -3  10   11.77    3.36
   5  -3 -10   11.71    3.54
   5  -3 -10   17.67    4.46
  -5   3   9   24.58    4.14
  -5  -3   9   23.60    4.21
   5  -3  -9   26.70    5.20
   5   3  -9   19.49    4.64
   5  -3  -9   23.12    4.77
  -5   3   8   13.56    2.89
  -5  -3   8   12.40    2.96
   5  -3  -8   10.42    3.34
   5   3  -8    9.12    3.56
   5  -3  -8    7.65    3.00
  -5  -3   8    8.28    2.92
  -5   3   8   13.65    3.67
  -5   3   7    5.57    1.91
  -5  -3   7    3.65    1.58
   5   3  -7    5.42    2.10
   5  -3  -7    4.28    2.22
  -5  -3   7    6.17    2.66
  -5   3   7    6.95    2.73
  -5  -3   6   95.54    6.81
  -5  -3   6   91.29    7.16
  -5   3   6   79.13    6.75
   5   3  -6   92.48    6.98
   5  -3  -6   98.45    6.50
   5  -3  -6   77.38    7.80
  -5  -3   5   -0.64    0.92
  -5  -3   5    2.04    1.63
   5   3  -5   -1.46    1.95
   5  -3  -5   -0.10    1.20
  -5   3   5    0.01    1.50
   5  -3  -5    2.32    1.94
  -5  -3   4  118.49    6.60
   5  -3  -4  113.58    8.95
   5   3  -4  117.28    8.01
   5  -3  -4  131.67    8.00
   5   3  -4  128.56    9.47
  -5  -3   4  120.58    7.71
  -5   3   4  104.94    7.14
  -5  -3   3   39.95    3.49
   5  -3  -3   42.97    5.47
  -5   3   3   43.99    3.70
   5   3  -3   46.58    5.23
  -5   3   3   44.76    4.52
   5  -3  -3   37.99    3.54
  -5  -3   3   47.56    5.11
  -5   3   3   40.02    4.42
   5   3  -3   44.65    5.69
   5   3  -2   42.85    5.43
   5  -3  -2   45.03    5.42
  -5  -3   2   39.53    4.10
  -5   3   2   39.92    3.95
   5   3  -2   42.95    4.89
  -5   3   2   40.83    4.24
   5  -3  -2   39.29    3.98
  -5  -3   2   44.45    4.90
  -5   3   2   49.27    4.97
  -5  -3   1   -0.82    1.77
   5   3  -1    0.67    1.24
  -5   3   1    1.21    1.45
  -5  -3   1    2.44    1.73
  -5   3   1    1.52    1.22
   5   3  -1   -1.72    1.91
  -5   3   1    0.02    1.76
   5  -3  -1   -0.04    1.92
  -5  -3   1    3.15    1.29
   5   3  -1    3.45    1.60
   5  -3  -1    0.45    1.10
  -5  -3   0   15.95    3.14
  -5   3   0   13.02    2.87
   5  -3   0   13.27    2.87
  -5  -3   0   14.89    3.04
  -5   3   0   13.22    2.80
  -5   3   0   17.12    2.97
   5   3   0   14.57    3.25
   5   3   0   12.87    2.83
   5  -3   0   16.50    3.03
   5  -3   1    0.07    1.15
  -5  -3  -1   -0.10    1.25
  -5   3  -1   -0.47    1.44
   5   3   1    0.35    1.07
   5   3   1   -1.24    1.68
   5  -3   1    0.48    1.33
   5  -3   2    4.99    1.94
  -5  -3  -2    3.53    2.09
  -5   3  -2    1.95    1.59
   5   3   2    5.70    2.04
   5   3   2    3.61    1.98
   5  -3   2    4.48    2.12
  -5  -3  -3   82.03    8.04
  -5   3  -3   67.86    7.21
   5   3   3   67.30    7.21
   5  -3   3   82.35    7.90
  -5  -3  -4  107.54    9.52
  -5   3  -4  103.50    9.26
   5   3   4   90.55    8.81
   5  -3   4   94.74    8.91
  -5  -3  -5    8.21    3.17
  -5   3  -5    3.84    2.31
   5   3   5    5.58    2.58
   5  -3   5    5.61    3.03
  -5   4  10   -0.35    1.53
  -5  -4  10    3.90    2.06
   5  -4 -10    2.59    2.44
  -5   4   9    1.30    1.54
  -5  -4   9   -2.97    1.91
   5  -4  -9    0.70    1.47
   5   4  -9    2.95    3.14
   5  -4  -9   -2.87    2.62
  -5   4   8    1.85    1.47
  -5  -4   8    0.24    1.44
   5  -4  -8    1.33    1.40
   5   4  -8    0.57    2.79
   5  -4  -8    1.04    2.11
  -5  -4   8    2.64    2.53
  -5   4   8    4.06    2.62
  -5  -4   7    0.67    1.25
   5   4  -7    1.90    1.61
   5  -4  -7    0.99    1.59
  -5  -4   7   -0.59    1.74
  -5   4   7   -0.18    1.83
  -5  -4   6    1.76    1.19
   5   4  -6    1.85    1.76
  -5  -4   6    1.13    1.99
  -5   4   6    1.96    1.87
   5  -4  -6    0.78    1.52
  -5  -4   5   15.56    2.69
  -5  -4   5   16.86    3.42
   5   4  -5   12.50    3.04
   5  -4  -5   13.91    2.58
  -5   4   5   18.97    3.24
   5  -4  -5   13.02    3.46
  -5  -4   4  269.76   10.92
   5  -4  -4  272.98   14.25
   5   4  -4  255.99   12.46
  -5  -4   4  265.25   12.07
  -5   4   4  254.90   11.61
  -5  -4   3   57.16    4.34
   5  -4  -3   59.71    6.44
  -5   4   3   64.11    4.52
   5   4  -3   57.03    5.73
  -5   4   3   67.75    5.57
   5  -4  -3   64.67    4.58
  -5  -4   3   59.35    5.48
  -5   4   3   57.76    5.16
   5   4  -3   61.94    6.41
   5   4  -2   70.63    6.80
   5  -4  -2   77.39    7.35
  -5  -4   2   69.07    5.45
  -5   4   2   73.50    5.41
   5   4  -2   73.78    6.43
  -5   4   2   76.92    5.99
   5  -4  -2   83.86    5.80
  -5  -4   2   75.10    6.31
  -5   4   2   80.54    6.24
   5   4  -1    7.39    2.46
  -5  -4   1   10.85    2.60
  -5   4   1   13.04    2.81
  -5  -4   1   11.43    2.41
  -5   4   1    7.19    1.93
   5   4  -1    9.67    2.75
  -5   4   1    8.24    2.15
   5   4  -1   12.14    2.82
   5  -4  -1    8.94    2.57
  -5  -4   1   11.87    2.01
   5  -4  -1    9.26    2.49
  -5  -4   0   12.80    2.87
  -5   4   0   13.69    2.89
  -5  -4   0   16.19    3.07
  -5   4   0   13.22    2.75
   5  -4   0   12.76    3.07
   5   4   0   15.06    3.24
   5   4   0   12.47    2.94
  -5   4   0   21.40    3.22
   5   4   0   12.42    3.00
   5  -4   0   13.24    2.85
  -5  -4  -1   53.03    5.69
  -5   4  -1   48.57    5.42
   5   4   1   51.05    5.27
   5  -4   1   48.20    5.49
   5   4   1   51.83    5.59
   5   4   1   45.27    5.44
   5  -4   1   43.40    5.23
  -5   4  -1   49.09    5.23
  -5  -4  -2    2.29    1.82
  -5   4  -2    0.74    1.31
   5  -4   2    5.73    2.33
   5   4   2    2.11    1.75
   5  -4   2    3.94    1.99
  -5  -4  -3   39.27    5.51
  -5   4  -3   31.03    4.96
   5   4   3   28.87    4.85
   5  -4   3   30.94    4.99
  -5  -4  -4  233.97   14.59
  -5   4  -4  234.67   14.44
   5   4   4  226.20   14.10
   5  -4   4  245.96   14.68
  -5  -4  -5    3.11    2.19
  -5   4  -5    0.19    1.45
   5   4   5    3.49    2.29
   5  -4   5   -3.70    2.21
  -5   5  10    4.91    2.42
  -5   5   9    3.58    1.92
  -5  -5   9    3.33    1.94
  -5   5   9    1.52    1.74
   5  -5  -9    2.10    1.82
   5   5  -9   -1.01    2.86
   5  -5  -9   -1.38    2.25
  -5  -5   8    4.66    2.02
  -5   5   8    1.86    1.74
   5  -5  -8    2.40    1.80
   5   5  -8    1.99    2.89
   5  -5  -8    2.90    2.15
  -5  -5   8    3.80    2.36
  -5   5   8    1.32    2.10
  -5  -5   7    8.22    2.24
  -5   5   7    3.79    2.03
   5   5  -7    7.03    2.55
   5  -5  -7    4.93    2.82
   5   5  -7    2.88    2.90
  -5  -5   7    3.38    1.98
  -5   5   7    5.97    2.64
  -5  -5   6    1.95    1.16
   5   5  -6    2.43    2.07
  -5  -5   6    0.99    1.75
  -5   5   6   -0.01    1.91
   5  -5  -6    1.31    1.66
  -5   5   5   46.97    5.01
  -5  -5   5   56.28    4.94
   5  -5  -5   55.82    6.37
   5   5  -5   55.34    5.62
   5  -5  -5   57.47    5.02
  -5  -5   5   51.07    5.12
  -5  -5   4   42.37    4.12
   5  -5  -4   53.85    6.23
   5   5  -4   39.01    4.85
  -5  -5   4   42.46    4.65
  -5   5   4   42.69    4.59
  -5  -5   3    7.09    1.63
   5  -5  -3    7.85    2.63
  -5   5   3    8.01    1.69
  -5  -5   3    7.94    2.52
  -5   5   3    7.98    2.10
   5   5  -3    5.90    2.40
   5   5  -3    6.94    2.40
  -5   5   3   12.51    2.72
   5  -5  -3    7.01    1.56
   5   5  -2   44.06    5.36
  -5  -5   2   40.78    3.62
   5  -5  -2   45.76    5.58
  -5  -5   2   38.55    4.23
  -5   5   2   37.62    3.90
   5   5  -2   44.00    4.99
  -5   5   2   39.57    4.43
   5  -5  -2   37.34    3.94
  -5  -5   2   43.03    4.97
  -5   5   2   38.11    4.29
   5   5  -1    0.70    1.45
  -5  -5   1   -0.71    1.94
  -5   5   1   -0.52    1.35
  -5  -5   1   -0.46    1.11
  -5   5   1   -0.85    1.27
   5   5  -1    1.30    1.72
  -5   5   1    0.60    1.47
  -5  -5   1    1.30    0.89
   5  -5  -1    0.33    1.35
   5  -5  -1   -1.38    1.83
   5   5   0   45.92    5.19
  -5  -5   0   45.18    5.27
  -5   5   0   50.27    5.15
   5  -5   0   53.95    5.92
   5   5   0   46.81    5.20
  -5  -5   0   51.64    4.34
   5   5   0   43.86    5.29
   5  -5   0   56.97    5.59
  -5  -5   0   48.77    5.17
  -5   5   0   46.34    4.87
  -5   5  -1   21.20    3.52
   5   5   1   20.84    3.35
  -5  -5  -1   19.36    3.68
  -5   5  -1   18.64    3.54
   5  -5   1   16.72    3.34
   5   5   1   17.98    3.30
   5   5   1   19.18    3.71
   5  -5   1   17.94    3.53
  -5  -5  -2   30.75    4.67
  -5   5  -2   25.71    4.41
   5   5   2   22.84    3.78
   5   5   2   24.97    4.56
   5  -5   2   26.32    4.29
  -5  -5  -3   17.51    3.78
  -5   5  -3   14.98    3.47
   5   5   3   14.49    3.40
   5   5   3   13.10    3.50
   5  -5   3   21.31    4.02
  -5  -5  -4   33.77    5.42
  -5   5  -4   31.09    5.42
   5   5   4   15.33    3.92
   5  -5   4   21.25    4.31
  -5  -5  -5   25.06    5.00
   5   5   5   17.67    4.27
  -5   6  10   39.77    6.05
  -5  -6   9   -0.86    1.55
  -5   6   9    1.66    1.67
   5   6  -9    0.27    2.96
   5  -6  -9    0.13    2.12
  -5  -6   8    1.22    1.35
  -5   6   8    0.07    1.34
   5   6  -8   -0.61    2.48
   5  -6  -8    1.41    2.18
   5  -6  -8   -0.17    1.12
  -5  -6   8    1.04    1.93
  -5  -6   7    8.36    2.32
  -5   6   7   10.71    3.11
   5   6  -7    8.51    2.77
   5   6  -7    6.39    2.87
  -5  -6   7    9.13    2.90
   5  -6  -7    7.96    2.91
  -5   6   7   10.48    3.28
  -5  -6   6    1.29    1.30
  -5   6   6   -2.04    1.61
   5   6  -6    0.98    1.87
  -5  -6   6   -0.29    1.90
  -5   6   6   -0.45    1.71
   5  -6  -6   -4.09    2.16
  -5  -6   5   30.84    3.84
   5  -6  -5   40.69    4.24
   5   6  -5   26.16    4.06
  -5   6   5   26.98    3.79
  -5  -6   5   35.49    4.32
   5  -6  -5   39.17    5.38
   5  -6  -4    4.12    2.53
  -5  -6   4    1.59    1.42
  -5   6   4    1.09    1.53
   5   6  -4    1.91    2.31
  -5  -6   4    1.31    1.03
  -5   6   4    3.57    2.07
  -5  -6   3   -0.33    1.21
  -5  -6   3    0.15    1.48
  -5   6   3   -0.46    0.72
   5  -6  -3   -0.61    1.95
  -5   6   3   -1.75    1.59
   5   6  -3   -2.91    2.24
   5   6  -3   -1.04    1.79
  -5   6   3    1.54    1.70
  -5  -6   2   21.38    3.49
  -5  -6   2   21.90    2.80
  -5   6   2   17.49    2.74
  -5   6   2   23.95    3.35
   5   6  -2   22.94    3.84
   5  -6  -2   16.09    3.48
  -5   6   2   20.19    3.39
   5   6  -2   21.13    3.65
   5  -6  -2   24.37    3.21
   5   6  -1   39.43    5.10
  -5   6   1   44.53    4.54
   5  -6  -1   46.54    5.52
   5   6  -1   42.39    4.92
  -5  -6   1   40.44    4.53
  -5   6   1   42.68    4.75
  -5  -6   1   38.52    3.81
   5  -6  -1   44.92    4.66
  -5  -6   1   43.42    4.96
  -5   6   1   40.13    4.51
   5   6   0   35.98    4.56
  -5   6   0   33.54    4.40
  -5  -6   0   30.81    4.28
   5  -6   0   39.43    5.02
   5   6   0   20.51    3.73
  -5  -6   0   31.31    3.47
   5   6   0   35.49    4.95
   5  -6   0   38.64    4.69
  -5  -6   0   35.71    4.59
  -5   6   0   38.06    4.36
  -5   6  -1   16.83    3.18
   5   6   1   15.93    2.96
  -5  -6  -1   12.88    3.24
  -5   6  -1   21.32    3.74
   5   6   1   10.73    2.88
   5  -6   1   18.29    3.58
   5   6   1   21.88    4.20
   5  -6   1   17.15    3.62
  -5  -6  -2    8.85    2.74
  -5   6  -2    5.31    2.59
   5   6   2    6.06    2.33
   5   6   2    6.05    2.55
   5  -6   2    6.00    2.42
  -5  -6  -3   -0.90    1.82
  -5   6  -3    0.66    1.69
   5   6   3   -2.02    2.06
   5   6   3   -1.18    1.81
   5  -6   3   -0.10    1.49
  -5  -6  -4    1.69    1.99
  -5   6  -4    1.77    1.71
   5   6   4    5.39    2.92
   5   6   4    2.84    2.29
   5  -6   4    1.61    1.98
  -5  -7   9    2.69    2.03
  -5   7   9    3.66    2.18
   5   7  -9    1.13    2.53
  -5  -7   8    3.27    1.80
   5  -7  -8    3.89    2.02
  -5   7   8    6.45    2.79
   5   7  -8    5.60    3.58
   5  -7  -8    3.02    1.83
   5  -7  -8    5.20    2.39
  -5  -7   8    7.73    3.12
  -5  -7   7   -0.25    1.10
  -5   7   7   -1.77    1.60
   5   7  -7    5.05    2.55
   5   7  -7   -3.54    3.31
  -5  -7   7    0.60    1.66
  -5   7   7    0.27    1.82
   5  -7  -7    0.77    1.45
  -5  -7   6    5.41    1.92
  -5   7   6    3.50    1.87
   5   7  -6    8.83    2.95
  -5  -7   6    2.40    2.06
  -5   7   6    5.13    2.16
   5  -7  -6    5.09    2.20
   5  -7  -5   12.27    3.26
  -5  -7   5   10.02    2.34
  -5   7   5   11.29    3.03
  -5  -7   5   12.26    2.93
   5   7  -5    8.37    2.76
  -5   7   5   12.12    2.93
  -5  -7   4   53.61    4.87
   5  -7  -4   47.95    5.96
   5   7  -4   52.11    5.83
  -5   7   4   64.49    5.84
  -5  -7   4   49.99    5.01
  -5   7   4   44.86    4.68
  -5  -7   3    3.07    1.62
  -5   7   3    3.51    1.70
   5  -7  -3    4.51    2.23
   5   7  -3    1.57    1.55
   5   7  -3    5.50    2.57
  -5  -7   3    6.18    1.83
  -5   7   3    4.28    1.93
  -5  -7   2   13.67    3.04
  -5  -7   2   15.57    2.51
  -5   7   2   15.09    2.56
  -5   7   2   11.48    2.49
   5   7  -2   17.35    3.53
  -5   7   2   17.86    3.24
   5   7  -2   16.98    3.57
   5  -7  -2   13.05    3.26
  -5  -7   2   12.61    2.37
   5  -7  -2   14.40    2.44
   5   7  -1    6.70    2.24
  -5  -7   1    4.73    2.28
   5  -7  -1    7.68    2.48
  -5   7   1    9.32    2.52
  -5  -7   1    5.61    2.08
  -5   7   1    5.25    1.74
   5   7  -1    6.20    2.27
  -5   7   1    7.19    2.28
  -5  -7   1    4.19    1.47
   5  -7  -1    5.59    1.92
  -5  -7   0    2.98    1.79
  -5   7   0    1.80    1.57
  -5  -7   0    5.23    2.03
  -5   7   0    1.05    1.34
   5   7   0    7.32    2.38
   5   7   0    2.05    1.80
   5  -7   0    6.63    2.32
   5  -7   0    4.40    1.75
  -5  -7   0    3.68    1.51
  -5  -7  -1   59.38    6.32
  -5   7  -1   62.30    6.34
   5  -7   1   62.20    6.33
   5   7   1   61.97    6.11
  -5  -7  -1   66.18    5.37
   5   7   1   69.29    6.86
   5  -7   1   77.03    6.99
  -5   7  -1   68.35    5.99
  -5   7  -2    4.51    1.82
  -5  -7  -2    3.33    2.03
  -5   7  -2    2.84    1.84
   5   7   2    4.15    2.08
   5   7   2    5.31    2.62
   5  -7   2    2.77    1.83
  -5  -7  -3    4.36    2.49
  -5   7  -3    6.12    2.59
   5   7   3    7.02    2.30
   5   7   3    3.12    2.34
   5  -7   3    7.24    2.77
  -5  -7  -4    1.89    1.73
  -5   7  -4    2.27    1.91
   5   7   4    2.84    2.39
   5   7   4    2.70    1.52
   5  -7   4    3.26    2.12
   5   7   5   43.18    6.39
  -5  -8   9   -0.20    1.79
  -5   8   9    0.70    1.41
   5   8  -9   -0.40    2.56
  -5  -8   8    1.94    1.56
   5  -8  -8    3.16    1.96
  -5   8   8    4.05    1.96
   5   8  -8    0.09    3.05
  -5  -8   8    8.72    2.88
   5  -8  -8    1.88    1.73
  -5  -8   7   -0.13    1.26
  -5   8   7    3.18    2.05
   5   8  -7    7.37    2.93
   5   8  -7    2.35    2.69
  -5  -8   7    2.08    1.65
  -5   8   7   -0.10    1.86
   5  -8  -7   -1.09    1.44
   5  -8  -6   11.07    3.23
  -5  -8   6   13.15    2.88
  -5   8   6    9.98    2.95
   5   8  -6    8.11    2.90
  -5  -8   6   15.01    3.17
  -5   8   6    8.68    2.60
   5  -8  -5    3.02    2.31
  -5  -8   5    2.92    1.82
  -5   8   5    3.01    1.86
  -5  -8   5    3.18    1.96
   5   8  -5    3.29    2.27
  -5   8   5    4.08    2.28
  -5  -8   4   12.71    2.54
   5  -8  -4   15.13    3.38
  -5  -8   4   12.29    2.71
   5   8  -4   13.77    3.20
  -5   8   4   10.69    2.45
  -5   8   4   14.51    3.05
  -5  -8   3    2.46    1.32
  -5  -8   3    1.82    1.61
  -5   8   3    2.33    1.47
   5   8  -3    1.30    1.29
   5   8  -3    2.61    2.24
   5  -8  -3    4.46    2.22
  -5   8   3    2.15    1.75
  -5  -8   2   75.98    5.84
  -5   8   2   80.37    5.86
   5  -8  -2   96.60    8.03
   5   8  -2   83.11    7.02
  -5   8   2   88.41    7.06
  -5  -8   2   79.60    6.04
   5  -8  -2   77.84    5.83
  -5  -8   2   83.30    6.82
  -5   8   2   90.24    6.42
   5   8  -2   89.09    7.80
   5   8  -1  120.40    8.83
  -5   8   1  125.96    8.02
   5  -8  -1  112.56    8.85
   5   8  -1  117.41    8.37
  -5   8   1  128.64    8.70
  -5  -8   1  135.91    7.89
   5  -8  -1  129.91    8.11
  -5  -8   1  124.21    8.45
  -5   8   1  134.78    8.13
   5  -8   0    2.61    1.67
  -5  -8   0    3.64    2.05
  -5   8   0    3.56    1.71
  -5  -8   0    3.09    1.74
  -5   8   0    2.67    1.77
   5   8   0    6.13    1.98
   5   8   0    6.39    2.40
   5  -8   0    2.78    1.70
  -5  -8   0    1.88    1.21
  -5   8  -1   11.91    2.82
  -5  -8  -1    6.62    2.57
  -5   8  -1    9.22    2.69
   5   8   1    9.47    2.67
   5  -8   1   10.25    2.72
   5  -8   1    6.37    2.57
  -5  -8  -1    8.52    2.07
  -5   8  -2   21.49    3.48
  -5  -8  -2   23.18    4.24
  -5   8  -2   14.42    3.65
   5   8   2   19.97    3.72
   5  -8   2   19.73    3.86
  -5  -8  -2   15.71    2.95
  -5  -8  -3    1.06    1.63
  -5   8  -3    2.59    1.85
   5   8   3    3.00    1.69
   5   8   3   -3.24    2.20
   5  -8   3   -1.74    1.63
  -5  -8  -4    3.56    2.41
  -5   8  -4    3.33    2.14
   5   8   4    5.40    3.31
   5   8   4    2.56    1.49
   5  -8   4    5.78    2.28
   5   8   5   54.60    7.24
  -5  -9   9    1.96    1.80
  -5   9   9    1.87    1.92
   5   9  -9    0.63    2.32
  -5  -9   8   18.57    3.70
   5  -9  -8   17.72    3.66
  -5   9   8   16.19    4.02
   5   9  -8   19.17    4.93
  -5  -9   8   17.82    3.75
   5  -9  -7    1.84    1.62
  -5  -9   7   -2.94    1.82
  -5   9   7   -0.19    1.43
   5   9  -7    3.01    2.59
   5   9  -7    0.01    2.49
  -5  -9   7    1.67    1.87
  -5   9   7    2.67    2.28
   5  -9  -6    4.99    2.28
  -5  -9   6    5.45    2.10
  -5   9   6    1.20    1.77
   5   9  -6    5.32    2.96
  -5  -9   6    0.67    1.61
  -5   9   6    4.09    1.96
  -5  -9   5   38.87    4.67
   5  -9  -5   37.57    5.59
  -5   9   5   43.10    5.36
   5   9  -5   39.57    5.25
  -5   9   5   32.90    4.25
  -5  -9   5   40.90    4.58
  -5  -9   4   23.58    3.53
  -5  -9   4   21.45    3.37
   5  -9  -4   22.47    4.26
   5   9  -4   25.02    4.28
  -5   9   4   25.94    3.56
  -5   9   4   29.83    4.26
  -5  -9   3   15.44    2.80
  -5  -9   3   11.95    2.71
  -5   9   3    9.53    2.16
   5   9  -3   10.17    3.07
   5  -9  -3   10.43    2.75
  -5   9   3   11.53    2.79
  -5   9   2   41.99    4.28
   5  -9  -2   44.48    5.55
   5   9  -2   32.67    4.61
  -5   9   2   50.86    5.46
  -5  -9   2   44.56    4.59
   5  -9  -2   44.92    4.37
  -5  -9   2   43.90    4.94
  -5   9   2   40.30    4.24
   5   9  -2   47.26    5.57
  -5  -9   1    2.56    1.77
  -5   9   1    2.40    1.64
  -5   9   1    1.63    1.36
   5   9  -1    2.12    1.97
   5  -9  -1    6.21    2.37
  -5   9   1    0.93    1.68
  -5  -9   1    2.13    1.42
   5  -9  -1    3.73    1.84
   5   9  -1    1.15    1.33
  -5  -9   0   -0.12    1.63
  -5   9   0   -0.94    1.10
  -5  -9   0   -0.83    1.37
  -5   9   0   -0.41    1.04
   5  -9   0    0.28    1.22
   5   9   0    0.00    1.72
   5  -9   0    1.60    1.19
  -5  -9   0    1.06    1.08
  -5   9  -1   67.60    6.71
  -5  -9  -1   69.84    6.89
   5  -9   1   65.97    6.64
   5   9   1   63.59    6.18
  -5  -9  -1   63.24    5.59
   5  -9   1   75.89    6.89
  -5   9  -1   67.22    5.93
  -5  -9  -2   56.67    6.49
  -5   9  -2   58.78    6.51
   5   9   2   54.35    5.77
  -5  -9  -2   56.61    5.54
   5  -9   2   69.70    6.98
  -5   9  -2   50.34    5.39
  -5  -9  -3    4.12    2.40
  -5   9  -3    8.37    2.82
   5  -9   3    2.48    1.90
  -5  -9  -4   -1.26    1.70
  -5   9  -4   -0.55    1.44
   5  -9   4   -2.38    1.92
  -5 -10   9   12.93    3.47
  -5  10   9   13.50    3.87
  -5 -10   8    4.63    2.22
   5 -10  -8    3.08    2.14
  -5  10   8    9.07    3.23
   5  10  -8    5.68    3.43
  -5 -10   7   39.13    4.97
   5 -10  -7   29.59    5.14
  -5 -10   7   24.82    4.25
   5 -10  -7   30.80    4.64
  -5  10   7   28.34    4.84
   5  10  -7   21.53    4.45
   5  10  -7   20.34    5.08
  -5  10   7   28.58    4.64
  -5 -10   6   17.43    3.51
   5 -10  -6   14.78    3.61
  -5  10   6   16.26    3.57
   5  10  -6   19.45    4.11
  -5 -10   6   14.90    2.95
   5  10  -6    7.94    3.20
  -5  10   6   13.98    3.21
  -5 -10   5   10.91    2.61
   5 -10  -5   15.86    3.68
  -5  10   5   16.31    3.52
   5  10  -5   15.97    3.79
  -5 -10   5   19.73    3.30
  -5  10   5   15.29    3.01
  -5  10   4   43.08    4.53
  -5 -10   4   41.83    4.75
   5 -10  -4   43.23    5.60
  -5  10   4   41.78    5.16
   5  10  -4   32.45    4.88
  -5  10   4   48.21    5.51
  -5 -10   4   41.82    4.68
  -5 -10   3    0.77    1.15
  -5 -10   3    1.84    1.56
  -5  10   3    2.27    1.60
   5  10  -3    0.89    2.12
  -5  10   3    0.23    1.64
   5 -10  -3    1.66    1.94
   5 -10  -2   11.44    2.95
  -5 -10   2    6.53    2.16
  -5  10   2    7.82    2.05
  -5  10   2    9.43    2.21
   5  10  -2    7.61    2.86
   5  10  -2    7.52    2.55
  -5  10   2    7.88    2.38
  -5 -10   2    9.76    2.39
   5 -10  -2    7.91    1.93
  -5 -10   1   -0.11    1.51
  -5  10   1    1.61    1.30
  -5  10   1    1.62    1.42
   5  10  -1   -1.85    2.41
  -5  10   1    2.20    2.14
   5 -10  -1    1.05    1.35
  -5 -10   1    0.06    1.10
   5 -10  -1    1.05    1.10
   5  10  -1    3.01    1.43
  -5 -10   0   16.83    3.33
  -5  10   0   21.81    3.44
  -5  10   0   17.82    3.34
   5  10   0   16.06    3.39
   5 -10   0   12.27    3.01
   5 -10   0   17.90    3.27
  -5 -10   0   17.88    3.08
  -5  10  -1   -0.93    1.25
  -5 -10  -1   -0.25    1.34
  -5  10  -1   -2.30    1.65
   5  10   1    3.33    2.07
   5 -10   1    0.78    1.59
   5 -10   1   -5.10    2.09
  -5 -10  -1    0.45    1.28
  -5 -10  -2   65.35    7.01
  -5  10  -2   64.73    6.96
   5  10   2   75.83    6.87
  -5 -10  -2   71.08    6.34
   5 -10   2   73.77    7.35
  -5 -10  -3    5.90    2.59
  -5  10  -3    9.97    2.86
   5 -10   3    9.48    3.02
  -5 -10  -4    1.97    2.00
  -5  10  -4   -0.16    1.48
   5  10   4    3.28    2.81
   5 -10   4    2.41    1.55
  -5 -11   8    0.81    1.47
   5 -11  -8   -4.12    2.24
  -5  11   8    1.53    1.81
   5  11  -8    0.73    2.75
  -5 -11   7    1.67    1.67
   5 -11  -7    2.76    1.90
   5 -11  -7    6.18    2.50
  -5  11   7    3.16    2.13
   5  11  -7    2.01    2.47
  -5 -11   7    2.92    1.64
  -5 -11   6    1.81    1.58
   5 -11  -6    2.47    1.40
  -5  11   6    3.82    2.13
   5  11  -6    4.85    2.49
  -5 -11   6    1.08    1.42
   5  11  -6    0.57    2.73
  -5  11   6    2.75    2.00
  -5 -11   5   46.48    5.35
  -5  11   5   42.90    4.80
  -5  11   5   43.12    5.57
   5 -11  -5   38.29    5.36
   5  11  -5   39.33    5.41
  -5 -11   5   38.92    4.56
  -5 -11   4    2.38    1.66
  -5  11   4   -2.47    1.70
  -5 -11   4   -0.93    1.43
   5  11  -4    5.00    2.94
  -5  11   4   -3.14    2.03
   5 -11  -4    0.68    1.35
  -5  11   4    2.64    2.27
   5 -11  -3    4.18    1.98
  -5 -11   3    4.22    1.85
  -5 -11   3    5.02    1.83
  -5  11   3    3.04    1.64
   5  11  -3   -2.22    2.39
  -5  11   3    2.55    1.88
  -5 -11   2    1.36    1.48
  -5  11   2    0.39    0.93
  -5  11   2    0.03    1.24
   5 -11  -2    0.62    1.22
   5  11  -2   -1.35    2.49
   5  11  -2   -0.51    1.25
  -5  11   2   -0.22    1.61
  -5 -11   2    1.99    1.66
   5 -11  -2   -0.28    0.86
  -5  11   1  100.75    7.36
   5 -11  -1   93.91    8.18
   5  11  -1   91.29    7.69
  -5  11   1  108.42    8.51
  -5 -11   1  100.39    7.42
   5 -11  -1  101.36    7.20
  -5 -11   1   95.56    7.42
  -5  11   1  105.91    6.96
  -5 -11   0    3.75    1.96
   5 -11   0    2.41    1.47
  -5  11   0    5.18    1.81
  -5  11   0    6.62    2.27
   5  11   0   -0.57    2.06
  -5 -11   0    4.50    1.92
   5 -11   0    3.58    1.84
  -5  11  -1   -0.13    1.25
   5  11   1    2.69    1.90
   5 -11   1    0.97    1.27
  -5 -11  -1    0.85    1.20
  -5 -11  -2    6.95    2.98
  -5  11  -2    5.31    2.58
   5  11   2   10.84    2.93
   5 -11   2    3.09    2.02
  -5 -11  -2    7.69    2.27
  -5  11  -3    5.39    2.35
   5  11   3    2.98    3.14
   5 -11   3    5.81    2.57
  -5 -11  -3   -0.86    1.30
  -5 -11  -4    5.10    2.54
   5  11   4   -1.09    2.03
  -5 -12   8    8.30    2.88
   5 -12  -8    6.51    2.46
  -5  12   8    5.83    2.51
   5  12  -8    3.29    2.80
  -5 -12   7   12.25    3.20
   5 -12  -7    6.12    2.46
  -5  12   7    8.69    2.99
   5  12  -7    6.62    3.21
  -5 -12   6   16.98    3.65
   5 -12  -6   15.27    3.46
  -5  12   6   16.71    3.84
   5 -12  -6   15.54    3.54
   5  12  -6   21.44    4.39
  -5 -12   6   16.73    3.31
   5  12  -6   22.56    4.88
  -5  12   6   15.95    3.40
  -5 -12   5    2.11    1.59
  -5  12   5    2.39    1.86
   5  12  -5    0.28    2.20
  -5 -12   5    0.54    1.23
   5 -12  -5   -1.42    1.55
  -5  12   5    4.31    2.47
  -5 -12   4   30.77    4.41
  -5  12   4   27.67    4.43
  -5 -12   4   28.27    3.79
   5  12  -4   28.18    4.79
  -5  12   4   26.51    3.66
  -5  12   4   32.69    4.74
   5 -12  -4   25.03    4.31
   5 -12  -3    0.15    1.40
  -5 -12   3    2.68    1.44
  -5 -12   3    0.72    1.27
   5  12  -3   -2.16    2.53
  -5  12   3    1.29    1.39
  -5  12   3    1.94    2.14
  -5 -12   2    6.99    2.31
  -5  12   2   10.09    2.33
  -5  12   2    7.55    2.10
   5  12  -2    7.03    2.86
   5  12  -2    7.12    2.32
   5 -12  -2   10.30    2.82
  -5  12   2    9.12    3.01
  -5 -12   2    8.44    2.33
  -5 -12   1    5.09    2.19
   5 -12  -1    6.67    2.41
  -5  12   1    6.25    2.00
   5  12  -1    5.01    2.55
  -5  12   1    8.50    2.93
  -5 -12   1    5.38    1.94
   5 -12  -1    7.97    2.05
  -5 -12   0    3.77    1.74
  -5  12   0    6.24    2.21
   5  12   0    3.09    2.19
   5 -12   0    7.52    2.37
  -5 -12   0    5.00    1.92
   5 -12   0    3.83    1.69
  -5  12  -1   38.88    5.18
   5  12   1   33.25    4.82
  -5 -12  -1   37.57    4.82
   5 -12   1   27.47    4.31
  -5  12  -2   86.65    8.18
   5  12   2   86.86    7.68
  -5 -12  -2  102.72    8.00
   5 -12   2   94.37    8.33
  -5  12  -3   20.01    4.16
   5  12   3   17.98    4.90
   5 -12   3   16.95    3.84
  -5 -12  -3   19.89    3.75
  -5 -13   8   18.94    4.07
   5 -13  -8   22.65    4.48
  -5  13   8   16.35    4.10
   5  13  -8   10.86    4.09
  -5 -13   7    1.99    1.90
   5 -13  -7    7.81    2.71
  -5  13   7    3.72    2.25
   5  13  -7   -2.23    3.07
  -5 -13   6   22.54    4.13
   5 -13  -6   17.45    3.75
  -5  13   6   21.39    4.23
   5  13  -6   18.21    4.48
   5 -13  -6   19.54    3.85
   5  13  -6   17.27    4.49
  -5  13   6   14.89    3.18
  -5 -13   5  117.73    8.96
  -5  13   5  102.61    7.57
   5 -13  -5   98.87    8.60
  -5  13   5  114.18    9.29
   5  13  -5  100.19    8.03
   5  13  -5   93.01    8.73
   5  13  -5   93.59    8.96
  -5  13   5  128.51    9.33
  -5 -13   5  109.69    7.45
   5 -13  -4   24.55    4.28
  -5 -13   4   24.50    4.04
  -5  13   4   23.58    4.12
  -5 -13   4   23.90    3.52
   5  13  -4   20.74    4.39
  -5  13   4   25.54    4.07
  -5  13   4   27.45    4.56
  -5 -13   3    5.49    2.11
  -5 -13   3    3.16    1.40
  -5  13   3    7.39    2.36
   5 -13  -3    6.68    2.49
   5  13  -3    4.68    2.65
  -5  13   3    4.94    1.81
  -5  13   3   10.34    3.04
  -5 -13   2    6.08    2.39
   5  13  -2    4.49    2.51
   5  13  -2    1.06    1.44
  -5  13   2    2.10    1.83
  -5 -13   2    3.29    1.87
   5 -13  -2    4.67    2.15
  -5 -13   1    1.60    1.40
  -5  13   1    1.77    1.38
   5  13  -1    0.60    2.22
  -5  13   1    4.79    2.61
   5 -13  -1    2.05    1.90
  -5 -13   1    0.11    1.62
   5 -13  -1    1.67    1.19
  -5 -13   0   -2.37    1.69
  -5  13   0    1.65    1.35
   5  13   0   -0.80    2.16
   5 -13   0    1.56    1.38
  -5 -13   0    0.39    1.21
   5 -13   0   -0.63    1.20
  -5  13  -1   19.00    3.77
   5  13   1   13.97    3.49
   5 -13   1   14.31    3.18
  -5 -13  -1   17.77    3.52
  -5  13  -2   -0.08    1.62
   5  13   2   -0.57    1.96
   5 -13   2    1.30    1.56
  -5 -13  -2    0.51    1.26
  -5  13  -3    2.62    2.28
   5  13   3    6.74    3.28
   5 -13   3    1.84    2.10
  -5 -13  -3    3.44    1.90
  -5 -14   8    3.01    2.16
   5 -14  -8   -3.85    2.41
   5  14  -8   -1.55    3.12
  -5 -14   7    3.93    2.29
   5 -14  -7    0.33    1.87
  -5  14   7    1.98    1.59
   5  14  -7    3.25    2.78
  -5 -14   6    2.78    1.96
   5 -14  -6    1.27    2.13
  -5  14   6    4.16    2.00
   5  14  -6   -1.63    2.26
   5 -14  -5    3.40    1.85
  -5 -14   5    2.28    1.85
   5 -14  -5    0.08    2.09
  -5  14   5    4.43    2.14
   5  14  -5    2.99    2.05
   5  14  -5    2.19    2.82
   5  14  -5    0.42    2.14
  -5  14   5    2.41    2.19
  -5  14   5    3.56    1.93
  -5 -14   4   39.57    5.25
   5 -14  -4   33.69    4.93
  -5  14   4   37.46    5.22
   5  14  -4   38.80    5.88
  -5  14   4   43.05    5.60
  -5 -14   3   -3.08    1.89
  -5 -14   3   -0.10    1.53
  -5  14   3    0.12    1.58
   5  14  -3    2.68    2.70
   5 -14  -3   -0.35    1.53
  -5  14   3    0.28    2.14
   5 -14  -2   35.26    4.93
   5  14  -2   29.14    4.99
  -5  14   2   41.62    5.58
  -5 -14   2   39.97    5.07
  -5 -14   2   38.94    4.64
  -5  14   1   70.99    6.52
   5 -14  -1   73.85    7.15
   5  14  -1   60.09    6.61
  -5  14   1   81.02    7.73
  -5 -14   1   78.31    7.07
   5 -14  -1   67.39    6.00
  -5 -14   1   69.11    6.29
  -5 -14   0   19.49    3.50
  -5  14   0   20.89    3.76
   5  14   0   21.03    4.15
  -5 -14   0   24.11    3.90
   5 -14   0   26.63    4.13
  -5  14  -1   -0.17    1.21
   5  14   1   -1.30    2.11
   5 -14   1    1.04    1.10
  -5 -14  -1   -1.11    1.25
  -5  14  -2    1.45    1.53
   5  14   2    1.02    2.90
   5 -14   2    0.75    1.58
  -5 -14  -2    0.85    1.30
  -5  14  -3    3.47    2.00
   5 -14   3   -0.30    2.07
  -5 -14  -3    3.64    1.90
  -5 -15   7    4.75    2.26
   5 -15  -7   -5.18    2.89
  -5  15   7   -1.29    1.67
   5  15  -7   -2.32    2.69
  -5 -15   6   -0.07    1.68
   5 -15  -6    3.66    2.21
  -5  15   6    3.31    2.25
   5  15  -6    5.20    3.12
  -5 -15   5    1.37    1.43
   5 -15  -5    0.46    0.96
   5 -15  -5   -0.14    1.80
  -5  15   5    3.26    1.85
   5  15  -5    1.39    1.69
   5  15  -5    0.68    2.52
   5  15  -5   -3.51    2.75
  -5  15   5    2.87    1.86
  -5 -15   4   76.25    7.51
   5 -15  -4   76.62    7.45
  -5  15   4   79.25    7.74
   5 -15  -4   76.01    7.41
   5  15  -4   70.50    7.81
  -5  15   4   83.97    7.88
  -5 -15   3    2.70    1.87
  -5  15   3    4.80    2.12
   5  15  -3    4.73    2.96
  -5  15   3    3.39    2.34
   5 -15  -3   10.26    2.93
  -5 -15   2    3.79    1.70
   5  15  -2    1.50    2.81
   5 -15  -2    3.58    1.67
  -5  15   2    2.11    2.09
  -5 -15   2    2.95    1.82
  -5 -15   1    1.98    1.58
   5 -15  -1    0.83    1.44
  -5  15   1    0.83    1.24
   5  15  -1    2.85    2.43
  -5  15   1    2.06    2.12
  -5 -15   1    2.35    1.72
   5 -15  -1    1.28    1.34
  -5 -15   0   -1.98    1.61
  -5  15   0   -1.73    1.51
   5  15   0    2.41    2.37
  -5 -15   0   -3.98    1.89
   5 -15   0   -0.22    1.20
  -5  15  -1   20.35    4.08
   5  15   1   17.53    3.97
   5 -15   1   26.50    4.41
  -5 -15  -1   27.12    4.48
  -5  15  -2    3.80    2.31
   5  15   2    8.13    3.93
   5 -15   2    4.84    2.16
  -5 -15  -2    2.12    1.49
  -5 -15  -3    1.28    1.35
  -5 -16   7    0.69    1.68
   5 -16  -7   -0.81    1.87
   5  16  -7    5.41    3.41
  -5 -16   6    1.06    1.70
   5 -16  -6    0.51    2.05
  -5  16   6   -0.93    2.07
   5  16  -6    1.67    2.20
  -5 -16   5    4.70    2.37
   5 -16  -5    9.45    3.18
  -5  16   5   -0.32    1.45
   5  16  -5    8.42    2.84
   5  16  -5    8.13    3.61
   5  16  -5    6.24    2.90
  -5  16   5    2.83    2.07
  -5 -16   4   24.68    4.45
   5 -16  -4   21.51    4.19
  -5  16   4   21.80    4.37
   5  16  -4   16.95    4.56
   5  16  -4   15.52    3.78
  -5  16   4   24.02    4.49
   5 -16  -4   22.22    4.02
  -5 -16   3    1.85    1.69
   5 -16  -3   -1.51    2.48
   5 -16  -3    1.08    1.19
  -5  16   3    4.92    2.09
   5  16  -3    1.38    2.67
  -5  16   3    0.12    2.14
   5 -16  -2   35.02    5.02
   5  16  -2   34.25    5.52
  -5  16   2   38.86    5.61
  -5 -16   2   32.36    4.81
  -5  16   1    5.23    2.05
   5  16  -1    9.35    3.26
  -5  16   1   15.99    3.97
  -5 -16   1   10.23    3.09
  -5 -16   0    1.85    1.43
  -5  16   0    2.30    1.81
   5  16   0    0.96    2.05
  -5 -16   0    2.59    1.91
   5 -16   0    2.97    1.89
  -5 -16  -1   15.73    3.28
  -5  16  -1    5.78    2.41
   5  16   1   12.37    3.46
   5  16   1   15.39    4.86
  -5 -16  -1   10.36    2.95
   5 -16   1   18.37    3.84
  -5  16  -2   11.83    3.45
   5  16   2    8.82    4.02
   5 -16   2    6.14    2.46
  -5 -16  -2    5.03    2.36
  -5 -16  -3   -2.48    1.76
   5  17  -7    8.32    3.49
  -5 -17   6    3.90    2.24
   5 -17  -6   11.23    3.42
  -5  17   6    8.85    3.02
   5  17  -6    6.08    2.37
   5  17  -6    5.33    2.93
  -5 -17   5    6.24    2.55
   5 -17  -5    8.38    3.06
  -5  17   5    7.43    2.73
   5  17  -5    7.71    2.83
   5  17  -5    5.32    2.74
  -5  17   5    3.53    2.24
   5 -17  -4    7.11    2.35
  -5 -17   4    4.51    2.49
   5 -17  -4    5.78    2.48
  -5  17   4    7.68    2.75
   5  17  -4    7.48    3.66
  -5  17   4   14.39    3.51
  -5 -17   3   18.32    3.83
   5 -17  -3   18.07    3.88
  -5  17   3   18.29    3.93
   5  17  -3   14.81    4.38
  -5  17   3   15.94    3.86
   5 -17  -3   16.29    3.44
   5 -17  -2   17.72    3.56
   5 -17  -2   15.44    3.65
   5  17  -2   15.11    4.13
  -5  17   2   17.15    4.09
  -5 -17   2   20.93    4.08
   5 -17  -1   -1.18    1.97
  -5  17   1    6.72    2.26
   5  17  -1    8.23    3.39
  -5  17   1    8.61    2.86
  -5 -17   1    6.77    2.61
   5 -17   0    7.66    2.38
  -5  17   0    8.85    2.68
   5  17   0    9.23    3.29
  -5 -17   0    2.48    1.86
   5 -17   0   11.09    2.86
  -5  17  -1    5.91    2.42
   5  17   1    1.95    2.19
   5  17   1   12.33    4.42
  -5 -17  -1    7.72    2.61
   5 -17   1    6.89    2.43
  -5  17  -2   31.51    5.35
   5 -17   2   30.21    5.04
  -5 -17  -2   28.83    4.92
  -5 -18   6   -0.57    1.60
   5  18  -6   -2.41    1.74
  -5 -18   5   -0.81    1.47
  -5  18   5   -1.22    1.70
   5  18  -5    0.23    1.47
  -5  18   5   -2.25    2.08
   5 -18  -4   58.22    6.89
  -5 -18   4   51.99    6.69
  -5  18   4   58.65    6.99
   5  18  -4   58.25    7.32
  -5  18   4   63.17    7.28
  -5 -18   3   28.36    4.90
   5 -18  -3   33.14    5.13
  -5  18   3   27.74    4.76
   5  18  -3   29.97    5.84
   5 -18  -3   36.68    5.10
  -5  18   3   41.76    5.92
   5 -18  -2   76.91    7.48
   5  18  -2   52.63    7.02
  -5  18   2   77.84    8.07
  -5 -18   2   75.37    7.75
   5 -18  -1    7.03    2.48
   5  18  -1   11.77    3.88
  -5  18   1   12.95    3.67
  -5 -18   1    8.26    2.80
   5 -18   0    3.60    1.87
  -5  18   0    5.93    2.37
   5  18   0    7.57    3.36
   5  18   0    7.59    3.89
  -5 -18   0    8.29    3.02
   5 -18   0    8.42    2.48
  -5  18  -1    1.98    1.76
   5  18   1   -4.37    3.36
  -5 -18  -1    3.50    1.97
   5 -18   1   -2.89    1.69
   5  19  -6    2.24    1.79
  -5 -19   5   -2.72    2.26
  -5  19   5    2.76    1.93
   5  19  -5    1.67    1.86
  -5  19   5    1.97    2.00
   5 -19  -4   53.21    6.70
  -5 -19   4   43.02    6.28
  -5  19   4   38.61    5.89
   5  19  -4   31.56    5.57
  -5  19   4   42.39    6.10
  -5 -19   3    8.04    3.02
   5 -19  -3   11.42    3.41
  -5  19   3    6.83    2.66
   5 -19  -3    8.62    2.59
   5  19  -3   11.91    4.30
  -5  19   3    8.79    3.09
   5 -19  -2    1.03    2.03
   5  19  -2    4.04    3.33
  -5  19   2    2.87    2.34
  -5 -19   2    7.80    2.93
   5 -19  -1    1.61    1.76
   5  19  -1   -1.26    2.61
   5  19  -1    1.35    2.71
  -5  19   1   -5.29    2.85
  -5 -19   1   -1.86    1.80
  -5  19   0    0.58    1.19
   5  19   0    4.20    2.83
   5  19   0    3.87    3.23
  -5 -19   0   -1.52    1.67
   5 -19   0    0.49    1.07
  -5  19  -1    0.97    1.22
  -5 -19  -1    1.49    1.69
   5 -19   1    2.55    1.78
   5  20  -5    0.60    2.09
  -5 -20   4   -2.58    2.10
  -5  20   4   -4.21    2.12
   5  20  -4    2.04    2.36
  -5  20   4   -0.38    2.48
  -5 -20   3    5.12    2.30
   5 -20  -3   -0.81    1.98
  -5  20   3    2.37    1.91
  -5  20   3    1.32    1.85
   5 -20  -2   35.08    5.34
   5  20  -2   28.58    5.72
   5  20  -2   39.38    6.58
  -5  20   2   44.73    6.43
  -5 -20   2   39.50    5.71
   5 -20  -1    1.84    2.15
   5  20  -1    1.03    2.10
   5  20  -1    4.99    3.73
  -5  20   1   -4.51    2.70
  -5 -20   1   -2.19    1.70
  -5  20   0   -0.20    1.07
   5  20   0    5.13    3.13
  -5  21   4    2.43    1.85
   5 -21  -2    3.15    2.72
   5  21  -2    7.48    3.67
   5 -21  -1    4.32    2.46
   5  21   0    2.70    2.47
   6   0  -9   -0.13    1.61
   6   0  -9    1.38    3.09
  -6   0   9   -1.55    2.17
   6   0  -8    9.96    3.78
  -6   0   8    8.19    2.96
   6   0  -7    0.70    1.69
  -6   0   7   -0.55    1.95
   6   0  -6    5.45    2.28
  -6   0   6    4.41    2.41
   6   0  -6   -1.27    2.32
  -6   0   5    0.32    1.62
   6   0  -5   -0.07    1.37
   6   0  -5    0.69    1.73
  -6   0   4   22.13    3.84
   6   0  -4   21.90    3.87
   6   0  -4   20.44    4.52
   6   0  -3   -3.71    2.39
  -6   0   3   -0.46    1.12
  -6   0   3   -0.63    1.93
   6   0  -3   -0.49    2.47
   6   0  -2  115.07    9.68
  -6   0   2  110.09    7.54
  -6   0   2  122.72    7.50
   6   0  -2  107.29    7.76
  -6   0   2  115.05    8.70
  -6   0   1    1.47    1.69
  -6   0   1   -0.40    1.16
   6   0  -1    1.11    1.56
  -6   0   1    0.50    1.36
   6   0  -1   -1.64    1.97
  -6   0   0    4.76    2.14
   6   0   0    3.69    2.04
  -6   0   0    4.39    2.00
   6   0   0    3.28    2.07
  -6   0  -1   -1.10    1.79
  -6   0  -1    1.14    1.69
   6   0   1    1.02    1.78
   6   0   1    0.74    1.26
   6   0   2    4.20    1.94
  -6   0  -2    4.48    2.02
   6   0   2    5.12    2.62
  -6   0  -3    1.10    1.73
   6   0   3   -4.27    2.41
   6  -1  -9   19.18    5.12
   6   1  -9   14.27    4.57
   6  -1  -9   30.22    6.12
  -6  -1   9   21.18    4.62
  -6   1   9   25.58    5.05
   6   1  -8   27.68    5.85
   6  -1  -8   21.82    5.28
  -6  -1   8   22.64    4.50
  -6   1   8   22.71    4.43
   6   1  -7    1.62    2.01
   6  -1  -7    1.17    2.15
  -6  -1   7    1.38    2.02
  -6   1   7    0.37    1.80
   6   1  -6    0.21    2.12
   6  -1  -6    5.02    2.09
  -6  -1   6    3.19    2.38
  -6   1   6    1.48    1.98
   6   1  -6    1.30    1.73
   6  -1  -6    0.91    1.76
  -6  -1   5    5.13    2.10
  -6   1   5    7.71    2.61
   6   1  -5    7.91    2.59
   6  -1  -5    8.18    2.58
   6   1  -5    5.21    2.47
   6  -1  -5    5.29    2.45
   6   1  -4   58.44    7.15
   6   1  -4   61.07    6.22
   6  -1  -4   70.71    6.58
  -6  -1   4   66.71    6.33
  -6   1   4   63.23    6.08
   6  -1  -4   47.21    6.37
   6   1  -3   87.76    8.58
   6  -1  -3   73.61    8.08
  -6  -1   3   85.20    6.15
  -6   1   3   78.47    5.82
   6   1  -3   88.10    7.53
   6  -1  -3   83.65    7.31
   6  -1  -3   75.57    5.98
  -6  -1   3   84.69    7.42
  -6   1   3   82.10    7.04
   6   1  -2   88.04    8.54
   6  -1  -2   79.12    8.16
  -6  -1   2   92.46    6.89
  -6   1   2   87.10    6.63
   6   1  -2   91.13    7.75
  -6   1   2   89.82    6.53
  -6  -1   2   92.45    6.33
   6   1  -2   81.25    6.83
   6  -1  -2   97.64    7.26
  -6  -1   2   85.45    7.50
  -6   1   2   97.10    7.94
  -6  -1   1    5.51    2.28
  -6   1   1    7.93    2.39
  -6  -1   1    4.83    1.99
  -6   1   1    9.91    2.51
   6   1  -1    7.68    2.51
  -6   1   1    8.74    2.29
  -6  -1   1    6.09    1.91
   6  -1  -1    9.42    2.98
   6   1  -1    9.83    2.78
   6  -1  -1    6.42    2.19
   6   1   0    2.82    1.86
  -6  -1   0   -1.82    1.84
  -6   1   0    0.65    1.63
  -6  -1   0    3.08    1.83
   6  -1   0   -0.54    1.49
  -6   1   0    2.05    1.82
  -6   1   0    2.62    1.41
   6   1   0    1.25    1.96
   6  -1   0    2.15    1.62
   6  -1   1   11.16    2.96
  -6  -1  -1   10.86    2.98
  -6   1  -1    9.20    2.78
  -6  -1  -1   10.55    3.04
  -6   1  -1    6.94    2.42
   6   1   1    7.15    2.83
   6  -1   1   10.73    3.16
   6   1   1   11.66    3.25
  -6  -1  -2   20.17    4.28
  -6   1  -2   22.27    4.41
   6  -1   2   19.86    3.81
   6   1   2   24.83    4.78
   6  -1   2   20.30    4.30
   6   1   2   24.00    4.14
  -6  -1  -3    3.91    2.58
  -6   1  -3    2.51    2.33
   6   1   3    1.55    1.96
   6  -1   3    5.47    3.01
   6  -2  -9   23.24    6.05
   6   2  -9   19.61    5.26
   6  -2  -9   12.33    4.26
  -6  -2   9   28.75    5.10
  -6   2   9   32.79    5.36
   6  -2  -8   23.37    5.38
   6   2  -8   15.76    4.54
  -6  -2   8   26.72    4.73
  -6   2   8   33.35    5.24
   6   2  -7    7.60    3.26
   6   2  -7    3.00    1.91
  -6  -2   7    1.28    1.98
  -6   2   7    3.20    2.09
   6  -2  -7    2.70    2.19
   6   2  -6    4.89    2.62
   6  -2  -6    2.99    1.68
  -6  -2   6    2.68    1.68
   6   2  -6    0.71    1.65
  -6   2   6    2.65    2.10
   6  -2  -6    7.35    2.89
   6  -2  -5   48.56    6.60
   6   2  -5   50.12    5.66
   6  -2  -5   56.40    5.83
  -6  -2   5   48.13    5.45
   6   2  -5   49.50    6.74
  -6   2   5   49.45    5.52
   6  -2  -4   31.67    5.36
  -6  -2   4   26.96    4.08
  -6   2   4   26.58    4.16
   6   2  -4   23.97    4.06
   6  -2  -4   25.89    4.13
   6   2  -4   24.09    4.72
   6   2  -3   86.47    8.70
   6  -2  -3   88.82    8.81
  -6  -2   3   93.89    6.57
  -6   2   3   96.47    6.38
   6   2  -3   90.71    7.88
  -6   2   3   97.74    7.16
  -6  -2   3   92.51    7.58
  -6   2   3   89.60    7.39
   6   2  -2   29.10    5.23
  -6  -2   2   29.34    4.49
  -6  -2   2   22.16    3.66
  -6   2   2   31.71    4.63
  -6   2   2   26.46    3.68
   6  -2  -2   26.90    4.91
   6   2  -2   19.37    4.01
  -6   2   2   23.77    3.56
   6   2  -2   27.68    4.13
   6  -2  -2   24.55    3.63
  -6  -2   1   12.46    3.26
  -6   2   1   15.35    3.44
  -6  -2   1   13.44    3.01
  -6   2   1   12.89    2.89
   6   2  -1    8.23    2.68
   6   2  -1   13.99    3.29
  -6   2   1   11.59    2.67
   6   2  -1   12.76    3.15
   6  -2  -1   11.86    2.98
   6  -2  -1   16.12    3.65
   6   2   0   18.80    3.82
  -6  -2   0   19.81    3.78
  -6   2   0   13.67    3.29
  -6  -2   0   18.95    3.65
  -6   2   0   20.42    3.72
   6  -2   0   16.25    3.62
  -6   2   0   14.33    2.87
   6   2   0   15.63    3.44
   6  -2   0   19.27    3.76
  -6  -2  -1   11.34    3.13
  -6   2  -1   11.70    3.18
   6  -2   1   14.95    3.58
  -6  -2  -1   13.27    3.51
  -6   2  -1   10.18    3.05
   6   2   1   10.24    2.92
   6   2   1   14.65    3.54
   6  -2   1   16.09    3.68
  -6  -2  -2    1.13    1.66
  -6   2  -2   -1.81    1.73
   6  -2   2   -0.16    1.08
   6   2   2    0.15    1.63
   6  -2   2    1.06    1.69
  -6  -2  -3   44.71    6.31
  -6   2  -3   31.43    5.47
   6   2   3   33.05    5.55
   6  -2   3   43.62    6.34
   6  -3  -9   16.58    4.64
   6   3  -9   20.58    5.51
   6  -3  -9    7.72    3.43
  -6  -3   9   26.90    5.03
   6  -3  -8   24.79    5.36
   6   3  -8   17.17    4.64
  -6  -3   8   28.53    4.77
  -6   3   8   31.12    5.21
   6   3  -7   19.18    3.72
  -6  -3   7   22.05    4.03
  -6   3   7   14.79    3.41
   6  -3  -7   22.13    5.10
   6   3  -6   11.58    3.23
   6   3  -6   10.22    3.53
   6  -3  -6   14.15    3.05
  -6  -3   6    7.63    2.78
  -6   3   6    4.49    2.06
   6  -3  -6    7.03    3.03
  -6  -3   5   20.57    3.74
  -6   3   5   22.11    3.77
   6   3  -5   18.39    3.66
   6  -3  -5   27.13    4.03
   6   3  -5   20.90    4.45
   6  -3  -5   15.73    3.91
   6  -3  -4   30.18    5.17
  -6  -3   4   22.88    4.04
  -6   3   4   24.25    3.83
   6   3  -4   21.37    3.99
   6  -3  -4   22.75    3.91
   6   3  -4   18.75    4.34
  -6  -3   3   17.19    2.91
   6  -3  -3   15.70    3.82
  -6  -3   3   17.82    3.72
  -6   3   3   12.89    3.11
   6   3  -3    9.45    3.00
  -6   3   3   21.28    3.76
   6   3  -3   14.25    3.68
   6   3  -2   26.06    4.86
  -6  -3   2   32.61    4.70
  -6  -3   2   27.60    3.91
  -6   3   2   27.97    4.27
  -6   3   2   29.80    3.92
   6   3  -2   24.52    4.52
   6  -3  -2   19.50    4.00
  -6   3   2   26.97    3.90
   6  -3  -2   28.52    3.78
  -6  -3   1   17.58    3.93
  -6   3   1   16.86    3.42
  -6  -3   1   17.73    3.43
  -6   3   1   17.79    3.32
   6   3  -1   18.70    3.88
   6   3  -1   14.23    3.38
  -6   3   1   17.13    3.14
   6   3  -1   20.64    3.91
   6  -3  -1   17.16    3.37
   6  -3  -1   18.70    4.19
   6   3   0    7.60    2.66
  -6  -3   0    5.40    2.50
  -6   3   0    9.54    2.71
  -6  -3   0   10.49    2.72
  -6   3   0   10.46    3.02
   6  -3   0    9.51    2.95
   6   3   0    7.19    2.47
  -6   3   0    8.67    2.30
   6   3   0    9.63    2.95
   6  -3   0   11.67    2.83
  -6   3  -1   44.85    5.58
  -6  -3  -1   62.03    6.62
  -6   3  -1   40.58    5.69
   6   3   1   42.99    5.49
   6  -3   1   54.30    6.34
  -6   3  -1   51.01    5.33
   6   3   1   36.52    5.32
   6   3   1   46.49    6.03
   6  -3   1   54.69    6.42
  -6  -3  -1   46.45    5.65
  -6   3  -2   32.15    4.84
  -6  -3  -2   30.42    5.35
  -6   3  -2   39.46    5.70
   6   3   2   30.71    4.84
   6   3   2   36.31    5.77
   6  -3   2   32.77    5.30
  -6  -3  -3   11.17    3.46
  -6   3  -3    4.67    2.64
   6   3   3    7.09    2.74
   6   3   3    2.63    2.18
   6  -3   3    7.31    2.64
   6  -4  -9   -1.06    2.37
   6  -4  -9   -1.02    1.76
  -6  -4   9   -0.87    1.99
   6   4  -8   -0.95    2.69
   6  -4  -8   -0.27    1.73
  -6  -4   8    2.99    2.68
  -6   4   8    2.62    2.25
   6   4  -7   12.59    3.20
  -6  -4   7    8.30    2.73
  -6   4   7    5.87    2.47
   6  -4  -7    6.38    2.92
   6   4  -6    3.65    2.11
   6   4  -6    1.10    1.84
  -6  -4   6    2.87    2.26
  -6   4   6    1.05    1.89
   6  -4  -6    0.91    1.83
   6  -4  -5   -0.45    1.77
  -6  -4   5    3.28    1.94
  -6   4   5    2.56    1.92
   6   4  -5   -0.43    1.96
   6  -4  -5   -0.91    1.53
   6   4  -5   -1.60    2.03
   6  -4  -4    8.47    2.86
  -6  -4   4    6.00    2.34
  -6   4   4    9.68    2.70
   6   4  -4   10.94    3.14
   6   4  -4    9.19    3.03
   6   4  -3  101.13    9.18
   6  -4  -3   98.51    9.13
   6   4  -3  110.40    8.62
  -6   4   3  101.99    7.51
  -6  -4   3  109.45    8.47
  -6   4   3   97.48    7.63
   6   4  -2   59.90    7.27
  -6  -4   2   52.31    5.30
   6  -4  -2   53.79    6.61
  -6   4   2   58.38    5.45
   6   4  -2   54.10    6.29
  -6   4   2   56.33    5.58
   6  -4  -2   55.47    5.38
  -6  -4   2   52.16    5.94
  -6   4   2   53.47    5.75
   6  -4  -1   19.52    4.15
  -6  -4   1   25.49    4.30
  -6   4   1   23.49    3.98
  -6  -4   1   18.15    3.55
  -6   4   1   22.05    3.55
   6   4  -1   23.89    4.44
   6   4  -1   15.77    3.53
  -6   4   1   20.37    3.46
   6   4  -1   23.95    4.40
   6  -4  -1   22.91    3.80
  -6  -4   0    1.22    2.06
  -6   4   0   -0.99    2.13
  -6  -4   0   -0.30    1.37
  -6   4   0   -1.01    1.76
   6   4   0   -6.54    2.57
   6  -4   0    2.17    2.13
  -6   4   0   -1.16    1.41
   6   4   0    0.90    1.93
   6  -4   0    1.45    1.59
   6   4   0   -2.13    1.67
  -6  -4  -1   16.48    3.64
  -6   4  -1   15.87    3.47
  -6  -4  -1   12.05    3.31
  -6   4  -1   15.79    3.71
   6   4   1   15.92    3.64
   6  -4   1   21.44    4.05
  -6   4  -1   22.35    3.80
   6   4   1   16.67    3.82
   6  -4   1   26.39    4.47
  -6   4  -2    4.06    2.14
  -6  -4  -2    2.39    2.07
  -6   4  -2   -1.10    1.73
   6   4   2   -1.96    2.24
   6   4   2    0.93    1.97
   6  -4   2   -3.27    2.09
  -6  -4  -3  102.12    9.74
  -6   4  -3  117.55   10.20
   6   4   3   94.29    8.67
   6   4   3  120.77   10.49
   6  -4   3  117.57   10.21
   6  -5  -9    3.23    2.75
   6  -5  -9   -3.99    2.28
  -6  -5   9    0.66    2.30
   6   5  -8    1.60    2.97
  -6  -5   8   -1.10    2.13
   6  -5  -8    2.85    1.71
  -6   5   8   -0.06    2.25
   6   5  -7   19.21    3.95
  -6  -5   7   19.65    3.95
  -6   5   7   16.78    3.63
   6  -5  -7   22.53    4.93
  -6  -5   6   55.25    5.93
  -6   5   6   55.55    5.97
   6  -5  -6   67.63    7.95
   6   5  -6   53.07    6.27
   6  -5  -5    5.05    2.53
  -6  -5   5    3.99    2.26
   6   5  -5    2.27    2.03
  -6   5   5    2.59    1.87
   6  -5  -5    4.28    2.05
   6   5  -5    3.81    2.56
   6  -5  -4    9.67    3.02
  -6  -5   4   17.09    3.50
  -6   5   4   13.02    3.03
   6   5  -4   11.39    3.20
   6   5  -4    9.41    3.01
   6   5  -3   49.02    6.37
   6  -5  -3   45.91    6.26
   6   5  -3   42.38    5.52
  -6   5   3   45.26    5.06
  -6  -5   3   52.00    5.77
  -6   5   3   42.82    4.96
   6   5  -2    9.71    3.19
  -6  -5   2   11.52    2.95
  -6  -5   2    6.74    2.23
  -6   5   2   11.54    2.57
  -6   5   2   18.52    3.47
   6   5  -2    9.44    3.18
  -6   5   2    9.16    2.67
   6  -5  -2   13.13    3.63
   6  -5  -2    8.26    2.33
   6  -5  -1   25.97    4.60
  -6  -5   1   34.13    4.89
  -6   5   1   36.93    4.92
  -6  -5   1   36.08    4.78
  -6   5   1   35.46    4.62
   6   5  -1   37.31    5.42
   6   5  -1   32.94    4.96
  -6   5   1   32.22    4.42
   6  -5  -1   32.71    4.56
  -6  -5   0   18.70    3.67
  -6   5   0   16.01    3.33
  -6  -5   0   16.93    3.60
  -6   5   0   17.66    3.59
   6   5   0   11.47    3.23
  -6   5   0   16.53    3.32
   6  -5   0   19.27    4.04
   6   5   0   16.24    3.90
   6  -5   0   17.24    3.61
   6   5   0   19.17    3.91
  -6  -5  -1    5.44    2.08
  -6   5  -1    5.16    2.27
  -6  -5  -1    2.38    1.71
  -6   5  -1    5.87    2.38
   6   5   1    5.91    2.39
  -6   5  -1    5.13    2.04
   6   5   1    5.32    2.42
   6  -5   1    9.16    2.89
   6  -5   1    8.09    2.65
  -6   5  -2   31.94    4.83
  -6  -5  -2   34.18    5.34
  -6   5  -2   37.27    5.71
   6   5   2   25.88    4.53
   6   5   2   34.23    5.54
   6  -5   2   39.86    5.80
  -6  -5  -3   -0.02    1.73
  -6   5  -3   -0.58    1.97
   6   5   3   -0.90    2.24
   6  -5   3    6.00    2.70
  -6  -6   9    4.36    2.12
   6  -6  -9    2.22    2.39
   6  -6  -9    6.86    3.05
  -6  -6   9    7.85    3.16
  -6  -6   8   -1.40    1.54
   6   6  -8   -3.47    3.12
  -6  -6   8    0.60    2.32
  -6   6   8    1.00    1.89
   6  -6  -8   -2.76    2.31
   6   6  -7   10.09    3.13
  -6  -6   7   15.75    3.63
  -6   6   7   19.21    3.91
   6  -6  -7   14.11    3.88
   6  -6  -6   -3.95    2.30
   6   6  -6   -3.02    2.30
  -6  -6   6    2.64    1.98
  -6   6   6   -1.66    1.95
   6  -6  -5   -5.00    2.62
  -6  -6   5    0.16    1.56
   6   6  -5   -2.43    2.05
   6   6  -5   -0.80    2.53
  -6   6   5    0.58    1.47
   6  -6  -5   -1.07    1.66
   6  -6  -4    0.71    1.80
  -6  -6   4   -0.56    1.87
  -6   6   4    0.51    1.60
   6   6  -4    2.55    2.20
   6   6  -4    1.24    1.96
  -6   6   4   -0.57    1.97
  -6  -6   3    3.52    1.94
  -6   6   3    0.85    1.73
   6   6  -3    3.45    2.32
   6  -6  -3    0.67    1.51
  -6   6   3   -0.10    1.49
   6   6  -3    1.63    2.23
   6   6  -2    6.29    2.73
  -6  -6   2    6.69    2.79
  -6   6   2    3.13    1.51
  -6   6   2    3.49    1.99
   6   6  -2    6.48    2.76
  -6   6   2    3.83    2.12
   6  -6  -2    5.45    1.89
   6  -6  -2    2.21    1.85
   6   6  -1  118.28    9.70
  -6  -6   1  100.31    7.95
  -6   6   1  115.78    8.38
   6  -6  -1  112.53    9.60
   6   6  -1  102.78    8.74
  -6   6   1  122.67    8.68
   6  -6  -1  122.76    8.60
  -6  -6   1  139.52    9.69
  -6   6   1  124.11    8.84
  -6  -6   0    8.37    2.80
  -6   6   0    9.74    2.56
  -6  -6   0   11.97    3.22
  -6   6   0    7.59    2.57
   6   6   0   13.99    3.58
  -6   6   0    5.76    2.16
   6   6   0    9.42    2.85
   6  -6   0    8.18    2.62
   6  -6   0   14.86    3.54
  -6  -6  -1    3.58    1.83
  -6   6  -1    3.16    1.60
  -6  -6  -1    4.05    2.33
   6  -6   1    4.07    1.97
  -6   6  -1    2.90    1.93
   6   6   1    1.19    1.86
   6   6   1    1.46    1.91
   6  -6   1    4.35    2.32
  -6   6  -2   34.42    5.01
  -6  -6  -2   41.72    5.99
  -6   6  -2   42.79    6.16
   6   6   2   51.31    6.14
   6   6   2   42.14    6.21
   6  -6   2   41.55    5.97
  -6   6  -3    0.41    1.35
  -6  -6  -3    1.23    1.69
  -6   6  -3   -3.20    2.29
   6   6   3   -1.82    1.74
   6   6   3   -0.36    1.81
   6  -6   3    0.15    1.57
  -6  -7   9   -0.91    1.39
  -6  -7   9    2.34    2.25
  -6  -7   8    1.21    1.38
   6   7  -8    5.89    3.24
  -6  -7   8    0.50    1.73
  -6   7   8    5.10    2.67
   6  -7  -8    4.01    2.18
   6  -7  -7    9.90    3.75
  -6  -7   7   15.68    3.20
   6   7  -7   11.44    3.33
  -6  -7   7   14.72    3.56
  -6   7   7   13.28    3.44
   6  -7  -6    3.18    2.24
   6   7  -6    7.93    3.19
  -6  -7   6    5.57    2.53
  -6   7   6   -0.05    2.08
   6  -7  -5    6.83    2.85
  -6  -7   5    4.90    2.44
   6   7  -5    5.08    2.65
   6   7  -5    2.33    2.31
   6  -7  -5    5.93    2.18
  -6   7   5    5.69    2.28
  -6  -7   4    4.88    2.10
   6  -7  -4    9.93    3.05
  -6   7   4    9.84    2.70
   6   7  -4    5.62    2.70
   6   7  -4    9.02    3.41
  -6   7   4    8.53    2.72
  -6  -7   3    0.35    1.51
  -6   7   3   -1.51    1.67
   6   7  -3   -0.47    2.03
   6  -7  -3    0.09    1.57
  -6   7   3   -0.72    1.59
   6   7  -3    1.84    1.97
   6  -7  -2   42.88    5.93
   6   7  -2   40.11    5.91
  -6   7   2   44.90    4.91
   6   7  -2   38.34    5.48
  -6   7   2   45.37    5.46
  -6  -7   2   49.10    5.81
  -6   7   2   44.00    5.11
  -6  -7   1   36.62    5.11
  -6  -7   1   30.12    4.46
  -6   7   1   39.62    4.99
   6   7  -1   37.82    5.40
  -6   7   1   30.66    4.39
   6  -7  -1   30.24    4.98
   6   7  -1   36.42    5.28
  -6   7   1   27.63    4.39
   6  -7  -1   42.29    5.10
   6  -7   0   -1.65    1.53
  -6  -7   0   -1.37    1.96
  -6   7   0    0.42    1.66
  -6  -7   0    2.82    1.99
  -6   7   0    3.00    1.79
   6   7   0    3.54    2.46
  -6   7   0    2.24    1.59
   6  -7   0    1.07    1.42
  -6  -7  -1   -0.94    1.82
  -6   7  -1    1.59    1.23
  -6  -7  -1   -1.40    2.00
  -6   7  -1    0.46    1.27
   6   7   1    5.26    2.62
   6  -7   1    1.78    1.51
   6  -7   1    0.03    1.25
  -6   7  -2   18.74    3.76
  -6  -7  -2   17.04    3.98
  -6   7  -2   21.19    4.24
   6   7   2   19.78    4.02
   6  -7   2   20.52    4.34
  -6   7  -3   17.78    3.72
  -6   7  -3   24.62    4.91
   6  -7   3   20.93    4.56
  -6  -8   9    2.25    1.49
   6  -8  -8   -3.40    2.37
  -6  -8   8    0.82    1.19
   6   8  -8    5.62    2.71
   6   8  -8   -3.73    3.55
  -6  -8   8   -0.95    1.94
  -6   8   8   -0.84    1.81
   6  -8  -7    1.29    1.43
  -6  -8   7    1.92    1.55
   6   8  -7   -1.60    2.32
  -6  -8   7   -0.10    1.73
  -6   8   7    0.15    1.83
  -6  -8   6   -0.07    1.31
   6  -8  -6   -0.37    1.53
   6   8  -6    0.03    1.91
  -6  -8   6    3.42    2.30
  -6   8   6   -2.72    2.28
   6  -8  -5   17.66    4.14
  -6  -8   5   20.98    3.92
   6   8  -5   20.29    4.18
  -6   8   5   21.16    3.76
  -6  -8   4    4.73    2.06
  -6   8   4    7.80    2.59
   6  -8  -4    8.15    2.90
   6   8  -4    6.77    2.90
   6   8  -4    8.23    2.99
  -6   8   4    8.45    2.70
  -6  -8   3    2.89    1.82
  -6   8   3    2.75    1.81
   6   8  -3    0.86    2.15
  -6   8   3    4.58    2.22
   6   8  -3    1.20    1.78
   6  -8  -3    2.49    1.69
   6   8  -2   53.15    6.61
  -6   8   2   57.39    5.50
   6  -8  -2   56.13    6.79
   6   8  -2   44.81    5.91
  -6   8   2   47.95    5.66
  -6  -8   2   55.36    6.22
  -6   8   2   54.03    5.58
  -6  -8   1   25.83    4.42
   6   8  -1   20.00    3.96
  -6   8   1   18.09    3.40
  -6   8   1   22.68    3.68
   6   8  -1   17.46    3.92
   6  -8  -1   25.82    4.68
  -6   8   1   22.80    4.03
   6  -8  -1   19.94    3.51
  -6  -8   0   17.43    3.63
  -6   8   0   16.65    3.34
  -6  -8   0   16.43    3.60
  -6   8   0   18.57    3.62
   6  -8   0   16.85    3.92
   6   8   0   18.42    3.76
  -6   8   0   22.56    4.10
   6  -8   0   15.11    3.48
  -6  -8  -1    2.53    1.69
  -6   8  -1    0.33    1.59
  -6  -8  -1    2.48    1.91
  -6   8  -1    2.43    1.75
   6  -8   1    2.06    1.99
   6   8   1   -0.03    1.62
   6  -8   1    4.34    2.17
  -6   8  -2   -2.62    1.73
  -6  -8  -2   -3.38    2.20
  -6   8  -2   -0.05    2.23
   6   8   2    2.99    2.29
   6  -8   2   -1.00    1.62
   6  -9  -8   -0.49    1.01
  -6  -9   8    0.63    1.17
   6   9  -8    1.96    2.54
  -6  -9   8    0.03    1.59
  -6   9   8   -0.43    1.93
  -6  -9   7    2.87    1.81
   6  -9  -7   -1.17    1.53
   6   9  -7    6.77    3.26
  -6  -9   7    1.03    1.63
   6   9  -7    2.16    2.76
  -6   9   7    7.33    2.71
  -6  -9   6   29.33    4.28
   6  -9  -6   21.56    4.58
   6   9  -6   32.65    5.31
  -6  -9   6   26.04    4.05
  -6   9   6   25.28    4.32
   6  -9  -5    1.63    1.62
  -6  -9   5    0.28    1.46
   6   9  -5    1.02    2.38
  -6   9   5   -0.93    1.78
  -6  -9   4   11.70    2.91
  -6   9   4   13.42    2.84
   6   9  -4    8.67    3.23
   6   9  -4   10.80    3.37
   6  -9  -4   15.43    3.94
  -6   9   4   15.61    3.40
  -6  -9   3    2.39    1.88
  -6   9   3   -1.03    1.51
   6   9  -3    0.25    2.45
   6   9  -3   -0.75    1.73
  -6   9   3   -2.32    2.17
   6  -9  -3    1.02    1.65
  -6  -9   2    0.44    1.54
   6  -9  -2    2.44    2.34
  -6   9   2    0.76    1.34
   6   9  -2    1.66    2.55
  -6   9   2   -1.47    2.06
   6   9  -2   -0.94    1.51
  -6  -9   1   -0.39    1.52
  -6   9   1    2.06    1.23
  -6   9   1   -1.21    1.58
   6   9  -1   -1.51    1.99
  -6   9   1    1.20    1.69
   6  -9  -1   -0.03    1.51
   6  -9  -1    0.42    1.29
  -6  -9   0   41.10    5.48
  -6  -9   0   42.81    5.57
  -6   9   0   40.24    5.09
  -6   9   0   36.73    5.16
  -6   9   0   47.93    5.90
   6   9   0   37.70    5.39
   6  -9   0   44.49    5.95
   6  -9   0   44.05    5.62
  -6  -9  -1   40.83    5.47
  -6   9  -1   38.61    5.07
  -6  -9  -1   39.05    5.85
  -6   9  -1   37.43    5.54
   6   9   1   38.47    5.42
   6  -9   1   41.23    5.82
   6  -9   1   47.01    6.00
  -6  -9  -2   -2.81    2.11
  -6   9  -2   -2.59    2.04
   6   9   2    2.36    2.30
   6  -9   2   -0.52    1.62
  -6 -10   8    6.89    2.50
   6 -10  -8   10.43    3.20
  -6 -10   8    8.39    2.78
  -6 -10   7   10.98    3.03
   6 -10  -7   11.49    3.39
   6  10  -7   15.79    4.14
  -6 -10   7    9.17    2.99
   6  10  -7    6.90    2.70
  -6  10   7   14.15    3.55
  -6 -10   6   -0.80    1.45
   6 -10  -6    1.78    1.75
   6  10  -6    1.89    2.05
  -6 -10   6    3.49    2.09
  -6  10   6    3.73    2.16
  -6  10   5   68.31    6.49
  -6 -10   5   73.86    6.68
   6 -10  -5   54.81    7.20
   6  10  -5   65.19    7.44
  -6 -10   5   64.76    6.36
  -6 -10   4    6.01    2.39
   6  10  -4    3.98    2.89
   6  10  -4    4.99    2.37
  -6  10   4    7.17    2.24
   6 -10  -4    6.93    2.75
  -6  10   4    7.73    2.88
   6 -10  -3    1.82    1.77
  -6 -10   3    1.60    1.85
  -6  10   3   -0.50    1.19
   6  10  -3   -0.88    2.09
   6  10  -3    2.13    1.90
  -6  10   3    0.45    1.77
  -6 -10   2    3.36    2.22
  -6  10   2    1.39    1.71
   6 -10  -2   -0.91    1.67
   6  10  -2   -1.68    2.67
  -6  10   2    0.28    1.75
   6  10  -2    1.14    1.66
   6 -10  -1   -1.60    1.66
  -6 -10   1    3.14    2.20
  -6  10   1   -0.25    1.28
  -6  10   1    0.79    1.35
   6  10  -1    2.43    2.35
  -6  10   1    1.04    1.93
   6 -10  -1    2.62    1.58
   6 -10   0   43.60    5.93
  -6  10   0   46.32    5.70
  -6  10   0   51.53    6.18
   6  10   0   43.52    5.83
   6 -10   0   45.74    5.73
  -6 -10   0   47.56    5.84
  -6  10   0   49.46    5.63
  -6 -10  -1   21.34    4.05
  -6 -10  -1   31.39    5.12
  -6  10  -1   24.58    4.62
   6  10   1   24.00    4.46
   6 -10   1   21.85    4.20
  -6 -10  -2   20.83    4.49
  -6  10  -2   24.59    4.71
   6  10   2   18.70    4.07
   6 -10   2   33.24    5.33
  -6 -11   8    3.98    2.20
   6 -11  -8    5.59    2.69
  -6 -11   7    0.02    1.24
   6 -11  -7    2.17    1.81
   6  11  -7    2.00    2.46
  -6 -11   7    1.19    1.66
   6  11  -7    0.23    2.52
  -6  11   7    7.16    2.71
  -6 -11   6   16.34    3.56
   6  11  -6   15.65    4.19
   6 -11  -6   11.91    3.43
  -6 -11   6   14.03    3.33
  -6  11   6   10.09    2.89
  -6 -11   5   -3.29    1.78
  -6 -11   5    1.79    1.65
   6  11  -5    2.13    2.96
  -6  11   5    0.16    1.65
   6 -11  -5   -0.34    1.83
  -6 -11   4   26.11    4.02
   6  11  -4   18.09    4.40
   6  11  -4   20.17    4.32
  -6  11   4   20.32    3.41
  -6  11   4   29.46    4.69
   6 -11  -4   23.52    4.56
   6 -11  -3   -0.55    1.52
  -6 -11   3   -0.56    1.41
  -6  11   3    2.39    1.88
   6  11  -3   -3.51    2.84
   6  11  -3   -2.24    1.94
  -6  11   3   -1.15    2.01
  -6 -11   2    1.98    1.80
  -6  11   2    1.31    1.29
   6  11  -2    0.52    2.23
   6 -11  -2    0.42    1.48
  -6  11   2    0.85    2.05
  -6 -11   2    3.93    1.86
  -6 -11   1    4.27    2.14
   6 -11  -1    2.10    1.78
  -6  11   1    1.98    1.42
   6  11  -1   -2.21    2.84
  -6  11   1    2.32    2.00
   6 -11  -1    4.68    1.84
  -6 -11   0   21.46    4.18
  -6  11   0   19.34    3.90
   6  11   0   13.41    3.58
   6 -11   0   17.75    3.93
  -6  11   0   24.01    4.47
   6 -11   0   20.14    3.88
  -6 -11  -1    3.35    2.21
  -6  11  -1    4.74    2.45
   6  11   1    8.21    2.99
   6 -11   1   11.73    3.18
  -6  11  -2    5.79    2.40
   6  11   2   11.87    3.24
   6 -11   2   13.86    3.44
  -6 -12   8   -0.63    1.34
  -6 -12   7   15.12    3.66
   6 -12  -7   21.31    4.30
  -6  12   7   17.26    4.05
   6  12  -7   20.51    4.85
   6 -12  -7   18.55    4.15
   6  12  -7   14.09    4.67
  -6  12   7   22.09    4.14
  -6 -12   6    2.55    1.89
   6  12  -6    4.56    2.93
  -6 -12   6   -3.23    1.98
   6 -12  -6    1.60    1.55
  -6  12   6    1.04    1.90
  -6 -12   5   82.71    7.51
  -6  12   5   71.72    6.69
   6 -12  -5   89.62    8.91
   6  12  -5   79.82    8.46
  -6 -12   5   65.72    6.37
   6 -12  -4    1.09    1.41
  -6 -12   4   -1.16    1.32
  -6 -12   4    0.45    1.55
   6  12  -4    1.79    2.16
   6  12  -4    3.37    3.09
  -6  12   4    0.16    1.56
  -6  12   4    0.82    1.74
  -6 -12   3    2.62    1.80
   6 -12  -3    7.80    2.82
  -6  12   3    4.62    1.96
   6  12  -3   -3.02    2.90
   6  12  -3    3.75    1.78
  -6  12   3    0.53    1.78
  -6 -12   2    2.29    2.01
   6  12  -2   -1.64    2.74
  -6  12   2    4.34    2.50
  -6 -12   2    0.06    0.80
   6 -12  -2    4.65    2.61
  -6 -12   1    3.26    2.13
  -6  12   1    5.45    2.29
   6 -12  -1    6.21    2.52
   6  12  -1    1.08    2.14
  -6  12   1    3.51    2.61
  -6 -12   1    3.43    1.78
  -6 -12   0    2.16    1.90
  -6  12   0   -0.46    1.25
   6  12   0    1.39    2.23
   6 -12   0    0.76    1.44
  -6  12   0    3.33    2.46
   6 -12   0   -0.87    1.40
  -6 -12  -1   18.69    4.08
  -6  12  -1   17.90    4.18
   6  12   1   17.66    4.05
   6 -12   1   23.55    4.48
  -6  12  -2   22.62    4.60
   6 -12   2   28.57    5.04
  -6 -13   7    0.22    1.35
   6 -13  -7    1.10    1.82
   6  13  -7   -3.31    2.75
   6  13  -7    2.57    2.37
  -6  13   7    4.60    2.26
  -6 -13   6   34.13    5.25
  -6  13   6   30.83    5.48
   6  13  -6   28.44    5.74
   6  13  -6   28.80    5.93
   6 -13  -6   29.36    5.20
  -6  13   6   23.34    4.13
   6 -13  -5    0.99    1.54
  -6 -13   5   -2.73    1.88
  -6 -13   5    1.83    1.92
   6  13  -5    3.00    3.17
  -6  13   5   -0.83    1.36
  -6  13   5    0.18    1.79
  -6 -13   4    3.21    1.95
   6 -13  -4   -1.01    1.38
  -6 -13   4   -1.28    1.60
   6  13  -4    2.72    2.13
   6  13  -4    3.19    3.12
  -6  13   4    2.29    2.17
  -6 -13   3    2.75    1.80
   6  13  -3    2.77    2.46
   6 -13  -3    2.69    1.81
  -6  13   3    4.52    2.47
   6 -13  -2    3.42    2.01
  -6 -13   2    2.09    2.06
   6  13  -2   -4.13    2.97
  -6  13   2   -0.25    1.95
  -6 -13   2    0.42    1.11
   6 -13  -1    3.51    2.09
  -6 -13   1    1.14    1.26
  -6  13   1    0.15    0.88
   6  13  -1   -1.50    2.18
  -6  13   1    5.56    2.62
  -6 -13   1    2.58    1.66
  -6 -13   0   27.37    4.61
  -6  13   0   32.72    5.00
   6  13   0   21.20    4.47
  -6  13   0   39.03    5.98
   6 -13   0   31.83    4.83
  -6 -13  -1   -2.30    1.71
  -6  13  -1    0.85    1.52
   6  13   1    5.58    2.83
   6 -13   1    3.01    1.83
  -6 -14   7   -0.23    1.35
   6  14  -7   -1.02    2.43
  -6 -14   6    2.46    1.91
   6 -14  -6    2.04    2.00
  -6  14   6    6.87    2.94
   6  14  -6    7.37    3.45
   6  14  -6    6.00    3.60
   6 -14  -6    3.22    1.67
   6 -14  -5   -0.34    1.25
  -6 -14   5    3.00    2.08
  -6  14   5   -0.90    1.85
  -6 -14   4    0.94    1.47
  -6 -14   4    0.16    1.24
   6 -14  -4    2.60    1.81
   6  14  -4    3.20    2.14
   6  14  -4    1.82    2.96
  -6  14   4    2.83    2.38
  -6 -14   3    6.49    2.25
  -6 -14   3    5.17    2.16
   6  14  -3    2.96    2.51
  -6  14   3    8.64    3.12
   6 -14  -3    5.44    2.49
  -6 -14   2   30.87    4.64
   6 -14  -2   28.88    4.99
   6  14  -2   26.33    5.03
  -6  14   2   45.90    6.19
  -6 -14   2   27.11    4.35
  -6 -14   1    2.96    1.88
   6  14  -1    3.92    2.92
   6 -14  -1    0.79    1.28
  -6  14   1    5.68    2.57
  -6 -14   1    4.55    2.11
  -6 -14   0    0.36    1.45
  -6  14   0    2.37    1.63
   6  14   0   -3.92    2.86
  -6  14   0    0.95    1.82
   6 -14   0    1.64    1.50
  -6 -14  -1   -3.41    1.97
  -6  14  -1    2.28    1.77
   6  14   1   -0.17    1.90
   6 -14   1    1.57    1.63
  -6 -15   6   15.52    3.67
   6  15  -6   15.77    4.31
  -6 -15   5    2.19    1.83
   6 -15  -5   -1.24    2.30
   6 -15  -5    9.54    3.55
   6  15  -5    8.53    3.67
   6  15  -5    1.41    2.26
  -6  15   5   12.40    3.41
  -6 -15   4   -2.51    1.84
   6  15  -4    2.58    2.88
   6 -15  -4    1.26    1.64
  -6  15   4   -3.04    2.46
   6 -15  -3    6.93    2.55
  -6 -15   3    3.70    2.03
   6  15  -3   10.17    3.61
  -6  15   3    6.01    2.94
   6 -15  -2   83.28    8.28
   6  15  -2   64.40    7.65
  -6  15   2   83.29    8.47
  -6 -15   2   74.85    7.44
  -6 -15   2   63.77    6.61
  -6 -15   1   17.32    3.60
   6 -15  -1   20.68    4.36
   6  15  -1   21.16    4.45
  -6  15   1   25.41    4.84
  -6 -15   1   18.04    3.64
  -6 -15   0   -0.27    1.38
  -6  15   0   -1.69    1.48
   6  15   0   -2.93    2.65
  -6  15   0    2.15    2.03
  -6 -15   0   -0.71    1.29
   6 -15   0    1.64    1.38
  -6 -15  -1    0.86    1.68
  -6  15  -1    3.99    2.07
   6  15   1    0.50    1.73
   6 -15   1    1.76    1.61
  -6 -16   6    0.16    1.39
   6  16  -6    0.09    2.31
  -6 -16   5   -1.93    1.66
   6 -16  -5   -1.47    1.37
   6  16  -5   -4.54    2.79
  -6  16   5   -2.92    2.39
  -6 -16   4   -2.11    1.79
   6 -16  -4   -3.61    2.71
   6  16  -4    4.78    3.01
  -6  16   4   -6.14    2.88
   6 -16  -4    3.71    2.20
  -6 -16   3   10.64    3.22
   6 -16  -3   13.15    3.47
   6  16  -3    8.93    3.74
  -6  16   3   17.50    4.12
   6 -16  -2    2.38    1.83
   6  16  -2    2.99    2.51
  -6  16   2    6.39    3.14
  -6 -16   2    3.30    1.88
   6  16  -1   31.05    5.51
  -6  16   1   36.95    5.77
  -6 -16   1   28.18    4.66
  -6 -16   0   10.51    3.01
  -6  16   0    7.79    2.59
   6  16   0    9.66    3.94
  -6 -16   0    6.78    2.31
  -6 -16  -1    1.80    1.84
  -6 -17   5    1.37    1.59
   6  17  -5   -2.14    1.92
  -6 -17   4    1.47    1.66
   6 -17  -4    5.23    1.74
  -6 -17   3   11.73    3.19
   6 -17  -3    5.34    2.39
   6  17  -3    6.42    3.27
  -6  17   3   15.16    4.17
   6 -17  -3    9.19    2.85
  -6 -17   2   -1.69    1.58
   6 -17  -2   -2.00    2.10
   6  17  -2    4.06    2.77
  -6 -17   2    2.73    1.72
   6 -17  -2   -3.88    2.11
   6 -17  -1   -2.22    2.05
   6  17  -1   -0.22    2.11
  -6 -17   1    2.58    1.70
   6  17   0   16.10    4.34
  -6 -17   0   13.78    3.29
  -6 -18   4    0.87    1.53
   6 -18  -4   -1.10    1.22
  -6 -18   3   51.85    6.69
   6 -18  -3   51.65    6.67
  -6 -18   2   21.80    4.17
  -6 -18   2   23.52    4.60
   6 -18  -1    3.18    2.10
  -6 -18   1    2.96    1.87
  -6 -19   3   14.28    3.59
  -6 -19   2    9.64    2.97
  -7   0   7   -2.72    2.20
   7   0  -7    0.23    1.90
   7   0  -6    2.20    2.28
  -7   0   6    0.66    1.88
   7   0  -6    1.80    2.63
   7   0  -5   77.75    9.12
   7   0  -5   69.19    7.29
  -7   0   5   71.52    7.14
   7   0  -4   -0.73    2.06
  -7   0   4   -1.22    1.79
   7   0  -4    0.39    1.85
   7   0  -3   21.82    4.88
  -7   0   3   27.87    4.75
   7   0  -3   25.25    4.64
  -7   0   2    0.79    1.09
  -7   0   2    1.60    2.23
   7   0  -2   -2.75    2.53
   7   0  -2   -0.53    2.02
   7   0  -2    4.34    1.91
   7   0  -1   -2.69    2.03
  -7   0   1    1.32    1.57
  -7   0   1    1.77    1.65
   7   0  -1   -4.15    2.83
   7   0  -1    2.43    2.04
  -7   0   0    1.71    1.83
  -7   0   0   -0.81    1.49
   7   0   0   -0.68    1.47
   7   0   0   -2.14    1.80
  -7   0  -1   10.58    3.05
  -7   0  -1    7.32    2.77
   7   0   1   11.58    3.14
   7   0   1    7.80    2.98
  -7  -1   7    0.26    2.27
  -7   1   7    0.89    2.41
   7   1  -7    3.65    2.61
   7  -1  -7   -0.54    1.96
   7   1  -6    5.13    2.52
  -7  -1   6    5.20    2.74
   7  -1  -6    1.87    1.79
  -7   1   6    3.89    2.36
   7   1  -6   -0.67    2.27
   7  -1  -6   -0.67    1.89
   7  -1  -5   -0.16    2.13
  -7  -1   5    1.89    1.76
  -7   1   5   -0.19    1.86
   7   1  -5    0.19    2.08
   7  -1  -5   -3.12    1.74
   7   1  -5    0.40    1.55
   7   1  -4    0.15    1.62
   7  -1  -4    0.73    1.90
  -7  -1   4   -0.98    2.20
  -7   1   4    1.62    1.75
   7   1  -4    0.29    2.17
   7  -1  -4   -0.27    1.79
   7   1  -3   -1.10    1.87
  -7  -1   3    0.17    1.80
  -7   1   3   -0.05    1.99
   7  -1  -3    2.18    2.61
   7   1  -3    0.97    2.11
   7  -1  -3   -0.96    2.26
  -7  -1   2   33.05    4.53
  -7  -1   2   32.77    5.23
  -7   1   2   26.36    4.02
  -7   1   2   36.26    5.29
   7   1  -2   29.97    5.29
   7  -1  -2   28.45    5.07
   7   1  -2   32.62    5.62
   7  -1  -2   36.69    5.91
   7   1  -2   30.66    4.74
   7  -1  -2   28.64    4.31
   7  -1  -1    3.13    2.39
  -7  -1   1    6.59    2.73
  -7   1   1    3.85    2.53
  -7  -1   1    5.48    2.13
  -7   1   1    2.25    1.34
   7   1  -1    2.15    2.11
   7   1  -1    7.11    2.55
   7  -1  -1    5.83    2.24
   7   1  -1    5.42    2.67
  -7  -1   0   16.75    3.90
  -7   1   0   13.17    3.73
  -7  -1   0   18.70    4.17
  -7   1   0   20.76    4.37
   7   1   0   20.19    4.27
   7   1   0   13.51    3.73
   7  -1   0   10.93    3.40
   7   1   0   22.39    4.34
   7  -1   0   19.44    4.26
  -7  -1  -1   16.18    3.64
  -7   1  -1   18.51    4.07
  -7  -1  -1   16.45    4.19
  -7   1  -1   20.60    4.58
   7   1   1   12.35    3.65
   7   1   1   18.63    4.28
   7  -1   1   15.45    3.56
   7   1   1   16.40    4.23
   7  -1   1   12.86    3.68
   7   2  -7    1.97    2.00
  -7  -2   7    2.04    1.96
  -7   2   7    4.07    2.66
   7   2  -7    4.09    2.79
   7  -2  -7    4.50    2.67
   7  -2  -6   18.96    4.61
  -7  -2   6   28.43    4.75
   7   2  -6   25.07    4.61
   7  -2  -6   19.91    3.80
  -7   2   6   31.41    4.79
   7   2  -6   19.73    5.08
   7  -2  -5   -3.20    2.29
  -7  -2   5    5.83    2.68
  -7   2   5   -0.01    1.61
   7   2  -5    0.29    2.06
   7  -2  -5   -0.63    1.83
   7   2  -5    2.69    2.17
   7   2  -4   -0.39    1.74
   7  -2  -4   -0.97    1.86
  -7  -2   4   -1.42    2.12
  -7   2   4    0.28    1.87
   7   2  -4    1.36    2.44
   7  -2  -4    0.38    1.58
   7   2  -3   22.01    5.01
  -7  -2   3   12.14    3.19
  -7   2   3   18.39    3.75
   7  -2  -3   16.25    4.44
   7   2  -3   21.18    4.46
   7  -2  -3   13.26    3.74
  -7  -2   2    0.90    1.82
  -7  -2   2    1.77    1.71
  -7   2   2    2.47    1.56
  -7   2   2    4.75    2.19
   7   2  -2    3.27    2.36
   7   2  -2    1.21    1.91
  -7   2   2   -0.40    1.17
   7  -2  -2    3.53    2.33
   7  -2  -1    3.27    2.23
  -7  -2   1    5.47    2.66
  -7   2   1   10.58    3.37
  -7  -2   1    4.13    2.11
  -7   2   1    2.57    1.71
   7   2  -1    2.82    2.39
   7   2  -1    5.81    2.45
   7  -2  -1    4.17    2.12
   7   2  -1    6.61    2.72
  -7  -2   0    2.22    2.01
  -7   2   0   -1.41    1.84
  -7  -2   0    0.09    1.47
  -7   2   0    2.80    1.94
   7   2   0   -1.07    1.75
   7   2   0   -3.38    3.12
   7   2   0   -4.74    2.33
   7  -2   0   -0.64    1.84
   7  -2   0   -2.16    1.96
  -7  -2  -1    6.82    2.99
  -7   2  -1    9.37    3.09
  -7  -2  -1   11.44    3.60
  -7   2  -1    7.40    2.85
   7   2   1    7.64    3.33
   7   2   1   15.93    3.97
   7  -2   1    5.94    2.33
   7  -2   1   10.78    3.16
   7   3  -7   -2.33    2.07
  -7  -3   7   -1.39    2.21
  -7   3   7    2.74    1.86
   7   3  -7    2.02    2.29
   7  -3  -7    2.93    2.90
   7  -3  -6   14.86    4.23
  -7  -3   6    9.11    2.74
   7   3  -6    8.67    3.03
   7  -3  -6   13.93    3.37
  -7   3   6   12.15    3.24
   7   3  -6   13.26    4.16
   7  -3  -5    3.81    2.18
  -7  -3   5    1.70    1.79
  -7   3   5    3.87    2.21
   7   3  -5    3.38    2.37
   7  -3  -5    0.23    1.64
   7   3  -5    3.17    2.65
   7   3  -4    9.68    3.41
   7  -3  -4   12.60    3.74
  -7  -3   4   16.74    3.69
  -7   3   4    9.43    2.69
   7   3  -4   13.19    3.64
   7  -3  -4   10.17    2.97
   7   3  -3   39.00    6.52
  -7  -3   3   32.59    4.42
  -7  -3   3   42.60    5.84
  -7   3   3   33.28    5.00
   7  -3  -3   42.72    6.67
   7   3  -3   41.50    5.89
   7  -3  -3   39.35    5.56
  -7   3   3   41.01    5.04
  -7  -3   2   28.94    5.04
  -7  -3   2   23.01    4.08
  -7   3   2   21.13    3.58
  -7   3   2   28.09    4.74
   7   3  -2   26.55    5.21
   7   3  -2   17.84    4.16
  -7   3   2   26.76    4.13
   7  -3  -2   25.06    5.01
  -7  -3   1   -0.74    2.29
  -7   3   1    0.87    1.78
  -7  -3   1    0.55    1.70
  -7   3   1    3.13    1.65
   7  -3  -1    2.23    1.97
   7   3  -1    4.47    2.55
  -7   3   1    0.57    1.46
   7  -3  -1    0.67    1.56
   7   3  -1    2.28    1.92
  -7  -3   0   17.56    4.05
  -7   3   0   17.73    3.88
  -7  -3   0   20.34    4.06
  -7   3   0   10.37    3.01
   7   3   0   15.98    3.88
   7   3   0   10.60    3.36
   7   3   0   17.42    4.07
   7  -3   0   16.60    3.74
   7  -3   0   21.11    4.46
  -7  -3  -1   38.72    5.64
  -7   3  -1   34.55    5.35
   7  -3   1   37.86    5.68
  -7  -3  -1   37.11    5.92
  -7   3  -1   43.46    6.21
   7   3   1   27.47    4.91
   7   3   1   37.77    6.02
   7  -3   1   41.75    6.16
   7  -4  -7   13.95    3.92
   7   4  -7    5.74    2.75
  -7  -4   7   12.10    3.22
   7   4  -7    6.32    3.21
  -7   4   7    6.30    2.74
   7  -4  -6    0.42    1.58
  -7  -4   6    3.17    2.10
   7   4  -6    1.45    2.25
  -7   4   6    3.65    2.08
   7   4  -6    5.54    2.85
   7  -4  -5    1.80    2.17
  -7  -4   5    1.37    2.01
  -7   4   5    1.30    2.15
   7   4  -5    2.05    1.78
   7  -4  -5   -3.31    2.02
   7   4  -5   -1.00    1.80
   7   4  -4   -0.60    1.98
  -7  -4   4    1.15    1.97
   7  -4  -4    0.86    1.83
  -7   4   4    0.85    1.88
   7   4  -4   -0.82    1.97
   7  -4  -4   -1.49    2.13
   7   4  -3    0.55    1.63
  -7  -4   3    1.08    2.07
  -7   4   3   -1.76    1.85
   7   4  -3    4.14    2.66
   7  -4  -3   -0.06    1.45
  -7   4   3   -0.35    1.62
  -7  -4   2   20.48    4.43
  -7  -4   2   12.42    2.88
  -7   4   2   16.20    3.59
   7   4  -2   19.41    4.49
   7   4  -2   11.16    3.53
  -7   4   2   14.87    3.30
   7  -4  -2   18.28    4.36
  -7  -4   1    1.28    1.96
  -7   4   1   -1.56    1.81
  -7  -4   1    0.18    1.36
  -7   4   1   -0.52    1.23
   7  -4  -1   -0.11    1.59
   7   4  -1   -5.45    2.71
  -7   4   1    2.54    1.51
   7   4  -1   -0.51    1.51
   7  -4  -1    0.78    1.40
   7  -4   0    6.14    2.65
  -7  -4   0    7.63    3.00
  -7   4   0    9.31    2.92
  -7  -4   0    1.30    1.67
  -7   4   0    8.00    2.88
   7   4   0    6.62    2.89
   7   4   0   10.93    3.21
   7  -4   0    6.95    2.63
  -7  -4  -1   -0.72    1.71
  -7   4  -1   -1.29    1.76
  -7  -4  -1    6.02    2.56
  -7   4  -1    3.01    2.09
   7  -4   1    6.12    2.61
   7   4   1   -1.39    2.64
   7   4   1   -0.45    1.63
   7  -4   1   -1.70    1.74
   7  -5  -7   14.84    4.34
   7   5  -7   12.19    3.50
  -7  -5   7   12.51    3.30
   7   5  -7    7.80    3.62
  -7   5   7   14.41    3.58
   7  -5  -6   -3.09    2.44
  -7  -5   6    3.12    2.50
   7   5  -6    1.92    2.22
  -7   5   6    6.53    2.76
   7   5  -6    2.64    2.31
   7  -5  -5    0.02    1.56
  -7  -5   5    3.15    2.03
  -7   5   5    6.83    2.65
   7   5  -5    1.77    2.68
   7  -5  -5    5.33    2.24
  -7  -5   4    9.32    2.98
  -7   5   4    9.68    2.97
   7  -5  -4   10.40    3.57
   7   5  -4    6.94    3.00
   7  -5  -4    3.45    1.71
   7   5  -4    3.08    2.20
   7   5  -3    0.18    1.82
  -7  -5   3   -2.32    2.09
  -7   5   3   -1.63    2.23
   7  -5  -3   -3.27    2.23
  -7   5   3    1.77    1.77
   7  -5  -2   15.30    4.04
  -7  -5   2   19.50    4.30
  -7  -5   2   15.04    3.45
  -7   5   2   22.44    4.26
   7   5  -2   10.28    3.67
   7   5  -2   17.81    4.35
  -7   5   2   12.86    3.38
  -7  -5   1    2.32    2.02
  -7  -5   1    5.40    2.68
  -7   5   1   -2.92    1.85
  -7   5   1    5.17    2.34
   7  -5  -1    5.04    2.63
   7   5  -1    3.56    2.65
  -7   5   1    8.81    2.59
   7   5  -1   -0.25    1.48
   7  -5  -1    4.10    2.22
  -7  -5   0    6.36    2.53
   7  -5   0    9.40    3.00
  -7   5   0    8.33    2.93
  -7  -5   0    6.85    2.95
  -7   5   0   12.04    3.32
   7   5   0    6.13    2.53
  -7   5   0    7.04    2.48
   7  -5   0    8.95    3.04
   7  -5   1   12.60    3.58
  -7   5  -1   10.96    3.24
  -7  -5  -1   18.67    4.18
  -7   5  -1   16.96    4.10
   7   5   1    9.21    3.19
   7   5   1   13.75    3.88
   7  -5   1   16.82    4.02
   7  -6  -7   -0.46    2.23
   7   6  -7   -0.44    2.30
   7   6  -7    3.64    2.65
  -7  -6   7    0.67    1.80
  -7   6   7   -4.05    2.35
   7  -6  -6   -2.12    2.06
  -7  -6   6   -0.38    1.81
   7   6  -6    0.78    2.19
  -7   6   6   -0.25    2.29
   7   6  -6    5.08    2.79
   7  -6  -5   14.10    3.84
  -7  -6   5    7.01    2.92
  -7   6   5   10.55    3.09
   7   6  -5   12.46    3.73
   7  -6  -5    5.35    2.26
   7   6  -5    9.27    3.56
  -7  -6   4    2.50    2.09
  -7   6   4    4.00    1.67
   7   6  -4    6.59    3.15
   7  -6  -4    3.61    2.50
   7   6  -4    7.20    3.72
   7   6  -3    2.74    2.46
  -7  -6   3   -5.09    2.44
  -7   6   3    1.99    1.95
   7   6  -3    3.31    2.58
  -7   6   3    2.57    1.89
   7  -6  -3    5.68    2.64
   7   6  -2   84.00    9.10
   7  -6  -2   79.59    8.68
   7   6  -2   75.85    7.98
  -7   6   2   87.00    7.82
  -7  -6   2   98.13    8.88
  -7   6   2   76.06    7.52
  -7  -6   1    3.00    2.13
  -7  -6   1    2.42    1.90
  -7   6   1    4.61    2.22
  -7   6   1    3.29    1.86
   7   6  -1    0.76    1.87
   7  -6  -1    4.20    2.16
   7   6  -1    2.25    1.71
  -7   6   1   -1.85    2.06
   7  -6  -1    3.75    1.93
  -7  -6   0    5.01    2.69
  -7   6   0    7.11    2.66
  -7  -6   0   12.33    3.55
  -7   6   0    3.53    2.02
   7  -6   0    3.29    2.31
   7   6   0    4.89    2.47
  -7   6   0    2.63    1.94
   7  -6   0    3.81    2.03
   7  -6   1   14.42    3.76
  -7   6  -1   10.66    3.17
  -7   6  -1   13.30    3.54
   7   6   1   16.21    4.10
   7  -6   1   14.41    3.69
   7  -7  -7    9.07    3.37
   7   7  -7    4.84    2.95
   7   7  -7    5.63    3.20
  -7  -7   7   12.25    3.47
  -7   7   7    8.65    3.02
   7  -7  -6   -0.64    1.79
   7   7  -6   -1.64    3.11
  -7  -7   6    2.46    2.05
  -7   7   6   -0.26    1.73
   7   7  -6    5.78    2.80
   7  -7  -5    0.15    2.33
  -7  -7   5   -1.05    1.69
   7   7  -5   -0.67    2.26
  -7   7   5    0.94    1.54
   7  -7  -5   -0.93    1.55
   7   7  -5    3.03    2.34
  -7  -7   4    9.42    3.22
  -7   7   4    9.04    2.56
   7   7  -4    4.61    2.89
   7  -7  -4   16.88    4.34
  -7   7   4   12.61    3.34
   7   7  -4   10.45    3.44
   7   7  -3   11.21    3.59
  -7  -7   3   11.22    3.42
  -7   7   3   14.10    3.29
   7   7  -3   19.58    4.42
  -7   7   3   10.90    2.95
   7  -7  -3   13.00    3.75
   7   7  -2   58.66    7.68
   7  -7  -2   58.61    7.48
   7   7  -2   53.76    6.95
  -7   7   2   52.38    6.18
  -7  -7   2   52.83    6.58
  -7   7   2   60.93    6.58
  -7  -7   1    0.75    1.84
  -7  -7   1    1.61    1.87
  -7   7   1    3.65    2.18
  -7   7   1    2.91    1.73
   7   7  -1    4.75    3.06
  -7   7   1    0.15    1.71
   7  -7  -1    2.90    2.11
  -7  -7   0   47.35    6.35
  -7   7   0   54.26    6.69
  -7   7   0   49.87    6.28
  -7  -7   0   44.89    6.10
   7   7   0   43.62    6.33
   7  -7   0   46.28    6.60
  -7   7   0   41.18    5.54
   7  -7   0   46.96    6.23
  -7   7  -1    0.48    1.45
   7   7   1    4.17    2.47
   7  -7   1    1.63    1.64
   7  -8  -7   -0.12    1.42
   7   8  -7    1.14    2.24
  -7  -8   7   -3.12    2.33
  -7   8   7   -1.18    1.78
   7  -8  -6   -0.23    1.60
   7   8  -6    5.54    2.87
  -7  -8   6    3.37    2.04
   7   8  -6    1.99    2.27
  -7   8   6   -2.22    2.04
  -7  -8   5    3.37    2.40
   7   8  -5    3.75    3.07
   7  -8  -5   -5.60    2.70
  -7   8   5    1.27    1.85
   7  -8  -5   -0.21    1.55
   7   8  -5   -0.86    1.87
  -7  -8   4    0.13    1.89
  -7   8   4    0.56    1.64
   7   8  -4   -1.80    2.80
   7  -8  -4    4.28    2.90
  -7   8   4    3.13    2.04
   7   8  -4    2.75    2.27
   7   8  -3   -2.90    2.08
   7  -8  -3   -0.12    1.87
  -7  -8   3    0.75    1.53
  -7   8   3    1.29    1.62
   7   8  -3   -0.06    2.11
  -7   8   3    0.21    1.86
   7   8  -2    6.12    2.67
  -7  -8   2    7.63    2.76
  -7   8   2    5.46    2.35
   7  -8  -2    9.59    3.22
   7   8  -2    9.94    3.26
  -7   8   2    3.85    2.09
  -7   8   1   62.44    6.83
   7  -8  -1   72.14    8.38
   7   8  -1   73.53    7.97
  -7   8   1   57.11    6.67
  -7  -8   1   65.26    7.47
  -7   8   1   67.63    7.00
  -7  -8   0   21.85    4.50
  -7  -8   0   14.94    3.82
  -7   8   0   15.33    3.57
  -7   8   0   14.06    3.52
   7   8   0   16.28    4.31
  -7   8   0   10.57    3.08
   7  -8   0   17.21    3.90
   7  -8   0   18.42    4.26
  -7   8  -1   -3.28    1.82
  -7   8  -1   -2.53    1.98
   7  -9  -7    8.25    3.32
   7   9  -7    4.50    2.91
  -7  -9   7    4.88    2.24
  -7   9   7    5.24    2.49
   7  -9  -6    8.64    3.33
   7   9  -6    3.68    2.99
  -7  -9   6    5.45    2.36
   7   9  -6    3.59    2.58
  -7   9   6    3.66    2.43
  -7  -9   5    1.92    1.82
   7   9  -5   -1.39    2.42
  -7   9   5   -1.39    2.04
   7  -9  -5    0.19    1.59
   7   9  -5   -0.98    2.03
  -7  -9   4   12.85    3.26
  -7   9   4   11.03    3.09
   7   9  -4   11.17    3.92
  -7   9   4   15.86    3.68
   7   9  -4   14.92    4.17
   7  -9  -4   13.24    3.76
   7   9  -3   -1.54    2.12
   7  -9  -3    3.68    2.20
  -7  -9   3    6.33    2.67
  -7   9   3    3.19    1.96
   7   9  -3   -1.47    2.91
  -7   9   3    3.35    2.19
  -7  -9   2   22.68    4.50
  -7   9   2   15.33    3.37
   7   9  -2   15.47    3.94
   7  -9  -2   23.22    4.78
  -7   9   2   16.33    4.03
   7  -9  -1   40.06    6.27
  -7  -9   1   47.38    6.33
  -7   9   1   38.06    5.38
   7   9  -1   41.42    6.23
  -7   9   1   31.98    5.08
  -7  -9   0    1.30    2.15
  -7   9   0   -0.13    1.46
   7   9   0    4.39    2.83
  -7   9   0   -1.72    1.89
   7  -9   0   -1.77    1.88
  -7   9  -1   -4.89    2.32
  -7 -10   7    9.33    3.19
   7  10  -6    2.98    3.01
  -7 -10   6    2.87    1.76
   7  10  -6    2.76    2.23
   7 -10  -6    5.51    2.46
  -7  10   6    3.23    1.91
  -7 -10   5   12.27    3.31
   7  10  -5   14.46    4.22
  -7  10   5    6.19    2.33
   7  10  -5    9.57    3.47
   7 -10  -5    6.24    2.92
   7 -10  -4    4.82    2.75
  -7 -10   4    1.95    1.55
  -7  10   4   -2.44    1.68
   7  10  -4   -3.07    2.65
  -7  10   4    6.10    2.63
   7  10  -4    2.18    2.14
   7  10  -3   -4.45    2.44
   7 -10  -3   -0.82    1.72
  -7 -10   3   -0.04    1.49
  -7  10   3    0.15    1.46
   7  10  -3   -1.41    2.42
  -7  10   3   -2.04    2.06
  -7 -10   2    1.00    1.70
  -7  10   2   -0.50    1.55
   7  10  -2   -2.40    2.51
  -7  10   2    0.22    1.97
   7 -10  -2   -1.95    2.04
   7 -10  -1  146.18   11.95
   7  10  -1  131.46   10.94
  -7  10   1  135.95   10.54
  -7 -10   1  138.92   10.78
  -7  10   0   28.83    4.96
   7  10   0   26.88    5.17
  -7  10   0   32.44    5.26
   7 -10   0   26.41    4.73
  -7 -11   6   -0.01    1.34
   7  11  -6   -2.47    2.32
   7 -11  -6   -1.92    2.09
  -7  11   6    0.10    1.40
  -7 -11   5    0.32    1.55
   7  11  -5    1.05    2.65
  -7  11   5    1.77    1.70
   7  11  -5    3.13    2.37
   7 -11  -5    5.32    2.85
   7 -11  -4    1.83    1.96
  -7 -11   4    2.99    2.13
   7  11  -4    1.46    2.54
  -7  11   4   -1.06    1.79
  -7  11   4    2.81    2.25
   7  11  -4   -3.74    2.45
  -7 -11   3   -0.58    1.73
  -7  11   3   -2.62    1.76
   7 -11  -3   -1.28    1.83
   7  11  -3    2.14    2.84
  -7  11   3    3.97    2.51
  -7 -11   2    0.28    1.63
   7  11  -2    0.22    2.39
  -7  11   2    2.56    2.13
   7 -11  -2    3.61    2.19
  -7 -11   1    2.34    2.12
   7  11  -1    0.24    2.13
  -7  11   1    6.06    2.88
  -7  11   0    2.29    1.86
  -7 -12   6    2.87    1.79
  -7  12   6    0.63    1.62
   7 -12  -5   -1.16    1.78
  -7 -12   5    4.35    1.93
  -7  12   5   -4.40    2.17
   7  12  -5    2.69    2.24
   7 -12  -4   12.11    3.39
  -7 -12   4    6.74    2.51
  -7  12   4    6.94    2.91
   7  12  -4    6.57    2.90
  -7 -12   3    0.39    1.62
   7  12  -3    1.81    2.57
   7 -12  -3   -3.04    2.08
  -7  12   3    0.92    1.80
  -7 -12   2    4.25    2.39
   7  12  -2    1.92    2.47
  -7  12   2    4.17    2.48
  -7 -12   1   27.61    4.83
  -7  12   0   29.61    5.04
  -7 -13   5    0.21    1.49
   7  13  -5    4.20    2.51
  -7 -13   4   26.17    4.48
  -7 -13   3   -1.06    1.56
  -7 -13   2   24.45    4.60
   7  14  -5   -0.69    1.34
  -7 -14   3    0.92    1.54
  -7 -14   2   -0.50    1.30
   8   0  -6   17.84    4.22
   8   0  -5   -0.88    1.99
   8   0  -4    0.60    1.82
   8   0  -3   -2.84    2.15
  -8   0   1   -3.34    2.06
   8  -1  -6    2.41    2.15
   8   1  -5    6.49    2.92
   8  -1  -5    5.22    2.71
   8   1  -4    4.25    2.65
   8  -1  -4   -0.48    2.02
   8   1  -3   37.12    6.67
   8   1  -2   10.16    3.50
  -8  -1   1   -4.32    2.28
  -8   1   1   -3.83    2.15
   8  -2  -6    2.02    1.89
   8  -2  -5    2.97    2.31
   8   2  -4   16.93    4.59
   8  -2  -4   11.64    3.32
   8   2  -3   10.25    3.67
   8   2  -2    6.15    2.86
  -8   2   1    2.20    1.74
   8  -3  -5    3.20    1.96
   8   3  -4    6.40    3.24
   8  -3  -4   11.26    3.45
   8   3  -3    1.60    2.40
   8   3  -2   -2.54    2.17
   8  -4  -5    3.52    1.88
   8   4  -4   -0.46    1.85
   8   4  -3   -1.35    1.64
  -8  -4   2    1.44    1.36
   8   4  -2    1.18    1.68
   8  -5  -5   -2.39    2.09
   8   5  -3    5.69    3.01
   8   5  -2    2.63    2.13
   8   6  -3    4.85    2.65
  -8   6   3    2.96    1.78
  -8   6   2    2.24    1.82
   8   7  -3   11.21    3.87
   0   0   0    0.00    0.00
;
_shelx_hkl_checksum              30724
loop_
_space_group_symop_operation_xyz
'x, y, z'
'-x+1/2, y+1/2, -z+1/2'
'-x, -y, -z'
'x-1/2, -y-1/2, z-1/2'
loop_
_atom_site_label
_atom_site_type_symbol
_atom_site_fract_x
_atom_site_fract_y
_atom_site_fract_z
_atom_site_U_iso_or_equiv
_atom_site_adp_type
_atom_site_occupancy
_atom_site_site_symmetry_order
_atom_site_calc_flag
_atom_site_refinement_flags_posn
_atom_site_refinement_flags_adp
_atom_site_refinement_flags_occupancy
_atom_site_disorder_assembly
_atom_site_disorder_group
C7 C 0.8385(2) 0.06012(6) 0.87830(16) 0.0250(3) Uani 1 1 d . . . . .
H7 H 0.7413(14) 0.07249(19) 0.9656(13) 0.030 Uiso 1 1 calc R U . . .
C8 C 1.1264(2) 0.07071(7) 0.99971(18) 0.0302(3) Uani 1 1 d . . . . .
H8A H 1.2288(11) 0.06022(12) 0.9145(9) 0.036 Uiso 1 1 calc R U . . .
H8B H 1.1578(4) 0.1225(5) 1.0439(5) 0.036 Uiso 1 1 calc R U . . .
C9 C 0.7841(2) -0.02050(6) 0.81886(17) 0.0299(3) Uani 1 1 d . . . . .
H9A H 0.596(2) -0.02732(10) 0.7470(8) 0.036 Uiso 1 1 calc R U . . .
H9B H 0.8748(10) -0.03417(16) 0.7272(10) 0.036 Uiso 1 1 calc R U . . .
C4 C 0.7444(2) 0.11060(6) 0.69998(16) 0.0249(3) Uani 1 1 d . . . . .
C1 C 0.5684(3) 0.20569(7) 0.37188(18) 0.0339(3) Uani 1 1 d . . . . .
H1 H 0.5102 0.2379 0.2613 0.041 Uiso 1 1 calc R U . A 1
C5 C 0.8590(2) 0.11054(6) 0.55629(17) 0.0284(3) Uani 1 1 d . . . . .
H5 H 0.9983 0.0782 0.5689 0.034 Uiso 1 1 calc R U . B 1
C3 C 0.5403(2) 0.15886(7) 0.67602(19) 0.0300(3) Uani 1 1 d . . . . .
H3 H 0.4594 0.1598 0.7721 0.036 Uiso 1 1 calc R U . C 1
C6A C 0.7700(3) 0.15759(7) 0.39507(18) 0.0332(3) Uani 0.396(2) 1 d . . P D 1
F1A F 0.8557(4) 0.15729(11) 0.2563(3) 0.0395(6) Uani 0.396(2) 1 d . . P D 1
C2A C 0.4540(2) 0.20555(7) 0.5137(2) 0.0345(3) Uani 0.396(2) 1 d . . P D 1
H2A H 0.3144 0.2379 0.5000 0.041 Uiso 0.396(2) 1 calc R U P D 1
C2B C 0.4540(2) 0.20555(7) 0.5137(2) 0.0345(3) Uani 0.104(2) 1 d . . P D 2
F1B F 0.2845(15) 0.2528(4) 0.5132(11) 0.042(2) Uani 0.104(2) 1 d . . P D 2
C6B C 0.7700(3) 0.15759(7) 0.39507(18) 0.0332(3) Uani 0.104(2) 1 d . . P D 2
H6B H 0.8494 0.1568 0.2981 0.040 Uiso 0.104(2) 1 calc R U P D 2
C2C C 0.4540(2) 0.20555(7) 0.5137(2) 0.0345(3) Uani 0.5 1 d . . P D 3
H2C H 0.3144 0.2379 0.5000 0.041 Uiso 0.5 1 calc R U P D 3
C6C C 0.7700(3) 0.15759(7) 0.39507(18) 0.0332(3) Uani 0.5 1 d . . P D 3
H6C H 0.8494 0.1568 0.2981 0.040 Uiso 0.5 1 calc R U P D 3
loop_
_atom_site_aniso_label
_atom_site_aniso_U_11
_atom_site_aniso_U_22
_atom_site_aniso_U_33
_atom_site_aniso_U_23
_atom_site_aniso_U_13
_atom_site_aniso_U_12
C7 0.0237(5) 0.0249(6) 0.0236(5) 0.0011(4) 0.0051(4) -0.0017(4)
C8 0.0284(6) 0.0258(6) 0.0286(6) 0.0038(4) 0.0008(5) -0.0068(4)
C9 0.0284(6) 0.0259(6) 0.0264(6) 0.0030(4) -0.0010(5) -0.0060(4)
C4 0.0231(5) 0.0224(5) 0.0243(5) -0.0001(4) 0.0025(4) -0.0045(4)
C1 0.0387(7) 0.0255(6) 0.0274(6) 0.0038(5) -0.0004(5) -0.0040(5)
C5 0.0297(6) 0.0254(6) 0.0263(6) -0.0003(4) 0.0056(5) 0.0005(4)
C3 0.0250(5) 0.0280(6) 0.0344(6) 0.0005(5) 0.0073(5) -0.0023(4)
C6A 0.0416(7) 0.0285(6) 0.0252(6) -0.0008(5) 0.0067(5) -0.0053(5)
F1A 0.0550(13) 0.0412(11) 0.0278(10) 0.0043(8) 0.0212(9) 0.0067(9)
C2A 0.0285(6) 0.0274(6) 0.0398(7) 0.0033(5) 0.0026(5) 0.0011(5)
C2B 0.0285(6) 0.0274(6) 0.0398(7) 0.0033(5) 0.0026(5) 0.0011(5)
F1B 0.044(4) 0.041(4) 0.041(4) 0.013(3) 0.016(3) 0.020(3)
C6B 0.0416(7) 0.0285(6) 0.0252(6) -0.0008(5) 0.0067(5) -0.0053(5)
C2C 0.0285(6) 0.0274(6) 0.0398(7) 0.0033(5) 0.0026(5) 0.0011(5)
C6C 0.0416(7) 0.0285(6) 0.0252(6) -0.0008(5) 0.0067(5) -0.0053(5)
loop_
_atom_type_symbol
_atom_type_description
_atom_type_scat_dispersion_real
_atom_type_scat_dispersion_imag
_atom_type_scat_source
C C 0.0033 0.0016 'International Tables Vol C Tables 4.2.6.8 and 6.1.1.4'
H H 0.0000 0.0000 'International Tables Vol C Tables 4.2.6.8 and 6.1.1.4'
F F 0.0171 0.0103 'International Tables Vol C Tables 4.2.6.8 and 6.1.1.4'
loop_
_geom_angle_atom_site_label_1
_geom_angle_atom_site_label_2
_geom_angle_atom_site_label_3
_geom_angle
_geom_angle_site_symmetry_1
C4 C7 C9 111.94(9) .
C4 C7 C8 112.35(9) .
C9 C7 C8 109.97(9) .
C4 C7 H7 107.4 .
C9 C7 H7 107.4 .
C8 C7 H7 107.4 .
C9 C8 C7 111.52(10) 3_757
C9 C8 H8A 109.3 3_757
C7 C8 H8A 109.3 .
C9 C8 H8B 109.3 3_757
C7 C8 H8B 109.3 .
H8A C8 H8B 108.0 .
C8 C9 C7 111.46(9) 3_757
C8 C9 H9A 109.3 3_757
C7 C9 H9A 109.3 .
C8 C9 H9B 109.3 3_757
C7 C9 H9B 109.3 .
H9A C9 H9B 108.0 .
C5 C4 C3 118.18(11) .
C5 C4 C7 121.29(10) .
C3 C4 C7 120.53(11) .
C2A C1 C6A 118.24(11) .
C2A C1 H1 120.9 .
C6A C1 H1 120.9 .
C6A C5 C4 120.10(11) .
C6A C5 H5 119.9 .
C4 C5 H5 119.9 .
C2A C3 C4 120.88(12) .
C2A C3 H3 119.6 .
C4 C3 H3 119.6 .
F1A C6A C1 115.25(14) .
F1A C6A C5 122.97(15) .
C1 C6A C5 121.69(12) .
C1 C2A C3 120.91(12) .
C1 C2A H2A 119.5 .
C3 C2A H2A 119.5 .
loop_
_geom_bond_atom_site_label_1
_geom_bond_atom_site_label_2
_geom_bond_distance
_geom_bond_site_symmetry_2
C7 C4 1.5151(15) .
C7 C9 1.5332(16) .
C7 C8 1.5337(16) .
C7 H7 0.989(14) .
C8 C9 1.5277(16) 3_757
C8 H8A 0.993(10) .
C8 H8B 0.993(10) .
C9 C8 1.5278(16) 3_757
C9 H9A 0.994(11) .
C9 H9B 0.994(11) .
C4 C5 1.3946(17) .
C4 C3 1.3950(16) .
C1 C2A 1.3818(19) .
C1 C6A 1.3834(19) .
C1 H1 0.9500 .
C5 C6A 1.3867(17) .
C5 H5 0.9500 .
C3 C2A 1.3874(17) .
C3 H3 0.9500 .
C6A F1A 1.251(2) .
C2A H2A 0.9500 .
loop_
_geom_torsion_atom_site_label_1
_geom_torsion_atom_site_label_2
_geom_torsion_atom_site_label_3
_geom_torsion_atom_site_label_4
_geom_torsion
_geom_torsion_site_symmetry_4
C4 C7 C8 C9 178.78(10) 3_757
C9 C7 C8 C9 -55.83(15) 3_757
C4 C7 C9 C8 -178.58(10) 3_757
C8 C7 C9 C8 55.80(15) 3_757
C9 C7 C4 C5 -67.30(14) .
C8 C7 C4 C5 57.01(14) .
C9 C7 C4 C3 113.03(12) .
C8 C7 C4 C3 -122.67(12) .
C3 C4 C5 C6A 0.02(17) .
C7 C4 C5 C6A -179.66(10) .
C5 C4 C3 C2A -0.06(17) .
C7 C4 C3 C2A 179.63(11) .
C2A C1 C6A F1A 176.07(15) .
C2A C1 C6A C5 -0.56(19) .
C4 C5 C6A F1A -176.07(15) .
C4 C5 C6A C1 0.29(18) .
C6A C1 C2A C3 0.52(18) .
C4 C3 C2A C1 -0.22(18) .
