#------------------------------------------------------------------------------
#$Date: 2019-11-25 04:54:22 +0200 (Mon, 25 Nov 2019) $
#$Revision: 240053 $
#$URL: file:///home/coder/svn-repositories/cod/cif/4/12/93/4129309.cif $
#------------------------------------------------------------------------------
#
# This file is available in the Crystallography Open Database (COD),
# http://www.crystallography.net/
#
# All data on this site have been placed in the public domain by the
# contributors.
#
data_4129309
loop_
_publ_author_name
'Harada, Jun'
'Ohtani, Masaki'
'Takahashi, Yukihiro'
'Inabe, Tamotsu'
_publ_section_title
;
 Molecular motion, dielectric response, and phase transition of
 charge-transfer crystals: acquired dynamic and dielectric properties of
 polar molecules in crystals.
;
_journal_issue                   13
_journal_name_full               'Journal of the American Chemical Society'
_journal_page_first              4477
_journal_page_last               4486
_journal_paper_doi               10.1021/jacs.5b00412
_journal_volume                  137
_journal_year                    2015
_chemical_formula_moiety         'Br4 C8 O3'
_chemical_formula_sum            'C8 Br4 O3'
_chemical_formula_weight         463.72
_space_group_crystal_system      monoclinic
_space_group_IT_number           14
_space_group_name_Hall           '-P 2yn'
_space_group_name_H-M_alt        'P 1 21/n 1'
_atom_sites_solution_primary     direct
_audit_creation_date             2014-12-18
_audit_creation_method
;
Olex2 1.2
(compiled 2014.11.28 svn.r3106 for OlexSys, GUI svn.r4959)
;
_cell_angle_alpha                90
_cell_angle_beta                 90.1220(11)
_cell_angle_gamma                90
_cell_formula_units_Z            4
_cell_length_a                   12.5164(9)
_cell_length_b                   6.0894(4)
_cell_length_c                   13.3977(10)
_cell_measurement_reflns_used    9831
_cell_measurement_temperature    100
_cell_measurement_theta_max      27.466
_cell_measurement_theta_min      2.224
_cell_volume                     1021.14(13)
_computing_cell_refinement       'SAINT v8.34A (Bruker, 2013)'
_computing_data_collection       'Bruker APEX2 2014.1-1 (Bruker, 2014)'
_computing_data_reduction        'SAINT v8.34A (Bruker, 2013)'
_computing_molecular_graphics    'Olex2 (Dolomanov et al., 2009)'
_computing_publication_material  'Olex2 (Dolomanov et al., 2009)'
_computing_structure_refinement  'ShelXL (Sheldrick, 2008)'
_computing_structure_solution    'ShelXT (Sheldrick, 2008)'
_diffrn_ambient_temperature      100
_diffrn_detector_area_resol_mean 8.3333
_diffrn_measured_fraction_theta_full 1.000
_diffrn_measured_fraction_theta_max 0.995
_diffrn_measurement_device_type  'Bruker APEX-II CCD'
_diffrn_measurement_method       '\f and \w scans'
_diffrn_radiation_type           MoK\a
_diffrn_radiation_wavelength     0.71073
_diffrn_reflns_av_R_equivalents  0.0287
_diffrn_reflns_av_unetI/netI     0.0176
_diffrn_reflns_Laue_measured_fraction_full 1.000
_diffrn_reflns_Laue_measured_fraction_max 0.995
_diffrn_reflns_limit_h_max       16
_diffrn_reflns_limit_h_min       -16
_diffrn_reflns_limit_k_max       7
_diffrn_reflns_limit_k_min       -7
_diffrn_reflns_limit_l_max       17
_diffrn_reflns_limit_l_min       -17
_diffrn_reflns_number            14161
_diffrn_reflns_point_group_measured_fraction_full 1.000
_diffrn_reflns_point_group_measured_fraction_max 0.995
_diffrn_reflns_theta_full        25.242
_diffrn_reflns_theta_max         27.470
_diffrn_reflns_theta_min         2.224
_diffrn_source                   'rotating-anode X-ray tube'
_diffrn_standards_number         0
_exptl_absorpt_coefficient_mu    15.743
_exptl_absorpt_correction_T_max  0.1528
_exptl_absorpt_correction_T_min  0.0678
_exptl_absorpt_correction_type   multi-scan
_exptl_absorpt_process_details
'SADABS-2014/2 (Bruker,2014/2) was used for absorption correction. wR2(int) was 0.1222 before and 0.0384 after correction. The Ratio of minimum to maximum transmission is 0.4437. The \l/2 correction factor is Not present.'
_exptl_crystal_colour            colourless
_exptl_crystal_colour_primary    colourless
_exptl_crystal_density_diffrn    3.016
_exptl_crystal_description       block
_exptl_crystal_F_000             848
_exptl_crystal_size_max          0.22
_exptl_crystal_size_mid          0.16
_exptl_crystal_size_min          0.1
_refine_diff_density_max         0.486
_refine_diff_density_min         -0.873
_refine_diff_density_rms         0.140
_refine_ls_extinction_method     none
_refine_ls_goodness_of_fit_ref   1.136
_refine_ls_hydrogen_treatment    undef
_refine_ls_matrix_type           full
_refine_ls_number_parameters     136
_refine_ls_number_reflns         2320
_refine_ls_number_restraints     0
_refine_ls_restrained_S_all      1.136
_refine_ls_R_factor_all          0.0186
_refine_ls_R_factor_gt           0.0173
_refine_ls_shift/su_max          0.002
_refine_ls_shift/su_mean         0.000
_refine_ls_structure_factor_coef Fsqd
_refine_ls_weighting_details
'w=1/[\s^2^(Fo^2^)+(0.0221P)^2^+0.7484P] where P=(Fo^2^+2Fc^2^)/3'
_refine_ls_weighting_scheme      calc
_refine_ls_wR_factor_gt          0.0422
_refine_ls_wR_factor_ref         0.0426
_reflns_Friedel_coverage         0.000
_reflns_number_gt                2230
_reflns_number_total             2320
_reflns_threshold_expression     'I > 2\s(I)'
_cod_data_source_file            ja5b00412_si_002.cif
_cod_data_source_block           TBPA_100K
_cod_database_code               4129309
_shelxl_version_number           2014/6
_shelx_space_group_comment
;
The symmetry employed for this shelxl refinement is uniquely defined
by the following loop, which should always be used as a source of
symmetry information in preference to the above space-group names.
They are only intended as comments.
;
_shelx_estimated_absorpt_t_max   0.302
_shelx_estimated_absorpt_t_min   0.129
_olex2_refinement_description
;
;
_shelx_res_file
;
TITL TBPA_100K in P2(1)/n
CELL 0.71073  12.51640   6.08940  13.39770  90.0000  90.1220  90.0000
ZERR    4.00   0.00090   0.00040   0.00100   0.0000   0.0011   0.0000
LATT  1
SYMM 0.5-X, 0.5+Y, 0.5-Z
SFAC C O BR
UNIT 32 12 16
TEMP -173.000
SIZE 0.10 0.16 0.22
L.S. 5
BOND $H
CONF
ACTA
LIST 4
FMAP 2
PLAN 30
WGHT    0.022100    0.748400
FVAR       0.06756
BR1   3    0.432430    0.926575    0.383281    11.00000    0.01240    0.01121 =
         0.00985   -0.00365   -0.00087    0.00066
BR2   3    0.303233    0.817562    0.172790    11.00000    0.00994    0.01239 =
         0.01252   -0.00016   -0.00388    0.00303
BR3   3    0.365721    0.382978    0.043118    11.00000    0.01134    0.01572 =
         0.00946   -0.00387   -0.00528    0.00107
BR4   3    0.576008    0.082437    0.109181    11.00000    0.01293    0.01299 =
         0.01251   -0.00486   -0.00153    0.00319
O1    2    0.723217    0.098700    0.305992    11.00000    0.01553    0.01987 =
         0.01867   -0.00011   -0.00154    0.00770
O2    2    0.614081    0.649575    0.499686    11.00000    0.01726    0.02287 =
         0.01106   -0.00492   -0.00546   -0.00017
O3    2    0.686288    0.363974    0.417473    11.00000    0.01101    0.01853 =
         0.01047    0.00032   -0.00379    0.00282
C1    1    0.669786    0.254609    0.327500    11.00000    0.00903    0.01435 =
         0.01112    0.00224   -0.00096   -0.00170
C2    1    0.615381    0.539021    0.426345    11.00000    0.00877    0.01657 =
         0.01073    0.00272   -0.00317   -0.00184
C3    1    0.468167    0.682414    0.305374    11.00000    0.00907    0.00960 =
         0.00813   -0.00131    0.00003   -0.00127
C4    1    0.414819    0.635321    0.216184    11.00000    0.00621    0.01001 =
         0.00992    0.00266   -0.00104    0.00085
C5    1    0.444244    0.452243    0.158242    11.00000    0.00734    0.01298 =
         0.00732   -0.00058   -0.00255   -0.00293
C6    1    0.530059    0.319463    0.186787    11.00000    0.00874    0.00848 =
         0.00920   -0.00101    0.00068   -0.00066
C7    1    0.580941    0.367119    0.275647    11.00000    0.00753    0.01008 =
         0.00956    0.00240   -0.00069   -0.00058
C8    1    0.549706    0.542795    0.334340    11.00000    0.00952    0.01209 =
         0.00601   -0.00022   -0.00176   -0.00262
HKLF 4

REM  TBPA_100K in P2(1)/n
REM R1 =  0.0173 for    2230 Fo > 4sig(Fo)  and  0.0186 for all    2320 data
REM    136 parameters refined using      0 restraints

END

WGHT      0.0221      0.7484

REM Highest difference peak  0.486,  deepest hole -0.873,  1-sigma level  0.140
Q1    1   0.5789  0.5550  0.3735  11.00000  0.05    0.49
Q2    1   0.6475  0.0749  0.1456  11.00000  0.05    0.48
Q3    1   0.4184  0.4274  0.1223  11.00000  0.05    0.45
Q4    1   0.3695  0.9242  0.3453  11.00000  0.05    0.44
Q5    1   0.6244  0.3139  0.2967  11.00000  0.05    0.41
Q6    1   0.4930  0.9260  0.4177  11.00000  0.05    0.41
Q7    1   0.3757  0.6792  0.2024  11.00000  0.05    0.40
Q8    1   0.4275  0.3916  0.0897  11.00000  0.05    0.38
Q9    1   0.4800  0.3619  0.1753  11.00000  0.05    0.36
Q10   1   0.3631  0.8265  0.2129  11.00000  0.05    0.35
Q11   1   0.5428  0.0860  0.0325  11.00000  0.05    0.34
Q12   1   0.6783  0.3226  0.3798  11.00000  0.05    0.33
Q13   1   0.2374  0.8056  0.1310  11.00000  0.05    0.33
Q14   1   0.5568  0.4483  0.3112  11.00000  0.05    0.32
Q15   1   0.4154  0.5111  0.1963  11.00000  0.05    0.32
Q16   1   0.5217  0.6364  0.3248  11.00000  0.05    0.32
Q17   1   0.4439  0.5895  0.1644  11.00000  0.05    0.31
Q18   1   0.4426  0.9638  0.4759  11.00000  0.05    0.30
Q19   1   0.3544  0.9381  0.4932  11.00000  0.05    0.29
Q20   1   0.5320  0.2273  0.1776  11.00000  0.05    0.29
Q21   1   0.4207  0.9195  0.2994  11.00000  0.05    0.29
Q22   1   0.3041  0.8186  0.0923  11.00000  0.05    0.29
Q23   1   0.2197  0.4213  0.0825  11.00000  0.05    0.29
Q24   1   0.5626  0.3206  0.2366  11.00000  0.05    0.28
Q25   1   0.3731  0.8929  0.4425  11.00000  0.05    0.28
Q26   1   0.3548  0.8494  0.1176  11.00000  0.05    0.28
Q27   1   0.7213  0.5055  0.3354  11.00000  0.05    0.28
Q28   1   0.5807  0.3544  0.2218  11.00000  0.05    0.27
Q29   1   0.7383  0.0704  0.2099  11.00000  0.05    0.25
Q30   1   0.5760 -0.0297  0.2555  11.00000  0.05    0.25
;
_shelx_res_checksum              36249
_shelx_hkl_file
;
   1   0   0    0.18    0.02
   2   0   0   31.84    1.07
   2   0   0   32.76    1.08
   2   0   0   36.35    1.09
   3   0   0    0.06    0.02
   3   0   0    0.11    0.03
   3   0   0    0.01    0.02
   4   0   0   95.58    3.20
   4   0   0   97.69    3.20
   4   0   0  105.34    3.20
   5   0   0    0.08    0.04
   5   0   0    0.05    0.04
   5   0   0    0.10    0.04
   6   0   0   64.60    2.06
   6   0   0   61.65    2.07
   6   0   0   66.45    2.09
   7   0   0    0.06    0.06
   7   0   0    0.04    0.05
   7   0   0    0.10    0.07
   8   0   0  125.88    4.01
   8   0   0  120.01    3.99
   8   0   0  127.74    4.05
   9   0   0    0.07    0.08
   9   0   0    0.00    0.07
   9   0   0    0.05    0.08
  10   0   0    0.26    0.08
  10   0   0    0.29    0.10
  10   0   0    0.37    0.10
  11   0   0    0.14    0.09
  11   0   0    0.06    0.10
  11   0   0   -0.04    0.11
  12   0   0    2.71    0.21
  12   0   0    2.63    0.23
 -12   0   0    3.00    0.30
  12   0   0    2.74    0.20
 -13   0   0    0.06    0.16
  13   0   0    0.06    0.11
  13   0   0    0.10    0.12
  14   0   0   57.72    2.05
 -14   0   0   66.24    2.11
  15   0   0    0.17    0.15
 -15   0   0    0.07    0.20
  16   0   0   37.41    1.30
   0  -1   0    0.00    0.02
   0  -1   0    0.13    0.03
   0  -1   0    0.16    0.02
   0   1   0    0.02    0.02
   0   1   0    0.07    0.02
   1  -1   0   12.61    0.41
  -1  -1   0   12.15    0.41
  -1  -1   0   12.36    0.41
   1  -1   0   12.24    0.41
   1  -1   0   11.97    0.41
  -1   1   0   11.99    0.41
   1   1   0   12.07    0.39
   1   1   0   12.61    0.41
   1   1   0   12.84    0.41
  -1   1   0   12.83    0.41
   2  -1   0   68.71    2.28
  -2  -1   0   72.31    2.29
   2  -1   0   73.83    2.30
   2  -1   0   70.37    2.29
   2   1   0   71.26    2.31
  -2   1   0   74.48    2.29
   2   1   0   67.11    2.27
   2   1   0   69.05    2.29
   2   1   0   73.56    2.29
  -3  -1   0   22.12    0.73
   3  -1   0   21.52    0.72
   3  -1   0   22.67    0.72
   3  -1   0   22.20    0.73
   3  -1   0   21.85    0.72
   3   1   0   22.30    0.72
  -3   1   0   22.41    0.73
   3   1   0   21.99    0.73
   3   1   0   22.38    0.71
   3   1   0   22.08    0.72
   4  -1   0    0.22    0.03
   4  -1   0    0.31    0.03
  -4  -1   0    0.17    0.05
   4  -1   0    0.19    0.05
   4  -1   0    0.15    0.04
   4   1   0    0.16    0.03
  -4   1   0    0.19    0.05
   4   1   0    0.22    0.03
   4   1   0    0.18    0.03
   4   1   0    0.16    0.04
  -5  -1   0    0.06    0.06
   5  -1   0    0.11    0.06
   5  -1   0    0.14    0.03
   5  -1   0    0.16    0.04
   5   1   0    0.13    0.02
   5   1   0    0.11    0.05
   5   1   0    0.16    0.04
   5   1   0    0.17    0.03
  -5   1   0    0.07    0.06
   6  -1   0  214.78    7.12
   6  -1   0  220.99    7.00
   6  -1   0  214.93    7.15
  -6  -1   0  225.10    7.01
   6  -1   0  226.25    7.21
   6   1   0  221.69    7.07
   6   1   0  222.36    6.97
   6   1   0  219.41    7.10
   6   1   0  212.94    6.98
   6   1   0  221.82    6.97
  -6   1   0  192.81    6.96
   7  -1   0  237.00    7.50
   7  -1   0  231.02    7.76
   7  -1   0  230.45    7.40
   7  -1   0  220.90    7.42
   7   1   0  229.45    7.46
   7   1   0  241.09    7.44
   7   1   0  247.47    7.47
   7   1   0  231.16    7.40
   7   1   0  241.52    7.46
  -7   1   0  212.83    7.46
   8  -1   0   33.03    1.10
   8  -1   0   32.26    1.05
   8  -1   0   31.06    1.07
   8  -1   0   32.90    1.05
  -8   1   0   31.36    1.12
   8   1   0   33.30    1.08
   8   1   0   32.67    1.09
   8   1   0   33.90    1.08
  -9  -1   0   27.14    0.91
   9  -1   0   24.75    0.84
   9  -1   0   26.72    0.90
   9  -1   0   25.50    0.84
   9  -1   0   25.54    0.87
   9   1   0   26.02    0.89
   9   1   0   26.28    0.88
   9   1   0   26.33    0.88
  -9   1   0   26.59    0.93
 -10  -1   0   72.50    2.32
  10  -1   0   71.56    2.32
  10  -1   0   67.42    2.28
  10   1   0   71.25    2.30
 -10   1   0   70.12    2.34
  10   1   0   71.15    2.31
  11  -1   0   31.02    1.05
  11  -1   0   31.54    1.08
 -11  -1   0   31.71    1.09
  11   1   0   29.95    1.06
 -11   1   0   31.53    1.12
  11   1   0   32.53    1.08
  12  -1   0    6.44    0.33
  12  -1   0    6.60    0.30
 -12  -1   0    7.22    0.38
  12   1   0    6.47    0.31
  12   1   0    7.05    0.33
 -12   1   0    6.85    0.40
  13  -1   0   27.07    1.00
 -13  -1   0   28.62    1.02
  13   1   0   28.15    0.99
  13   1   0   27.02    0.97
 -13   1   0   29.94    1.04
 -14  -1   0   -0.10    0.18
  14  -1   0    0.19    0.15
  14   1   0    0.12    0.14
 -14   1   0    0.15    0.19
  15  -1   0   10.66    0.51
  15   1   0   11.58    0.50
  16  -1   0    7.94    0.44
 -16  -1   0    8.68    0.50
   0  -2   0   17.60    0.63
   0  -2   0   18.96    0.62
   0   2   0   19.57    0.63
   0   2   0   18.41    0.62
   1  -2   0  271.80    9.41
  -1  -2   0  275.10    8.76
   1  -2   0  281.05    9.72
  -1  -2   0  264.21    8.77
   1  -2   0  288.67    8.76
   1   2   0  276.30    9.67
  -1   2   0  254.37    9.39
   1   2   0  267.54    8.76
   1   2   0  269.11    8.95
  -1   2   0  291.90    9.73
   2  -2   0   90.23    3.35
  -2  -2   0   86.87    2.89
   2  -2   0   89.23    2.89
  -2  -2   0   90.10    2.88
   2  -2   0   87.39    2.88
   2   2   0   89.63    2.91
  -2   2   0   93.34    2.89
  -2   2   0   91.95    3.06
   2   2   0   92.15    2.88
   2   2   0   87.46    2.85
   3  -2   0  139.77    4.49
   3  -2   0  139.61    4.51
  -3  -2   0  139.26    4.53
   3  -2   0  141.03    4.52
  -3   2   0  147.29    4.50
   3   2   0  139.49    4.52
  -3   2   0  139.77    4.50
   3   2   0  132.81    4.46
   3   2   0  133.84    4.48
   3   2   0  146.41    4.50
   4  -2   0   12.12    0.43
   4  -2   0   12.18    0.41
  -4  -2   0   11.28    0.44
   4  -2   0   12.93    0.41
   4  -2   0   11.49    0.41
  -4   2   0   12.21    0.42
   4   2   0   11.62    0.42
   4   2   0   11.64    0.39
   4   2   0   11.57    0.41
   4   2   0   11.88    0.41
  -5  -2   0    3.02    0.18
   5  -2   0    2.88    0.16
   5  -2   0    2.95    0.13
   5  -2   0    2.73    0.14
   5  -2   0    3.03    0.14
   5   2   0    3.13    0.12
   5   2   0    2.77    0.13
  -5   2   0    2.93    0.16
   5   2   0    2.61    0.13
   5   2   0    2.59    0.16
   6  -2   0   81.03    2.58
   6  -2   0   81.35    2.60
   6  -2   0   81.02    2.58
  -6  -2   0   77.48    2.61
   6  -2   0   82.44    2.61
   6   2   0   80.22    2.59
   6   2   0   80.33    2.60
   6   2   0   81.03    2.58
  -6   2   0   82.01    2.60
   6   2   0   77.75    2.58
   7  -2   0    2.14    0.11
   7  -2   0    2.02    0.12
  -7  -2   0    1.75    0.16
   7  -2   0    2.25    0.16
   7  -2   0    1.86    0.13
  -7   2   0    2.32    0.18
   7   2   0    2.09    0.11
   7   2   0    2.20    0.10
   7   2   0    2.10    0.17
   7   2   0    2.24    0.11
   8  -2   0    2.95    0.19
  -8  -2   0    2.69    0.23
   8  -2   0    2.79    0.13
   8  -2   0    2.77    0.16
   8  -2   0    2.88    0.14
   8   2   0    3.08    0.13
   8   2   0    3.00    0.15
   8   2   0    2.89    0.13
  -8   2   0    2.93    0.22
   8   2   0    2.92    0.20
   9  -2   0   16.89    0.59
   9  -2   0   15.70    0.57
   9  -2   0   17.48    0.57
   9  -2   0   17.89    0.63
  -9  -2   0   16.46    0.64
   9   2   0   17.35    0.58
  -9   2   0   15.32    0.64
   9   2   0   17.41    0.56
   9   2   0   18.06    0.56
   9   2   0   16.61    0.62
  10  -2   0   22.39    0.72
  10  -2   0   20.73    0.74
 -10  -2   0   21.85    0.80
  10  -2   0   22.22    0.78
  10  -2   0   20.66    0.71
  10   2   0   21.79    0.77
  10   2   0   22.23    0.70
  10   2   0   21.58    0.74
 -10   2   0   20.84    0.81
  10   2   0   21.99    0.70
 -11  -2   0    7.04    0.38
  11  -2   0    6.44    0.28
  11  -2   0    7.05    0.35
  11  -2   0    6.01    0.24
  11  -2   0    6.67    0.25
 -11   2   0    5.97    0.38
  11   2   0    7.15    0.34
  12  -2   0    9.13    0.32
 -12  -2   0    9.89    0.47
  12  -2   0    9.14    0.32
  12  -2   0    9.37    0.42
 -12   2   0    8.90    0.48
  12   2   0    9.80    0.42
 -13  -2   0   65.65    2.13
  13  -2   0   60.55    2.10
  13   2   0   62.95    2.09
 -14  -2   0   17.07    0.71
  14  -2   0   16.21    0.67
  14   2   0   16.52    0.65
  15  -2   0    0.63    0.19
  15   2   0    1.13    0.19
   0  -3   0    0.09    0.07
   0  -3   0    0.00    0.06
   0   3   0    0.08    0.06
   0   3   0    0.04    0.04
   0   3   0   -0.02    0.05
   1  -3   0   17.94    0.63
   1  -3   0   18.71    0.64
  -1  -3   0   19.24    0.64
   1  -3   0   18.22    0.62
  -1  -3   0   17.09    0.64
   1   3   0   19.36    0.63
   1   3   0   18.13    0.60
   1   3   0   18.14    0.63
  -1   3   0   17.96    0.63
  -1   3   0   18.92    0.64
   2  -3   0   10.00    0.37
   2  -3   0   10.10    0.38
  -2  -3   0   10.30    0.38
  -2  -3   0    9.81    0.40
   2  -3   0   10.40    0.38
  -2   3   0   10.47    0.38
  -2   3   0    9.93    0.37
   2   3   0   10.45    0.38
   2   3   0   10.14    0.37
   2   3   0   10.13    0.33
   3  -3   0    4.64    0.21
  -3  -3   0    4.72    0.21
   3  -3   0    5.07    0.21
  -3  -3   0    4.52    0.25
   3  -3   0    4.52    0.21
  -3   3   0    4.83    0.21
   3   3   0    5.19    0.22
  -3   3   0    4.45    0.21
   3   3   0    4.69    0.21
   4  -3   0  161.03    5.23
  -4  -3   0  160.88    5.21
   4  -3   0  162.57    5.21
   4  -3   0  162.19    5.22
   4   3   0  165.64    5.25
   4   3   0  158.23    5.22
   4   3   0  159.13    5.23
  -4   3   0  171.28    5.24
  -4   3   0  158.69    5.18
   5  -3   0   55.75    1.79
   5  -3   0   54.12    1.79
   5  -3   0   55.61    1.81
   5  -3   0   54.84    1.78
  -5  -3   0   53.40    1.83
  -5   3   0   55.78    1.79
   5   3   0   53.11    1.80
   5   3   0   56.23    1.78
   5   3   0   56.27    1.79
   6  -3   0   57.84    1.81
   6  -3   0   54.80    1.78
  -6  -3   0   53.68    1.83
   6  -3   0   55.58    1.79
   6   3   0   53.84    1.78
   6   3   0   54.54    1.81
   6   3   0   54.39    1.78
  -6   3   0   55.29    1.80
   7  -3   0   27.45    0.95
   7  -3   0   28.27    0.92
   7  -3   0   28.65    0.93
  -7  -3   0   26.84    0.98
   7   3   0   26.94    0.91
  -7   3   0   27.58    0.94
   7   3   0   27.44    0.92
   7   3   0   27.62    0.95
  -8  -3   0   43.63    1.56
   8  -3   0   46.04    1.50
   8  -3   0   46.42    1.50
   8   3   0   46.76    1.49
   8   3   0   45.40    1.53
  -8   3   0   46.58    1.53
   9  -3   0    0.51    0.13
   9  -3   0    0.42    0.10
   9  -3   0    0.33    0.08
  -9  -3   0    0.40    0.17
  -9   3   0    0.42    0.14
   9   3   0    0.43    0.08
   9   3   0    0.19    0.11
  10  -3   0  115.60    3.73
 -10  -3   0  114.10    3.75
  10  -3   0  112.23    3.68
  10  -3   0  116.92    3.68
  10   3   0  112.59    3.68
 -10   3   0  117.30    3.73
  10   3   0  114.44    3.72
  11  -3   0   11.20    0.42
  11  -3   0   10.97    0.48
 -11  -3   0   11.54    0.55
  11   3   0   11.25    0.39
  11   3   0   11.28    0.47
 -11   3   0   10.83    0.51
  12  -3   0   17.16    0.69
 -12  -3   0   18.37    0.73
  12  -3   0   17.11    0.60
  12   3   0   16.84    0.56
  12   3   0   16.69    0.66
  12   3   0   17.68    0.56
  13  -3   0   10.29    0.49
 -13  -3   0   10.76    0.54
  13  -3   0    9.79    0.37
  13   3   0   10.09    0.46
  14  -3   0   12.69    0.43
 -14  -3   0   12.97    0.64
  14  -3   0   11.64    0.56
  14   3   0   11.99    0.53
 -15  -3   0    0.81    0.28
  15   3   0    0.99    0.19
   0  -4   0  154.06    4.94
   0  -4   0  151.08    4.94
   0   4   0  153.17    4.96
   0   4   0  155.34    4.93
   0   4   0  155.85    4.94
  -1  -4   0    2.82    0.19
   1  -4   0    2.39    0.19
   1  -4   0    2.77    0.19
  -1  -4   0    2.77    0.22
  -1   4   0    2.79    0.19
   1   4   0    2.63    0.13
  -1   4   0    2.97    0.16
   1   4   0    2.74    0.19
  -1   4   0    2.35    0.17
   1   4   0    2.40    0.17
   2  -4   0    0.82    0.11
   2  -4   0    0.83    0.12
  -2  -4   0    0.70    0.13
   2  -4   0    0.72    0.09
  -2  -4   0    0.79    0.11
   2   4   0    0.75    0.07
   2   4   0    0.96    0.11
  -2   4   0    1.00    0.12
   2   4   0    0.63    0.10
  -2   4   0    0.85    0.11
   3  -4   0  198.73    6.36
   3  -4   0  201.82    6.43
   3  -4   0  200.64    6.39
  -3  -4   0  195.08    6.39
  -3  -4   0  195.80    6.37
  -3   4   0  206.58    6.38
  -3   4   0  198.31    6.40
   3   4   0  200.96    6.43
   3   4   0  194.09    6.37
  -4  -4   0   35.12    1.23
   4  -4   0   34.66    1.18
   4  -4   0   35.46    1.19
   4  -4   0   35.50    1.19
   4   4   0   35.85    1.19
   4   4   0   35.47    1.18
  -4   4   0   36.07    1.19
  -5  -4   0   72.81    2.43
   5  -4   0   71.59    2.37
   5  -4   0   75.51    2.40
   5  -4   0   73.42    2.39
  -5   4   0   75.53    2.39
   5   4   0   72.19    2.38
   5   4   0   71.99    2.39
   6  -4   0    6.06    0.30
   6  -4   0    5.83    0.28
   6  -4   0    5.37    0.26
  -6  -4   0    5.86    0.35
  -6   4   0    5.80    0.28
   6   4   0    5.80    0.30
   6   4   0    5.58    0.26
   7  -4   0    4.48    0.27
   7  -4   0    4.09    0.23
   7  -4   0    4.48    0.24
  -7  -4   0    4.28    0.33
  -7   4   0    4.25    0.26
   7   4   0    4.84    0.28
   7   4   0    3.96    0.21
  -8  -4   0    0.20    0.18
   8  -4   0    0.27    0.14
   8  -4   0    0.12    0.10
   8  -4   0    0.41    0.10
  -8   4   0    0.21    0.12
   8   4   0    0.29    0.13
   8   4   0    0.22    0.08
  -9  -4   0    0.09    0.19
   9  -4   0    0.06    0.14
   9  -4   0    0.07    0.10
   9  -4   0    0.05    0.10
   9   4   0    0.20    0.09
  -9   4   0    0.14    0.13
   9   4   0    0.12    0.14
 -10  -4   0    0.38    0.21
  10  -4   0    0.23    0.11
  10  -4   0    0.19    0.15
  10  -4   0    0.23    0.11
  10   4   0    0.50    0.16
  10   4   0    0.25    0.09
 -11  -4   0   74.47    2.39
  11  -4   0   71.30    2.28
  11  -4   0   69.70    2.34
  11   4   0   67.20    2.26
  11   4   0   67.31    2.31
  12  -4   0    0.19    0.18
 -12  -4   0    0.12    0.24
  12  -4   0    0.19    0.11
  12   4   0    0.40    0.16
  12   4   0    0.17    0.08
 -13  -4   0    4.16    0.37
  13  -4   0    3.17    0.33
  13  -4   0    3.58    0.22
  13   4   0    3.45    0.17
  13   4   0    3.17    0.30
   0  -5   0    0.08    0.10
   0  -5   0    0.18    0.14
   0   5   0   -0.02    0.07
   0   5   0   -0.03    0.10
   0   5   0   -0.04    0.10
  -1  -5   0    9.77    0.46
   1  -5   0   10.48    0.44
   1  -5   0   10.83    0.45
   1   5   0   10.05    0.42
  -1   5   0   11.00    0.40
  -1   5   0   10.60    0.42
  -1   5   0   10.58    0.45
   1   5   0   10.15    0.44
  -2  -5   0   16.03    0.65
   2  -5   0   16.40    0.61
   2  -5   0   15.96    0.61
   2   5   0   15.91    0.60
  -2   5   0   16.39    0.62
  -2   5   0   16.06    0.60
  -2   5   0   16.20    0.59
   2   5   0   16.18    0.60
  -3  -5   0   64.53    2.20
   3  -5   0   65.76    2.16
   3  -5   0   66.40    2.17
   3   5   0   65.63    2.16
  -3   5   0   66.75    2.16
   3   5   0   66.12    2.16
  -3   5   0   64.96    2.15
   4  -5   0   31.49    1.09
  -4  -5   0   32.56    1.15
   4  -5   0   31.13    1.09
   4  -5   0   32.06    1.11
  -4   5   0   31.92    1.09
   4   5   0   32.40    1.11
   4   5   0   32.51    1.09
   5  -5   0   28.79    1.02
  -5  -5   0   29.68    1.08
   5  -5   0   28.94    1.02
   5  -5   0   28.78    1.00
   5   5   0   28.65    1.00
  -5   5   0   30.51    1.01
   5   5   0   29.42    1.02
   6  -5   0    6.99    0.35
  -6  -5   0    7.43    0.44
   6  -5   0    6.96    0.33
   6  -5   0    7.27    0.35
   6   5   0    7.15    0.33
  -6   5   0    7.39    0.34
   6   5   0    7.16    0.37
   7  -5   0   38.05    1.28
  -7  -5   0   37.62    1.37
   7  -5   0   37.84    1.30
   7  -5   0   39.13    1.31
  -7   5   0   38.66    1.30
   7   5   0   37.21    1.28
   7   5   0   37.74    1.31
  -8  -5   0    0.00    0.20
   8  -5   0   -0.07    0.12
   8  -5   0    0.03    0.14
   8  -5   0    0.55    0.13
   8   5   0    0.18    0.15
   8   5   0    0.09    0.10
  -9  -5   0   15.63    0.71
   9  -5   0   15.43    0.57
   9  -5   0   14.79    0.62
   9  -5   0   15.09    0.59
   9   5   0   14.59    0.62
   9   5   0   15.69    0.57
  10  -5   0    2.84    0.26
  10  -5   0    2.96    0.30
 -10  -5   0    3.03    0.33
  10   5   0    2.50    0.24
  11  -5   0    2.28    0.25
  11  -5   0    3.03    0.25
 -11  -5   0    2.35    0.32
  11   5   0    2.31    0.23
  11   5   0    2.12    0.20
 -12  -5   0   27.63    1.07
  12  -5   0   27.37    0.91
  12  -5   0   25.53    0.97
  12   5   0   24.20    0.87
  12   5   0   23.55    0.94
   0  -6   0   23.64    0.88
   0   6   0   23.27    0.85
   0   6   0   24.03    0.87
  -1  -6   0    0.61    0.19
   1  -6   0    0.69    0.18
   1   6   0    0.49    0.15
  -1   6   0    0.71    0.15
   1   6   0    0.65    0.16
   2  -6   0   35.56    1.27
  -2  -6   0   36.40    1.30
   2  -6   0   35.34    1.26
   2   6   0   37.82    1.27
   2   6   0   37.89    1.26
  -2   6   0   35.99    1.25
   3  -6   0    0.39    0.15
   3  -6   0    0.42    0.16
  -3  -6   0    0.30    0.21
  -3   6   0    0.38    0.15
   3   6   0    0.45    0.15
   3   6   0    0.58    0.15
   4  -6   0    9.87    0.45
  -4  -6   0    9.70    0.54
   4  -6   0   10.15    0.46
  -4   6   0   10.49    0.45
   4   6   0   10.18    0.45
   4   6   0   10.22    0.46
  -4   6   0   10.48    0.46
   5  -6   0   19.71    0.74
   5  -6   0   20.11    0.77
  -5  -6   0   20.41    0.84
   5   6   0   19.92    0.74
  -5   6   0   20.27    0.77
   5   6   0   20.58    0.77
  -5   6   0   20.69    0.76
   6  -6   0   47.13    1.63
  -6  -6   0   50.86    1.70
   6  -6   0   46.93    1.60
  -6   6   0   46.60    1.62
   6   6   0   47.23    1.63
  -6   6   0   47.72    1.65
   6   6   0   48.60    1.61
   7  -6   0    8.04    0.40
  -7  -6   0    8.20    0.52
   7  -6   0    7.45    0.37
   7   6   0    7.24    0.36
   7   6   0    7.41    0.41
  -7   6   0    7.50    0.47
   8  -6   0    5.37    0.34
  -8  -6   0    4.96    0.41
   8  -6   0    4.67    0.30
   8   6   0    4.35    0.33
  -8   6   0    4.83    0.44
   8   6   0    5.09    0.30
   9  -6   0   36.51    1.26
  -9  -6   0   37.48    1.36
   9   6   0   34.18    1.26
   9   6   0   36.17    1.23
  -9   6   0   34.92    1.32
 -10  -6   0   14.71    0.76
  10  -6   0   15.17    0.60
  10   6   0   13.85    0.61
 -10   6   0   13.46    0.72
  10   6   0   13.83    0.55
   0  -7   0   -0.03    0.20
   0   7   0    0.09    0.16
  -1  -7   0   49.88    1.73
   1  -7   0   49.07    1.71
  -1   7   0   50.63    1.69
   1   7   0   49.56    1.69
  -2  -7   0    4.26    0.36
   2  -7   0    4.45    0.37
   2   7   0    4.21    0.33
   2   7   0    4.55    0.35
  -2   7   0    4.79    0.32
  -3  -7   0    0.39    0.24
   3  -7   0    0.46    0.19
  -3   7   0    0.55    0.18
   3   7   0    0.33    0.16
   3   7   0    0.64    0.19
  -4  -7   0   25.03    1.00
   4  -7   0   23.35    0.91
   4   7   0   24.93    0.92
   4   7   0   24.45    0.92
  -4   7   0   25.82    0.92
  -5  -7   0   15.07    0.72
   5  -7   0   13.48    0.59
   5  -7   0   14.29    0.62
   5   7   0   14.08    0.61
   5   7   0   14.47    0.59
   6  -7   0    0.12    0.17
  -6  -7   0    0.20    0.29
   6  -7   0   -0.17    0.17
   6   7   0    0.19    0.20
   6   7   0   -0.01    0.14
  -7  -7   0   28.28    1.09
   7  -7   0   25.69    0.96
   7   7   0   24.03    0.92
   7   7   0   24.56    0.96
  16   0  -1    0.03    0.15
  15   0  -1   32.28    1.13
 -14   0   1    0.04    0.18
  14   0  -1    0.04    0.13
  14   0  -1    0.05    0.12
  13   0  -1   14.82    0.57
 -13   0   1   15.50    0.63
  13   0  -1   15.53    0.59
  12   0  -1    0.06    0.11
  12   0  -1    0.08    0.10
  12   0  -1    0.16    0.10
  11   0  -1   19.92    0.69
  11   0  -1   18.66    0.68
  11   0  -1   19.03    0.68
  10   0  -1    0.04    0.09
  10   0  -1    0.03    0.09
  10   0  -1   -0.03    0.08
   9   0  -1   18.23    0.64
   9   0  -1   18.54    0.65
   9   0  -1   18.26    0.64
   8   0  -1    0.13    0.07
   8   0  -1    0.01    0.07
   8   0  -1    0.04    0.07
   7   0  -1    0.64    0.08
   7   0  -1    0.78    0.09
   7   0  -1    0.64    0.08
   6   0  -1    0.03    0.05
   6   0  -1    0.07    0.05
   6   0  -1    0.01    0.05
   5   0  -1    0.03    0.04
   5   0  -1    0.08    0.04
   5   0  -1    0.08    0.04
   4   0  -1    0.04    0.01
   4   0  -1    0.04    0.03
   4   0  -1    0.05    0.03
   4   0  -1    0.01    0.03
   3   0  -1   32.37    0.98
   3   0  -1   28.93    0.98
   3   0  -1   31.49    0.97
   3   0  -1   30.69    0.97
   3   0  -1   27.77    0.96
   2   0  -1    0.03    0.02
   2   0  -1    0.07    0.02
   2   0  -1    0.03    0.01
   2   0  -1    0.03    0.01
   2   0  -1    0.00    0.02
   1   0  -1    1.48    0.05
  -1   0   1    1.57    0.06
   1   0  -1    1.13    0.05
   1   0  -1    1.26    0.05
   1   0  -1    1.18    0.05
   0   0  -1    0.19    0.02
  -1   0  -1   62.52    2.01
   1   0   1   68.08    2.00
   1   0   1   59.50    1.99
   1   0   1   58.48    2.00
   2   0   1    0.07    0.02
   2   0   1   -0.02    0.02
   2   0   1    0.04    0.02
   3   0   1   59.04    1.88
   3   0   1   57.09    1.88
   3   0   1   56.90    1.86
   3   0   1   57.95    1.86
   3   0   1   59.67    1.86
   4   0   1    0.10    0.02
   4   0   1    0.01    0.04
   4   0   1    0.08    0.02
   4   0   1    0.18    0.04
   5   0   1    5.69    0.22
   5   0   1    5.67    0.19
   5   0   1    5.13    0.19
   5   0   1    5.24    0.22
   5   0   1    5.46    0.20
   6   0   1    0.07    0.04
   6   0   1    0.04    0.06
   6   0   1    0.08    0.02
   6   0   1    0.09    0.02
   6   0   1    0.04    0.06
   7   0   1   50.09    1.67
   7   0   1   50.69    1.64
   7   0   1   51.33    1.66
   7   0   1   51.74    1.64
   8   0   1   -0.04    0.08
   8   0   1    0.07    0.07
   8   0   1    0.04    0.06
   9   0   1    0.09    0.08
   9   0   1    0.04    0.09
   9   0   1    0.03    0.06
  10   0   1    0.06    0.07
  10   0   1   -0.12    0.10
  10   0   1    0.11    0.09
 -11   0  -1    1.33    0.19
  11   0   1    1.35    0.16
  11   0   1    1.72    0.16
  11   0   1    1.33    0.14
  12   0   1    0.18    0.12
  12   0   1    0.13    0.10
 -12   0  -1    0.05    0.16
 -13   0  -1   15.74    0.66
  13   0   1   15.39    0.61
 -14   0  -1    0.12    0.20
  14   0   1    0.20    0.14
  15   0   1    3.81    0.30
 -15   0  -1    5.24    0.42
 -16   0  -1    0.19    0.23
  16   0   1   -0.09    0.16
  16  -1  -1    1.25    0.20
  15  -1  -1    6.66    0.38
 -15  -1   1    6.92    0.45
  15   1  -1    7.08    0.37
  14  -1  -1    0.06    0.14
 -14  -1   1    0.14    0.19
  14   1  -1   -0.04    0.13
 -13  -1   1    1.09    0.21
  13  -1  -1    1.12    0.14
  13  -1  -1    1.15    0.17
 -13   1   1    1.30    0.21
  13   1  -1    1.25    0.14
  13   1  -1    0.99    0.16
  12  -1  -1    1.70    0.18
  12  -1  -1    1.52    0.15
 -12  -1   1    1.67    0.20
  12   1  -1    1.82    0.17
  12   1  -1    1.65    0.16
 -12   1   1    1.83    0.21
  12   1  -1    1.62    0.15
  11  -1  -1   11.54    0.46
  11  -1  -1   12.29    0.49
  11   1  -1   12.61    0.47
  11   1  -1   11.83    0.46
  11   1  -1   12.45    0.48
 -11   1   1   12.31    0.52
  10  -1  -1   43.12    1.40
  10  -1  -1   39.40    1.37
 -10   1   1   41.12    1.42
  10   1  -1   42.01    1.38
  10   1  -1   42.03    1.39
  10   1  -1   42.85    1.39
   9  -1  -1   28.12    0.96
   9  -1  -1   27.71    0.90
   9  -1  -1   27.59    0.90
   9  -1  -1   26.54    0.94
   9   1  -1   28.98    0.95
   9   1  -1   28.20    0.95
  -9   1   1   28.77    0.99
   9   1  -1   28.77    0.94
   8  -1  -1   14.12    0.53
   8  -1  -1   15.13    0.49
   8  -1  -1   15.01    0.55
   8  -1  -1   15.29    0.49
   8   1  -1   15.63    0.53
  -8   1   1   14.59    0.56
   8   1  -1   15.51    0.54
   8   1  -1   15.53    0.54
   7  -1  -1   11.03    0.37
   7  -1  -1   10.90    0.40
   7  -1  -1   11.43    0.37
   7  -1  -1   11.02    0.42
   7   1  -1   11.16    0.41
   7   1  -1   11.35    0.41
   7   1  -1   11.33    0.40
   7   1  -1   11.21    0.36
   7   1  -1   11.66    0.36
  -7   1   1   10.31    0.43
   6  -1  -1   25.84    0.87
   6  -1  -1   26.58    0.83
   6  -1  -1   25.00    0.85
   6  -1  -1   25.63    0.83
   6   1  -1   27.02    0.85
   6   1  -1   27.41    0.83
   6   1  -1   27.05    0.83
  -6   1   1   22.52    0.87
   6   1  -1   24.86    0.86
   6   1  -1   25.91    0.86
   5  -1  -1   68.67    2.29
   5  -1  -1   70.16    2.29
   5  -1  -1   75.35    2.33
   5  -1  -1   74.34    2.29
   5   1  -1   71.84    2.28
   5   1  -1   74.13    2.28
   5   1  -1   72.10    2.31
  -5   1   1   66.52    2.30
   5   1  -1   68.67    2.30
   5   1  -1   72.83    2.31
   4  -1  -1   14.02    0.47
   4  -1  -1   14.78    0.49
   4  -1  -1   14.26    0.48
   4  -1  -1   14.96    0.47
   4   1  -1   14.65    0.47
   4   1  -1   13.44    0.49
   4   1  -1   14.43    0.47
   4   1  -1   14.49    0.49
   4   1  -1   14.34    0.47
  -4   1   1   13.60    0.48
   3  -1  -1   16.74    0.54
   3  -1  -1   15.91    0.55
   3  -1  -1   16.27    0.54
   3  -1  -1   16.41    0.55
   3   1  -1   16.58    0.54
   3   1  -1   16.75    0.54
  -3   1   1   16.54    0.54
   3   1  -1   17.03    0.55
   3   1  -1   16.58    0.54
   2  -1  -1    3.60    0.13
   2  -1  -1    3.24    0.13
  -2  -1   1    3.51    0.12
  -2  -1   1    3.19    0.14
   2  -1  -1    3.50    0.14
   2  -1  -1    3.46    0.13
   2   1  -1    3.42    0.13
   2   1  -1    3.58    0.14
  -2   1   1    3.50    0.12
   2   1  -1    3.33    0.13
   1  -1  -1    1.01    0.06
  -1  -1   1    1.05    0.06
  -1  -1   1    0.91    0.04
   1  -1  -1    0.97    0.06
  -1   1   1    1.06    0.06
  -1   1   1    1.05    0.06
  -1   1   1    1.05    0.05
   1   1  -1    1.07    0.06
   1   1  -1    1.04    0.06
   0  -1   1    2.98    0.11
   0  -1   1    3.17    0.12
   0  -1  -1    3.05    0.12
   0  -1   1    3.06    0.12
   0  -1  -1    3.05    0.12
   0   1   1    3.30    0.11
   0   1  -1    3.10    0.12
   0   1   1    3.06    0.12
   0   1  -1    3.16    0.12
   0   1   1    3.13    0.11
   1  -1   1    2.26    0.10
   1  -1   1    2.21    0.10
   1  -1   1    2.42    0.09
  -1  -1  -1    2.34    0.10
  -1  -1  -1    2.27    0.10
   1   1   1    2.33    0.09
   1   1   1    2.60    0.10
   1   1   1    2.38    0.10
  -1   1  -1    2.56    0.10
   2  -1   1    0.10    0.03
   2  -1   1    0.11    0.03
   2  -1   1    0.09    0.02
  -2  -1  -1    0.13    0.04
   2   1   1    0.12    0.03
  -2   1  -1    0.09    0.03
   2   1   1    0.09    0.02
   2   1   1    0.09    0.02
   2   1   1    0.10    0.03
   3  -1   1    0.03    0.03
   3  -1   1    0.10    0.04
   3  -1   1    0.08    0.03
  -3  -1  -1    0.09    0.04
   3  -1   1    0.05    0.02
   3   1   1    0.12    0.02
  -3   1  -1    0.05    0.04
   3   1   1    0.11    0.03
   3   1   1    0.06    0.04
   3   1   1    0.07    0.02
   4  -1   1    1.18    0.07
  -4  -1  -1    1.24    0.09
   4  -1   1    1.18    0.07
   4  -1   1    1.26    0.07
   4   1   1    1.29    0.10
   4   1   1    1.10    0.07
  -4   1  -1    1.33    0.10
   4   1   1    1.21    0.06
   4   1   1    1.18    0.07
   5  -1   1    2.79    0.11
   5  -1   1    2.68    0.12
   5  -1   1    2.75    0.15
  -5  -1  -1    2.54    0.14
   5  -1   1    2.79    0.11
   5   1   1    2.84    0.13
   5   1   1    2.62    0.11
   5   1   1    2.67    0.11
   5   1   1    2.82    0.14
  -5   1  -1    2.46    0.16
   6  -1   1    6.17    0.26
   6  -1   1    6.50    0.22
   6  -1   1    6.31    0.22
   6  -1   1    5.77    0.23
  -6  -1  -1    6.22    0.26
   6   1   1    6.33    0.21
   6   1   1    6.32    0.25
   6   1   1    6.42    0.22
   6   1   1    6.43    0.24
  -6   1  -1    5.41    0.28
   7  -1   1   19.61    0.67
  -7  -1  -1   20.72    0.70
   7  -1   1   19.55    0.66
   7  -1   1   20.21    0.66
  -7   1  -1   19.37    0.72
   7   1   1   20.96    0.66
   7   1   1   21.66    0.69
   7   1   1   19.97    0.66
   7   1   1   20.51    0.70
   8  -1   1    9.73    0.38
  -8  -1  -1    9.59    0.38
   8  -1   1    8.81    0.32
   8  -1   1    8.92    0.34
   8  -1   1    9.80    0.32
   8   1   1    9.66    0.31
   8   1   1    9.51    0.37
   8   1   1    9.86    0.36
   8   1   1    9.46    0.31
  -8   1  -1    9.11    0.41
  -9  -1  -1   31.44    1.04
   9  -1   1   30.16    1.00
   9  -1   1   30.56    1.04
   9  -1   1   30.64    0.98
   9  -1   1   30.31    0.98
  -9   1  -1   29.97    1.07
   9   1   1   30.79    1.02
   9   1   1   29.76    1.03
  10  -1   1   11.87    0.48
  10  -1   1   12.09    0.43
  10  -1   1   12.57    0.40
 -10  -1  -1   12.45    0.48
  10  -1   1   11.62    0.39
  10   1   1   11.74    0.47
 -10   1  -1   12.32    0.52
  10   1   1   11.65    0.45
  11  -1   1    0.03    0.12
 -11  -1  -1    0.13    0.13
  11  -1   1    0.11    0.08
  11   1   1    0.05    0.09
  11   1   1    0.10    0.11
 -11   1  -1    0.04    0.15
 -12  -1  -1   15.97    0.61
  12  -1   1   15.57    0.61
  12   1   1   14.45    0.57
  12   1   1   15.82    0.60
 -12   1  -1   15.83    0.64
 -13  -1  -1   37.57    1.27
  13  -1   1   34.93    1.26
 -13   1  -1   38.79    1.31
  13   1   1   36.25    1.26
  13   1   1   35.20    1.24
  14  -1   1   26.76    0.99
  14   1   1   25.82    0.96
 -14   1  -1   28.24    1.03
  14   1   1   28.68    1.00
  15  -1   1    5.11    0.35
  15   1   1    5.17    0.36
 -15   1  -1    5.97    0.41
 -16  -1  -1    3.32    0.32
  16  -1   1    3.47    0.33
 -15  -2   1    1.01    0.26
  15  -2  -1    0.94    0.20
  15   2  -1    1.21    0.19
  14  -2  -1    1.57    0.21
 -14  -2   1    1.50    0.26
  14   2  -1    2.08    0.20
 -13  -2   1    1.23    0.23
  13  -2  -1    1.03    0.18
  13   2  -1    1.21    0.17
  12  -2  -1   11.13    0.38
 -12  -2   1   11.93    0.55
  12  -2  -1   11.83    0.39
  12  -2  -1   11.23    0.44
  12  -2  -1   11.56    0.50
  12   2  -1   12.13    0.48
  11  -2  -1   10.82    0.38
 -11  -2   1   11.48    0.50
  11  -2  -1   10.84    0.42
  11  -2  -1   10.95    0.47
  11  -2  -1   10.32    0.37
 -11   2   1   10.88    0.50
  11   2  -1   11.64    0.45
  10  -2  -1    5.92    0.27
 -10  -2   1    5.56    0.35
  10  -2  -1    6.13    0.23
  10  -2  -1    5.57    0.30
  10  -2  -1    5.57    0.22
  10   2  -1    5.92    0.19
 -10   2   1    5.47    0.33
  10   2  -1    5.78    0.25
  10   2  -1    6.10    0.29
  10   2  -1    6.17    0.20
   9  -2  -1    7.23    0.33
   9  -2  -1    6.49    0.25
   9  -2  -1    6.78    0.26
   9  -2  -1    6.74    0.29
  -9  -2   1    7.11    0.35
   9   2  -1    6.87    0.24
   9   2  -1    7.02    0.24
  -9   2   1    6.98    0.34
   9   2  -1    6.78    0.27
   9   2  -1    7.03    0.32
  -8  -2   1    5.82    0.31
   8  -2  -1    6.10    0.25
   8  -2  -1    5.67    0.22
   8  -2  -1    5.98    0.23
   8  -2  -1    5.89    0.28
   8   2  -1    6.20    0.22
   8   2  -1    5.89    0.22
   8   2  -1    5.99    0.23
  -8   2   1    5.73    0.28
   8   2  -1    5.67    0.27
   7  -2  -1    8.62    0.33
   7  -2  -1    8.97    0.31
   7  -2  -1    8.61    0.32
  -7  -2   1    8.54    0.38
   7   2  -1    8.76    0.35
   7   2  -1    9.17    0.31
   7   2  -1    8.75    0.31
  -7   2   1    9.00    0.35
   7   2  -1    8.68    0.31
   6  -2  -1    0.69    0.09
   6  -2  -1    0.68    0.08
   6  -2  -1    0.76    0.08
  -6  -2   1    0.70    0.11
   6  -2  -1    0.76    0.07
   6   2  -1    0.72    0.07
   6   2  -1    1.00    0.10
   6   2  -1    0.70    0.07
   6   2  -1    0.82    0.07
  -6   2   1    0.61    0.08
  -5  -2   1    6.08    0.21
   5  -2  -1    5.80    0.25
   5  -2  -1    5.99    0.23
   5  -2  -1    6.15    0.22
   5  -2  -1    5.63    0.23
  -5  -2   1    5.85    0.27
   5   2  -1    5.67    0.24
   5   2  -1    5.79    0.22
  -5   2   1    6.00    0.23
   5   2  -1    5.91    0.22
   4  -2  -1   33.20    1.07
  -4  -2   1   30.94    1.09
   4  -2  -1   34.56    1.07
   4  -2  -1   31.69    1.06
   4  -2  -1   33.57    1.08
  -4  -2   1   33.35    1.04
   4   2  -1   30.90    1.06
   4   2  -1   32.75    1.06
  -4   2   1   33.58    1.06
   4   2  -1   31.05    1.07
   3  -2  -1    5.96    0.24
   3  -2  -1    5.98    0.23
   3  -2  -1    5.95    0.23
  -3  -2   1    6.06    0.26
   3   2  -1    5.90    0.24
  -3   2   1    5.94    0.24
   3   2  -1    6.12    0.23
   3   2  -1    6.29    0.23
  -3   2   1    6.44    0.22
   2  -2  -1   29.13    0.95
  -2  -2   1   27.45    0.97
   2  -2  -1   28.44    0.95
   2  -2  -1   29.93    0.96
  -2  -2   1   27.71    0.95
  -2   2   1   29.16    0.94
  -2   2   1   31.24    0.96
   2   2  -1   29.56    0.96
   2   2  -1   29.42    0.95
  -1  -2   1    9.48    0.36
   1  -2  -1    9.93    0.35
  -1  -2   1    9.75    0.35
  -1  -2   1   10.02    0.33
  -1   2   1   10.33    0.34
   1   2  -1   10.58    0.36
  -1   2   1   10.48    0.36
  -1   2   1    9.80    0.35
   0  -2   1   40.61    1.34
   0  -2  -1   40.81    1.34
   0  -2   1   41.05    1.32
   0  -2  -1   40.08    1.33
   0  -2   1   40.11    1.34
   0   2   1   42.34    1.33
   0   2  -1   41.06    1.33
   0   2   1   42.26    1.32
   0   2   1   41.54    1.34
   1  -2   1   21.54    0.72
   1  -2   1   21.62    0.72
  -1  -2  -1   20.79    0.72
  -1  -2  -1   21.13    0.72
   1  -2   1   21.12    0.71
  -1   2  -1   21.49    0.71
  -1   2  -1   22.57    0.72
   1   2   1   21.75    0.70
   1   2   1   21.42    0.72
   1   2   1   22.41    0.72
   2  -2   1  131.75    4.17
  -2  -2  -1  126.62    4.16
   2  -2   1  126.65    4.16
   2  -2   1  128.28    4.15
  -2  -2  -1  125.02    4.15
   2   2   1  127.56    4.16
  -2   2  -1  131.78    4.17
  -2   2  -1  131.18    4.15
   2   2   1  134.43    4.13
   2   2   1  130.89    4.18
  -3  -2  -1   10.35    0.38
   3  -2   1   10.27    0.36
   3  -2   1   10.35    0.35
   3  -2   1    9.98    0.37
   3   2   1    9.62    0.36
   3   2   1   10.35    0.36
  -3   2  -1    9.96    0.36
   3   2   1   10.45    0.34
   3   2   1   10.71    0.37
  -3   2  -1   10.88    0.37
   4  -2   1   17.27    0.59
   4  -2   1   18.11    0.59
   4  -2   1   17.50    0.57
   4  -2   1   16.96    0.58
  -4  -2  -1   17.05    0.60
   4   2   1   16.37    0.57
   4   2   1   18.01    0.60
   4   2   1   16.28    0.56
   4   2   1   17.23    0.58
  -4   2  -1   17.74    0.59
   5  -2   1    4.05    0.18
   5  -2   1    4.19    0.20
   5  -2   1    4.16    0.17
  -5  -2  -1    4.19    0.21
   5  -2   1    4.13    0.17
  -5   2  -1    4.09    0.20
   5   2   1    4.12    0.17
   5   2   1    4.29    0.16
   5   2   1    4.28    0.17
   5   2   1    4.13    0.20
   6  -2   1   43.49    1.42
  -6  -2  -1   42.78    1.45
   6  -2   1   44.37    1.42
   6  -2   1   43.97    1.45
   6  -2   1   43.18    1.42
   6   2   1   42.95    1.44
   6   2   1   43.83    1.41
   6   2   1   44.47    1.41
   6   2   1   44.09    1.41
  -6   2  -1   44.09    1.45
   7  -2   1    1.40    0.11
  -7  -2  -1    1.41    0.14
   7  -2   1    1.49    0.14
   7  -2   1    1.55    0.11
   7  -2   1    1.43    0.10
  -7   2  -1    1.42    0.15
   7   2   1    1.64    0.11
   7   2   1    1.55    0.14
   7   2   1    1.62    0.10
   7   2   1    1.58    0.09
   8  -2   1   16.47    0.56
   8  -2   1   16.32    0.56
   8  -2   1   16.54    0.61
   8  -2   1   15.95    0.55
  -8  -2  -1   16.19    0.61
   8   2   1   16.54    0.55
   8   2   1   16.80    0.60
  -8   2  -1   16.00    0.62
   8   2   1   16.94    0.55
   8   2   1   16.55    0.56
   9  -2   1    9.21    0.34
   9  -2   1    9.66    0.36
  -9  -2  -1   10.02    0.42
   9  -2   1   10.17    0.41
   9  -2   1    9.97    0.35
  -9   2  -1    8.66    0.43
   9   2   1    9.96    0.33
   9   2   1    9.68    0.33
   9   2   1    9.08    0.40
   9   2   1    9.61    0.36
  10  -2   1    0.14    0.05
  10  -2   1    0.24    0.13
  10  -2   1    0.25    0.07
  10  -2   1    0.31    0.08
 -10  -2  -1    0.15    0.13
 -10   2  -1    0.05    0.16
  10   2   1    0.26    0.08
  10   2   1    0.21    0.04
  10   2   1    0.20    0.05
  10   2   1    0.35    0.13
  11  -2   1    9.80    0.44
  11  -2   1    9.82    0.34
 -11  -2  -1    9.95    0.45
  11  -2   1    8.93    0.34
 -11   2  -1    9.54    0.49
  11   2   1    9.84    0.42
  12  -2   1    7.10    0.26
  12  -2   1    6.76    0.25
 -12  -2  -1    7.35    0.40
  12  -2   1    7.26    0.38
 -12   2  -1    6.96    0.44
  12   2   1    7.23    0.36
  13  -2   1    3.04    0.12
  13  -2   1    3.04    0.11
 -13  -2  -1    3.20    0.27
  13  -2   1    2.86    0.29
  13   2   1    3.22    0.27
 -13   2  -1    3.47    0.31
 -14  -2  -1    6.43    0.42
  14  -2   1    6.00    0.38
  14   2   1    6.02    0.36
  15  -2   1    1.71    0.22
  15   2   1    1.88    0.22
 -14  -3   1    1.09    0.28
  14  -3  -1    1.30    0.11
  14  -3  -1    1.20    0.21
  14   3  -1    1.37    0.19
  13  -3  -1   19.16    0.65
 -13  -3   1   20.49    0.82
  13  -3  -1   18.42    0.75
  13   3  -1   19.48    0.73
  12  -3  -1    6.43    0.37
  12  -3  -1    6.31    0.26
 -12  -3   1    6.53    0.45
  12   3  -1    6.23    0.21
  12   3  -1    6.12    0.34
  12   3  -1    6.08    0.21
  11  -3  -1    0.78    0.10
  11  -3  -1    0.95    0.18
  11  -3  -1    0.87    0.12
 -11  -3   1    1.27    0.23
  11   3  -1    0.82    0.15
  11   3  -1    0.87    0.07
  10  -3  -1   23.26    0.81
  10  -3  -1   23.62    0.80
  10  -3  -1   23.43    0.85
 -10  -3   1   23.20    0.90
  10   3  -1   23.34    0.78
 -10   3   1   23.42    0.84
  10   3  -1   23.89    0.84
   9  -3  -1   33.46    1.12
   9  -3  -1   31.30    1.08
   9  -3  -1   32.11    1.07
  -9  -3   1   31.81    1.14
  -9   3   1   32.34    1.10
   9   3  -1   32.12    1.05
   9   3  -1   31.71    1.10
   8  -3  -1   11.74    0.46
   8  -3  -1   10.97    0.43
   8  -3  -1   11.52    0.42
  -8  -3   1   11.27    0.50
   8   3  -1   11.19    0.40
   8   3  -1   11.44    0.45
  -8   3   1   11.55    0.44
   7  -3  -1    0.08    0.08
   7  -3  -1    0.04    0.10
  -7  -3   1    0.05    0.13
   7  -3  -1    0.01    0.07
   7   3  -1    0.06    0.05
  -7   3   1    0.26    0.09
   7   3  -1    0.00    0.05
   7   3  -1    0.16    0.10
   6  -3  -1   25.45    0.86
  -6  -3   1   24.90    0.91
   6  -3  -1   25.24    0.86
   6   3  -1   25.02    0.85
  -6   3   1   26.91    0.86
   6   3  -1   25.20    0.87
   6   3  -1   25.06    0.85
   5  -3  -1    3.49    0.17
   5  -3  -1    3.38    0.18
   5  -3  -1    3.21    0.17
   5  -3  -1    3.43    0.20
  -5  -3   1    2.94    0.23
   5   3  -1    3.18    0.16
   5   3  -1    3.40    0.16
  -5   3   1    3.29    0.17
   5   3  -1    2.91    0.19
   4  -3  -1   77.23    2.46
  -4  -3   1   74.13    2.49
   4  -3  -1   79.02    2.46
   4  -3  -1   74.42    2.45
  -4   3   1   77.02    2.45
   4   3  -1   74.30    2.46
  -4   3   1   73.88    2.46
   4   3  -1   76.54    2.45
   4   3  -1   77.68    2.45
  -3  -3   1    5.40    0.28
  -3  -3   1    5.77    0.24
   3  -3  -1    5.56    0.24
   3  -3  -1    5.59    0.24
   3  -3  -1    5.56    0.24
   3   3  -1    5.81    0.25
  -3   3   1    5.73    0.23
   3   3  -1    5.61    0.24
  -3   3   1    5.75    0.25
  -2  -3   1   11.72    0.49
   2  -3  -1   13.37    0.48
   2  -3  -1   13.82    0.48
  -2  -3   1   13.24    0.48
   2   3  -1   13.56    0.43
  -2   3   1   14.07    0.49
  -2   3   1   13.35    0.47
   2   3  -1   14.01    0.48
  -2   3   1   13.75    0.48
   2   3  -1   13.11    0.48
  -1  -3   1   29.27    0.95
  -1  -3   1   29.00    0.98
   1  -3  -1   29.18    0.98
  -1  -3   1   28.43    0.99
   1  -3  -1   29.48    0.98
  -1   3   1   29.66    0.97
  -1   3   1   29.78    0.97
   1   3  -1   29.53    0.98
   1   3  -1   28.75    0.98
  -1   3   1   30.31    0.99
   0  -3  -1    2.27    0.16
   0  -3   1    2.13    0.15
   0  -3   1    2.23    0.11
   0  -3  -1    2.15    0.14
   0   3  -1    2.41    0.14
   0   3   1    2.32    0.15
   0   3   1    2.21    0.13
   0   3   1    2.12    0.11
   1  -3   1   10.81    0.38
  -1  -3  -1   10.49    0.41
  -1  -3  -1   10.96    0.40
   1  -3   1   11.04    0.40
   1   3   1   10.89    0.40
   1   3   1   11.36    0.37
  -1   3  -1   10.51    0.39
   1   3   1   10.94    0.39
   2  -3   1    0.03    0.05
  -2  -3  -1    0.12    0.08
  -2  -3  -1    0.12    0.06
   2  -3   1    0.04    0.06
   2  -3   1    0.08    0.06
  -2   3  -1    0.07    0.06
   2   3   1    0.06    0.03
   2   3   1    0.04    0.06
   2   3   1    0.13    0.06
  -2   3  -1    0.05    0.05
   3  -3   1   14.51    0.52
   3  -3   1   14.80    0.51
  -3  -3  -1   14.93    0.52
  -3  -3  -1   14.58    0.54
   3  -3   1   14.12    0.52
   3   3   1   14.42    0.52
   3   3   1   15.32    0.53
   3   3   1   14.78    0.48
  -3   3  -1   15.43    0.53
   4  -3   1    7.88    0.31
  -4  -3  -1    7.67    0.34
   4  -3   1    7.56    0.29
   4  -3   1    7.79    0.31
  -4   3  -1    8.15    0.31
   4   3   1    7.83    0.29
   4   3   1    6.96    0.26
   4   3   1    7.93    0.32
   4   3   1    7.69    0.30
   5  -3   1   12.85    0.48
  -5  -3  -1   12.73    0.51
   5  -3   1   13.29    0.46
   5  -3   1   13.36    0.48
   5   3   1   13.13    0.47
   5   3   1   13.36    0.43
  -5   3  -1   13.62    0.49
   5   3   1   13.14    0.49
   5   3   1   13.24    0.47
   6  -3   1   21.67    0.73
   6  -3   1   21.81    0.76
  -6  -3  -1   20.58    0.78
   6  -3   1   21.99    0.74
   6   3   1   21.58    0.73
   6   3   1   22.01    0.73
   6   3   1   21.67    0.76
   6   3   1   21.82    0.70
  -6   3  -1   20.62    0.75
   7  -3   1    3.37    0.18
   7  -3   1    3.65    0.22
   7  -3   1    3.13    0.19
  -7  -3  -1    3.69    0.25
   7   3   1    3.26    0.22
   7   3   1    3.38    0.17
  -7   3  -1    3.59    0.23
   8  -3   1   47.75    1.55
   8  -3   1   47.28    1.54
   8  -3   1   46.80    1.58
  -8  -3  -1   46.04    1.60
   8   3   1   46.33    1.58
   8   3   1   48.67    1.54
  -8   3  -1   48.43    1.59
  -9  -3  -1    1.36    0.19
   9  -3   1    1.49    0.12
   9  -3   1    1.43    0.17
   9  -3   1    1.48    0.15
  -9   3  -1    1.59    0.18
   9   3   1    1.51    0.17
   9   3   1    1.42    0.13
  10  -3   1    3.95    0.21
  10  -3   1    3.85    0.27
 -10  -3  -1    4.48    0.32
 -10   3  -1    3.78    0.31
  10   3   1    3.93    0.19
  10   3   1    3.68    0.27
  11  -3   1    0.06    0.09
  11  -3   1    0.18    0.15
 -11  -3  -1    0.12    0.18
 -11   3  -1    0.03    0.18
  11   3   1    0.01    0.06
  11   3   1    0.20    0.14
 -12  -3  -1   16.55    0.69
  12  -3   1   15.28    0.64
  12  -3   1   15.40    0.55
  12   3   1   15.35    0.52
  12   3   1   15.35    0.62
 -12   3  -1   16.38    0.69
  13  -3   1   19.77    0.68
  13  -3   1   19.31    0.77
 -13  -3  -1   21.44    0.83
  13   3   1   19.51    0.76
  14  -3   1   13.05    0.46
 -14  -3  -1   14.50    0.66
  14  -3   1   13.57    0.60
  14   3   1   12.88    0.57
  13  -4  -1    1.99    0.24
 -13  -4   1    1.86    0.31
  13  -4  -1    1.94    0.19
  13   4  -1    1.60    0.12
  13   4  -1    1.30    0.19
 -12  -4   1    0.58    0.26
  12  -4  -1    0.50    0.18
  12  -4  -1    0.34    0.11
  12   4  -1    0.44    0.16
  12   4  -1    0.46    0.08
  11  -4  -1    7.15    0.40
  11  -4  -1    7.38    0.33
 -11  -4   1    7.61    0.50
  11   4  -1    7.08    0.37
  11   4  -1    6.81    0.29
  10  -4  -1   14.39    0.53
  10  -4  -1   13.61    0.58
 -10  -4   1   14.69    0.66
  10  -4  -1   15.18    0.54
  10   4  -1   14.18    0.57
  10   4  -1   13.77    0.51
   9  -4  -1    0.51    0.11
   9  -4  -1    0.40    0.15
  -9  -4   1    0.45    0.20
   9  -4  -1    0.34    0.12
   9   4  -1    1.32    0.17
   9   4  -1    0.47    0.09
   8  -4  -1    8.20    0.39
   8  -4  -1    8.36    0.35
   8  -4  -1    8.31    0.35
  -8  -4   1    8.14    0.47
   8   4  -1    7.89    0.38
  -8   4   1    8.01    0.36
   8   4  -1    8.59    0.33
  -7  -4   1    7.60    0.41
   7  -4  -1    6.64    0.34
   7  -4  -1    6.75    0.31
   7  -4  -1    6.64    0.30
   7   4  -1    6.65    0.29
   7   4  -1    6.79    0.34
  -7   4   1    7.13    0.31
   6  -4  -1   33.05    1.11
   6  -4  -1   31.47    1.10
  -6  -4   1   33.38    1.18
   6  -4  -1   33.31    1.13
   6   4  -1   32.75    1.10
  -6   4   1   33.23    1.10
   6   4  -1   32.56    1.12
   5  -4  -1    0.76    0.11
  -5  -4   1    0.86    0.17
   5  -4  -1    0.72    0.11
   5  -4  -1    0.69    0.12
  -5   4   1    0.93    0.11
   5   4  -1    0.63    0.10
   5   4  -1    0.67    0.11
   4  -4  -1    1.25    0.13
   4  -4  -1    1.68    0.14
   4  -4  -1    1.11    0.12
  -4  -4   1    1.33    0.18
   4   4  -1    1.36    0.14
   4   4  -1    1.29    0.12
  -4   4   1    1.33    0.12
  -3  -4   1   18.98    0.66
  -3  -4   1   17.45    0.69
   3  -4  -1   18.27    0.66
   3  -4  -1   18.37    0.66
  -3   4   1   18.34    0.66
   3   4  -1   18.83    0.65
   3   4  -1   18.76    0.66
  -3   4   1   18.98    0.65
  -3   4   1   18.61    0.67
  -2  -4   1   18.06    0.64
  -2  -4   1   16.76    0.66
   2  -4  -1   17.39    0.64
   2  -4  -1   17.90    0.64
   2   4  -1   18.47    0.58
  -2   4   1   17.38    0.62
  -2   4   1   17.93    0.64
   2   4  -1   18.74    0.64
  -2   4   1   17.74    0.62
   2   4  -1   17.54    0.63
   1  -4  -1    9.37    0.40
  -1  -4   1    9.12    0.38
   1  -4  -1    9.27    0.38
  -1  -4   1    9.42    0.40
  -1   4   1    9.72    0.39
  -1   4   1    9.82    0.36
   1   4  -1    9.71    0.38
   1   4  -1    9.44    0.33
  -1   4   1    9.57    0.37
   1   4  -1    9.62    0.38
   0  -4   1   23.83    0.85
   0  -4   1   24.35    0.81
   0  -4  -1   25.49    0.85
   0  -4  -1   23.96    0.86
   0  -4   1   23.60    0.85
   0   4   1   25.00    0.82
   0   4  -1   24.44    0.84
   0   4   1   24.81    0.84
   0   4  -1   24.16    0.85
   0   4   1   25.91    0.85
   1  -4   1   21.27    0.74
  -1  -4  -1   22.32    0.77
   1  -4   1   21.83    0.77
  -1  -4  -1   20.98    0.78
   1  -4   1   21.57    0.76
  -1   4  -1   21.57    0.76
   1   4   1   22.03    0.77
   1   4   1   21.91    0.76
   1   4   1   22.88    0.73
  -1   4  -1   22.74    0.77
  -2  -4  -1   29.42    1.05
   2  -4   1   30.86    1.02
   2  -4   1   29.64    1.01
   2  -4   1   30.24    1.03
  -2  -4  -1   30.52    1.03
  -2   4  -1   29.89    1.03
  -2   4  -1   30.19    1.02
   2   4   1   29.75    1.02
   2   4   1   31.28    1.03
   2   4   1   30.27    0.98
   3  -4   1    9.31    0.38
  -3  -4  -1    9.01    0.41
   3  -4   1    9.75    0.37
  -3  -4  -1   10.39    0.38
   3  -4   1    8.99    0.39
  -3   4  -1    9.01    0.38
   3   4   1    9.96    0.39
   3   4   1    9.66    0.38
  -3   4  -1    9.45    0.38
   4  -4   1    9.59    0.38
   4  -4   1    9.90    0.39
   4  -4   1    9.71    0.39
  -4  -4  -1    9.66    0.43
   4   4   1    9.27    0.39
  -4   4  -1    9.95    0.39
   4   4   1    9.46    0.38
   5  -4   1   25.60    0.91
  -5  -4  -1   26.81    0.95
   5  -4   1   25.91    0.89
   5  -4   1   26.45    0.91
   5   4   1   25.73    0.89
   5   4   1   26.80    0.92
  -5   4  -1   27.12    0.91
  -6  -4  -1    5.59    0.33
   6  -4   1    5.17    0.28
   6  -4   1    5.23    0.27
   6  -4   1    5.19    0.25
   6   4   1    5.27    0.29
  -6   4  -1    5.25    0.27
   6   4   1    5.48    0.25
   7  -4   1   16.70    0.62
  -7  -4  -1   16.29    0.66
   7  -4   1   16.42    0.60
   7  -4   1   16.26    0.58
  -7   4  -1   15.81    0.61
   7   4   1   16.93    0.59
   7   4   1   15.95    0.62
   8  -4   1    5.51    0.31
   8  -4   1    5.58    0.26
  -8  -4  -1    5.29    0.36
   8  -4   1    5.53    0.28
  -8   4  -1    5.36    0.31
   8   4   1    5.47    0.26
   9  -4   1    4.28    0.23
  -9  -4  -1    3.97    0.35
   9  -4   1    4.12    0.27
   9  -4   1    4.14    0.24
  -9   4  -1    4.29    0.29
   9   4   1    4.21    0.29
   9   4   1    4.09    0.23
  10  -4   1   29.85    1.08
 -10  -4  -1   31.52    1.12
  10  -4   1   31.40    1.04
  10   4   1   28.98    1.01
 -10   4  -1   30.51    1.08
  10   4   1   29.23    1.07
 -11  -4  -1    3.78    0.32
  11  -4   1    3.90    0.29
  11  -4   1    3.74    0.24
  11   4   1    3.43    0.30
  11   4   1    3.50    0.20
 -12  -4  -1    3.87    0.35
  12  -4   1    4.10    0.34
  12  -4   1    4.18    0.25
  12   4   1    3.93    0.20
  12   4   1    4.22    0.31
  13  -4   1    0.09    0.18
  13  -4   1   -0.05    0.10
 -13  -4  -1    0.12    0.25
  13   4   1    0.05    0.07
  13   4   1    0.03    0.16
 -12  -5   1   26.77    1.04
  12  -5  -1   26.02    0.88
  12   5  -1   24.08    0.91
  12   5  -1   23.02    0.83
 -12   5   1   23.52    1.01
  11  -5  -1    3.09    0.26
  11  -5  -1    3.03    0.31
 -11  -5   1    2.83    0.36
  11   5  -1    2.70    0.20
  11   5  -1    2.31    0.22
 -11   5   1    2.28    0.32
  10  -5  -1    1.89    0.18
  10  -5  -1    1.96    0.22
 -10  -5   1    1.55    0.30
  10  -5  -1    1.97    0.18
 -10   5   1    1.55    0.30
  10   5  -1    1.56    0.20
  10   5  -1    1.67    0.15
   9  -5  -1    3.32    0.29
  -9  -5   1    3.67    0.35
   9  -5  -1    3.24    0.25
   9  -5  -1    3.52    0.26
  -9   5   1    2.65    0.30
   9   5  -1    3.39    0.29
   9   5  -1    3.25    0.22
   8  -5  -1   14.11    0.52
   8  -5  -1   13.63    0.54
  -8  -5   1   13.92    0.67
   8  -5  -1   13.48    0.56
   8   5  -1   13.23    0.55
   8   5  -1   13.45    0.51
  -8   5   1   13.60    0.63
  -7  -5   1    0.64    0.23
   7  -5  -1    0.28    0.12
   7  -5  -1    0.38    0.14
   7  -5  -1    0.21    0.13
   7   5  -1    0.30    0.11
  -7   5   1    0.26    0.18
   7   5  -1    0.40    0.15
  -6  -5   1    0.58    0.21
   6  -5  -1    0.47    0.13
   6  -5  -1    0.34    0.13
  -6   5   1    0.24    0.17
   6   5  -1    0.45    0.13
  -6   5   1    0.30    0.12
   6   5  -1    0.41    0.11
  -5  -5   1   22.31    0.88
   5  -5  -1   22.62    0.80
   5  -5  -1   22.18    0.81
  -5   5   1   23.64    0.83
   5   5  -1   22.40    0.82
  -5   5   1   22.78    0.80
   5   5  -1   22.57    0.80
   4  -5  -1    1.55    0.16
   4  -5  -1    1.51    0.16
  -4  -5   1    1.23    0.21
   4   5  -1    1.32    0.15
   4   5  -1    1.54    0.15
  -4   5   1    1.55    0.17
  -4   5   1    1.66    0.15
   3  -5  -1    6.74    0.33
  -3  -5   1    6.42    0.39
   3  -5  -1    7.00    0.33
   3   5  -1    6.79    0.33
   3   5  -1    7.01    0.34
  -3   5   1    7.04    0.33
  -3   5   1    6.59    0.30
   2  -5  -1   34.59    1.18
  -2  -5   1   33.50    1.20
   2  -5  -1   34.71    1.18
  -2   5   1   34.48    1.16
   2   5  -1   33.92    1.17
  -2   5   1   34.01    1.15
  -2   5   1   33.89    1.18
   2   5  -1   34.75    1.17
  -1  -5   1    0.97    0.17
   1  -5  -1    0.94    0.15
   1  -5  -1    0.86    0.16
  -1   5   1    1.02    0.15
   1   5  -1    0.73    0.13
  -1   5   1    1.08    0.13
  -1   5   1    0.90    0.11
   1   5  -1    1.07    0.14
   0  -5  -1   25.52    0.93
   0  -5   1   25.58    0.92
   0  -5   1   25.65    0.92
   0  -5  -1   26.93    0.92
   0   5   1   25.68    0.90
   0   5  -1   25.91    0.92
   0   5   1   26.84    0.88
   0   5   1   26.11    0.92
   0   5  -1   26.05    0.91
   1  -5   1    0.01    0.12
   1  -5   1    0.05    0.10
  -1  -5  -1    0.03    0.11
  -1  -5  -1    0.10    0.15
   1   5   1    0.13    0.11
  -1   5  -1    0.08    0.11
   1   5   1    0.06    0.11
  -1   5  -1    0.02    0.10
  -1   5  -1    0.26    0.09
   2  -5   1    2.91    0.24
   2  -5   1    2.91    0.23
  -2  -5  -1    3.05    0.28
   2  -5   1    3.06    0.20
   2   5   1    2.84    0.23
  -2   5  -1    3.07    0.22
   2   5   1    3.15    0.22
  -2   5  -1    3.26    0.23
  -3  -5  -1    1.36    0.20
   3  -5   1    1.10    0.15
   3  -5   1    1.35    0.14
   3  -5   1    1.38    0.15
   3   5   1    1.31    0.15
   3   5   1    1.10    0.14
  -3   5  -1    1.33    0.15
  -4  -5  -1   32.40    1.16
   4  -5   1   32.56    1.10
   4  -5   1   31.89    1.09
   4  -5   1   30.98    1.11
   4   5   1   32.51    1.10
   4   5   1   33.04    1.11
  -4   5  -1   32.66    1.11
   5  -5   1    0.04    0.11
   5  -5   1    0.13    0.12
   5  -5   1    0.04    0.11
  -5  -5  -1   -0.10    0.17
  -5   5  -1    0.06    0.11
   5   5   1    0.09    0.13
   5   5   1    0.05    0.10
   6  -5   1   16.75    0.64
   6  -5   1   16.69    0.64
   6  -5   1   16.78    0.61
  -6  -5  -1   16.89    0.70
   6   5   1   16.65    0.65
   6   5   1   16.23    0.61
  -6   5  -1   17.33    0.64
   7  -5   1    6.67    0.34
   7  -5   1    7.06    0.36
  -7  -5  -1    6.76    0.43
   7  -5   1    6.87    0.32
   7   5   1    7.23    0.37
  -7   5  -1    6.85    0.35
   7   5   1    6.58    0.32
   8  -5   1    0.31    0.15
  -8  -5  -1    0.53    0.22
   8  -5   1    0.28    0.13
   8  -5   1    0.36    0.12
  -8   5  -1    0.51    0.16
   8   5   1    0.63    0.12
   8   5   1    0.44    0.16
   9  -5   1    7.51    0.37
   9  -5   1    7.65    0.40
  -9  -5  -1    7.46    0.48
   9   5   1    7.10    0.34
   9   5   1    7.66    0.40
 -10  -5  -1    0.68    0.25
  10  -5   1    0.75    0.15
  10  -5   1    0.88    0.19
  10   5   1    0.74    0.13
  10   5   1    0.73    0.18
  11  -5   1    4.60    0.30
 -11  -5  -1    4.95    0.39
  11  -5   1    4.28    0.36
  11   5   1    4.54    0.34
  11   5   1    4.16    0.25
  12  -5   1    5.64    0.32
 -12  -5  -1    5.56    0.50
  12  -5   1    4.61    0.38
  12   5   1    4.88    0.26
  12   5   1    4.73    0.36
  10  -6  -1   -0.09    0.15
 -10  -6   1   -0.06    0.30
  10   6  -1    0.06    0.12
  10   6  -1    0.10    0.18
 -10   6   1   -0.02    0.25
  -9  -6   1    3.49    0.39
   9  -6  -1    3.35    0.30
   9  -6  -1    3.35    0.30
  -9   6   1    3.39    0.35
   9   6  -1    3.40    0.26
   9   6  -1    3.30    0.33
   8  -6  -1   15.21    0.60
   8  -6  -1   15.38    0.62
  -8  -6   1   16.47    0.76
   8   6  -1   14.85    0.59
   8   6  -1   15.48    0.64
  -8   6   1   15.48    0.69
  -7  -6   1    7.62    0.55
   7  -6  -1    7.65    0.40
   7  -6  -1    6.98    0.37
   7   6  -1    7.53    0.41
  -7   6   1    7.29    0.45
   7   6  -1    7.51    0.36
   6  -6  -1    7.08    0.37
   6  -6  -1    6.21    0.37
  -6  -6   1    7.67    0.50
   6   6  -1    6.81    0.35
  -6   6   1    7.50    0.42
   6   6  -1    6.73    0.39
   5  -6  -1   11.74    0.52
   5  -6  -1   12.29    0.51
  -5  -6   1   12.01    0.61
   5   6  -1   12.24    0.53
   5   6  -1   11.88    0.50
  -5   6   1   12.50    0.53
   4  -6  -1    0.39    0.15
   4  -6  -1    0.32    0.15
  -4  -6   1    0.61    0.23
  -4   6   1    0.39    0.16
   4   6  -1    0.53    0.16
  -4   6   1    0.41    0.14
   4   6  -1    0.36    0.14
  -3  -6   1    3.33    0.31
   3  -6  -1    3.87    0.29
   3  -6  -1    3.71    0.30
   3   6  -1    3.69    0.29
  -3   6   1    4.16    0.27
  -3   6   1    3.90    0.27
   3   6  -1    3.83    0.29
   2  -6  -1   22.76    0.84
  -2  -6   1   23.01    0.89
   2  -6  -1   21.86    0.84
  -2   6   1   23.54    0.82
   2   6  -1   22.65    0.83
   2   6  -1   22.89    0.84
   1  -6  -1   12.65    0.58
  -1  -6   1   14.01    0.59
   1   6  -1   14.14    0.57
   1   6  -1   13.85    0.55
  -1   6   1   13.50    0.54
   0  -6  -1    2.99    0.26
   0  -6   1    3.44    0.30
   0   6   1    3.05    0.25
   0   6  -1    3.27    0.26
   0   6   1    3.19    0.28
   0   6  -1    3.07    0.27
  -1  -6  -1    6.81    0.43
   1  -6   1    6.89    0.37
   1   6   1    7.15    0.37
   1   6   1    6.54    0.35
  -1   6  -1    6.87    0.35
   2  -6   1    6.61    0.36
   2  -6   1    6.58    0.37
  -2  -6  -1    7.01    0.43
   2   6   1    7.15    0.36
   2   6   1    6.93    0.37
  -2   6  -1    7.30    0.36
   3  -6   1    3.11    0.28
   3  -6   1    3.16    0.28
  -3  -6  -1    3.18    0.30
   3   6   1    3.33    0.26
   3   6   1    3.23    0.27
  -3   6  -1    3.23    0.27
   4  -6   1    5.07    0.31
  -4  -6  -1    5.39    0.41
   4  -6   1    4.76    0.33
  -4   6  -1    5.68    0.32
   4   6   1    4.75    0.30
   4   6   1    5.26    0.32
  -4   6  -1    5.28    0.33
   5  -6   1    5.51    0.31
   5  -6   1    5.25    0.32
   5  -6   1    5.29    0.33
  -5  -6  -1    5.06    0.42
   5   6   1    5.40    0.31
   5   6   1    5.39    0.33
  -5   6  -1    5.22    0.33
   6  -6   1   13.81    0.54
  -6  -6  -1   13.48    0.65
   6  -6   1   13.65    0.56
   6  -6   1   14.31    0.58
   6   6   1   13.32    0.55
   6   6   1   14.00    0.58
  -6   6  -1   14.06    0.58
   7  -6   1    0.33    0.16
   7  -6   1    0.07    0.14
  -7  -6  -1    0.20    0.24
   7  -6   1    0.19    0.15
   7   6   1    0.24    0.18
  -7   6  -1    0.25    0.17
   7   6   1    0.26    0.13
   8  -6   1    0.91    0.18
  -8  -6  -1    1.44    0.28
   8  -6   1    0.96    0.20
   8   6   1    0.90    0.16
   8   6   1    1.10    0.21
  -9  -6  -1   16.06    0.75
   9  -6   1   15.08    0.66
   9  -6   1   16.48    0.65
   9   6   1   15.61    0.66
   9   6   1   15.69    0.61
 -10  -6  -1    8.79    0.57
  10  -6   1    8.82    0.45
  10  -6   1    8.15    0.46
  10   6   1    8.29    0.39
  10   6   1    8.11    0.46
   7  -7  -1    2.63    0.24
   7  -7  -1    2.24    0.24
  -7  -7   1    2.65    0.37
  -7   7   1    2.66    0.31
   7   7  -1    2.75    0.27
   7   7  -1    2.67    0.23
   6  -7  -1   -0.13    0.17
  -6  -7   1   -0.05    0.27
   6  -7  -1   -0.06    0.17
   6   7  -1    0.03    0.15
   6   7  -1    0.00    0.19
  -5  -7   1    1.09    0.30
   5  -7  -1    0.66    0.19
   5  -7  -1    0.65    0.19
   5   7  -1    0.76    0.18
   5   7  -1    1.00    0.21
   4  -7  -1    1.21    0.21
  -4  -7   1    1.15    0.29
   4   7  -1    1.51    0.22
   4   7  -1    1.76    0.22
  -3  -7   1   11.22    0.59
   3  -7  -1   11.19    0.53
  -3   7   1   10.79    0.52
   3   7  -1   11.10    0.51
   3   7  -1   11.10    0.52
   2  -7  -1    1.24    0.23
  -2  -7   1    1.82    0.28
  -2   7   1    1.55    0.20
   2   7  -1    1.65    0.21
   2   7  -1    1.88    0.23
  -1  -7   1   34.23    1.24
   1  -7  -1   34.11    1.23
  -1   7   1   34.15    1.19
   1   7  -1   33.55    1.20
   0  -7  -1    0.34    0.22
   0  -7   1    0.35    0.21
   0   7  -1    0.49    0.18
   0   7   1    0.70    0.18
   1  -7   1    1.12    0.22
  -1  -7  -1    1.28    0.26
   1   7   1    1.15    0.19
  -1   7  -1    1.13    0.20
  -2  -7  -1    0.09    0.23
   2  -7   1    0.15    0.19
  -2   7  -1    0.20    0.17
   2   7   1   -0.15    0.16
   2   7   1    0.12    0.17
  -3  -7  -1   10.92    0.58
   3  -7   1   10.07    0.49
  -3   7  -1   10.69    0.49
   3   7   1    9.84    0.49
   3   7   1   10.47    0.49
   4  -7   1    1.40    0.20
  -4  -7  -1    1.05    0.28
   4   7   1    1.34    0.20
  -4   7  -1    1.39    0.21
   4   7   1    1.17    0.20
   5  -7   1   23.49    0.88
  -5  -7  -1   24.57    0.99
   5  -7   1   22.48    0.91
   5   7   1   24.59    0.89
  -5   7  -1   24.60    0.91
   5   7   1   24.12    0.90
   6  -7   1    0.69    0.19
   6  -7   1    0.63    0.19
  -6  -7  -1    0.77    0.30
   6   7   1    0.80    0.17
   6   7   1    0.65    0.20
  -7  -7  -1    4.97    0.42
   7  -7   1    4.59    0.37
   7   7   1    4.72    0.38
   7   7   1    4.41    0.33
 -16   0   2   10.56    0.56
 -15   0   2    0.14    0.23
  15   0  -2   -0.02    0.14
 -14   0   2   46.49    1.69
  14   0  -2   50.35    1.63
  14   0  -2   49.28    1.64
  13   0  -2    0.40    0.13
  13   0  -2    0.10    0.12
  13   0  -2    0.28    0.12
  12   0  -2   55.06    1.84
  12   0  -2   55.17    1.83
  12   0  -2   56.60    1.84
  11   0  -2    0.06    0.10
  11   0  -2    0.04    0.09
  11   0  -2    0.11    0.10
  10   0  -2  160.95    5.15
  10   0  -2  162.79    5.16
  10   0  -2  155.95    5.12
   9   0  -2    0.10    0.08
   9   0  -2    0.06    0.07
   9   0  -2    0.01    0.08
   8   0  -2   19.73    0.68
   8   0  -2   19.86    0.68
   8   0  -2   19.12    0.67
   7   0  -2   -0.01    0.05
   7   0  -2    0.09    0.06
   7   0  -2    0.03    0.06
   6   0  -2    4.55    0.16
   6   0  -2    5.20    0.16
   6   0  -2    4.90    0.20
   6   0  -2    4.64    0.20
   6   0  -2    4.38    0.19
   5   0  -2    0.03    0.04
   5   0  -2    0.29    0.05
   5   0  -2    0.08    0.02
   5   0  -2    0.50    0.06
   4   0  -2  126.04    4.31
   4   0  -2  117.27    3.98
   4   0  -2  118.69    3.95
  -4   0   2  133.85    4.00
   4   0  -2  123.31    4.03
   3   0  -2    0.03    0.02
   3   0  -2    0.05    0.02
   3   0  -2    0.02    0.02
   3   0  -2   -0.01    0.03
  -3   0   2    0.12    0.04
   2   0  -2    2.12    0.09
   2   0  -2    2.22    0.08
  -2   0   2    1.97    0.09
   1   0  -2    0.03    0.02
  -1   0   2    0.22    0.03
   1   0  -2    0.00    0.02
   1   0  -2    0.09    0.01
   0   0  -2    0.74    0.04
   0   0  -2    0.62    0.04
   0   0   2    0.58    0.04
   0   0  -2    0.58    0.04
   0   0   2    0.55    0.05
  -1   0  -2    0.03    0.02
  -1   0  -2    0.03    0.02
   1   0   2    0.04    0.02
  -1   0  -2    0.07    0.01
   2   0   2    6.89    0.26
   2   0   2    7.56    0.27
  -2   0  -2    8.00    0.25
   2   0   2    7.53    0.26
   3   0   2    0.11    0.03
   3   0   2   -0.02    0.04
  -3   0  -2    0.06    0.02
   3   0   2    0.13    0.03
   3   0   2    0.02    0.04
   4   0   2  904.55   31.42
   4   0   2 1000.00   30.80
   4   0   2  962.17   30.78
  -4   0  -2  896.18   30.52
   4   0   2  972.53   31.30
   5   0   2    0.03    0.06
   5   0   2    0.03    0.03
   5   0   2    0.02    0.03
   5   0   2    0.06    0.06
   6   0   2    7.28    0.26
   6   0   2    7.00    0.29
   6   0   2    7.53    0.25
   6   0   2    7.05    0.26
   6   0   2    7.15    0.29
   7   0   2   -0.01    0.03
   7   0   2    0.29    0.08
   7   0   2    0.06    0.09
   7   0   2    0.14    0.05
   8   0   2  105.76    3.52
   8   0   2  112.96    3.55
   8   0   2  111.23    3.56
   8   0   2  114.47    3.53
   8   0   2  108.28    3.57
   9   0   2    0.08    0.03
   9   0   2    0.17    0.07
   9   0   2    0.00    0.09
   9   0   2   -0.02    0.10
   9   0   2    0.13    0.03
 -10   0  -2   22.89    0.86
  10   0   2   23.36    0.82
  10   0   2   23.48    0.78
 -11   0  -2    0.06    0.11
 -11   0  -2    0.06    0.15
  11   0   2    0.03    0.11
 -12   0  -2   32.45    1.16
  12   0   2   31.61    1.11
  13   0   2    0.09    0.13
 -13   0  -2    0.24    0.19
  14   0   2    6.35    0.35
 -14   0  -2    6.59    0.44
 -15   0  -2   -0.11    0.21
  15   0   2    0.07    0.15
  16   0   2    0.26    0.18
 -16   0  -2    1.02    0.25
 -15  -1   2    0.41    0.22
  15   1  -2    0.14    0.16
 -15   1   2    0.25    0.24
 -14  -1   2    1.00    0.22
  14  -1  -2    1.09    0.18
  14  -1  -2    1.06    0.15
  14   1  -2    1.21    0.16
  13  -1  -2    2.79    0.24
 -13  -1   2    2.44    0.25
  13  -1  -2    2.58    0.22
  13   1  -2    2.61    0.23
  13   1  -2    2.62    0.21
  12  -1  -2    9.61    0.40
  12  -1  -2    9.36    0.42
 -12  -1   2    9.57    0.46
 -12   1   2   10.59    0.46
  12   1  -2    8.99    0.38
  12   1  -2   10.25    0.40
  12   1  -2    9.55    0.42
  11  -1  -2   31.95    1.09
  11  -1  -2   30.08    1.06
  11   1  -2   32.25    1.08
 -11   1   2   31.77    1.11
  11   1  -2   30.81    1.06
  11   1  -2   32.61    1.07
  10  -1  -2    6.64    0.30
  10  -1  -2    7.33    0.33
  10   1  -2    7.05    0.31
 -10   1   2    7.28    0.35
  10   1  -2    7.24    0.30
  10   1  -2    7.08    0.32
   9  -1  -2   50.39    1.63
   9  -1  -2   47.60    1.61
   9  -1  -2   50.64    1.57
   9  -1  -2   47.68    1.56
   9   1  -2   49.76    1.61
   9   1  -2   49.25    1.62
   9   1  -2   48.93    1.61
  -9   1   2   48.66    1.64
   8  -1  -2    3.26    0.14
   8  -1  -2    3.47    0.13
   8  -1  -2    3.34    0.19
   8  -1  -2    3.18    0.18
   8   1  -2    3.56    0.17
   8   1  -2    3.47    0.19
  -8   1   2    3.36    0.21
   8   1  -2    3.43    0.19
   7  -1  -2   38.45    1.32
   7  -1  -2   40.61    1.30
   7  -1  -2   41.49    1.34
   7  -1  -2   41.20    1.29
  -7   1   2   36.80    1.33
   7   1  -2   40.42    1.28
   7   1  -2   40.43    1.29
   7   1  -2   40.81    1.31
   7   1  -2   41.34    1.32
   7   1  -2   41.19    1.33
   6  -1  -2   56.96    1.86
   6  -1  -2   55.30    1.87
   6  -1  -2   61.46    1.86
   6  -1  -2   60.27    1.89
  -6  -1   2   61.42    1.88
   6   1  -2   57.03    1.88
   6   1  -2   58.02    1.88
   6   1  -2   57.66    1.85
  -6   1   2   50.72    1.88
   6   1  -2   60.56    1.85
  -5  -1   2   40.01    1.22
   5  -1  -2   35.76    1.23
   5  -1  -2   38.06    1.23
   5  -1  -2   36.26    1.21
   5  -1  -2   39.18    1.21
   5   1  -2   38.25    1.23
   5   1  -2   36.54    1.23
   5   1  -2   38.60    1.20
   5   1  -2   39.08    1.21
  -5   1   2   33.86    1.22
  -4  -1   2   70.25    2.10
   4  -1  -2   66.46    2.10
   4  -1  -2   64.56    2.11
   4  -1  -2   63.54    2.11
   4  -1  -2   63.02    2.11
   4   1  -2   63.55    2.11
   4   1  -2   67.14    2.11
   4   1  -2   65.48    2.11
  -4   1   2   63.42    2.10
   4   1  -2   68.20    2.10
   3  -1  -2  695.38   22.72
   3  -1  -2  631.05   22.80
  -3  -1   2  645.01   22.53
   3  -1  -2  749.68   22.67
   3   1  -2  636.90   22.80
  -3   1   2  699.77   22.33
  -3   1   2  738.99   23.30
   3   1  -2  729.13   23.11
   3   1  -2  664.33   22.62
   3   1  -2  743.29   22.70
  -2  -1   2  498.10   15.10
   2  -1  -2  458.67   15.38
   2  -1  -2  452.51   15.38
   2   1  -2  468.15   15.52
   2   1  -2  486.45   15.39
   2   1  -2  432.05   15.40
  -2   1   2  461.80   14.82
   2   1  -2  444.41   15.28
   1  -1  -2   47.49    1.62
  -1  -1   2   47.10    1.55
  -1  -1   2   47.95    1.54
   1  -1  -2   48.35    1.55
  -1   1   2   50.81    1.56
   1   1  -2   47.09    1.57
   1   1  -2   44.16    1.56
   1   1  -2   48.39    1.56
  -1   1   2   52.04    1.55
  -1   1   2   49.42    1.55
   0  -1   2   11.33    0.39
   0  -1   2   10.89    0.39
   0  -1  -2   11.24    0.39
   0   1   2   12.36    0.38
   0   1  -2   11.09    0.39
   0   1   2   11.44    0.39
   0   1  -2   12.14    0.39
   0   1   2   11.70    0.38
  -1  -1  -2   72.77    2.37
   1  -1   2   77.56    2.36
  -1  -1  -2   72.12    2.38
   1  -1   2   70.31    2.39
   1   1   2   74.85    2.39
   1   1   2   74.00    2.37
  -1   1  -2   77.89    2.40
   1   1   2   73.58    2.67
  -1   1  -2   71.82    2.39
   2  -1   2    6.89    0.25
   2  -1   2    7.24    0.23
  -2  -1  -2    6.89    0.25
   2  -1   2    7.02    0.25
  -2   1  -2    7.16    0.25
   2   1   2    6.67    0.24
   2   1   2    6.83    0.24
  -2   1  -2    6.52    0.24
  -3  -1  -2  102.78    3.20
   3  -1   2   93.78    3.19
   3  -1   2  104.06    3.16
   3  -1   2  102.89    3.21
   3  -1   2   98.96    3.19
   3   1   2   99.26    3.21
   3   1   2   96.04    3.20
  -3   1  -2  100.07    3.19
   3   1   2  102.25    3.19
   3   1   2   92.38    3.17
   4  -1   2    0.65    0.06
   4  -1   2    0.72    0.05
   4  -1   2    0.53    0.07
  -4  -1  -2    0.51    0.06
   4  -1   2    0.46    0.05
  -4   1  -2    0.46    0.07
   4   1   2    0.64    0.06
   4   1   2    0.56    0.06
   4   1   2    0.60    0.07
   4   1   2    0.56    0.05
  -5  -1  -2   72.07    2.31
   5  -1   2   76.45    2.33
   5  -1   2   67.67    2.29
   5  -1   2   70.24    2.30
   5  -1   2   75.59    2.32
   5   1   2   72.00    2.32
   5   1   2   72.90    2.31
   5   1   2   72.56    2.31
   5   1   2   71.08    2.30
  -5   1  -2   67.16    2.33
   6  -1   2   35.13    1.17
   6  -1   2   39.28    1.18
  -6  -1  -2   35.36    1.19
   6  -1   2   34.59    1.17
   6  -1   2   37.71    1.21
   6   1   2   36.73    1.17
   6   1   2   37.73    1.20
   6   1   2   36.42    1.17
  -6   1  -2   32.72    1.22
   6   1   2   37.72    1.20
   7  -1   2    8.16    0.33
  -7  -1  -2    8.53    0.32
   7  -1   2    7.80    0.29
   7  -1   2    8.95    0.29
   7  -1   2    7.52    0.29
   7   1   2    8.30    0.28
   7   1   2    8.55    0.32
   7   1   2    8.22    0.33
  -7   1  -2    8.28    0.36
   7   1   2    7.73    0.28
  -8  -1  -2    3.89    0.21
   8  -1   2    3.83    0.17
   8  -1   2    3.57    0.16
   8  -1   2    3.90    0.16
   8  -1   2    3.81    0.21
   8   1   2    3.96    0.15
  -8   1  -2    4.03    0.27
   8   1   2    3.88    0.22
   8   1   2    4.11    0.20
   8   1   2    3.85    0.15
   9  -1   2    0.16    0.05
   9  -1   2    0.34    0.12
   9  -1   2    0.34    0.07
  -9  -1  -2    0.25    0.10
   9  -1   2    0.30    0.05
   9   1   2    0.34    0.11
   9   1   2    0.29    0.04
   9   1   2    0.28    0.04
   9   1   2    0.30    0.09
  -9   1  -2    0.27    0.14
 -10  -1  -2   84.45    2.74
  10  -1   2   83.08    2.70
  10  -1   2   88.68    2.69
  10  -1   2   84.50    2.75
  10  -1   2   84.98    2.69
  10   1   2   81.27    2.74
 -10   1  -2   83.34    2.78
  10   1   2   83.37    2.73
  11  -1   2  126.66    4.10
  11  -1   2  126.33    4.09
  11  -1   2  127.74    4.04
 -11  -1  -2  130.66    4.08
  11   1   2  123.44    4.07
 -11   1  -2  126.81    4.12
  11   1   2  123.63    4.09
 -12  -1  -2    2.14    0.19
  12  -1   2    1.81    0.19
 -12   1  -2    2.12    0.24
  12   1   2    1.98    0.19
  12   1   2    1.81    0.16
  13  -1   2   37.29    1.32
 -13   1  -2   39.72    1.37
  13   1   2   37.18    1.29
  13   1   2   38.36    1.32
  14  -1   2   34.64    1.24
 -14   1  -2   37.29    1.28
  14   1   2   35.42    1.24
  14   1   2   33.70    1.21
  15  -1   2   14.77    0.63
 -15  -1  -2   14.93    0.68
 -15   1  -2   14.99    0.69
 -15  -2   2    0.44    0.25
  15   2  -2    0.38    0.16
 -15   2   2    0.60    0.28
  14  -2  -2    0.93    0.17
 -14  -2   2    1.04    0.25
  14   2  -2    0.65    0.16
 -14   2   2    0.88    0.27
  13  -2  -2   81.06    2.70
 -13  -2   2   80.98    2.73
  13  -2  -2   81.69    2.66
  13   2  -2   83.99    2.68
  12  -2  -2    3.89    0.15
  12  -2  -2    4.24    0.29
 -12  -2   2    4.61    0.37
  12  -2  -2    4.14    0.25
  12  -2  -2    4.15    0.16
  12   2  -2    4.16    0.27
  11  -2  -2   26.31    0.93
  11  -2  -2   28.59    0.93
  11  -2  -2   29.33    1.01
  11  -2  -2   28.64    0.97
 -11  -2   2   29.63    1.05
  11   2  -2   29.80    0.99
  10  -2  -2   21.32    0.73
  10  -2  -2   22.58    0.81
 -10  -2   2   21.96    0.83
  10  -2  -2   22.41    0.77
 -10  -2   2   21.32    0.78
  10  -2  -2   22.93    0.74
  10   2  -2   21.88    0.71
 -10   2   2   21.58    0.80
  10   2  -2   23.16    0.79
  10   2  -2   23.42    0.71
   9  -2  -2  113.93    3.59
  -9  -2   2  111.44    3.65
   9  -2  -2  109.83    3.58
   9  -2  -2  110.32    3.60
   9  -2  -2  116.22    3.63
  -9  -2   2  110.54    3.60
   9   2  -2  108.04    3.57
   9   2  -2  112.43    3.61
   9   2  -2  117.89    3.57
  -9   2   2  109.25    3.61
  -8  -2   2   30.71    1.02
  -8  -2   2   30.89    1.08
   8  -2  -2   31.54    1.00
   8  -2  -2   29.87    1.04
   8  -2  -2   29.81    1.00
   8  -2  -2   30.36    1.02
  -8   2   2   30.67    1.03
   8   2  -2   31.51    1.00
   8   2  -2   31.01    1.03
   8   2  -2   29.58    0.99
   7  -2  -2   17.88    0.60
  -7  -2   2   18.34    0.67
  -7  -2   2   18.10    0.61
   7  -2  -2   17.63    0.60
   7  -2  -2   17.41    0.62
   7  -2  -2   18.05    0.64
  -7   2   2   18.47    0.62
   7   2  -2   17.31    0.59
   7   2  -2   18.12    0.60
   7   2  -2   17.40    0.63
   6  -2  -2   35.94    1.20
  -6  -2   2   36.52    1.17
   6  -2  -2   37.09    1.17
   6  -2  -2   35.53    1.17
   6  -2  -2   34.49    1.18
  -6  -2   2   35.05    1.22
  -6   2   2   36.42    1.17
   6   2  -2   36.66    1.17
   6   2  -2   35.05    1.19
   6   2  -2   35.99    1.16
   5  -2  -2   39.32    1.23
   5  -2  -2   37.47    1.23
  -5  -2   2   36.30    1.27
  -5  -2   2   37.74    1.22
   5  -2  -2   38.82    1.25
   5  -2  -2   36.20    1.24
  -5   2   2   38.84    1.23
   5   2  -2   37.48    1.24
   5   2  -2   37.39    1.23
   5   2  -2   38.59    1.23
   4  -2  -2    1.16    0.09
  -4  -2   2    1.13    0.06
   4  -2  -2    1.17    0.10
   4  -2  -2    1.07    0.09
  -4  -2   2    1.27    0.12
   4  -2  -2    1.14    0.11
   4   2  -2    1.02    0.08
   4   2  -2    1.32    0.09
  -4   2   2    1.20    0.08
   4   2  -2    1.11    0.10
  -3  -2   2   16.05    0.54
   3  -2  -2   17.66    0.57
  -3  -2   2   16.27    0.59
   3  -2  -2   16.42    0.57
  -3   2   2   16.89    0.58
   3   2  -2   16.80    0.56
  -3   2   2   17.43    0.55
   3   2  -2   15.80    0.56
   3   2  -2   17.04    0.57
  -3   2   2   16.98    0.57
  -2  -2   2   36.22    1.24
  -2  -2   2   36.72    1.28
   2  -2  -2   37.98    1.26
   2  -2  -2   38.47    1.26
  -2  -2   2   39.36    1.27
  -2   2   2   39.40    1.27
   2   2  -2   41.33    1.27
   2   2  -2   38.44    1.26
  -2   2   2   40.53    1.25
  -2   2   2   39.71    1.27
  -1  -2   2    7.44    0.26
  -1  -2   2    7.63    0.30
   1  -2  -2    7.94    0.29
  -1  -2   2    7.78    0.29
   1  -2  -2    7.44    0.29
  -1   2   2    8.24    0.27
  -1   2   2    8.11    0.28
   1   2  -2    7.64    0.28
  -1   2   2    8.12    0.29
   1   2  -2    7.75    0.29
   0  -2   2   26.91    0.89
   0  -2   2   26.64    0.89
   0  -2  -2   26.75    0.89
   0  -2   2   26.26    0.88
   0  -2  -2   26.07    0.89
   0   2   2   28.34    0.88
   0   2   2   27.55    0.88
   0   2  -2   27.24    0.89
   0   2  -2   27.28    0.89
   1  -2   2   74.66    2.50
  -1  -2  -2   76.84    2.48
  -1  -2  -2   76.67    2.48
   1  -2   2   75.39    2.48
   1  -2   2   77.54    2.47
   1   2   2   78.13    2.49
  -1   2  -2   80.91    2.49
   1   2   2   78.92    2.48
   1   2   2   76.00    2.48
   2  -2   2   67.03    2.23
   2  -2   2   69.96    2.20
  -2  -2  -2   68.29    2.21
  -2  -2  -2   66.95    2.22
   2  -2   2   69.07    2.23
  -2   2  -2   71.64    2.22
   2   2   2   68.40    2.21
  -2   2  -2   69.67    2.22
   2   2   2   68.64    2.20
   2   2   2   68.59    2.21
   3  -2   2  328.67   10.22
   3  -2   2  321.00   10.55
  -3  -2  -2  318.40   10.23
   3  -2   2  306.02   11.04
  -3   2  -2  315.68   11.29
   3   2   2  321.92   10.69
   3   2   2  321.28   10.20
   3   2   2  316.73   10.98
  -3   2  -2  316.09   10.20
   4  -2   2    2.32    0.13
   4  -2   2    2.41    0.11
   4  -2   2    2.74    0.15
  -4  -2  -2    2.43    0.16
   4   2   2    2.45    0.12
   4   2   2    2.69    0.13
   4   2   2    2.54    0.15
   4   2   2    2.44    0.12
  -4   2  -2    2.39    0.15
   5  -2   2  146.09    4.61
   5  -2   2  144.92    4.57
   5  -2   2  146.63    4.55
  -5  -2  -2  137.50    4.57
   5  -2   2  145.82    4.57
   5   2   2  137.14    4.57
   5   2   2  132.67    4.55
   5   2   2  145.23    4.57
  -5   2  -2  143.58    4.60
   6  -2   2   16.00    0.56
   6  -2   2   15.79    0.55
   6  -2   2   16.44    0.59
  -6  -2  -2   16.43    0.59
   6  -2   2   16.31    0.54
  -6   2  -2   16.30    0.60
   6   2   2   15.85    0.58
   6   2   2   16.28    0.55
   6   2   2   16.02    0.55
   6   2   2   17.07    0.55
  -7  -2  -2  179.37    5.98
   7  -2   2  190.16    6.02
   7  -2   2  187.07    5.94
   7  -2   2  179.33    5.97
   7  -2   2  190.73    5.97
   7   2   2  184.29    6.03
  -7   2  -2  185.93    5.97
   7   2   2  187.75    5.97
   7   2   2  192.44    5.98
   7   2   2  183.67    5.96
   8  -2   2    4.57    0.20
   8  -2   2    4.58    0.19
   8  -2   2    5.20    0.26
   8  -2   2    4.80    0.21
  -8  -2  -2    4.33    0.26
   8   2   2    4.93    0.19
   8   2   2    4.63    0.21
   8   2   2    4.58    0.19
   8   2   2    4.72    0.25
  -8   2  -2    4.45    0.30
   9  -2   2    0.61    0.08
   9  -2   2    0.68    0.13
   9  -2   2    0.56    0.07
   9  -2   2    0.56    0.08
  -9  -2  -2    0.66    0.13
   9   2   2    0.49    0.07
   9   2   2    0.55    0.13
   9   2   2    0.77    0.10
   9   2   2    0.59    0.06
  -9   2  -2    0.97    0.18
 -10  -2  -2   58.76    1.92
  10  -2   2   58.94    1.86
  10  -2   2   58.83    1.92
  10   2   2   57.21    1.88
 -10   2  -2   52.62    1.95
  10   2   2   57.90    1.91
  10   2   2   57.78    1.85
  10   2   2   58.76    1.85
  11  -2   2    6.06    0.24
 -11  -2  -2    6.17    0.35
  11  -2   2    6.07    0.34
  11   2   2    6.00    0.33
 -11   2  -2    5.78    0.41
  11   2   2    6.12    0.21
  11   2   2    5.94    0.27
  11   2   2    5.85    0.21
  12  -2   2    0.38    0.17
  12  -2   2    0.31    0.07
 -12  -2  -2    0.44    0.17
  12   2   2    0.60    0.16
 -12   2  -2    0.38    0.22
 -13  -2  -2   29.91    1.04
  13  -2   2   26.65    0.92
  13  -2   2   28.72    1.04
  13   2   2   28.23    1.02
 -13   2  -2   30.04    1.09
  14  -2   2    2.07    0.24
  14   2   2    1.80    0.22
 -14   2  -2    2.65    0.31
  15  -2   2    5.16    0.38
  15   2   2    5.10    0.36
 -14  -3   2   29.61    1.11
  14  -3  -2   29.19    0.91
  14   3  -2   28.58    1.00
 -14   3   2   24.73    1.10
  13  -3  -2    8.35    0.43
  13  -3  -2    8.47    0.32
 -13  -3   2    9.57    0.52
  13   3  -2    8.32    0.40
 -13   3   2    6.91    0.54
 -12  -3   2    0.62    0.24
  12  -3  -2    1.04    0.10
  12  -3  -2    0.97    0.14
  12  -3  -2    0.95    0.18
  12   3  -2    0.90    0.07
  12   3  -2    0.89    0.07
  12   3  -2    0.81    0.16
  11  -3  -2    0.73    0.10
  11  -3  -2    0.75    0.13
  11  -3  -2    0.75    0.16
 -11  -3   2    0.65    0.22
  11   3  -2    0.82    0.07
  11   3  -2    0.82    0.15
  10  -3  -2    3.18    0.18
 -10  -3   2    3.35    0.29
  10  -3  -2    3.43    0.22
  10  -3  -2    2.99    0.24
  10   3  -2    3.23    0.23
  10   3  -2    3.18    0.16
  -9  -3   2    8.48    0.45
   9  -3  -2    8.88    0.34
   9  -3  -2    8.50    0.36
   9  -3  -2    9.40    0.40
   9   3  -2    9.06    0.38
   9   3  -2    8.97    0.33
   8  -3  -2   41.70    1.41
   8  -3  -2   44.12    1.44
  -8  -3   2   44.11    1.48
   8  -3  -2   43.51    1.40
   8   3  -2   41.35    1.39
  -8   3   2   42.21    1.41
   8   3  -2   42.20    1.43
   7  -3  -2   19.65    0.70
   7  -3  -2   20.29    0.72
   7  -3  -2   20.52    0.69
  -7  -3   2   20.28    0.76
   7   3  -2   19.59    0.68
  -7   3   2   21.11    0.69
   7   3  -2   19.98    0.71
   6  -3  -2  178.07    5.64
   6  -3  -2  171.93    5.62
   6  -3  -2  179.90    5.69
  -6  -3   2  169.44    5.63
   6   3  -2  178.70    5.62
   6   3  -2  168.14    5.66
  -6   3   2  181.31    5.60
   6   3  -2  172.36    5.62
  -5  -3   2   29.80    1.09
   5  -3  -2   32.32    1.06
   5  -3  -2   32.19    1.05
   5  -3  -2   30.46    1.05
   5  -3  -2   32.82    1.05
   5   3  -2   31.41    1.04
   5   3  -2   30.80    1.04
  -5   3   2   31.74    1.03
  -5   3   2   32.46    1.08
   5   3  -2   30.28    1.06
   4  -3  -2   45.00    1.47
  -4  -3   2   41.98    1.50
   4  -3  -2   46.40    1.47
  -4   3   2   44.32    1.48
   4   3  -2   44.68    1.47
  -4   3   2   45.46    1.45
   4   3  -2   44.87    1.46
   4   3  -2   45.27    1.46
  -4   3   2   44.66    1.47
  -3  -3   2   63.01    2.06
   3  -3  -2   63.65    2.06
  -3  -3   2   60.95    2.09
   3  -3  -2   63.35    2.06
   3   3  -2   64.52    2.06
  -3   3   2   64.66    2.07
   3   3  -2   63.00    2.06
  -3   3   2   65.47    2.04
  -3   3   2   62.42    2.06
   2  -3  -2   98.68    3.22
  -2  -3   2   98.77    3.23
  -2  -3   2   92.73    3.24
  -2  -3   2  101.15    3.23
   2  -3  -2  100.89    3.24
   2   3  -2  100.26    3.25
   2   3  -2  100.87    3.24
  -2   3   2  101.80    3.24
  -2   3   2  102.88    3.24
  -2   3   2  104.64    3.23
  -1  -3   2   36.08    1.23
  -1  -3   2   36.19    1.19
  -1  -3   2   35.45    1.23
   1  -3  -2   35.78    1.23
   1   3  -2   36.38    1.22
  -1   3   2   41.82    1.22
  -1   3   2   38.03    1.21
   1   3  -2   36.81    1.23
   0  -3  -2  300.10    9.14
   0  -3   2  285.64    9.12
   0  -3   2  267.64    9.56
   0  -3  -2  280.13    9.10
   0  -3   2  277.65    9.13
   0   3   2  289.47    9.09
   0   3  -2  266.70    9.70
   0   3   2  303.76    9.16
   0   3   2  283.21    9.89
   0   3  -2  284.01    9.13
   1  -3   2    2.29    0.15
   1  -3   2    2.08    0.12
   1  -3   2    2.30    0.15
  -1  -3  -2    2.02    0.14
  -1  -3  -2    1.84    0.16
   1   3   2    1.95    0.11
  -1   3  -2    2.11    0.14
   1   3   2    1.94    0.14
  -1   3  -2    2.27    0.14
   1   3   2    2.04    0.13
   2  -3   2   20.03    0.70
  -2  -3  -2   20.30    0.70
   2  -3   2   20.92    0.70
   2  -3   2   20.81    0.71
  -2  -3  -2   20.26    0.72
   2   3   2   20.22    0.70
  -2   3  -2   20.75    0.71
  -2   3  -2   20.92    0.71
   2   3   2   20.99    0.68
   2   3   2   21.06    0.70
   3  -3   2   31.12    1.00
   3  -3   2   29.43    1.01
  -3  -3  -2   30.56    1.04
   3  -3   2   29.93    1.02
  -3  -3  -2   30.90    1.01
   3   3   2   30.91    1.02
  -3   3  -2   31.10    1.02
   3   3   2   30.78    1.01
   3   3   2   30.52    0.98
  -3   3  -2   28.98    1.02
   4  -3   2   15.69    0.56
  -4  -3  -2   15.52    0.58
   4  -3   2   16.38    0.54
   4  -3   2   15.82    0.56
   4   3   2   16.41    0.53
   4   3   2   16.29    0.57
  -4   3  -2   15.07    0.56
   4   3   2   15.64    0.55
  -4   3  -2   15.67    0.57
   5  -3   2    2.94    0.15
   5  -3   2    2.41    0.18
  -5  -3  -2    2.69    0.20
   5  -3   2    2.48    0.17
   5   3   2    2.91    0.19
  -5   3  -2    2.43    0.16
   5   3   2    2.50    0.14
   5   3   2    2.47    0.13
  -5   3  -2    2.54    0.18
   5   3   2    2.82    0.16
   6  -3   2    6.51    0.29
   6  -3   2    6.00    0.26
   6  -3   2    5.90    0.24
  -6  -3  -2    5.65    0.30
   6   3   2    6.22    0.25
   6   3   2    5.85    0.23
   6   3   2    6.03    0.28
  -6   3  -2    6.00    0.29
   7  -3   2   11.77    0.43
  -7  -3  -2   11.18    0.49
   7  -3   2   11.99    0.47
   7  -3   2   12.34    0.45
  -7   3  -2   12.04    0.49
   7   3   2   12.27    0.44
   7   3   2   12.60    0.42
   7   3   2   12.30    0.47
  -8  -3  -2   67.92    2.32
   8  -3   2   72.05    2.28
   8  -3   2   71.11    2.26
   8  -3   2   70.70    2.31
   8   3   2   70.58    2.31
   8   3   2   68.71    2.27
  -8   3  -2   71.01    2.33
   9  -3   2   27.10    0.94
  -9  -3  -2   25.26    0.95
   9  -3   2   26.44    0.90
  -9   3  -2   26.45    0.97
   9   3   2   26.16    0.93
   9   3   2   26.46    0.88
  10  -3   2   39.18    1.28
  10  -3   2   39.02    1.33
 -10  -3  -2   38.09    1.34
  10   3   2   37.64    1.32
  10   3   2   38.36    1.26
 -10   3  -2   39.28    1.37
  11  -3   2    9.94    0.39
  11  -3   2   10.19    0.47
 -11  -3  -2   10.38    0.49
 -11   3  -2   10.47    0.53
  11   3   2   10.01    0.37
  11   3   2    9.93    0.46
 -12  -3  -2   14.57    0.63
  12  -3   2   13.86    0.61
  12  -3   2   15.49    0.52
  12   3   2   13.65    0.48
 -12   3  -2   13.44    0.66
  12   3   2   13.71    0.58
  13  -3   2    1.33    0.21
 -13  -3  -2    1.53    0.26
  13  -3   2    1.67    0.13
  13   3   2    2.22    0.22
  13   3   2    1.41    0.07
 -13   3  -2    1.44    0.28
  14  -3   2   44.08    1.43
  14  -3   2   44.83    1.55
  14   3   2   43.50    1.52
  13  -4  -2   11.58    0.44
 -13  -4   2   12.81    0.67
 -13   4   2   10.48    0.63
  13   4  -2   11.14    0.51
  13   4  -2   11.04    0.39
 -12  -4   2    8.36    0.54
  12  -4  -2    7.83    0.34
  12   4  -2    7.91    0.30
  12   4  -2    7.96    0.40
 -12   4   2    7.39    0.53
  11  -4  -2    6.08    0.29
  11  -4  -2    6.41    0.31
 -11  -4   2    5.84    0.49
 -11   4   2    5.51    0.43
  11   4  -2    5.71    0.25
  11   4  -2    5.84    0.33
  10  -4  -2   33.70    1.13
 -10  -4   2   31.72    1.19
  10  -4  -2   31.82    1.08
  10  -4  -2   32.58    1.08
  10   4  -2   30.68    1.06
 -10   4   2   31.14    1.19
  10   4  -2   31.58    1.11
   9  -4  -2    1.15    0.13
   9  -4  -2    1.11    0.17
   9  -4  -2    1.32    0.15
  -9  -4   2    0.76    0.23
   9   4  -2    1.26    0.11
   9   4  -2    1.23    0.16
  -9   4   2    1.00    0.22
   8  -4  -2    1.38    0.14
   8  -4  -2    1.22    0.14
  -8  -4   2    1.28    0.23
   8  -4  -2    1.36    0.17
   8   4  -2    1.22    0.16
  -8   4   2    1.20    0.23
   8   4  -2    1.41    0.12
   7  -4  -2  116.62    3.81
  -7  -4   2  117.90    3.89
   7  -4  -2  120.77    3.82
  -7   4   2  123.81    3.87
   7   4  -2  118.97    3.81
  -7   4   2  116.48    3.81
   7   4  -2  115.79    3.83
  -6  -4   2   16.62    0.70
   6  -4  -2   16.16    0.61
   6  -4  -2   17.57    0.62
   6   4  -2   16.75    0.61
  -6   4   2   17.97    0.60
  -6   4   2   17.91    0.67
   6   4  -2   17.25    0.63
  -5  -4   2    0.32    0.16
   5  -4  -2    0.21    0.10
   5  -4  -2    0.27    0.10
  -5   4   2    0.24    0.13
   5   4  -2    0.16    0.08
   5   4  -2    0.14    0.11
  -5   4   2    0.36    0.09
   4  -4  -2    0.21    0.11
  -4  -4   2    0.56    0.15
   4  -4  -2    0.49    0.10
   4   4  -2    0.39    0.09
  -4   4   2    0.34    0.08
  -4   4   2    0.45    0.12
   4   4  -2    0.38    0.10
  -3  -4   2    0.55    0.14
   3  -4  -2    0.13    0.10
   3  -4  -2    0.03    0.08
  -3   4   2    0.10    0.10
  -3   4   2    0.08    0.09
   3   4  -2    0.12    0.09
   3   4  -2    0.06    0.09
  -3   4   2    0.21    0.08
   2  -4  -2    0.11    0.10
  -2  -4   2    0.00    0.08
   2  -4  -2   -0.03    0.08
  -2  -4   2    0.04    0.11
  -2   4   2    0.01    0.09
  -2   4   2    0.10    0.07
  -2   4   2    0.07    0.08
   2   4  -2    0.04    0.08
   2   4  -2    0.02    0.08
   2   4  -2    0.20    0.04
  -1  -4   2   36.71    1.21
   1  -4  -2   37.75    1.26
   1  -4  -2   37.44    1.26
  -1  -4   2   36.54    1.26
  -1  -4   2   36.25    1.26
   1   4  -2   37.69    1.26
  -1   4   2   37.34    1.23
  -1   4   2   38.63    1.24
   1   4  -2   37.91    1.25
  -1   4   2   37.80    1.26
   0  -4   2   21.69    0.73
   0  -4  -2   21.55    0.76
   0  -4  -2   21.74    0.78
   0  -4   2   22.17    0.77
   0  -4   2   21.16    0.77
   0   4   2   22.76    0.74
   0   4  -2   21.64    0.77
   0   4   2   21.84    0.75
   0   4  -2   22.04    0.76
   0   4   2   21.50    0.77
   1  -4   2  160.91    5.25
   1  -4   2  161.94    5.22
   1  -4   2  158.09    5.24
  -1  -4  -2  160.88    5.24
  -1  -4  -2  163.22    5.23
   1   4   2  166.83    5.23
   1   4   2  162.04    5.23
  -1   4  -2  168.51    5.25
  -1   4  -2  163.54    5.94
   1   4   2  165.09    5.27
   2  -4   2    0.05    0.07
   2  -4   2    0.27    0.10
  -2  -4  -2    0.19    0.12
  -2  -4  -2    0.13    0.09
   2  -4   2    0.03    0.08
  -2   4  -2    0.12    0.08
   2   4   2    0.22    0.06
   2   4   2    0.24    0.09
   2   4   2    0.10    0.09
   3  -4   2    1.05    0.12
   3  -4   2    0.88    0.11
  -3  -4  -2    1.22    0.16
  -3  -4  -2    1.53    0.15
   3  -4   2    1.27    0.12
   3   4   2    1.63    0.15
   3   4   2    1.48    0.10
   3   4   2    0.74    0.11
  -3   4  -2    1.17    0.13
   4  -4   2  102.46    3.26
   4  -4   2   99.47    3.28
  -4  -4  -2  103.30    3.30
   4  -4   2   99.69    3.28
   4   4   2   98.59    3.27
   4   4   2  102.19    3.28
  -4   4  -2  104.09    3.28
  -5  -4  -2    5.08    0.29
   5  -4   2    4.22    0.24
   5  -4   2    4.04    0.21
   5  -4   2    4.14    0.24
  -5   4  -2    4.14    0.25
   5   4   2    4.13    0.25
   5   4   2    4.05    0.22
   6  -4   2    0.92    0.14
   6  -4   2    0.80    0.10
   6  -4   2    0.69    0.12
  -6  -4  -2    0.96    0.17
   6   4   2    0.77    0.11
  -6   4  -2    0.82    0.14
   6   4   2    0.85    0.14
   7  -4   2   87.48    2.81
   7  -4   2   85.72    2.82
   7  -4   2   87.55    2.78
  -7  -4  -2   85.91    2.84
  -7   4  -2   86.29    2.82
   7   4   2   84.14    2.79
   7   4   2   87.21    2.82
  -8  -4  -2   20.75    0.83
   8  -4   2   22.14    0.81
   8  -4   2   21.87    0.78
   8  -4   2   21.81    0.75
   8   4   2   21.35    0.79
  -8   4  -2   22.32    0.81
   8   4   2   22.73    0.76
  -9  -4  -2   44.63    1.58
   9  -4   2   46.58    1.57
   9  -4   2   47.99    1.54
   9   4   2   44.81    1.52
  -9   4  -2   46.66    1.58
   9   4   2   45.44    1.56
  10  -4   2    2.65    0.22
 -10  -4  -2    2.66    0.27
  10  -4   2    2.45    0.25
  10   4   2    2.17    0.18
 -10   4  -2    2.48    0.24
  10   4   2    2.36    0.22
  11  -4   2   14.90    0.63
 -11  -4  -2   15.13    0.66
  11  -4   2   16.20    0.57
  11   4   2   14.78    0.54
  11   4   2   14.57    0.61
 -11   4  -2   14.29    0.65
 -12  -4  -2    1.80    0.28
  12  -4   2    2.13    0.25
  12  -4   2    1.49    0.16
  12   4   2    1.51    0.15
  12   4   2    1.49    0.20
  13  -4   2    0.82    0.22
 -13  -4  -2    0.36    0.25
  13  -4   2    0.78    0.13
  13   4   2    0.51    0.18
  13   4   2    0.49    0.09
  12  -5  -2    3.39    0.27
 -12  -5   2    4.82    0.44
 -12   5   2    3.71    0.38
  12   5  -2    3.34    0.21
  12   5  -2    3.80    0.32
  11  -5  -2    3.76    0.27
 -11  -5   2    4.53    0.42
  11   5  -2    3.65    0.23
 -11   5   2    3.51    0.37
  11   5  -2    3.80    0.31
 -10  -5   2    0.12    0.27
  10  -5  -2    0.04    0.13
  10  -5  -2    0.21    0.14
  10   5  -2    0.07    0.16
  10   5  -2    0.09    0.10
 -10   5   2    0.16    0.22
   9  -5  -2   33.19    1.15
   9  -5  -2   34.83    1.17
  -9  -5   2   34.76    1.28
  -9   5   2   32.95    1.24
   9   5  -2   32.69    1.18
   9   5  -2   34.62    1.14
   8  -5  -2   47.31    1.58
   8  -5  -2   46.72    1.57
  -8  -5   2   48.60    1.68
  -8   5   2   46.81    1.64
   8   5  -2   46.87    1.59
   8   5  -2   46.20    1.56
  -7  -5   2   11.47    0.60
   7  -5  -2   10.97    0.46
   7  -5  -2   11.36    0.47
   7   5  -2   11.05    0.44
   7   5  -2   11.73    0.49
  -7   5   2   11.35    0.53
   6  -5  -2   21.88    0.78
   6  -5  -2   21.89    0.80
  -6  -5   2   22.02    0.88
   6   5  -2   22.42    0.78
   6   5  -2   21.25    0.80
  -6   5   2   22.94    0.83
   5  -5  -2   23.29    0.83
   5  -5  -2   22.79    0.83
  -5  -5   2   23.46    0.91
  -5   5   2   23.93    0.85
   5   5  -2   23.66    0.84
  -5   5   2   23.35    0.81
   5   5  -2   22.75    0.82
   4  -5  -2    0.44    0.12
   4  -5  -2    0.55    0.14
  -4  -5   2    0.42    0.19
   4   5  -2    0.26    0.11
  -4   5   2    0.50    0.11
   4   5  -2    0.41    0.14
  -4   5   2    0.44    0.13
  -3  -5   2   49.63    1.77
   3  -5  -2   52.83    1.73
   3  -5  -2   53.40    1.74
  -3   5   2   52.22    1.71
   3   5  -2   50.91    1.73
  -3   5   2   52.80    1.73
   3   5  -2   52.24    1.73
  -2  -5   2    2.37    0.23
   2  -5  -2    2.30    0.22
   2  -5  -2    2.32    0.21
  -2   5   2    2.29    0.20
   2   5  -2    2.55    0.22
  -2   5   2    2.17    0.19
   2   5  -2    2.78    0.22
   1  -5  -2   46.49    1.55
   1  -5  -2   45.82    1.54
  -1  -5   2   45.69    1.56
  -1   5   2   43.76    1.52
  -1   5   2   47.30    1.52
  -1   5   2   45.11    1.55
   1   5  -2   45.85    1.54
   1   5  -2   47.17    1.55
   0  -5   2   59.18    2.03
   0  -5  -2   61.58    2.04
   0  -5  -2   62.46    2.03
   0  -5   2   60.40    2.03
   0   5   2   64.41    1.99
   0   5   2   59.94    2.01
   0   5   2   62.86    2.03
   0   5  -2   59.54    2.02
   1  -5   2   66.03    2.17
  -1  -5  -2   66.13    2.19
   1  -5   2   64.59    2.18
   1  -5   2   63.14    2.13
   1   5   2   67.19    2.17
   1   5   2   66.30    2.15
  -1   5  -2   66.28    2.17
  -1   5  -2   66.76    2.17
   2  -5   2   44.85    1.54
  -2  -5  -2   45.60    1.56
   2  -5   2   44.57    1.51
   2  -5   2   45.59    1.52
   2   5   2   46.40    1.53
  -2   5  -2   44.69    1.54
   2   5   2   46.37    1.52
  -2   5  -2   46.86    1.53
   3  -5   2   29.65    1.04
   3  -5   2   29.67    1.06
  -3  -5  -2   30.75    1.09
   3  -5   2   29.81    1.03
   3   5   2   30.87    1.05
   3   5   2   30.61    1.05
  -3   5  -2   30.99    1.06
   4  -5   2    0.89    0.13
  -4  -5  -2    0.83    0.19
   4  -5   2    0.58    0.13
   4  -5   2    0.41    0.13
   4   5   2    0.67    0.14
  -4   5  -2    0.56    0.13
   4   5   2    0.52    0.12
   5  -5   2    1.89    0.18
   5  -5   2    1.93    0.18
  -5  -5  -2    1.73    0.22
   5  -5   2    2.18    0.19
   5   5   2    2.66    0.24
  -5   5  -2    1.83    0.19
   5   5   2    2.01    0.17
   6  -5   2   22.98    0.79
   6  -5   2   22.74    0.82
  -6  -5  -2   22.55    0.87
   6  -5   2   22.44    0.82
   6   5   2   22.65    0.83
   6   5   2   21.76    0.80
  -6   5  -2   23.43    0.83
   7  -5   2   41.67    1.40
  -7  -5  -2   42.17    1.45
   7  -5   2   40.88    1.36
   7  -5   2   40.64    1.41
   7   5   2   40.65    1.38
   7   5   2   40.43    1.41
  -7   5  -2   41.52    1.41
   8  -5   2   55.07    1.83
   8  -5   2   56.07    1.81
  -8  -5  -2   53.47    1.86
  -8   5  -2   54.66    1.83
   8   5   2   53.03    1.82
   8   5   2   51.99    1.78
   9  -5   2   17.44    0.65
   9  -5   2   16.65    0.68
  -9  -5  -2   17.83    0.72
   9   5   2   16.48    0.67
  -9   5  -2   16.80    0.68
   9   5   2   16.18    0.62
  10  -5   2    1.39    0.18
  10  -5   2    1.25    0.22
 -10  -5  -2    1.13    0.25
  10   5   2    1.09    0.20
 -10   5  -2    1.28    0.24
  10   5   2    1.31    0.15
 -11  -5  -2   30.80    1.11
  11  -5   2   29.53    1.03
  11  -5   2   27.94    1.07
  11   5   2   27.81    1.05
  11   5   2   28.60    0.99
  12  -5   2    0.74    0.16
 -12  -5  -2    0.97    0.28
  12  -5   2    0.83    0.22
  12   5   2    0.76    0.12
  12   5   2    0.64    0.20
  10  -6  -2   29.21    1.03
 -10  -6   2   27.90    1.17
  10   6  -2   27.68    0.99
  10   6  -2   28.40    1.04
 -10   6   2   29.00    1.13
   9  -6  -2    0.14    0.15
  -9  -6   2   -0.14    0.28
   9  -6  -2    0.15    0.15
   9   6  -2    0.03    0.18
  -9   6   2    0.03    0.25
   9   6  -2    0.15    0.12
  -8  -6   2   31.69    1.21
   8  -6  -2   30.32    1.07
   8  -6  -2   30.80    1.09
   8   6  -2   30.93    1.10
   8   6  -2   30.03    1.07
  -8   6   2   31.00    1.16
   7  -6  -2    1.05    0.17
   7  -6  -2    0.85    0.17
  -7  -6   2    1.58    0.30
   7   6  -2    0.73    0.15
  -7   6   2    1.02    0.24
   7   6  -2    0.77    0.18
  -6  -6   2   21.45    0.89
   6  -6  -2   20.46    0.77
   6  -6  -2   21.03    0.79
   6   6  -2   20.61    0.76
   6   6  -2   20.49    0.79
  -6   6   2   21.45    0.82
  -5  -6   2   26.35    1.02
   5  -6  -2   24.06    0.92
   5  -6  -2   25.67    0.92
  -5   6   2   25.74    0.93
   5   6  -2   25.74    0.91
   5   6  -2   25.17    0.93
   4  -6  -2   15.48    0.62
   4  -6  -2   14.94    0.62
  -4  -6   2   15.11    0.69
   4   6  -2   15.28    0.62
   4   6  -2   15.69    0.61
  -4   6   2   15.85    0.61
   3  -6  -2    5.27    0.35
   3  -6  -2    5.23    0.33
  -3  -6   2    5.50    0.40
  -3   6   2    5.07    0.29
  -3   6   2    5.50    0.31
   3   6  -2    5.33    0.32
   3   6  -2    5.35    0.33
   2  -6  -2   44.82    1.55
  -2  -6   2   46.84    1.59
   2  -6  -2   45.11    1.55
   2   6  -2   46.00    1.55
   2   6  -2   44.51    1.55
  -2   6   2   46.15    1.53
   1  -6  -2   17.04    0.70
  -1  -6   2   17.67    0.70
  -1   6   2   17.27    0.65
   1   6  -2   18.07    0.68
   1   6  -2   17.16    0.68
   0  -6  -2   14.13    0.63
   0  -6   2   14.28    0.60
   0   6   2   15.17    0.56
   0   6  -2   14.18    0.59
   0   6  -2   14.06    0.58
  -1  -6  -2    7.11    0.45
   1  -6   2    7.89    0.39
   1   6   2    7.02    0.38
  -1   6  -2    7.50    0.38
   1   6   2    7.31    0.36
   2  -6   2   43.08    1.47
   2  -6   2   41.63    1.48
  -2  -6  -2   41.13    1.51
   2   6   2   45.06    1.48
   2   6   2   43.96    1.47
  -2   6  -2   44.51    1.48
   3  -6   2    2.67    0.27
  -3  -6  -2    2.70    0.28
   3  -6   2    2.57    0.22
  -3   6  -2    3.12    0.27
   3   6   2    2.62    0.26
   3   6   2    2.90    0.26
   4  -6   2   22.12    0.84
   4  -6   2   21.49    0.80
  -4  -6  -2   23.23    0.89
   4  -6   2   21.65    0.81
   4   6   2   22.67    0.82
   4   6   2   22.34    0.82
  -4   6  -2   23.08    0.84
  -5  -6  -2    0.81    0.23
   5  -6   2    0.49    0.15
   5  -6   2    0.81    0.17
   5  -6   2    0.54    0.15
   5   6   2    0.47    0.14
  -5   6  -2    0.63    0.17
   5   6   2    0.49    0.16
   6  -6   2   21.19    0.77
   6  -6   2   21.13    0.80
  -6  -6  -2   21.94    0.88
   6  -6   2   21.03    0.81
   6   6   2   21.51    0.81
  -6   6  -2   21.92    0.82
   6   6   2   21.77    0.79
   7  -6   2    6.44    0.38
  -7  -6  -2    6.49    0.47
   7  -6   2    6.11    0.37
   7   6   2    6.50    0.38
  -7   6  -2    6.62    0.39
   7   6   2    6.25    0.34
  -8  -6  -2    6.25    0.48
   8  -6   2    6.47    0.38
   8  -6   2    6.37    0.39
   8   6   2    6.66    0.35
  -8   6  -2    6.66    0.40
   8   6   2    6.88    0.40
  -9  -6  -2    1.38    0.28
   9  -6   2    1.15    0.19
   9  -6   2    1.17    0.22
   9   6   2    1.91    0.19
   9   6   2    1.53    0.22
  10  -6   2   46.87    1.56
 -10  -6  -2   46.79    1.63
  10  -6   2   44.88    1.59
  10   6   2   42.84    1.56
  10   6   2   44.79    1.52
  -7  -7   2    1.24    0.33
   7  -7  -2    1.10    0.20
   7  -7  -2    0.68    0.20
   7   7  -2    1.14    0.22
  -7   7   2    0.92    0.25
   7   7  -2    0.97    0.18
   6  -7  -2   10.79    0.52
   6  -7  -2   10.26    0.50
  -6  -7   2   12.50    0.66
   6   7  -2   11.39    0.50
   6   7  -2   10.79    0.53
   5  -7  -2   15.61    0.67
   5  -7  -2   16.66    0.68
  -5  -7   2   16.91    0.78
   5   7  -2   16.18    0.68
   5   7  -2   16.81    0.66
   4  -7  -2    1.22    0.22
  -4  -7   2    1.38    0.29
   4   7  -2    0.77    0.19
   4   7  -2    0.92    0.21
  -3  -7   2   27.46    1.04
   3  -7  -2   25.77    0.98
   3   7  -2   25.52    0.97
   3   7  -2   26.57    0.97
   2  -7  -2    0.63    0.21
  -2  -7   2    0.81    0.24
   2   7  -2    1.03    0.20
   2   7  -2    0.95    0.20
   1  -7  -2    7.09    0.44
  -1  -7   2    7.08    0.44
  -1   7   2    6.77    0.38
   1   7  -2    6.87    0.40
   0  -7   2   16.07    0.68
   0  -7  -2   15.93    0.70
   0   7   2   15.89    0.64
   0   7  -2   16.24    0.66
  -1  -7  -2    0.33    0.23
   1  -7   2    0.04    0.19
   1   7   2    0.04    0.16
  -1   7  -2    0.14    0.17
   2  -7   2    6.47    0.41
  -2  -7  -2    6.68    0.50
   2   7   2    7.14    0.38
  -2   7  -2    7.31    0.43
  -3  -7  -2   39.03    1.44
   3  -7   2   37.28    1.36
   3   7   2   40.33    1.38
  -3   7  -2   40.80    1.40
   3   7   2   41.24    1.39
  -4  -7  -2    5.31    0.46
   4  -7   2    4.04    0.33
   4   7   2    4.27    0.34
   4   7   2    4.51    0.34
  -4   7  -2    4.36    0.35
   5  -7   2   32.43    1.21
  -5  -7  -2   36.64    1.28
   5  -7   2   32.12    1.16
   5   7   2   33.87    1.19
  -5   7  -2   33.93    1.21
   5   7   2   32.29    1.18
  -6  -7  -2   11.48    0.63
   6  -7   2   10.79    0.53
  -6   7  -2   11.27    0.55
   6   7   2   11.24    0.50
   6   7   2   10.87    0.53
   7  -7   2    0.42    0.19
  -7  -7  -2    1.01    0.30
   7   7   2    1.35    0.23
   7   7   2    0.38    0.16
  15   0  -3    0.20    0.15
 -15   0   3    0.31    0.24
 -14   0   3    0.07    0.22
  14   0  -3    0.01    0.14
 -13   0   3   65.66    2.28
  13   0  -3   69.77    2.23
  12   0  -3   -0.04    0.10
 -12   0   3    0.17    0.18
  12   0  -3    0.03    0.12
  11   0  -3   30.73    1.04
 -11   0   3   29.27    1.08
  11   0  -3   31.04    1.03
  10   0  -3   -0.02    0.08
  10   0  -3    0.03    0.10
 -10   0   3   -0.14    0.14
   9   0  -3   57.62    1.95
  -9   0   3   59.98    1.98
   9   0  -3   61.17    1.94
  -8   0   3   -0.03    0.10
   8   0  -3    0.07    0.02
   8   0  -3   -0.02    0.08
   8   0  -3    0.06    0.02
   8   0  -3    0.19    0.07
   7   0  -3   44.34    1.49
   7   0  -3   44.68    1.52
  -7   0   3   48.62    1.54
   7   0  -3   48.16    1.49
   7   0  -3   46.90    1.51
   6   0  -3    0.04    0.03
   6   0  -3    0.02    0.06
   6   0  -3    0.10    0.05
  -6   0   3    0.04    0.07
   6   0  -3    0.03    0.03
   5   0  -3   11.92    0.42
   5   0  -3   11.52    0.44
  -5   0   3   13.42    0.45
   5   0  -3   12.93    0.42
   5   0  -3   12.56    0.41
   4   0  -3    0.03    0.03
   4   0  -3    0.09    0.03
   4   0  -3    0.01    0.03
  -4   0   3   -0.01    0.05
   4   0  -3    0.00    0.05
   3   0  -3    0.11    0.03
  -3   0   3    0.14    0.05
   3   0  -3    0.12    0.04
   3   0  -3    0.13    0.03
   2   0  -3    0.12    0.02
   2   0  -3    0.04    0.03
  -2   0   3    0.09    0.04
   2   0  -3    0.01    0.03
   2   0  -3    0.02    0.03
   1   0  -3    0.22    0.02
  -1   0   3    0.08    0.04
  -1   0   3    0.21    0.04
   1   0  -3    0.06    0.03
   1   0  -3    0.45    0.04
   0   0  -3    0.05    0.03
   0   0  -3    0.09    0.02
   0   0   3    0.02    0.03
   0   0  -3    0.00    0.03
   0   0   3    0.04    0.03
  -1   0  -3    7.80    0.28
   1   0   3    7.76    0.28
  -1   0  -3    7.99    0.26
   1   0   3    7.98    0.28
  -2   0  -3    0.13    0.04
   2   0   3    0.04    0.04
  -2   0  -3    0.04    0.02
   2   0   3    0.06    0.04
  -2   0  -3    0.02    0.03
   3   0   3   20.24    0.66
   3   0   3   19.47    0.66
   3   0   3   19.65    0.66
  -3   0  -3   19.99    0.63
  -3   0  -3   19.25    0.67
   4   0   3    0.02    0.04
  -4   0  -3   -0.01    0.06
   4   0   3    0.02    0.06
   4   0   3    0.06    0.04
  -4   0  -3    0.03    0.03
   5   0   3   71.76    2.15
   5   0   3   65.66    2.15
  -5   0  -3   64.08    2.18
  -5   0  -3   67.06    2.14
   5   0   3   65.93    2.17
  -6   0  -3    0.04    0.04
   6   0   3    0.14    0.05
   6   0   3    0.04    0.07
  -6   0  -3    0.01    0.09
   6   0   3    0.02    0.05
   7   0   3   35.29    1.18
   7   0   3   36.20    1.14
   7   0   3   34.28    1.14
  -7   0  -3   33.79    1.19
  -7   0  -3   35.21    1.14
  -8   0  -3   -0.08    0.11
   8   0   3    0.16    0.10
   8   0   3    0.09    0.05
   8   0   3   -0.03    0.05
  -8   0  -3    0.02    0.06
   9   0   3   19.75    0.64
   9   0   3   18.24    0.64
   9   0   3   19.29    0.70
  -9   0  -3   19.44    0.73
  -9   0  -3   20.01    0.66
 -10   0  -3    0.12    0.09
  10   0   3    0.17    0.04
  10   0   3    0.00    0.11
  10   0   3    0.05    0.05
 -10   0  -3    0.09    0.15
 -11   0  -3   63.64    2.09
  11   0   3   58.33    1.96
  11   0   3   63.36    2.05
 -12   0  -3    0.28    0.19
  12   0   3    0.00    0.12
 -13   0  -3    0.82    0.22
  13   0   3    0.64    0.16
  14   0   3   -0.10    0.14
 -14   0  -3    0.08    0.21
 -15   0  -3    1.55    0.27
  15   0   3    1.27    0.20
 -15  -1   3    2.42    0.28
  15  -1  -3    2.49    0.20
  15   1  -3    2.24    0.22
 -15   1   3    1.39    0.29
  14  -1  -3    0.00    0.13
 -14   1   3    0.31    0.24
  14   1  -3    0.14    0.13
  14   1  -3    0.07    0.15
 -13  -1   3    5.57    0.39
  13  -1  -3    6.49    0.33
  13   1  -3    6.63    0.31
  13   1  -3    6.47    0.35
 -13   1   3    5.47    0.43
  12  -1  -3    1.19    0.15
 -12  -1   3    0.86    0.19
  12   1  -3    1.26    0.15
 -12   1   3    0.99    0.23
  12   1  -3    1.09    0.16
  11  -1  -3   12.49    0.48
 -11  -1   3   12.35    0.53
 -11   1   3   12.15    0.57
 -11   1   3   13.08    0.52
  11   1  -3   12.83    0.50
  11   1  -3   12.81    0.48
 -10  -1   3    0.16    0.13
  10  -1  -3    0.16    0.10
  10  -1  -3    0.10    0.03
  10  -1  -3    0.07    0.03
 -10   1   3    0.10    0.12
  10   1  -3    0.14    0.11
 -10   1   3    0.06    0.17
  10   1  -3    0.10    0.09
   9  -1  -3    2.90    0.19
   9  -1  -3    3.21    0.13
   9  -1  -3    3.32    0.13
  -9  -1   3    3.00    0.23
   9  -1  -3    3.17    0.20
   9   1  -3    3.37    0.19
  -9   1   3    3.23    0.28
   9   1  -3    3.28    0.22
  -9   1   3    3.27    0.22
   8  -1  -3    0.70    0.06
  -8  -1   3    0.67    0.11
   8  -1  -3    0.81    0.08
   8  -1  -3    0.48    0.09
   8   1  -3    0.69    0.11
   8   1  -3    0.57    0.05
   8   1  -3    0.64    0.09
  -8   1   3    0.66    0.11
   8   1  -3    0.66    0.05
  -8   1   3    0.57    0.15
   7  -1  -3   18.34    0.58
   7  -1  -3   17.35    0.58
   7  -1  -3   17.07    0.61
  -7  -1   3   17.43    0.61
  -7   1   3   18.16    0.64
   7   1  -3   17.27    0.57
   7   1  -3   17.58    0.57
   7   1  -3   17.41    0.62
  -7   1   3   15.98    0.61
   7   1  -3   18.08    0.60
   6  -1  -3   54.13    1.77
   6  -1  -3   57.53    1.76
  -6  -1   3   57.27    1.79
   6  -1  -3   52.81    1.78
   6   1  -3   57.23    1.78
  -6   1   3   54.93    1.80
   6   1  -3   55.67    1.77
   6   1  -3   58.01    1.76
  -6   1   3   46.96    1.77
   6   1  -3   54.77    1.79
   5  -1  -3   15.35    0.51
  -5  -1   3   16.27    0.52
   5  -1  -3   14.63    0.51
   5  -1  -3   14.57    0.52
  -5   1   3   14.10    0.51
   5   1  -3   15.33    0.52
   5   1  -3   14.86    0.50
  -5   1   3   15.89    0.54
   5   1  -3   15.40    0.51
  -4  -1   3   10.38    0.35
   4  -1  -3    9.60    0.34
   4  -1  -3    9.53    0.35
   4  -1  -3   10.09    0.34
  -4   1   3   10.28    0.37
   4   1  -3    9.92    0.34
   4   1  -3    9.81    0.34
   4   1  -3   10.06    0.35
   4   1  -3    9.62    0.36
  -4   1   3    9.55    0.33
  -3  -1   3   46.42    1.44
   3  -1  -3   43.73    1.45
   3  -1  -3   43.74    1.45
   3  -1  -3   44.82    1.44
   3   1  -3   43.17    1.44
   3   1  -3   42.74    1.45
  -3   1   3   46.19    1.46
   3   1  -3   46.57    1.45
   3   1  -3   46.00    1.45
   2  -1  -3   34.23    1.13
  -2  -1   3   35.43    1.13
   2   1  -3   35.35    1.13
   2   1  -3   38.55    1.14
   2   1  -3   33.45    1.13
   2   1  -3   33.22    1.13
  -2   1   3   36.29    1.14
  -2   1   3   33.03    1.13
  -1  -1   3  110.42    3.40
   1  -1  -3  107.33    3.40
   1  -1  -3  106.66    3.42
  -1  -1   3  107.31    3.41
  -1   1   3   94.84    3.38
   1   1  -3  101.98    3.40
  -1   1   3  112.29    3.42
   1   1  -3  105.00    3.42
  -1   1   3  106.47    3.42
   1   1  -3  108.38    3.42
   0  -1   3   15.00    0.50
   0  -1   3   14.61    0.49
   0  -1  -3   15.05    0.49
   0   1  -3   13.32    0.48
   0   1  -3   14.26    0.49
   0   1   3   14.49    0.48
   0   1   3   15.22    0.49
   0   1  -3   15.82    0.49
  -1  -1  -3   10.30    0.35
   1  -1   3   10.42    0.34
  -1  -1  -3    9.79    0.34
   1  -1   3    9.96    0.35
   1   1   3   10.16    0.35
   1   1   3   10.16    0.35
  -1   1  -3   10.79    0.35
  -1   1  -3    9.52    0.35
   1   1   3    9.69    0.34
  -2  -1  -3    0.09    0.04
  -2  -1  -3    0.31    0.04
   2  -1   3    0.11    0.04
   2  -1   3    0.11    0.05
   2   1   3    0.28    0.04
   2   1   3    0.30    0.04
   2   1   3    0.15    0.04
  -2   1  -3    0.12    0.04
  -2   1  -3    0.14    0.05
  -3  -1  -3    6.37    0.23
   3  -1   3    5.92    0.25
   3  -1   3    6.62    0.24
   3  -1   3    6.68    0.21
   3   1   3    6.20    0.24
   3   1   3    6.08    0.24
  -3   1  -3    6.48    0.25
   3   1   3    6.59    0.24
   3   1   3    6.21    0.24
  -4  -1  -3    8.88    0.31
   4  -1   3    7.92    0.28
   4  -1   3    9.00    0.33
   4  -1   3    7.99    0.30
   4  -1   3    9.14    0.32
   4   1   3    9.03    0.32
   4   1   3    8.66    0.32
   4   1   3    8.40    0.31
   4   1   3    8.57    0.31
  -4   1  -3    8.87    0.34
  -5  -1  -3    4.69    0.20
   5  -1   3    4.76    0.22
   5  -1   3    4.50    0.16
   5  -1   3    5.14    0.20
   5  -1   3    4.45    0.18
   5   1   3    4.89    0.21
   5   1   3    4.53    0.19
   5   1   3    4.99    0.19
   5   1   3    4.49    0.20
  -5   1  -3    4.41    0.23
  -6  -1  -3    0.92    0.09
   6  -1   3    0.69    0.07
   6  -1   3    0.62    0.06
   6  -1   3    0.86    0.06
   6  -1   3    0.74    0.10
   6   1   3    0.68    0.06
   6   1   3    0.80    0.10
   6   1   3    0.76    0.08
  -6   1  -3    0.81    0.12
   6   1   3    0.62    0.09
   7  -1   3    0.57    0.05
   7  -1   3    0.54    0.07
   7  -1   3    0.68    0.11
   7  -1   3    0.45    0.06
  -7  -1  -3    0.77    0.09
  -7   1  -3    0.52    0.13
   7   1   3    0.53    0.06
   7   1   3    0.57    0.06
   7   1   3    0.54    0.09
   7   1   3    0.59    0.10
   8  -1   3    1.19    0.10
  -8  -1  -3    1.31    0.12
   8  -1   3    1.31    0.09
   8  -1   3    1.38    0.11
   8  -1   3    1.45    0.15
  -8   1  -3    1.26    0.16
   8   1   3    1.19    0.13
   8   1   3    1.27    0.13
   8   1   3    1.15    0.10
   8   1   3    1.20    0.09
   9  -1   3   10.77    0.46
   9  -1   3   11.57    0.39
   9  -1   3   11.21    0.39
  -9  -1  -3   11.04    0.42
   9  -1   3   11.67    0.39
   9   1   3   10.54    0.38
   9   1   3   10.61    0.45
  -9   1  -3   11.29    0.49
   9   1   3   11.12    0.38
   9   1   3   10.99    0.44
  10  -1   3    6.81    0.34
  10  -1   3    6.61    0.24
 -10  -1  -3    6.37    0.30
  10   1   3    6.03    0.23
 -10   1  -3    6.25    0.38
  10   1   3    6.77    0.23
  10   1   3    6.01    0.32
  10   1   3    6.44    0.30
  11  -1   3   19.08    0.62
 -11  -1  -3   19.31    0.68
  11  -1   3   18.55    0.71
  11  -1   3   19.45    0.62
  11   1   3   18.18    0.61
  11   1   3   18.73    0.69
  11   1   3   18.75    0.61
 -11   1  -3   19.12    0.75
  11   1   3   18.16    0.70
  12  -1   3    6.99    0.37
  12  -1   3    6.75    0.24
  12  -1   3    7.18    0.25
  12   1   3    6.66    0.37
  12   1   3    6.92    0.34
 -12   1  -3    7.47    0.43
  13  -1   3    5.12    0.33
  13   1   3    5.12    0.34
 -13   1  -3    5.40    0.40
  13   1   3    5.15    0.30
 -14  -1  -3    1.80    0.26
  14  -1   3    1.30    0.21
  14   1   3    1.48    0.18
 -14   1  -3    1.44    0.25
 -15  -1  -3    2.22    0.29
  15  -1   3    2.86    0.28
 -15   1  -3    2.78    0.30
 -15  -2   3   10.88    0.58
  15   2  -3   10.55    0.46
 -15   2   3    8.67    0.59
 -14  -2   3    2.70    0.30
  14  -2  -3    2.96    0.24
 -14   2   3    2.44    0.33
  14   2  -3    3.01    0.25
 -13  -2   3    1.09    0.24
  13  -2  -3    0.96    0.14
 -13   2   3    0.99    0.26
  13   2  -3    0.94    0.16
 -12  -2   3   68.21    2.31
  12  -2  -3   71.29    2.24
  12  -2  -3   71.79    2.18
  12  -2  -3   65.25    2.18
  12   2  -3   70.12    2.24
 -12   2   3   63.37    2.31
  11  -2  -3    0.13    0.05
  11  -2  -3    0.10    0.11
 -11  -2   3    0.03    0.17
  11  -2  -3    0.04    0.06
  11   2  -3    0.15    0.11
 -11   2   3    0.01    0.21
  10  -2  -3   -0.02    0.06
  10  -2  -3    0.14    0.05
 -10  -2   3    0.10    0.16
  10  -2  -3    0.33    0.11
 -10   2   3    0.01    0.19
  10   2  -3    0.09    0.10
  10   2  -3    0.24    0.04
  10   2  -3    0.10    0.04
  -9  -2   3    0.19    0.15
   9  -2  -3    0.12    0.09
   9  -2  -3    0.26    0.06
  -9  -2   3    0.16    0.10
   9  -2  -3    0.20    0.07
   9   2  -3    0.19    0.05
  -9   2   3    0.22    0.10
   9   2  -3    0.19    0.05
   9   2  -3    0.33    0.10
  -9   2   3    0.13    0.18
  -8  -2   3   34.85    1.25
   8  -2  -3   35.26    1.20
   8  -2  -3   36.20    1.18
   8  -2  -3   37.06    1.18
  -8  -2   3   35.64    1.19
  -8   2   3   37.25    1.25
   8   2  -3   35.96    1.20
   8   2  -3   36.92    1.22
  -8   2   3   35.88    1.19
   8   2  -3   36.59    1.17
   8   2  -3   34.64    1.16
  -7  -2   3   21.77    0.73
  -7  -2   3   21.24    0.79
   7  -2  -3   22.45    0.72
   7  -2  -3   20.94    0.74
   7  -2  -3   20.71    0.72
   7   2  -3   22.75    0.72
   7   2  -3   21.21    0.76
  -7   2   3   21.96    0.72
   7   2  -3   21.69    0.74
   7   2  -3   21.35    0.71
  -7   2   3   22.01    0.79
  -6  -2   3    4.07    0.26
   6  -2  -3    4.97    0.19
   6  -2  -3    4.43    0.22
  -6  -2   3    4.41    0.19
   6  -2  -3    4.38    0.19
   6   2  -3    4.63    0.19
   6   2  -3    4.21    0.21
  -6   2   3    4.61    0.19
   6   2  -3    5.23    0.19
  -6   2   3    4.62    0.26
  -5  -2   3    7.16    0.27
   5  -2  -3    7.67    0.28
   5  -2  -3    7.27    0.28
   5  -2  -3    7.38    0.30
  -5   2   3    7.95    0.26
   5   2  -3    7.47    0.28
   5   2  -3    7.81    0.28
   5   2  -3    7.50    0.29
  -5   2   3    7.43    0.32
   4  -2  -3    0.70    0.07
  -4  -2   3    0.52    0.10
   4  -2  -3    0.60    0.06
  -4  -2   3    0.58    0.05
   4  -2  -3    0.42    0.07
  -4   2   3    0.66    0.10
  -4   2   3    0.58    0.05
   4   2  -3    0.57    0.06
   4   2  -3    0.64    0.06
   4   2  -3    0.46    0.07
   3  -2  -3    6.32    0.26
   3  -2  -3    6.64    0.25
  -3  -2   3    6.25    0.28
  -3  -2   3    6.39    0.23
   3   2  -3    6.37    0.25
  -3   2   3    6.91    0.27
  -3   2   3    6.67    0.26
   3   2  -3    6.49    0.26
  -3   2   3    7.01    0.23
   3   2  -3    6.61    0.25
   2  -2  -3    1.35    0.11
  -2  -2   3    1.36    0.10
  -2  -2   3    1.57    0.13
  -2  -2   3    1.36    0.08
   2  -2  -3    1.36    0.10
  -2   2   3    1.45    0.07
   2   2  -3    1.37    0.10
   2   2  -3    1.42    0.10
  -2   2   3    1.40    0.11
  -2   2   3    1.32    0.11
  -1  -2   3    3.38    0.16
  -1  -2   3    4.02    0.18
   1  -2  -3    3.83    0.17
  -1  -2   3    3.74    0.18
   1  -2  -3    3.93    0.17
  -1   2   3    4.16    0.15
   1   2  -3    3.99    0.17
   1   2  -3    3.88    0.17
  -1   2   3    4.17    0.18
  -1   2   3    3.88    0.18
   0  -2   3   32.99    1.06
   0  -2  -3   31.03    1.05
   0  -2   3   29.87    1.05
   0  -2   3   33.14    1.06
   0  -2  -3   31.66    1.05
   0   2   3   32.35    1.05
   0   2  -3   31.62    1.05
   0   2   3   33.17    1.04
   0   2  -3   32.96    1.06
   1  -2   3   11.24    0.41
  -1  -2  -3   11.56    0.42
   1  -2   3   11.85    0.40
  -1  -2  -3   11.38    0.41
   1  -2   3   11.80    0.42
   1   2   3   12.09    0.40
   1   2   3   11.78    0.41
   1   2   3   11.64    0.40
  -1   2  -3   11.15    0.41
  -1   2  -3   12.16    0.42
  -2  -2  -3    6.28    0.25
  -2  -2  -3    5.64    0.24
   2  -2   3    6.43    0.23
   2  -2   3    6.11    0.25
   2  -2   3    5.73    0.24
   2   2   3    6.51    0.24
   2   2   3    6.19    0.24
  -2   2  -3    5.83    0.24
  -2   2  -3    6.47    0.25
   2   2   3    6.40    0.23
   3  -2   3   13.61    0.44
   3  -2   3   13.48    0.47
   3  -2   3   13.36    0.47
  -3  -2  -3   13.00    0.47
  -3  -2  -3   12.63    0.46
   3   2   3   13.69    0.47
   3   2   3   13.16    0.45
  -3   2  -3   12.55    0.46
   3   2   3   13.10    0.46
  -3   2  -3   13.73    0.48
   4  -2   3   39.33    1.29
  -4  -2  -3   38.36    1.28
   4  -2   3   39.67    1.28
   4  -2   3   39.50    1.25
   4   2   3   39.97    1.27
   4   2   3   37.67    1.27
   4   2   3   38.01    1.26
   4   2   3   39.29    1.28
  -4   2  -3   40.24    1.29
  -4   2  -3   36.17    1.27
  -5  -2  -3   17.86    0.63
   5  -2   3   17.56    0.61
   5  -2   3   18.47    0.59
   5  -2   3   18.42    0.64
   5  -2   3   18.41    0.62
   5   2   3   18.75    0.61
   5   2   3   17.92    0.61
  -5   2  -3   17.88    0.64
   5   2   3   18.20    0.63
   5   2   3   17.33    0.61
  -6  -2  -3   64.88    2.20
   6  -2   3   70.16    2.22
   6  -2   3   66.98    2.18
   6  -2   3   69.86    2.20
   6  -2   3   70.34    2.17
   6   2   3   67.87    2.19
  -6   2  -3   66.76    2.23
   6   2   3   68.15    2.21
   6   2   3   64.56    2.18
   6   2   3   68.34    2.19
   7  -2   3    2.88    0.16
   7  -2   3    2.73    0.14
   7  -2   3    2.82    0.19
   7  -2   3    2.78    0.13
  -7  -2  -3    3.06    0.19
   7   2   3    2.74    0.16
   7   2   3    2.98    0.20
   7   2   3    2.64    0.14
   7   2   3    2.67    0.15
  -7   2  -3    3.13    0.23
   8  -2   3    1.13    0.15
  -8  -2  -3    1.13    0.13
   8  -2   3    1.07    0.10
   8  -2   3    1.12    0.09
   8  -2   3    1.03    0.09
  -8   2  -3    1.17    0.17
   8   2   3    1.01    0.10
   8   2   3    1.16    0.12
   8   2   3    1.06    0.09
   8   2   3    1.39    0.15
   9  -2   3    0.82    0.15
  -9  -2  -3    0.69    0.13
   9  -2   3    0.85    0.10
   9   2   3    0.71    0.11
  -9   2  -3    0.68    0.18
   9   2   3    0.60    0.14
   9   2   3    0.84    0.08
   9   2   3    0.72    0.07
 -10  -2  -3   46.05    1.55
  10  -2   3   49.04    1.51
  10  -2   3   48.12    1.57
  10   2   3   43.59    1.49
  10   2   3   47.00    1.49
  10   2   3   47.15    1.55
  10   2   3   45.50    1.52
 -10   2  -3   42.07    1.60
  11  -2   3    0.08    0.08
  11  -2   3    0.17    0.14
 -11  -2  -3    0.11    0.14
  11   2   3    0.08    0.06
  11   2   3    0.62    0.15
  11   2   3    0.12    0.05
  11   2   3    0.06    0.10
 -11   2  -3   -0.08    0.19
  12  -2   3    4.00    0.32
 -12  -2  -3    4.05    0.32
  12  -2   3    3.93    0.19
 -12   2  -3    4.29    0.41
  12   2   3    3.87    0.15
  12   2   3    3.47    0.29
  12   2   3    3.90    0.15
  13  -2   3   13.89    0.50
  13  -2   3   14.29    0.62
  13   2   3   14.53    0.60
 -13   2  -3   16.28    0.71
  14  -2   3    0.56    0.05
  14  -2   3    0.50    0.19
  14   2   3    0.51    0.18
 -14   2  -3    0.51    0.26
  15  -2   3    4.28    0.38
 -15   2  -3    5.12    0.46
  15   2   3    5.19    0.37
 -14  -3   3    7.02    0.50
  14  -3  -3    6.33    0.23
  14   3  -3    6.10    0.34
 -14   3   3    5.62    0.51
  13  -3  -3    1.89    0.15
 -13  -3   3    1.55    0.28
  13  -3  -3    1.66    0.17
  13   3  -3    1.92    0.19
 -13   3   3    1.87    0.32
 -12  -3   3    2.26    0.29
  12  -3  -3    1.95    0.16
  12  -3  -3    2.50    0.22
 -12   3   3    1.92    0.29
  12   3  -3    2.44    0.24
  12   3  -3    2.26    0.10
  12   3  -3    2.18    0.10
 -11  -3   3   -0.01    0.21
  11  -3  -3    0.14    0.09
  11  -3  -3    0.15    0.12
 -11   3   3   -0.08    0.21
  11   3  -3    0.18    0.13
  11   3  -3    0.09    0.06
 -10  -3   3    1.19    0.23
  10  -3  -3    1.30    0.14
  10  -3  -3    1.47    0.12
  10   3  -3    1.40    0.12
  10   3  -3    1.52    0.16
 -10   3   3    1.38    0.24
  -9  -3   3   17.82    0.74
   9  -3  -3   18.79    0.64
   9  -3  -3   18.28    0.66
  -9   3   3   18.60    0.74
   9   3  -3   18.32    0.67
   9   3  -3   17.97    0.62
   8  -3  -3   12.98    0.46
   8  -3  -3   12.50    0.48
  -8  -3   3   12.28    0.56
   8   3  -3   12.64    0.48
  -8   3   3   12.74    0.54
   8   3  -3   12.56    0.44
  -7  -3   3    0.19    0.16
   7  -3  -3    0.42    0.08
   7  -3  -3    0.45    0.10
   7   3  -3    0.38    0.07
  -7   3   3    0.35    0.07
  -7   3   3    0.18    0.15
   7   3  -3    0.38    0.10
  -6  -3   3   24.72    0.91
   6  -3  -3   24.29    0.85
   6  -3  -3   24.83    0.84
   6   3  -3   25.32    0.84
  -6   3   3   25.63    0.82
   6   3  -3   24.32    0.86
  -6   3   3   25.48    0.89
  -5  -3   3   42.59    1.49
   5  -3  -3   45.34    1.45
   5  -3  -3   42.63    1.45
  -5   3   3   44.63    1.48
   5   3  -3   43.94    1.46
   5   3  -3   44.57    1.44
  -5   3   3   44.77    1.42
   5   3  -3   43.97    1.44
   4  -3  -3    0.99    0.10
   4  -3  -3    0.97    0.11
  -4  -3   3    1.37    0.16
  -4   3   3    1.08    0.11
  -4   3   3    1.16    0.13
   4   3  -3    1.04    0.11
   4   3  -3    1.08    0.10
  -4   3   3    1.29    0.09
   4   3  -3    1.17    0.12
   3  -3  -3    0.64    0.09
  -3  -3   3    0.72    0.05
   3  -3  -3    0.53    0.09
  -3  -3   3    0.54    0.12
  -3  -3   3    0.49    0.08
  -3   3   3    0.69    0.07
  -3   3   3    0.55    0.09
   3   3  -3    0.63    0.09
   3   3  -3    0.56    0.09
  -3   3   3    0.40    0.09
  -2  -3   3   60.17    2.01
   2  -3  -3   63.65    2.01
   2  -3  -3   60.28    2.01
  -2  -3   3   57.63    2.03
  -2  -3   3   60.58    1.98
  -2   3   3   62.65    2.01
   2   3  -3   62.94    2.01
  -2   3   3   63.12    1.99
  -2   3   3   65.91    2.02
  -1  -3   3    6.62    0.28
  -1  -3   3    6.41    0.24
  -1  -3   3    6.18    0.29
   1  -3  -3    6.67    0.27
   1  -3  -3    6.59    0.28
  -1   3   3    6.96    0.25
   1   3  -3    6.29    0.28
  -1   3   3    6.90    0.27
  -1   3   3    6.79    0.28
   0  -3   3   56.94    1.86
   0  -3  -3   56.90    1.88
   0  -3   3   57.09    1.89
   0  -3  -3   57.47    1.89
   0  -3   3   56.55    1.88
   0   3   3   58.99    1.89
   0   3   3   59.34    1.87
   0   3   3   58.79    1.87
   0   3  -3   58.16    1.89
   1  -3   3    5.73    0.26
  -1  -3  -3    5.59    0.26
   1  -3   3    5.69    0.24
  -1  -3  -3    5.49    0.25
   1  -3   3    5.32    0.23
  -1   3  -3    5.99    0.25
   1   3   3    5.61    0.23
   1   3   3    5.80    0.22
  -1   3  -3    5.72    0.25
   1   3   3    5.40    0.25
   2  -3   3    1.21    0.11
  -2  -3  -3    1.24    0.13
  -2  -3  -3    1.21    0.12
   2  -3   3    1.36    0.12
   2  -3   3    1.00    0.09
   2   3   3    1.20    0.11
   2   3   3    1.15    0.10
  -2   3  -3    1.01    0.10
  -2   3  -3    1.18    0.12
   2   3   3    1.22    0.11
   3  -3   3   37.91    1.27
   3  -3   3   39.00    1.25
  -3  -3  -3   38.49    1.29
  -3  -3  -3   38.32    1.27
   3  -3   3   37.71    1.28
  -3   3  -3   36.30    1.27
  -3   3  -3   39.46    1.28
   3   3   3   40.03    1.25
   3   3   3   38.89    1.27
   3   3   3   37.90    1.27
   4  -3   3    0.16    0.08
  -4  -3  -3    0.07    0.10
  -4  -3  -3    0.06    0.07
   4  -3   3    0.12    0.06
   4  -3   3    0.04    0.08
   4   3   3    0.10    0.06
   4   3   3    0.08    0.08
  -4   3  -3    0.14    0.07
   4   3   3    0.07    0.07
  -4   3  -3    0.13    0.09
   5  -3   3    4.13    0.22
   5  -3   3    3.88    0.18
  -5  -3  -3    3.67    0.23
   5  -3   3    4.06    0.23
   5   3   3    4.25    0.19
   5   3   3    4.42    0.22
   5   3   3    4.24    0.21
  -5   3  -3    4.61    0.24
  -5   3  -3    3.80    0.21
   6  -3   3    0.45    0.07
  -6  -3  -3    0.60    0.12
   6  -3   3    0.51    0.12
   6  -3   3    0.39    0.09
   6   3   3    0.75    0.12
   6   3   3    0.41    0.08
  -6   3  -3    0.50    0.12
   6   3   3    0.52    0.08
   7  -3   3   20.40    0.74
   7  -3   3   20.47    0.68
   7  -3   3   20.89    0.71
  -7  -3  -3   19.21    0.73
   7   3   3   20.35    0.70
   7   3   3   21.54    0.73
   7   3   3   19.26    0.69
  -7   3  -3   20.31    0.75
  -8  -3  -3    9.18    0.42
   8  -3   3    9.66    0.43
   8  -3   3    9.76    0.39
  -8   3  -3   10.19    0.45
   8   3   3    9.75    0.37
   8   3   3    9.58    0.41
  -9  -3  -3    4.59    0.31
   9  -3   3    4.94    0.31
   9  -3   3    4.97    0.25
  -9   3  -3    4.77    0.36
   9   3   3    4.72    0.23
   9   3   3    4.76    0.29
  10  -3   3   16.46    0.64
 -10  -3  -3   15.10    0.63
  10  -3   3   15.65    0.57
 -10   3  -3   16.18    0.69
  10   3   3   15.78    0.55
  10   3   3   15.33    0.61
 -11  -3  -3    0.61    0.18
  11  -3   3    0.30    0.17
  11  -3   3    0.36    0.11
 -11   3  -3    0.26    0.21
  11   3   3    0.37    0.09
  11   3   3    0.31    0.16
  12  -3   3   17.63    0.71
 -12  -3  -3   18.28    0.71
  12  -3   3   17.15    0.62
  12   3   3   16.78    0.68
  12   3   3   16.82    0.59
 -12   3  -3   17.08    0.77
  13  -3   3    0.09    0.20
 -13  -3  -3    0.27    0.22
  13  -3   3    0.31    0.10
 -13   3  -3   -0.31    0.24
  13   3   3    0.29    0.17
  13   3   3    0.13    0.06
  14  -3   3    0.07    0.09
  14  -3   3    0.08    0.21
  14   3   3   -0.15    0.17
 -14   3  -3   -0.20    0.25
  13  -4  -3   10.20    0.39
 -13  -4   3   10.11    0.62
  13   4  -3    9.85    0.45
  13   4  -3    9.80    0.34
 -13   4   3    8.58    0.57
  12  -4  -3    0.27    0.13
  12  -4  -3    0.10    0.11
 -12  -4   3    0.13    0.26
  12   4  -3    0.12    0.07
  12   4  -3    0.08    0.15
 -12   4   3    0.26    0.27
  11  -4  -3   16.29    0.59
  11  -4  -3   16.65    0.60
 -11  -4   3   17.18    0.77
  11   4  -3   15.33    0.62
  11   4  -3   15.66    0.56
 -11   4   3   14.84    0.71
  10  -4  -3    2.61    0.20
  10  -4  -3    2.10    0.18
 -10  -4   3    1.97    0.28
 -10   4   3    2.37    0.30
  10   4  -3    2.04    0.19
  10   4  -3    2.25    0.17
   9  -4  -3    9.50    0.39
  -9  -4   3    9.94    0.53
   9  -4  -3   10.04    0.41
  -9   4   3    9.09    0.49
   9   4  -3    9.38    0.42
   9   4  -3    9.26    0.37
  -8  -4   3    4.42    0.40
   8  -4  -3    4.57    0.25
   8  -4  -3    4.36    0.25
   8   4  -3    4.18    0.27
  -8   4   3    4.41    0.37
   8   4  -3    4.34    0.22
  -7  -4   3   13.64    0.64
   7  -4  -3   14.06    0.53
   7  -4  -3   14.35    0.54
  -7   4   3   15.01    0.61
   7   4  -3   14.33    0.51
   7   4  -3   13.74    0.55
   6  -4  -3   24.99    0.87
  -6  -4   3   24.49    0.95
   6  -4  -3   25.85    0.88
  -6   4   3   26.11    0.91
   6   4  -3   25.53    0.89
   6   4  -3   24.71    0.86
   5  -4  -3    2.78    0.20
   5  -4  -3    2.99    0.21
  -5  -4   3    3.26    0.30
  -5   4   3    2.73    0.16
   5   4  -3    2.80    0.19
  -5   4   3    2.85    0.24
   5   4  -3    2.71    0.20
   4  -4  -3   12.62    0.47
   4  -4  -3   11.99    0.47
  -4  -4   3   12.00    0.53
  -4   4   3   12.06    0.48
  -4   4   3   12.43    0.44
   4   4  -3   12.29    0.47
   4   4  -3   12.32    0.46
  -3  -4   3    7.43    0.38
   3  -4  -3    7.84    0.34
   3  -4  -3    7.37    0.34
  -3   4   3    7.73    0.34
   3   4  -3    7.48    0.33
  -3   4   3    7.97    0.30
  -3   4   3    7.92    0.34
   3   4  -3    7.98    0.34
  -2  -4   3   21.12    0.76
  -2  -4   3   20.45    0.78
   2  -4  -3   21.90    0.76
   2  -4  -3   21.72    0.76
  -2  -4   3   21.19    0.70
  -2   4   3   21.73    0.75
  -2   4   3   21.77    0.76
  -2   4   3   21.79    0.73
   2   4  -3   21.10    0.75
   2   4  -3   21.71    0.75
  -1  -4   3    0.70    0.13
   1  -4  -3    0.76    0.11
   1  -4  -3    0.61    0.13
  -1  -4   3    0.83    0.12
  -1  -4   3    0.80    0.07
   1   4  -3    0.54    0.10
  -1   4   3    0.67    0.10
  -1   4   3    0.64    0.09
  -1   4   3    0.82    0.12
   1   4  -3    0.79    0.12
   0  -4   3    0.97    0.09
   0  -4   3    0.73    0.11
   0  -4  -3    0.99    0.14
   0  -4  -3    1.00    0.12
   0  -4   3    0.95    0.13
   0   4  -3    0.94    0.12
   0   4   3    1.11    0.10
   0   4   3    0.95    0.12
   0   4  -3    1.01    0.11
   0   4   3    0.92    0.10
   1  -4   3    8.71    0.33
   1  -4   3    8.42    0.36
  -1  -4  -3    8.38    0.38
   1  -4   3    8.78    0.37
  -1  -4  -3    8.26    0.36
  -1   4  -3    9.28    0.37
  -1   4  -3    8.91    0.37
   1   4   3    8.14    0.34
   1   4   3    9.00    0.33
   1   4   3    8.94    0.37
   2  -4   3   27.45    0.97
   2  -4   3   26.96    0.94
  -2  -4  -3   27.91    0.96
   2  -4   3   28.11    0.95
  -2  -4  -3   28.43    0.98
   2   4   3   28.24    0.96
  -2   4  -3   28.07    0.96
  -2   4  -3   28.25    0.96
   2   4   3   27.56    0.95
   2   4   3   28.42    0.92
   3  -4   3   -0.01    0.08
   3  -4   3    0.17    0.09
   3  -4   3    0.26    0.09
  -3  -4  -3    0.23    0.13
   3   4   3    0.16    0.10
  -3   4  -3    0.34    0.11
  -3   4  -3   -0.01    0.08
   3   4   3    0.13    0.09
   3   4   3    0.19    0.06
   4  -4   3   25.89    0.91
  -4  -4  -3   26.39    0.93
   4  -4   3   25.69    0.91
   4  -4   3   26.16    0.88
  -4   4  -3   26.82    0.92
   4   4   3   27.44    0.87
   4   4   3   26.59    0.91
   4   4   3   24.91    0.90
   5  -4   3   17.50    0.64
   5  -4   3   17.32    0.60
  -5  -4  -3   17.29    0.67
   5  -4   3   16.96    0.64
  -5   4  -3   17.44    0.65
   5   4   3   17.96    0.63
   5   4   3   17.26    0.63
   6  -4   3   14.39    0.56
   6  -4   3   14.62    0.55
  -6  -4  -3   14.85    0.59
   6  -4   3   14.64    0.52
   6   4   3   14.55    0.54
  -6   4  -3   14.53    0.57
   6   4   3   14.57    0.56
  -7  -4  -3    1.55    0.19
   7  -4   3    1.86    0.16
   7  -4   3    1.87    0.19
   7  -4   3    1.76    0.16
   7   4   3    1.61    0.18
  -7   4  -3    1.64    0.19
   7   4   3    1.68    0.15
   8  -4   3    0.75    0.15
  -8  -4  -3    0.64    0.18
   8  -4   3    0.44    0.12
   8   4   3    0.70    0.11
   8   4   3    0.74    0.16
  -8   4  -3    0.93    0.17
  -9  -4  -3   26.67    0.99
   9  -4   3   27.50    0.98
   9  -4   3   28.36    0.95
   9   4   3   26.40    0.92
   9   4   3   26.50    0.96
  -9   4  -3   26.82    0.99
 -10  -4  -3    1.24    0.22
  10  -4   3    1.86    0.22
  10  -4   3    1.56    0.16
  10   4   3    1.73    0.20
  10   4   3    1.50    0.14
 -10   4  -3    1.37    0.23
  11  -4   3    8.22    0.38
 -11  -4  -3    8.46    0.48
  11  -4   3    8.48    0.46
 -11   4  -3    8.63    0.47
  11   4   3    8.55    0.43
  11   4   3    8.16    0.34
 -12  -4  -3    8.61    0.50
  12  -4   3    8.43    0.45
  12  -4   3    8.52    0.38
 -12   4  -3    8.76    0.52
  12   4   3    7.76    0.33
  12   4   3    8.27    0.44
 -13  -4  -3    6.39    0.46
  13  -4   3    5.23    0.41
  13  -4   3    5.58    0.30
  13   4   3    5.26    0.24
  13   4   3    5.48    0.38
  12  -5  -3    2.61    0.25
 -12  -5   3    3.40    0.42
 -12   5   3    2.40    0.36
  12   5  -3    2.62    0.25
  12   5  -3    2.89    0.20
  11  -5  -3    1.01    0.16
  11  -5  -3    0.85    0.15
 -11  -5   3    1.19    0.33
 -11   5   3    0.81    0.30
  11   5  -3    0.92    0.12
  11   5  -3    0.73    0.18
 -10  -5   3   14.26    0.73
  10  -5  -3   14.33    0.55
  10  -5  -3   13.56    0.54
  10   5  -3   13.41    0.57
 -10   5   3   13.36    0.68
  10   5  -3   13.19    0.51
   9  -5  -3    2.44    0.24
   9  -5  -3    2.45    0.20
  -9  -5   3    2.41    0.34
   9   5  -3    1.98    0.21
  -9   5   3    1.99    0.29
   9   5  -3    2.40    0.20
  -8  -5   3   22.82    0.95
   8  -5  -3   23.59    0.82
   8  -5  -3   22.59    0.82
   8   5  -3   22.14    0.84
   8   5  -3   22.45    0.80
  -8   5   3   23.90    0.91
   7  -5  -3    7.70    0.37
   7  -5  -3    8.19    0.37
  -7  -5   3    7.77    0.50
   7   5  -3    7.47    0.34
   7   5  -3    7.57    0.38
  -7   5   3    7.66    0.44
   6  -5  -3    8.23    0.37
  -6  -5   3    7.64    0.49
   6  -5  -3    8.14    0.37
   6   5  -3    7.96    0.39
  -6   5   3    8.07    0.43
   6   5  -3    7.98    0.36
   5  -5  -3    1.43    0.17
  -5  -5   3    1.58    0.25
   5  -5  -3    1.23    0.16
  -5   5   3    1.41    0.19
   5   5  -3    1.34    0.16
   5   5  -3    1.55    0.15
   4  -5  -3   23.79    0.86
   4  -5  -3   24.28    0.86
  -4  -5   3   24.59    0.93
  -4   5   3   24.22    0.87
   4   5  -3   24.83    0.87
   4   5  -3   23.49    0.85
  -4   5   3   23.82    0.83
   3  -5  -3    3.35    0.27
  -3  -5   3    3.23    0.31
   3  -5  -3    3.25    0.24
   3   5  -3    3.20    0.24
  -3   5   3    3.70    0.24
   3   5  -3    3.29    0.24
  -3   5   3    3.37    0.21
   2  -5  -3    0.13    0.14
   2  -5  -3    0.20    0.12
  -2  -5   3    0.20    0.16
   2   5  -3    0.01    0.11
   2   5  -3    0.00    0.11
  -2   5   3    0.07    0.11
  -2   5   3    0.15    0.10
  -1  -5   3   36.83    1.28
   1  -5  -3   36.64    1.28
   1  -5  -3   37.45    1.27
  -1   5   3   38.10    1.24
  -1   5   3   36.09    1.24
   1   5  -3   36.64    1.26
  -1   5   3   38.46    1.28
   1   5  -3   36.46    1.27
   0  -5  -3    3.94    0.29
   0  -5   3    3.66    0.27
   0  -5  -3    3.37    0.25
   0  -5   3    3.29    0.26
   0   5   3    3.76    0.23
   0   5  -3    3.64    0.25
   0   5  -3    3.82    0.25
   0   5   3    3.45    0.26
   0   5   3    3.82    0.21
   1  -5   3    1.90    0.16
  -1  -5  -3    1.88    0.21
   1  -5   3    1.55    0.17
   1  -5   3    2.07    0.18
   1   5   3    1.96    0.16
   1   5   3    1.62    0.17
   1   5   3    1.80    0.16
  -1   5  -3    2.03    0.18
  -1   5  -3    1.77    0.17
   2  -5   3   38.30    1.31
  -2  -5  -3   37.90    1.32
   2  -5   3   37.14    1.28
   2  -5   3   37.21    1.27
   2   5   3   37.20    1.29
  -2   5  -3   40.51    1.30
   2   5   3   37.85    1.28
   3  -5   3    3.98    0.25
  -3  -5  -3    4.53    0.32
   3  -5   3    3.84    0.27
   3  -5   3    3.89    0.23
   3   5   3    4.04    0.26
   3   5   3    3.85    0.25
  -3   5  -3    4.46    0.28
  -4  -5  -3    9.43    0.46
   4  -5   3    8.96    0.40
   4  -5   3    9.26    0.42
   4  -5   3    9.03    0.38
  -4   5  -3    9.51    0.43
   4   5   3    9.15    0.41
   4   5   3    9.11    0.40
  -5  -5  -3    0.27    0.18
   5  -5   3    0.24    0.13
   5  -5   3    0.38    0.11
   5  -5   3    0.48    0.14
   5   5   3    0.26    0.13
   5   5   3    0.25    0.12
  -5   5  -3    0.39    0.14
   6  -5   3   15.62    0.62
   6  -5   3   15.94    0.58
   6  -5   3   16.54    0.63
  -6  -5  -3   16.38    0.67
   6   5   3   15.58    0.62
   6   5   3   16.02    0.60
  -6   5  -3   16.40    0.64
   7  -5   3    2.21    0.20
  -7  -5  -3    2.14    0.25
   7  -5   3    2.29    0.22
   7   5   3    2.28    0.22
  -7   5  -3    1.99    0.22
   7   5   3    2.29    0.18
   8  -5   3   25.48    0.93
  -8  -5  -3   24.79    0.95
   8  -5   3   26.54    0.92
  -8   5  -3   24.83    0.94
   8   5   3   24.74    0.92
   8   5   3   25.04    0.89
  -9  -5  -3    0.68    0.22
   9  -5   3    0.97    0.17
   9  -5   3    0.83    0.19
   9   5   3    0.78    0.19
   9   5   3    0.82    0.14
  -9   5  -3    0.75    0.20
  10  -5   3    4.40    0.31
 -10  -5  -3    5.15    0.41
  10  -5   3    4.70    0.36
  10   5   3    4.27    0.34
  10   5   3    4.32    0.27
 -10   5  -3    4.91    0.39
 -11  -5  -3    2.77    0.30
  11  -5   3    2.44    0.22
  11  -5   3    2.61    0.27
  11   5   3    2.23    0.22
  11   5   3    2.42    0.25
 -12  -5  -3    0.20    0.24
  12  -5   3    0.03    0.21
  12  -5   3    0.31    0.15
  12   5   3   -0.01    0.11
  12   5   3   -0.01    0.18
  10  -6  -3    1.84    0.21
 -10  -6   3    2.07    0.39
  10  -6  -3    1.89    0.21
 -10   6   3    1.71    0.33
  10   6  -3    1.57    0.22
  10   6  -3    1.64    0.17
   9  -6  -3    1.43    0.19
   9  -6  -3    1.06    0.18
  -9  -6   3    1.05    0.34
  -9   6   3    1.17    0.28
   9   6  -3    1.05    0.16
   9   6  -3    1.18    0.21
   8  -6  -3    5.03    0.33
   8  -6  -3    5.28    0.33
  -8  -6   3    4.82    0.44
   8   6  -3    4.82    0.30
  -8   6   3    4.67    0.43
   8   6  -3    5.21    0.35
   7  -6  -3    6.11    0.36
  -7  -6   3    6.29    0.52
   7  -6  -3    6.53    0.37
   7   6  -3    6.21    0.38
   7   6  -3    6.26    0.34
  -7   6   3    6.37    0.43
  -6  -6   3    1.81    0.31
   6  -6  -3    1.58    0.19
   6  -6  -3    2.08    0.21
   6   6  -3    1.76    0.20
   6   6  -3    2.12    0.19
  -6   6   3    2.20    0.25
  -5  -6   3    9.14    0.57
   5  -6  -3    9.27    0.44
   5  -6  -3    9.64    0.45
   5   6  -3    9.42    0.43
   5   6  -3    9.10    0.45
  -5   6   3    9.48    0.46
   4  -6  -3   29.71    1.08
   4  -6  -3   30.29    1.08
  -4  -6   3   30.99    1.15
   4   6  -3   30.18    1.08
  -4   6   3   32.03    1.09
   4   6  -3   30.56    1.09
  -3  -6   3   10.40    0.52
   3  -6  -3    9.93    0.46
   3  -6  -3   10.32    0.48
   3   6  -3    9.78    0.45
   3   6  -3    9.99    0.46
  -3   6   3   10.02    0.44
   2  -6  -3    1.96    0.21
  -2  -6   3    2.41    0.25
   2  -6  -3    2.09    0.23
   2   6  -3    2.43    0.22
   2   6  -3    2.57    0.22
  -2   6   3    2.01    0.18
  -1  -6   3    2.07    0.23
   1  -6  -3    2.56    0.25
  -1   6   3    2.04    0.18
   1   6  -3    2.06    0.21
   1   6  -3    2.65    0.26
   0  -6   3    5.75    0.37
   0  -6  -3    6.46    0.42
   0   6  -3    5.87    0.35
   0   6  -3    5.93    0.35
   0   6   3    5.94    0.32
  -1  -6  -3   11.20    0.55
   1  -6   3   11.10    0.50
   1   6   3   12.32    0.52
  -1   6  -3   11.95    0.51
   1   6   3   11.63    0.48
  -2  -6  -3   21.51    0.84
   2  -6   3   21.70    0.79
   2   6   3   20.40    0.80
   2   6   3   21.37    0.78
  -2   6  -3   21.83    0.81
   3  -6   3   14.37    0.61
  -3  -6  -3   15.03    0.66
   3  -6   3   14.49    0.58
  -3   6  -3   15.56    0.62
   3   6   3   15.02    0.59
   3   6   3   15.42    0.61
   4  -6   3    1.08    0.16
   4  -6   3    0.74    0.17
  -4  -6  -3    1.02    0.23
   4  -6   3    0.90    0.15
   4   6   3    0.83    0.16
  -4   6  -3    1.17    0.19
   4   6   3    0.97    0.17
   5  -6   3    6.13    0.34
   5  -6   3    6.12    0.37
   5  -6   3    5.90    0.32
  -5  -6  -3    6.40    0.43
  -5   6  -3    5.73    0.37
   5   6   3    5.95    0.35
   5   6   3    5.84    0.34
   6  -6   3    4.06    0.33
   6  -6   3    4.35    0.32
  -6  -6  -3    4.31    0.40
  -6   6  -3    3.86    0.32
   6   6   3    4.16    0.31
   6   6   3    4.16    0.29
  -7  -6  -3    0.58    0.24
   7  -6   3    0.22    0.17
   7  -6   3    0.22    0.16
   7   6   3    0.32    0.14
  -7   6  -3    0.05    0.17
   7   6   3    0.25    0.18
  -8  -6  -3    7.34    0.50
   8  -6   3    6.51    0.38
   8  -6   3    6.26    0.39
   8   6   3    6.21    0.39
   8   6   3    6.04    0.35
  -8   6  -3    6.59    0.40
   9  -6   3    0.93    0.21
   9  -6   3    0.84    0.19
  -9  -6  -3    0.60    0.26
   9   6   3    0.97    0.21
   9   6   3    1.04    0.17
  -9   6  -3    0.80    0.22
  10  -6   3    3.75    0.33
  10  -6   3    3.74    0.36
 -10  -6  -3    3.36    0.36
  10   6   3    3.28    0.28
  10   6   3    3.54    0.30
   6  -7  -3    0.09    0.17
   6  -7  -3    0.36    0.19
  -6  -7   3    0.54    0.29
   6   7  -3   -0.07    0.15
   6   7  -3    0.22    0.18
   5  -7  -3   10.36    0.49
   5  -7  -3    9.96    0.49
  -5  -7   3   10.12    0.61
   5   7  -3    9.99    0.50
   5   7  -3    9.52    0.48
   4  -7  -3    0.44    0.20
  -4  -7   3    1.00    0.27
   4   7  -3    0.59    0.18
   4   7  -3    0.93    0.21
   3  -7  -3    4.14    0.36
  -3  -7   3    4.09    0.36
   3   7  -3    4.17    0.35
   3   7  -3    4.59    0.36
  -2  -7   3    0.13    0.22
   2  -7  -3   -0.05    0.20
   2   7  -3    0.14    0.18
   2   7  -3    0.07    0.16
   1  -7  -3    0.14    0.21
  -1  -7   3    0.38    0.21
   1   7  -3    0.00    0.18
   0  -7   3    0.64    0.20
   0  -7  -3    0.46    0.24
   0   7  -3    0.48    0.19
   0   7   3    0.37    0.16
  -1  -7  -3   14.51    0.70
   1  -7   3   14.96    0.64
  -1   7  -3   15.30    0.65
   1   7   3   15.48    0.61
   2  -7   3    2.37    0.24
  -2  -7  -3    2.70    0.31
   2   7   3    2.39    0.23
  -2   7  -3    2.07    0.25
  -3  -7  -3   22.57    0.95
   3  -7   3   23.74    0.88
   3   7   3   24.15    0.90
   3   7   3   23.59    0.88
  -3   7  -3   23.88    0.91
   4  -7   3    0.17    0.17
  -4  -7  -3    0.02    0.25
  -4   7  -3    0.06    0.19
   4   7   3   -0.06    0.16
   4   7   3    0.13    0.18
   5  -7   3    1.69    0.23
  -5  -7  -3    2.17    0.32
  -5   7  -3    1.68    0.25
   5   7   3    1.18    0.19
   5   7   3    1.51    0.22
   6  -7   3   -0.01    0.18
  -6  -7  -3    0.07    0.27
   6   7   3    0.23    0.16
   6   7   3    0.25    0.19
  -6   7  -3    0.33    0.20
  15   0  -4    0.10    0.16
 -15   0   4   -0.05    0.24
  14   0  -4   21.09    0.75
 -14   0   4   18.91    0.83
  13   0  -4    0.03    0.13
 -13   0   4   -0.14    0.20
 -12   0   4    8.02    0.45
  12   0  -4    8.49    0.38
  11   0  -4    0.00    0.11
  11   0  -4    0.25    0.09
 -11   0   4    0.11    0.17
  10   0  -4   60.56    2.03
 -10   0   4   60.87    2.07
  10   0  -4   64.19    2.01
   9   0  -4    0.03    0.07
   9   0  -4    0.07    0.03
   9   0  -4    0.14    0.10
  -9   0   4   -0.01    0.13
  -8   0   4   41.91    1.40
   8   0  -4   42.11    1.33
   8   0  -4   43.43    1.35
   8   0  -4   39.42    1.37
   8   0  -4   40.27    1.33
   7   0  -4    0.01    0.08
  -6   0   4  416.39   12.67
   6   0  -4  375.77   12.63
   6   0  -4  400.26   12.99
   6   0  -4  376.39   13.03
   6   0  -4  407.88   13.38
   5   0  -4    0.03    0.04
   5   0  -4    0.06    0.04
   5   0  -4   -0.07    0.06
   5   0  -4    0.00    0.03
  -5   0   4   -0.06    0.07
   4   0  -4    7.15    0.23
   4   0  -4    5.98    0.23
  -4   0   4    6.84    0.26
   4   0  -4    5.82    0.24
   3   0  -4    0.02    0.03
   3   0  -4   -0.01    0.04
   3   0  -4   -0.03    0.05
  -3   0   4    0.03    0.05
   3   0  -4   -0.01    0.03
   2   0  -4   17.70    0.65
  -2   0   4   21.07    0.65
  -2   0   4   16.99    0.66
   2   0  -4   19.36    0.65
   2   0  -4   21.57    0.63
  -1   0   4    0.01    0.04
   1   0  -4    0.04    0.04
   1   0  -4    0.13    0.03
  -1   0   4   -0.01    0.05
   1   0  -4    0.02    0.04
   0   0  -4  170.34    5.79
   0   0   4  170.53    5.18
   0   0  -4  166.71    5.19
   0   0  -4  147.22    5.20
   0   0   4  154.97    5.21
   1   0   4   -0.03    0.04
  -1   0  -4    0.01    0.03
  -1   0  -4    0.04    0.03
   1   0   4    0.02    0.04
  -1   0  -4    0.07    0.04
   2   0   4   72.53    2.28
  -2   0  -4   72.80    2.26
  -2   0  -4   67.70    2.28
  -2   0  -4   66.46    2.27
   2   0   4   74.24    2.29
   3   0   4    0.09    0.05
   3   0   4   -0.02    0.05
  -3   0  -4    0.04    0.02
  -3   0  -4    0.23    0.06
   4   0   4    4.68    0.20
   4   0   4    4.56    0.20
  -4   0  -4    4.83    0.16
   5   0   4    0.03    0.07
   5   0   4   -0.04    0.05
   5   0   4    0.02    0.05
  -5   0  -4    0.10    0.09
   6   0   4   16.26    0.57
  -6   0  -4   17.20    0.62
   6   0   4   17.79    0.58
  -6   0  -4   15.82    0.55
   7   0   4    0.38    0.07
   7   0   4    0.04    0.05
  -7   0  -4    0.07    0.05
   7   0   4   -0.06    0.08
  -7   0  -4    0.21    0.12
   8   0   4  506.04   15.62
   8   0   4  463.84   15.34
   8   0   4  448.85   14.92
  -8   0  -4  451.44   14.90
  -8   0  -4  458.43   14.80
   9   0   4    0.06    0.06
  -9   0  -4   -0.02    0.13
   9   0   4    0.04    0.06
   9   0   4   -0.14    0.11
  -9   0  -4    0.05    0.07
 -10   0  -4   67.27    2.19
  10   0   4   65.82    2.15
  10   0   4   63.78    2.09
  10   0   4   63.70    2.09
  11   0   4    0.07    0.13
  11   0   4    0.06    0.06
 -11   0  -4   -0.05    0.18
  12   0   4   41.69    1.41
  12   0   4   38.60    1.32
 -12   0  -4   43.61    1.46
  13   0   4   -0.07    0.15
 -13   0  -4    0.18    0.21
  14   0   4   14.24    0.62
 -14   0  -4   16.06    0.69
  15   0   4   -0.04    0.17
 -15   0  -4   -0.04    0.22
  15  -1  -4   21.73    0.78
  15   1  -4   22.66    0.81
 -15   1   4   18.96    0.88
  14  -1  -4    1.40    0.18
  14   1  -4    1.20    0.19
 -14   1   4    1.37    0.28
 -13  -1   4   50.17    1.83
  13  -1  -4   58.08    1.79
  13   1  -4   55.82    1.81
 -13   1   4   51.10    1.86
  12  -1  -4   11.81    0.48
 -12  -1   4   11.12    0.52
  12   1  -4   12.00    0.50
 -12   1   4   11.22    0.57
  12   1  -4   12.59    0.46
  11  -1  -4    0.00    0.10
 -11  -1   4   -0.05    0.15
 -11   1   4    0.05    0.19
  11   1  -4    0.08    0.10
  11   1  -4    0.07    0.12
  10  -1  -4    0.07    0.04
  10  -1  -4    0.03    0.04
  10  -1  -4    0.06    0.10
 -10  -1   4   -0.09    0.13
 -10   1   4    0.13    0.17
  10   1  -4    0.04    0.09
  10   1  -4    0.02    0.11
  -9  -1   4    9.85    0.42
   9  -1  -4   10.26    0.35
   9  -1  -4   10.38    0.34
   9  -1  -4    9.89    0.39
   9   1  -4   10.43    0.34
   9   1  -4   10.10    0.39
   9   1  -4    9.79    0.41
  -9   1   4    9.55    0.40
   9   1  -4    9.88    0.33
  -9   1   4   10.24    0.46
  -8  -1   4   14.65    0.56
   8  -1  -4   15.35    0.51
   8  -1  -4   15.90    0.52
   8  -1  -4   15.21    0.55
  -8   1   4   15.79    0.60
   8   1  -4   15.26    0.51
  -8   1   4   14.34    0.55
   8   1  -4   15.51    0.57
   8   1  -4   16.43    0.54
   8   1  -4   15.25    0.51
   7  -1  -4   55.07    1.81
  -7  -1   4   56.58    1.81
   7  -1  -4   55.97    1.78
   7  -1  -4   54.23    1.79
   7   1  -4   55.90    1.78
   7   1  -4   55.10    1.82
   7   1  -4   58.23    1.80
   7   1  -4   55.41    1.78
  -7   1   4   55.87    1.84
  -7   1   4   52.01    1.80
   6  -1  -4    3.06    0.13
   6  -1  -4    2.66    0.17
   6  -1  -4    2.94    0.14
  -6  -1   4    3.11    0.18
   6   1  -4    2.81    0.18
   6   1  -4    3.17    0.14
  -6   1   4    2.76    0.20
  -6   1   4    2.51    0.14
   6   1  -4    3.03    0.15
   6   1  -4    2.98    0.13
   5  -1  -4   31.27    1.07
  -5  -1   4   33.19    1.06
   5  -1  -4   32.60    1.05
   5  -1  -4   31.79    1.05
   5   1  -4   31.83    1.05
   5   1  -4   33.39    1.05
   5   1  -4   33.06    1.06
   5   1  -4   31.55    1.07
  -5   1   4   30.81    1.04
  -5   1   4   32.41    1.08
  -4  -1   4    9.92    0.35
   4  -1  -4    9.45    0.36
   4  -1  -4    9.59    0.35
   4  -1  -4    9.41    0.35
   4   1  -4   10.58    0.35
   4   1  -4    9.62    0.34
   4   1  -4    9.68    0.36
  -4   1   4   10.37    0.32
   4   1  -4   10.13    0.35
   3  -1  -4    8.77    0.33
  -3  -1   4    9.26    0.33
   3  -1  -4    9.35    0.34
   3   1  -4    9.73    0.34
   3   1  -4    9.23    0.34
   3   1  -4    9.62    0.33
   3   1  -4    9.86    0.34
  -3   1   4    9.76    0.35
  -2  -1   4   11.65    0.39
   2  -1  -4   11.25    0.36
  -2  -1   4   10.94    0.40
   2  -1  -4   11.54    0.40
   2   1  -4   10.70    0.40
  -2   1   4   11.58    0.41
  -2   1   4   11.49    0.40
   2   1  -4   11.30    0.40
   2   1  -4   11.49    0.39
   1  -1  -4   13.56    0.45
   1  -1  -4   13.37    0.47
  -1  -1   4   13.50    0.47
  -1  -1   4   13.85    0.46
   1   1  -4   13.29    0.47
   1   1  -4   14.16    0.46
  -1   1   4   14.34    0.47
  -1   1   4   13.32    0.47
   1   1  -4   13.18    0.46
   0  -1   4  166.01    5.20
   0  -1   4  166.87    5.35
   0  -1  -4  163.42    5.24
   0  -1  -4  167.30    5.20
   0   1   4  162.06    5.24
   0   1  -4  158.35    5.19
   0   1  -4  158.29    5.21
   0   1  -4  171.21    5.58
   0   1   4  145.57    5.52
   1  -1   4  520.71   16.12
  -1  -1  -4  477.88   16.14
  -1  -1  -4  493.99   15.73
   1  -1   4  475.91   16.38
  -1   1  -4  458.77   15.60
   1   1   4  481.84   15.94
   1   1   4  447.41   16.10
   1   1   4  465.71   16.29
   2  -1   4  238.10    8.38
  -2  -1  -4  239.20    7.66
  -2  -1  -4  236.16    7.70
   2  -1   4  246.10    7.70
   2  -1   4  264.49    7.63
   2   1   4  234.77    7.70
   2   1   4  229.87    7.68
  -2   1  -4  233.96    7.72
   2   1   4  233.72    7.70
  -2   1  -4  242.72    7.70
   3  -1   4    3.18    0.17
  -3  -1  -4    2.92    0.15
   3  -1   4    3.30    0.16
  -3  -1  -4    3.61    0.15
   3   1   4    3.37    0.15
  -3   1  -4    3.23    0.16
  -3   1  -4    3.54    0.17
   3   1   4    3.74    0.16
   3   1   4    3.33    0.16
   4  -1   4   35.06    1.24
  -4  -1  -4   39.75    1.24
   4  -1   4   39.54    1.26
   4   1   4   38.60    1.25
   4   1   4   37.18    1.25
   4   1   4   38.92    1.26
  -4   1  -4   38.84    1.27
   4   1   4   37.80    1.25
   5  -1   4  109.52    3.64
   5  -1   4  120.09    3.64
   5  -1   4  106.32    3.63
  -5  -1  -4  115.67    3.62
   5   1   4  119.19    3.65
   5   1   4  110.88    3.62
   5   1   4  114.46    3.66
  -5   1  -4  107.62    3.65
   5   1   4  114.82    3.63
  -6  -1  -4    0.87    0.08
   6  -1   4    0.96    0.09
   6  -1   4    0.69    0.07
   6  -1   4    0.73    0.12
   6   1   4    0.82    0.08
   6   1   4    0.91    0.08
   6   1   4    0.67    0.10
  -6   1  -4    0.90    0.05
  -6   1  -4    0.75    0.12
   6   1   4    0.75    0.10
   7  -1   4   56.28    1.93
  -7  -1  -4   59.20    1.93
   7  -1   4   60.43    1.94
   7   1   4   60.51    1.95
   7   1   4   60.39    1.96
   7   1   4   57.61    1.93
   7   1   4   57.35    1.93
  -7   1  -4   65.57    1.91
  -7   1  -4   59.57    1.99
  -8  -1  -4    0.05    0.08
   8  -1   4    0.17    0.07
   8  -1   4    0.08    0.06
   8  -1   4    0.08    0.11
   8   1   4    0.19    0.06
  -8   1  -4    0.18    0.05
   8   1   4    0.20    0.10
   8   1   4    0.04    0.09
   8   1   4    0.10    0.06
  -8   1  -4    0.05    0.13
   9  -1   4   16.02    0.60
   9  -1   4   15.90    0.53
   9  -1   4   15.23    0.52
  -9  -1  -4   15.26    0.54
   9   1   4   14.18    0.56
  -9   1  -4   15.69    0.62
   9   1   4   15.10    0.52
   9   1   4   14.21    0.52
   9   1   4   14.98    0.58
 -10  -1  -4   27.56    0.94
  10  -1   4   28.17    0.99
  10  -1   4   28.03    0.91
  10   1   4   25.53    0.90
  10   1   4   28.58    0.90
  10   1   4   26.83    0.96
  10   1   4   27.31    0.97
 -10   1  -4   27.75    1.01
  11  -1   4    5.51    0.23
  11  -1   4    5.63    0.34
  11   1   4    5.80    0.21
 -11   1  -4    5.65    0.38
  11   1   4    5.13    0.33
  11   1   4    5.09    0.30
  11   1   4    4.88    0.20
  12  -1   4    0.46    0.17
  12  -1   4    0.51    0.08
 -12   1  -4    0.46    0.20
  12   1   4    0.41    0.14
  12   1   4    0.45    0.05
  12   1   4    0.56    0.06
  12   1   4    0.14    0.16
 -13  -1  -4    3.09    0.30
  13  -1   4    2.96    0.13
  13  -1   4    2.77    0.26
  13   1   4    2.86    0.27
 -13   1  -4    3.03    0.29
 -14  -1  -4   31.14    1.18
  14  -1   4   29.11    1.12
  14   1   4   31.42    1.10
 -14   1  -4   32.17    1.17
 -15  -1  -4   36.65    1.34
  15  -1   4   33.38    1.29
 -15   1  -4   38.05    1.34
 -15  -2   4    4.83    0.46
  15  -2  -4    4.97    0.32
 -15   2   4    4.33    0.41
  14  -2  -4    0.83    0.16
 -14  -2   4    1.14    0.26
 -14   2   4    0.93    0.29
  14   2  -4    1.12    0.16
 -13  -2   4    5.06    0.43
  13  -2  -4    4.76    0.28
  13   2  -4    4.85    0.27
 -13   2   4    3.54    0.35
  12  -2  -4   25.44    0.81
 -12  -2   4   23.85    0.96
  12  -2  -4   25.58    0.87
  12   2  -4   25.92    0.87
 -12   2   4   22.85    0.97
 -11  -2   4    2.04    0.25
  11  -2  -4    2.05    0.19
  11  -2  -4    2.19    0.13
 -11   2   4    1.63    0.24
  11   2  -4    2.18    0.20
  11   2  -4    2.03    0.19
  10  -2  -4    3.38    0.22
  10  -2  -4    3.14    0.17
  10   2  -4    3.77    0.26
  10   2  -4    3.28    0.14
  10   2  -4    3.39    0.21
 -10   2   4    3.27    0.34
  10   2  -4    3.20    0.14
  -9  -2   4  120.38    4.12
   9  -2  -4  125.81    4.12
   9  -2  -4  127.26    4.19
   9   2  -4  130.84    4.15
   9   2  -4  128.15    4.14
   9   2  -4  137.64    4.09
  -9   2   4  130.91    4.18
   9   2  -4  125.70    4.11
   8  -2  -4   27.46    0.92
   8  -2  -4   26.59    0.94
   8  -2  -4   28.69    0.91
  -8  -2   4   26.46    0.93
   8   2  -4   26.04    0.90
  -8   2   4   28.19    1.00
   8   2  -4   29.75    0.91
   8   2  -4   27.43    0.93
  -7  -2   4   60.53    2.03
   7  -2  -4   60.58    2.05
   7  -2  -4   61.51    2.03
   7  -2  -4   64.39    2.03
   7   2  -4   64.44    2.07
  -7   2   4   62.57    2.09
  -7   2   4   64.16    2.02
   7   2  -4   62.30    2.02
   7   2  -4   61.71    2.04
   7   2  -4   66.80    2.03
   6  -2  -4   48.23    1.53
   6  -2  -4   46.01    1.52
  -6  -2   4   43.93    1.52
   6  -2  -4   46.22    1.54
  -6   2   4   48.23    1.50
   6   2  -4   49.30    1.52
   6   2  -4   46.30    1.52
   6   2  -4   46.61    1.53
   5  -2  -4  328.43   10.31
   5  -2  -4  317.89   10.31
   5  -2  -4  306.42   10.30
  -5  -2   4  319.11   10.26
   5   2  -4  308.41   10.40
   5   2  -4  330.94   10.35
  -5   2   4  325.05   10.28
   5   2  -4  350.71   10.31
  -5   2   4  314.14   10.31
   5   2  -4  318.13   11.09
   4  -2  -4   77.11    2.46
  -4  -2   4   75.00    2.44
   4  -2  -4   73.92    2.46
   4   2  -4   77.07    2.46
   4   2  -4   76.40    2.46
  -4   2   4   76.66    2.42
  -4   2   4   76.37    2.48
   4   2  -4   78.64    2.46
   4   2  -4   75.63    2.47
   3  -2  -4   97.61    3.18
  -3  -2   4   94.27    3.18
  -3  -2   4   96.51    3.14
   3  -2  -4   97.71    3.16
   3   2  -4   97.67    3.20
   3   2  -4   97.91    3.19
  -3   2   4  100.59    3.13
  -3   2   4  102.44    3.18
  -3   2   4  101.60    3.17
  -2  -2   4   70.63    2.34
   2  -2  -4   69.57    2.33
  -2  -2   4   70.54    2.32
  -2  -2   4   68.04    2.34
   2   2  -4   73.65    2.35
  -2   2   4   73.36    2.31
  -2   2   4   72.99    2.34
   2   2  -4   73.75    2.33
  -2   2   4   78.53    2.34
  -1  -2   4   28.64    1.02
   1  -2  -4   30.50    1.01
  -1  -2   4   29.98    1.01
   1  -2  -4   31.14    1.01
  -1  -2   4   30.65    1.02
  -1   2   4   31.55    1.02
   1   2  -4   30.23    1.02
  -1   2   4   31.77    1.02
  -1   2   4   31.66    0.99
   0  -2  -4   44.58    1.47
   0  -2   4   45.22    1.47
   0  -2  -4   43.42    1.47
   0  -2   4   41.37    1.47
   0  -2   4   47.07    1.48
   0   2  -4   45.93    1.47
   0   2   4   46.37    1.46
   0   2  -4   45.66    1.48
   0   2   4   45.78    1.47
   0   2   4   46.12    1.48
  -1  -2  -4    1.53    0.12
   1  -2   4    1.34    0.11
   1  -2   4    1.46    0.10
   1  -2   4    1.50    0.13
  -1  -2  -4    1.65    0.12
   1   2   4    1.56    0.10
   1   2   4    1.56    0.11
   1   2   4    1.66    0.12
  -1   2  -4    1.61    0.12
  -1   2  -4    1.53    0.12
   2  -2   4   30.75    1.02
  -2  -2  -4   30.19    1.01
   2  -2   4   28.77    1.01
  -2  -2  -4   30.10    1.01
   2  -2   4   31.51    0.99
   2   2   4   30.25    1.01
   2   2   4   30.79    1.00
   2   2   4   31.07    1.00
  -2   2  -4   31.31    1.02
  -2   2  -4   29.72    1.01
   3  -2   4   49.32    1.53
   3  -2   4   49.88    1.57
  -3  -2  -4   45.26    1.55
   3  -2   4   46.93    1.57
  -3  -2  -4   47.59    1.56
   3   2   4   47.19    1.55
  -3   2  -4   49.11    1.57
   3   2   4   47.33    1.56
  -3   2  -4   47.40    1.56
   3   2   4   47.25    1.56
   4  -2   4   33.17    1.03
   4  -2   4   32.65    1.07
  -4  -2  -4   31.48    1.06
   4  -2   4   31.74    1.08
  -4   2  -4   32.06    1.08
  -4   2  -4   30.58    1.06
   4   2   4   32.05    1.06
   4   2   4   31.79    1.06
   4   2   4   31.91    1.05
   5  -2   4    8.77    0.35
   5  -2   4    9.67    0.32
   5  -2   4   10.16    0.37
   5  -2   4   10.67    0.40
  -5  -2  -4    9.59    0.37
   5   2   4    9.21    0.36
   5   2   4    9.34    0.35
   5   2   4    9.65    0.36
   5   2   4    9.50    0.37
  -5   2  -4    9.42    0.39
   6  -2   4   43.58    1.39
   6  -2   4   45.27    1.44
   6  -2   4   40.73    1.42
  -6  -2  -4   42.09    1.43
   6  -2   4   44.47    1.46
  -6   2  -4   43.04    1.47
   6   2   4   43.94    1.44
   6   2   4   44.23    1.42
   6   2   4   44.64    1.43
   6   2   4   42.56    1.42
   7  -2   4  152.34    4.84
  -7  -2  -4  143.65    4.81
   7  -2   4  146.40    4.78
   7  -2   4  157.18    4.82
   7   2   4  150.69    4.85
   7   2   4  141.55    4.82
   7   2   4  154.73    4.82
   7   2   4  156.22    4.83
  -7   2  -4  147.69    4.85
   8  -2   4    7.66    0.35
  -8  -2  -4    6.52    0.31
   8  -2   4    7.49    0.30
   8   2   4    7.14    0.31
   8   2   4    7.60    0.34
  -8   2  -4    6.07    0.37
   8   2   4    7.37    0.29
   9  -2   4   52.83    1.67
  -9  -2  -4   50.08    1.68
   9  -2   4   53.90    1.72
   9   2   4   51.78    1.65
   9   2   4   49.14    1.68
  -9   2  -4   46.21    1.73
   9   2   4   51.33    1.70
  10  -2   4    7.64    0.40
 -10  -2  -4    7.54    0.36
  10   2   4    7.70    0.34
 -10   2  -4    7.30    0.45
  10   2   4    7.86    0.30
  10   2   4    7.91    0.36
 -11  -2  -4  119.57    3.87
  11  -2   4  122.25    3.91
  11  -2   4  121.47    3.84
  11   2   4  118.43    3.82
 -11   2  -4  122.38    3.95
  11   2   4  118.11    3.89
  11   2   4  116.45    3.87
  12  -2   4    0.11    0.08
  12  -2   4    0.13    0.18
  12   2   4    0.07    0.06
 -12   2  -4    0.09    0.22
  12   2   4    0.72    0.18
  13  -2   4    1.07    0.22
  13  -2   4    0.89    0.10
 -13   2  -4    1.09    0.26
  13   2   4    0.86    0.20
  13   2   4    1.19    0.08
  13   2   4    1.14    0.08
  14  -2   4   23.32    0.93
  14  -2   4   23.26    0.80
  14   2   4   24.51    0.92
 -14   2  -4   26.99    1.00
  15  -2   4    4.40    0.39
 -15   2  -4    5.45    0.49
  15   2   4    5.12    0.39
  14  -3  -4    6.64    0.25
  14  -3  -4    7.09    0.35
 -14  -3   4    6.96    0.55
  14   3  -4    6.42    0.36
 -14   3   4    5.83    0.54
 -13  -3   4    0.65    0.27
  13  -3  -4    0.81    0.15
  13  -3  -4    0.88    0.10
 -13   3   4    0.86    0.30
  13   3  -4    0.97    0.16
 -12  -3   4   25.49    1.01
  12  -3  -4   26.01    0.86
  12  -3  -4   25.73    0.89
  12   3  -4   24.82    0.82
 -12   3   4   24.20    1.02
  12   3  -4   26.01    0.90
  11  -3  -4   13.32    0.47
 -11  -3   4   12.83    0.64
  11  -3  -4   13.09    0.51
 -11   3   4   12.07    0.63
  11   3  -4   13.31    0.51
  11   3  -4   12.73    0.44
  10  -3  -4   53.81    1.75
 -10  -3   4   53.25    1.86
  10  -3  -4   54.32    1.77
  10   3  -4   53.56    1.73
 -10   3   4   53.99    1.86
  10   3  -4   52.94    1.78
   9  -3  -4    5.31    0.28
   9  -3  -4    5.95    0.25
  -9  -3   4    5.07    0.39
  -9   3   4    4.97    0.36
   9   3  -4    4.95    0.22
   9   3  -4    5.57    0.28
   8  -3  -4    0.05    0.08
   8  -3  -4    0.17    0.10
  -8  -3   4    0.22    0.17
  -8   3   4    0.04    0.17
   8   3  -4    0.08    0.07
   8   3  -4    0.07    0.10
  -7  -3   4   12.12    0.55
   7  -3  -4   12.49    0.46
   7  -3  -4   12.68    0.47
  -7   3   4   12.44    0.53
   7   3  -4   12.13    0.47
   7   3  -4   12.54    0.45
   6  -3  -4    4.32    0.22
   6  -3  -4    4.36    0.23
  -6  -3   4    4.38    0.31
  -6   3   4    4.43    0.29
   6   3  -4    4.26    0.23
   6   3  -4    4.63    0.21
   5  -3  -4    3.51    0.20
  -5  -3   4    2.90    0.14
  -5  -3   4    3.04    0.26
   5  -3  -4    3.22    0.18
   5   3  -4    3.13    0.19
  -5   3   4    3.37    0.24
   5   3  -4    3.73    0.18
  -5   3   4    3.20    0.14
  -4  -3   4   19.52    0.69
   4  -3  -4   21.36    0.73
   4  -3  -4   21.12    0.73
  -4  -3   4   20.15    0.77
  -4   3   4   21.66    0.74
   4   3  -4   21.89    0.73
  -4   3   4   21.33    0.75
   4   3  -4   21.05    0.73
  -4   3   4   21.92    0.69
  -3  -3   4    3.08    0.14
  -3  -3   4    3.19    0.19
  -3  -3   4    3.13    0.23
   3  -3  -4    3.44    0.18
   3  -3  -4    3.09    0.19
   3   3  -4    3.33    0.18
  -3   3   4    3.29    0.21
  -3   3   4    3.32    0.19
  -3   3   4    3.44    0.14
   3   3  -4    3.26    0.18
  -2  -3   4  149.63    4.96
   2  -3  -4  156.32    5.01
   2  -3  -4  155.31    5.00
  -2  -3   4  150.49    5.00
  -2   3   4  162.96    4.99
   2   3  -4  158.19    5.01
  -2   3   4  162.22    5.47
  -2   3   4  159.86    4.98
   2   3  -4  147.47    5.03
  -1  -3   4   32.07    1.09
  -1  -3   4   31.36    1.06
   1  -3  -4   32.14    1.08
   1  -3  -4   32.87    1.08
  -1  -3   4   31.64    1.09
   1   3  -4   32.48    1.08
  -1   3   4   33.72    1.08
  -1   3   4   33.41    1.06
   1   3  -4   31.59    1.08
   0  -3   4   41.45    1.40
   0  -3  -4   43.49    1.41
   0  -3   4   41.89    1.42
   0  -3   4   41.94    1.41
   0  -3  -4   42.63    1.42
   0   3   4   43.59    1.40
   0   3   4   44.35    1.39
   0   3  -4   42.80    1.41
   0   3  -4   41.93    1.41
   0   3   4   43.65    1.42
  -1  -3  -4  115.55    3.73
   1  -3   4  116.69    3.71
   1  -3   4  114.22    3.73
   1  -3   4  112.83    3.72
  -1  -3  -4  116.54    3.72
  -1   3  -4  117.83    3.74
   1   3   4  117.84    3.72
   1   3   4  116.03    3.73
  -1   3  -4  113.92    3.72
   1   3   4  116.33    3.72
  -2  -3  -4   50.81    1.68
  -2  -3  -4   51.89    1.68
   2  -3   4   50.55    1.68
   2  -3   4   51.47    1.66
   2  -3   4   50.97    1.69
   2   3   4   51.79    1.67
  -2   3  -4   51.54    1.68
  -2   3  -4   48.55    1.68
   2   3   4   51.95    1.66
   2   3   4   51.49    1.68
  -3  -3  -4   20.76    0.70
   3  -3   4   20.12    0.71
  -3  -3  -4   20.28    0.71
   3  -3   4   19.95    0.71
   3  -3   4   20.26    0.68
  -3   3  -4   19.82    0.71
   3   3   4   20.57    0.71
   3   3   4   20.53    0.70
   3   3   4   20.99    0.68
  -3   3  -4   18.97    0.70
   4  -3   4  199.04    6.45
   4  -3   4  203.27    6.36
  -4  -3  -4  200.61    6.40
  -4  -3  -4  201.08    6.38
   4  -3   4  200.15    6.44
   4   3   4  199.77    6.39
  -4   3  -4  190.64    6.38
  -4   3  -4  199.91    6.46
   4   3   4  201.69    6.44
   4   3   4  197.71    6.38
   5  -3   4    3.38    0.23
  -5  -3  -4    3.48    0.23
   5  -3   4    3.44    0.16
   5  -3   4    3.72    0.22
   5   3   4    3.73    0.20
   5   3   4    3.65    0.18
   5   3   4    3.72    0.22
  -5   3  -4    3.60    0.24
   6  -3   4   19.96    0.65
   6  -3   4   19.18    0.70
   6  -3   4   20.26    0.72
  -6  -3  -4   18.60    0.70
   6   3   4   19.39    0.68
  -6   3  -4   19.57    0.73
   6   3   4   20.28    0.67
   6   3   4   19.88    0.70
   7  -3   4   24.30    0.82
   7  -3   4   23.45    0.85
  -7  -3  -4   21.28    0.82
  -7   3  -4   23.59    0.86
   7   3   4   24.58    0.80
   7   3   4   23.95    0.83
   7   3   4   22.79    0.80
  -8  -3  -4   27.83    1.02
   8  -3   4   30.30    1.01
   8  -3   4   29.80    1.05
   8   3   4   29.15    1.02
  -8   3  -4   30.10    1.07
   8   3   4   30.28    1.00
   8   3   4   29.28    0.99
  -9  -3  -4    0.58    0.15
   9  -3   4    0.73    0.17
   9  -3   4    0.66    0.11
  -9   3  -4    0.54    0.19
   9   3   4    0.49    0.13
   9   3   4    0.66    0.10
  10  -3   4    9.03    0.42
  10  -3   4    8.58    0.36
 -10  -3  -4    7.71    0.40
  10   3   4    8.14    0.34
 -10   3  -4    8.50    0.48
  10   3   4    8.56    0.41
  11  -3   4   12.41    0.47
  11  -3   4   12.10    0.55
 -11  -3  -4   11.79    0.53
  11   3   4   12.03    0.52
 -11   3  -4   11.20    0.60
  11   3   4   12.00    0.44
 -12  -3  -4   28.84    1.00
  12  -3   4   27.50    1.02
  12  -3   4   27.55    0.94
  12   3   4   26.47    0.91
 -12   3  -4   26.63    1.07
  12   3   4   26.50    0.99
  13  -3   4   18.43    0.65
  13  -3   4   18.08    0.75
  13   3   4   17.73    0.61
  13   3   4   17.87    0.72
 -13   3  -4   18.66    0.84
  14  -3   4   14.39    0.65
  14  -3   4   14.32    0.51
 -14   3  -4   15.16    0.72
  14   3   4   14.23    0.62
  14   3   4   13.34    0.46
  13  -4  -4    7.76    0.33
 -13  -4   4    7.48    0.58
  13  -4  -4    7.39    0.37
  13   4  -4    7.44    0.39
  13   4  -4    7.71    0.28
 -13   4   4    7.20    0.58
 -12  -4   4    1.16    0.31
  12  -4  -4    1.23    0.16
  12  -4  -4    1.26    0.14
  12   4  -4    1.09    0.10
 -12   4   4    1.23    0.32
  12   4  -4    1.06    0.17
 -11  -4   4   52.36    1.81
  11  -4  -4   50.91    1.68
  11  -4  -4   51.15    1.67
  11   4  -4   50.57    1.65
 -11   4   4   49.01    1.79
  11   4  -4   49.31    1.69
  10  -4  -4   15.04    0.57
  10  -4  -4   15.72    0.56
 -10  -4   4   14.95    0.71
 -10   4   4   14.65    0.69
  10   4  -4   14.57    0.58
  10   4  -4   14.27    0.53
   9  -4  -4   37.55    1.22
   9  -4  -4   35.78    1.22
  -9  -4   4   35.99    1.33
  -9   4   4   36.24    1.31
   9   4  -4   35.84    1.19
   9   4  -4   34.54    1.23
   8  -4  -4    0.71    0.14
  -8  -4   4    0.37    0.21
   8  -4  -4    0.27    0.11
   8   4  -4    0.29    0.12
   8   4  -4    0.56    0.10
   7  -4  -4    2.48    0.21
   7  -4  -4    2.72    0.20
  -7  -4   4    2.86    0.29
  -7   4   4    2.50    0.25
   7   4  -4    2.70    0.22
   7   4  -4    2.47    0.18
  -6  -4   4   34.91    1.31
   6  -4  -4   38.71    1.24
   6  -4  -4   37.34    1.24
   6   4  -4   36.18    1.23
  -6   4   4   37.71    1.28
   6   4  -4   36.09    1.25
   5  -4  -4    2.29    0.20
   5  -4  -4    2.22    0.19
  -5  -4   4    2.40    0.25
   5   4  -4    2.51    0.21
  -5   4   4    2.31    0.21
   5   4  -4    2.33    0.18
  -4  -4   4    0.41    0.16
   4  -4  -4    0.56    0.11
  -4   4   4    0.46    0.13
   4   4  -4    0.38    0.10
   4   4  -4    0.51    0.11
   3  -4  -4  205.72    6.54
   3  -4  -4  208.61    6.55
  -3  -4   4  193.93    6.53
   3   4  -4  203.75    6.54
   3   4  -4  199.11    6.57
  -3   4   4  205.75    6.48
  -3   4   4  203.91    6.54
   2  -4  -4   17.20    0.62
  -2  -4   4   16.37    0.56
  -2  -4   4   16.04    0.62
   2  -4  -4   16.85    0.62
  -2  -4   4   17.71    0.65
   2   4  -4   16.25    0.61
  -2   4   4   17.26    0.63
  -2   4   4   17.01    0.58
  -2   4   4   17.41    0.62
   2   4  -4   17.48    0.62
  -1  -4   4    4.20    0.26
  -1  -4   4    4.36    0.20
   1  -4  -4    4.88    0.26
   1  -4  -4    4.48    0.24
  -1  -4   4    4.37    0.26
  -1   4   4    4.68    0.21
   1   4  -4    4.41    0.24
   1   4  -4    4.06    0.24
  -1   4   4    4.78    0.24
   0  -4  -4    0.28    0.10
   0  -4   4    0.23    0.08
   0  -4  -4    0.19    0.12
   0  -4   4    0.08    0.11
   0  -4   4    0.14    0.10
   0  -4   4    0.04    0.09
   0   4   4    0.24    0.10
   0   4   4    0.14    0.08
   0   4  -4    0.06    0.09
   0   4  -4    0.20    0.10
   0   4   4    0.07    0.08
   1  -4   4    5.67    0.26
  -1  -4  -4    5.56    0.28
   1  -4   4    5.38    0.29
   1  -4   4    5.54    0.29
   1  -4   4    5.57    0.27
  -1  -4  -4    5.31    0.30
  -1   4  -4    5.71    0.28
   1   4   4    5.90    0.29
  -1   4  -4    6.29    0.29
   1   4   4    5.48    0.26
   1   4   4    5.96    0.25
   2  -4   4    1.92    0.17
   2  -4   4    1.74    0.14
   2  -4   4    1.74    0.17
   2  -4   4    1.73    0.16
  -2  -4  -4    1.68    0.17
  -2  -4  -4    1.75    0.17
  -2   4  -4    1.85    0.16
   2   4   4    1.78    0.17
   2   4   4    2.05    0.16
   2   4   4    1.54    0.13
  -2   4  -4    1.92    0.19
   3  -4   4   25.43    0.93
   3  -4   4   26.58    0.93
   3  -4   4   26.08    0.91
  -3  -4  -4   27.44    0.94
   3  -4   4   26.65    0.89
  -3   4  -4   25.49    0.92
  -3   4  -4   27.20    0.93
   3   4   4   25.66    0.91
   3   4   4   28.36    0.88
   3   4   4   25.81    0.91
   4  -4   4   22.46    0.75
   4  -4   4   21.34    0.78
   4  -4   4   22.64    0.79
  -4  -4  -4   20.96    0.80
   4   4   4   21.86    0.77
  -4   4  -4   22.29    0.80
   4   4   4   21.77    0.78
   4   4   4   22.46    0.74
   5  -4   4  166.53    5.23
   5  -4   4  163.43    5.27
   5  -4   4  166.26    5.27
  -5  -4  -4  162.81    5.28
   5   4   4  164.72    5.25
   5   4   4  160.64    5.27
  -5   4  -4  161.85    5.27
   6  -4   4    2.53    0.22
  -6  -4  -4    2.26    0.21
   6  -4   4    3.01    0.24
   6   4   4    2.46    0.22
  -6   4  -4    2.63    0.24
   6   4   4    2.34    0.19
   7  -4   4   -0.02    0.11
  -7  -4  -4    0.37    0.16
   7  -4   4    0.02    0.13
   7   4   4    0.20    0.10
  -7   4  -4    0.38    0.16
   7   4   4    0.05    0.13
   8  -4   4   63.53    2.07
   8  -4   4   63.81    2.10
  -8  -4  -4   60.10    2.09
   8   4   4   62.05    2.08
  -8   4  -4   61.85    2.11
   8   4   4   64.30    2.05
   9  -4   4    3.73    0.26
   9  -4   4    3.52    0.31
  -9  -4  -4    2.81    0.25
   9   4   4    3.06    0.22
   9   4   4    3.56    0.26
  -9   4  -4    3.30    0.33
  10  -4   4    6.21    0.33
  10  -4   4    6.55    0.39
 -10  -4  -4    5.97    0.39
  10   4   4    5.99    0.34
  10   4   4    6.12    0.29
 -10   4  -4    6.54    0.42
  11  -4   4   32.79    1.12
 -11  -4  -4   31.87    1.16
  11  -4   4   32.69    1.18
 -11   4  -4   32.97    1.20
  11   4   4   31.20    1.14
  11   4   4   31.60    1.08
  12  -4   4   13.57    0.53
  12  -4   4   13.66    0.62
 -12  -4  -4   13.69    0.61
  12   4   4   12.71    0.58
  12   4   4   13.46    0.49
 -12   4  -4   13.08    0.67
  13  -4   4   40.69    1.36
  13  -4   4   41.88    1.46
  13   4   4   40.01    1.33
 -13   4  -4   40.17    1.50
  13   4   4   38.92    1.41
  12   5  -4    1.03    0.19
 -12   5   4    0.68    0.32
  11  -5  -4    9.86    0.43
  11  -5  -4    9.84    0.44
 -11  -5   4   10.25    0.68
  11   5  -4    9.45    0.39
  11   5  -4    9.95    0.46
 -11   5   4    9.56    0.60
  10  -5  -4   22.55    0.81
  10  -5  -4   22.29    0.81
 -10  -5   4   21.65    0.97
 -10   5   4   22.39    0.93
  10   5  -4   21.99    0.83
  10   5  -4   22.49    0.78
  -9  -5   4   29.67    1.15
   9  -5  -4   29.09    1.01
   9  -5  -4   29.15    1.01
   9   5  -4   27.71    0.98
   9   5  -4   28.29    1.02
  -9   5   4   28.83    1.10
   8  -5  -4    5.30    0.31
   8  -5  -4    4.96    0.30
  -8  -5   4    4.65    0.40
  -8   5   4    4.84    0.40
   8   5  -4    4.57    0.29
   8   5  -4    4.62    0.26
  -7  -5   4    0.01    0.24
   7  -5  -4    0.05    0.12
   7  -5  -4    0.21    0.14
   7   5  -4    0.14    0.11
  -7   5   4    0.00    0.18
   7   5  -4    0.03    0.14
  -6  -5   4    1.64    0.28
   6  -5  -4    1.33    0.17
   6  -5  -4    1.19    0.16
   6   5  -4    1.11    0.15
  -6   5   4    1.14    0.20
   6   5  -4    1.58    0.18
   5  -5  -4   25.77    0.92
   5  -5  -4   25.17    0.92
  -5  -5   4   25.55    1.00
   5   5  -4   26.22    0.92
  -5   5   4   26.04    0.94
   5   5  -4   26.62    0.91
  -4  -5   4   48.51    1.75
   4  -5  -4   50.26    1.70
   4  -5  -4   53.30    1.71
   4   5  -4   51.06    1.71
  -4   5   4   50.84    1.71
   4   5  -4   51.44    1.70
   3  -5  -4   13.77    0.55
  -3  -5   4   13.60    0.59
   3  -5  -4   13.46    0.54
  -3   5   4   12.99    0.49
  -3   5   4   13.89    0.54
   3   5  -4   13.67    0.54
   3   5  -4   13.19    0.53
   2  -5  -4   17.87    0.67
  -2  -5   4   17.85    0.71
   2  -5  -4   18.57    0.69
   2   5  -4   17.66    0.67
  -2   5   4   17.96    0.64
   2   5  -4   18.33    0.68
  -2   5   4   18.02    0.66
   1  -5  -4   38.02    1.31
  -1  -5   4   39.43    1.32
   1  -5  -4   38.50    1.32
   1   5  -4   38.96    1.31
  -1   5   4   38.70    1.28
  -1   5   4   37.78    1.28
   1   5  -4   37.46    1.31
  -1   5   4   37.55    1.32
   0  -5  -4    5.62    0.34
   0  -5  -4    5.22    0.30
   0  -5   4    5.90    0.30
   0   5   4    5.50    0.32
   0   5  -4    5.49    0.31
   0   5   4    5.22    0.27
   0   5   4    5.35    0.26
   0   5  -4    5.24    0.31
  -1  -5  -4   51.55    1.74
   1  -5   4   48.64    1.68
   1  -5   4   51.62    1.71
   1  -5   4   50.27    1.73
   1   5   4   52.95    1.68
  -1   5  -4   51.59    1.72
   1   5   4   52.03    1.72
   1   5   4   50.49    1.70
  -1   5  -4   53.30    1.73
   2  -5   4    0.18    0.10
   2  -5   4    0.01    0.12
  -2  -5  -4    0.16    0.16
   2  -5   4    0.06    0.11
   2   5   4    0.05    0.12
   2   5   4    0.14    0.11
  -2   5  -4    0.21    0.14
   3  -5   4   29.85    1.09
  -3  -5  -4   31.27    1.11
   3  -5   4   30.53    1.06
   3  -5   4   30.98    1.05
   3   5   4   30.55    1.06
   3   5   4   30.38    1.07
  -3   5  -4   33.32    1.09
   4  -5   4   23.34    0.85
   4  -5   4   24.14    0.87
  -4  -5  -4   24.07    0.89
   4  -5   4   24.21    0.83
  -4   5  -4   24.04    0.87
   4   5   4   23.70    0.85
   4   5   4   23.18    0.85
   5  -5   4   53.84    1.82
   5  -5   4   55.88    1.79
   5  -5   4   53.82    1.83
  -5  -5  -4   55.34    1.85
  -5   5  -4   55.60    1.84
   5   5   4   54.23    1.81
   5   5   4   52.84    1.81
  -6  -5  -4   13.89    0.59
   6  -5   4   13.43    0.56
   6  -5   4   13.93    0.56
   6   5   4   12.87    0.53
   6   5   4   13.28    0.54
  -6   5  -4   13.69    0.57
   7  -5   4   45.91    1.51
   7  -5   4   43.73    1.51
  -7  -5  -4   44.24    1.53
   7   5   4   43.46    1.48
   7   5   4   42.38    1.49
  -7   5  -4   43.92    1.52
   8  -5   4    2.67    0.25
   8  -5   4    2.72    0.23
  -8  -5  -4    1.92    0.25
   8   5   4    2.39    0.23
   8   5   4    2.20    0.22
  -8   5  -4    2.22    0.25
   9  -5   4    0.65    0.16
  -9  -5  -4    0.45    0.20
   9  -5   4    0.46    0.18
  -9   5  -4    0.91    0.22
   9   5   4    0.70    0.14
   9   5   4    0.72    0.19
 -10  -5  -4   16.07    0.69
  10  -5   4   15.47    0.64
  10  -5   4   16.16    0.69
  10   5   4   15.52    0.65
 -10   5  -4   16.79    0.70
  10   5   4   15.64    0.60
  11  -5   4   13.71    0.64
 -11  -5  -4   14.73    0.66
  11  -5   4   14.95    0.59
 -11   5  -4   14.59    0.68
  11   5   4   13.13    0.61
  11   5   4   13.15    0.54
  -9  -6   4    0.42    0.32
   9  -6  -4    0.04    0.15
   9  -6  -4   -0.04    0.16
   9   6  -4    0.01    0.12
  -9   6   4    0.29    0.26
   9   6  -4    0.20    0.18
   8  -6  -4   22.93    0.84
   8  -6  -4   22.25    0.85
  -8  -6   4   24.39    1.03
   8   6  -4   23.16    0.86
  -8   6   4   23.43    0.94
   8   6  -4   21.70    0.82
   7  -6  -4    1.51    0.19
   7  -6  -4    1.51    0.20
  -7  -6   4    1.61    0.33
  -7   6   4    1.40    0.26
   7   6  -4    1.38    0.17
   7   6  -4    1.41    0.20
   6  -6  -4   39.60    1.37
   6  -6  -4   40.31    1.37
  -6  -6   4   40.29    1.48
   6   6  -4   38.47    1.36
  -6   6   4   39.56    1.40
   6   6  -4   40.06    1.38
   5  -6  -4    0.03    0.16
  -5  -6   4    0.05    0.24
   5  -6  -4    0.23    0.15
  -5   6   4    0.08    0.18
   5   6  -4    0.18    0.13
   5   6  -4    0.14    0.16
   4  -6  -4   37.16    1.28
   4  -6  -4   37.15    1.28
  -4  -6   4   36.78    1.35
   4   6  -4   35.67    1.28
  -4   6   4   37.37    1.28
   4   6  -4   36.31    1.28
   3  -6  -4    0.42    0.15
  -3  -6   4    0.64    0.22
   3  -6  -4    0.64    0.19
   3   6  -4    0.58    0.17
  -3   6   4    0.63    0.16
   3   6  -4    0.79    0.17
   2  -6  -4   32.11    1.13
  -2  -6   4   32.46    1.16
   2  -6  -4   31.38    1.14
   2   6  -4   31.81    1.13
  -2   6   4   32.86    1.12
   2   6  -4   31.01    1.12
  -1  -6   4   39.67    1.36
   1  -6  -4   38.43    1.36
  -1   6   4   38.09    1.30
   1   6  -4   38.06    1.34
   1   6  -4   39.00    1.34
   0  -6   4   33.44    1.17
   0  -6  -4   32.42    1.20
   0   6   4   33.50    1.14
   0   6  -4   32.93    1.19
   0   6  -4   33.24    1.17
   1  -6   4    0.73    0.16
  -1  -6  -4    0.58    0.21
   1   6   4    0.30    0.14
   1   6   4    0.65    0.18
  -1   6  -4    0.76    0.18
   2  -6   4   26.27    0.95
  -2  -6  -4   26.51    1.01
   2   6   4   26.06    0.94
  -2   6  -4   27.54    0.98
   2   6   4   27.43    0.97
   3  -6   4   21.77    0.84
  -3  -6  -4   22.05    0.87
   3  -6   4   22.14    0.79
   3   6   4   21.81    0.82
   3   6   4   21.35    0.80
  -3   6  -4   22.28    0.84
   4  -6   4   10.18    0.43
   4  -6   4    9.44    0.43
  -4  -6  -4    9.59    0.52
   4  -6   4    9.33    0.48
   4   6   4    9.49    0.45
  -4   6  -4   10.23    0.48
   4   6   4    9.55    0.44
   5  -6   4    0.06    0.16
  -5  -6  -4    0.05    0.21
   5  -6   4    0.23    0.15
   5   6   4    0.56    0.16
   5   6   4   -0.02    0.15
  -5   6  -4    0.27    0.18
  -6  -6  -4   38.03    1.36
   6  -6   4   38.75    1.33
   6  -6   4   36.86    1.31
  -6   6  -4   37.94    1.33
   6   6   4   36.57    1.29
   6   6   4   36.63    1.30
   7  -6   4    0.11    0.17
  -7  -6  -4    0.04    0.22
   7  -6   4    0.07    0.17
  -7   6  -4    0.09    0.19
   7   6   4   -0.11    0.13
   7   6   4    0.48    0.18
   8  -6   4   15.20    0.64
  -8  -6  -4   15.56    0.71
   8  -6   4   15.19    0.64
   8   6   4   14.22    0.63
   8   6   4   14.98    0.60
  -8   6  -4   15.26    0.68
   9  -6   4    0.18    0.20
   9  -6   4    0.00    0.17
  -9  -6  -4    0.40    0.24
  -9   6  -4    0.23    0.21
   9   6   4    0.12    0.15
   9   6   4    0.23    0.19
   6  -7  -4    5.54    0.38
  -6  -7   4    6.34    0.58
   6  -7  -4    6.06    0.41
   6   7  -4    6.23    0.38
   6   7  -4    6.06    0.40
   5  -7  -4   19.23    0.77
  -5  -7   4   20.48    0.88
   5  -7  -4   18.87    0.77
   5   7  -4   19.79    0.78
   5   7  -4   19.62    0.76
   4  -7  -4    0.06    0.20
  -4  -7   4    0.08    0.25
   4   7  -4    0.03    0.16
   4   7  -4    0.20    0.18
   3  -7  -4    0.25    0.21
  -3  -7   4    0.56    0.25
   3   7  -4    0.34    0.18
   3   7  -4    0.42    0.20
   2  -7  -4   24.96    0.97
  -2  -7   4   26.17    1.00
   2   7  -4   25.26    0.96
   2   7  -4   25.16    0.95
  -1  -7   4   15.11    0.66
   1  -7  -4   14.61    0.66
   1   7  -4   14.43    0.63
   0  -7  -4    2.63    0.31
   0  -7   4    3.22    0.28
   0   7  -4    3.44    0.34
  -1  -7  -4   19.79    0.83
   1  -7   4   19.50    0.76
   1   7   4   19.20    0.75
  -1   7  -4   20.85    0.80
   2  -7   4    1.44    0.21
  -2  -7  -4    1.56    0.28
   2   7   4    1.30    0.20
  -2   7  -4    1.22    0.23
   3  -7   4    5.92    0.37
  -3  -7  -4    6.08    0.50
  -3   7  -4    5.84    0.41
   3   7   4    5.38    0.37
   3   7   4    6.36    0.39
  -4  -7  -4   18.70    0.83
   4   7   4   18.84    0.74
   4   7   4   19.69    0.76
  -4   7  -4   20.09    0.80
  -5  -7  -4    0.30    0.26
   5   7   4    0.18    0.17
  -5   7  -4    0.19    0.20
   5   7   4    0.46    0.18
   6  -7   4   -0.01    0.19
  -6  -7  -4    0.26    0.27
   6   7   4    0.07    0.16
   6   7   4    0.12    0.18
  -6   7  -4    0.24    0.21
 -15   0   5    2.88    0.34
  15   0  -5    3.30    0.30
 -14   0   5   -0.09    0.22
  14   0  -5   -0.14    0.14
  13   0  -5    7.35    0.36
 -13   0   5    6.74    0.45
 -12   0   5    0.11    0.20
  12   0  -5    0.06    0.13
  11   0  -5    0.32    0.13
 -11   0   5    0.52    0.18
  10   0  -5   -0.02    0.12
  10   0  -5    0.08    0.04
  10   0  -5    0.11    0.08
  10   0  -5    0.08    0.03
 -10   0   5    0.06    0.16
  -9   0   5   94.94    3.23
   9   0  -5  100.16    3.17
   9   0  -5   98.99    3.22
   9   0  -5   97.84    3.17
   9   0  -5  104.62    3.19
   8   0  -5    0.14    0.05
   8   0  -5    0.02    0.06
   8   0  -5   -0.01    0.09
  -8   0   5    0.00    0.12
   8   0  -5    0.09    0.05
   7   0  -5   16.27    0.59
   7   0  -5   17.77    0.59
  -7   0   5   17.43    0.64
   7   0  -5   18.73    0.59
   6   0  -5    0.13    0.05
   6   0  -5    0.02    0.05
   6   0  -5   -0.04    0.07
   6   0  -5    0.06    0.05
  -6   0   5    0.64    0.11
   5   0  -5  118.26    3.89
  -5   0   5  126.02    3.91
   5   0  -5  128.56    3.88
   5   0  -5  115.76    3.91
   5   0  -5  116.84    3.90
   4   0  -5    0.01    0.04
   4   0  -5    0.01    0.05
  -4   0   5    0.12    0.07
   4   0  -5    0.06    0.03
   4   0  -5    0.02    0.06
   3   0  -5   69.03    2.10
   3   0  -5   63.36    2.12
  -3   0   5   70.10    2.12
   3   0  -5   64.74    2.11
   3   0  -5   60.44    2.12
  -2   0   5    0.09    0.06
   2   0  -5   -0.01    0.05
   2   0  -5    0.05    0.05
   2   0  -5    0.11    0.03
  -2   0   5    0.25    0.06
   1   0  -5    3.89    0.19
   1   0  -5    4.62    0.16
  -1   0   5    4.61    0.19
  -1   0   5    4.12    0.20
   1   0  -5    4.17    0.18
   0   0  -5    0.10    0.05
   0   0  -5    0.07    0.04
   0   0   5    0.14    0.05
   0   0   5    0.03    0.06
   0   0  -5    0.14    0.04
  -1   0  -5    0.27    0.05
  -1   0  -5    0.64    0.07
  -1   0  -5    0.40    0.05
   1   0   5    0.43    0.07
   1   0   5    0.24    0.06
  -2   0  -5    0.06    0.05
  -2   0  -5    0.07    0.05
  -2   0  -5    0.05    0.03
   2   0   5    0.03    0.06
   2   0   5    0.02    0.05
  -3   0  -5    0.78    0.06
  -3   0  -5    0.47    0.08
   3   0   5    0.53    0.08
   3   0   5    0.54    0.08
  -3   0  -5    0.56    0.07
  -4   0  -5    0.04    0.03
   4   0   5    0.11    0.06
  -4   0  -5    0.03    0.07
   4   0   5   -0.02    0.05
   4   0   5    0.00    0.07
   5   0   5    1.13    0.11
  -5   0  -5    1.32    0.14
   5   0   5    1.26    0.12
  -5   0  -5    1.25    0.07
   5   0   5    1.09    0.11
  -6   0  -5    0.05    0.04
   6   0   5    0.04    0.06
   6   0   5    0.02    0.09
  -6   0  -5    0.06    0.09
   6   0   5   -0.01    0.06
   7   0   5   37.90    1.30
   7   0   5   39.30    1.27
  -7   0  -5   36.25    1.25
   7   0   5   42.72    1.28
  -7   0  -5   37.66    1.32
   8   0   5    0.07    0.07
   8   0   5    0.30    0.07
  -8   0  -5    0.00    0.12
   8   0   5    0.07    0.12
  -8   0  -5    0.04    0.05
   9   0   5   67.63    2.13
   9   0   5   62.01    2.16
   9   0   5   65.35    2.12
  -9   0  -5   67.14    2.20
 -10   0  -5   -0.10    0.17
  10   0   5   -0.02    0.13
 -11   0  -5    4.11    0.36
  11   0   5    3.86    0.29
  11   0   5    4.06    0.19
  12   0   5    0.13    0.07
  12   0   5   -0.10    0.15
 -12   0  -5   -0.01    0.19
  13   0   5   26.04    0.98
 -13   0  -5   28.38    1.04
  13   0   5   26.49    0.87
 -14   0  -5   -0.02    0.21
  14   0   5   -0.06    0.18
 -15   0  -5   34.33    1.26
  15   0   5   31.96    1.19
  15  -1  -5   36.39    1.24
 -15   1   5   34.22    1.34
  15   1  -5   36.69    1.26
  14  -1  -5   11.90    0.49
 -14   1   5   11.14    0.62
  14   1  -5   11.48    0.51
  13  -1  -5    1.37    0.18
  13   1  -5    1.60    0.19
 -13   1   5    1.42    0.28
  12  -1  -5   12.12    0.48
 -12  -1   5   11.15    0.53
  12   1  -5   11.64    0.49
 -12   1   5   11.49    0.58
  11  -1  -5   14.14    0.48
  11  -1  -5   14.56    0.48
 -11  -1   5   13.64    0.59
  11  -1  -5   14.39    0.55
  11   1  -5   15.57    0.53
 -11   1   5   14.06    0.64
  11   1  -5   15.06    0.58
  10  -1  -5    0.92    0.08
  10  -1  -5    0.93    0.08
  10  -1  -5    0.89    0.13
 -10  -1   5    0.97    0.16
  10   1  -5    1.05    0.16
  10   1  -5    1.05    0.07
  10   1  -5    0.90    0.07
 -10   1   5    0.96    0.21
  10   1  -5    0.93    0.11
   9  -1  -5   12.44    0.42
   9  -1  -5   12.19    0.46
   9  -1  -5   11.99    0.41
  -9  -1   5   11.69    0.49
   9   1  -5   12.08    0.41
   9   1  -5   12.15    0.41
  -9   1   5   11.76    0.51
   9   1  -5   12.38    0.45
   9   1  -5   11.81    0.48
   8  -1  -5    0.68    0.07
  -8  -1   5    0.52    0.12
   8  -1  -5    0.52    0.11
   8  -1  -5    0.47    0.07
   8   1  -5    0.51    0.06
   8   1  -5    0.39    0.11
  -8   1   5    0.32    0.14
  -8   1   5    0.46    0.09
   8   1  -5    0.47    0.06
   8   1  -5    0.48    0.08
   7  -1  -5   10.98    0.41
   7  -1  -5   10.70    0.39
   7  -1  -5   10.88    0.38
  -7  -1   5   10.76    0.42
  -7   1   5    9.91    0.38
   7   1  -5   11.33    0.39
  -7   1   5   11.00    0.45
   7   1  -5   10.76    0.38
   7   1  -5   10.76    0.42
   7   1  -5   10.42    0.38
   6  -1  -5    0.00    0.07
   6  -1  -5   -0.01    0.05
   6  -1  -5    0.08    0.05
  -6  -1   5   -0.01    0.08
  -6   1   5   -0.01    0.05
   6   1  -5    0.03    0.05
   6   1  -5   -0.01    0.08
  -6   1   5    0.01    0.10
   6   1  -5    0.03    0.05
   6   1  -5    0.04    0.05
  -5  -1   5    5.70    0.24
   5  -1  -5    5.63    0.23
   5  -1  -5    5.55    0.22
   5  -1  -5    5.34    0.24
   5   1  -5    5.55    0.22
  -5   1   5    5.39    0.19
  -5   1   5    5.86    0.27
   5   1  -5    5.55    0.22
   5   1  -5    5.79    0.23
  -4  -1   5    0.25    0.07
   4  -1  -5    0.17    0.06
   4  -1  -5    0.20    0.05
   4  -1  -5    0.18    0.07
   4   1  -5    0.21    0.06
   4   1  -5    0.14    0.05
   4   1  -5    0.33    0.08
   4   1  -5    0.19    0.05
  -4   1   5    0.17    0.08
   3  -1  -5   23.66    0.78
   3  -1  -5   22.72    0.78
  -3  -1   5   23.50    0.77
   3   1  -5   23.51    0.76
  -3   1   5   21.92    0.78
   3   1  -5   24.90    0.78
   3   1  -5   22.40    0.78
   3   1  -5   22.49    0.78
  -2  -1   5   46.64    1.46
  -2  -1   5   41.54    1.47
   2  -1  -5   45.18    1.47
   2  -1  -5   47.13    1.44
   2  -1  -5   44.70    1.47
   2   1  -5   44.02    1.46
   2   1  -5   45.50    1.47
  -2   1   5   43.78    1.47
   2   1  -5   44.25    1.47
  -2   1   5   47.92    1.48
  -1  -1   5    3.10    0.15
   1  -1  -5    3.10    0.15
   1  -1  -5    2.93    0.15
  -1  -1   5    2.95    0.17
   1  -1  -5    3.09    0.12
   1   1  -5    3.20    0.14
   1   1  -5    2.95    0.16
  -1   1   5    3.04    0.16
   1   1  -5    2.99    0.14
   0  -1  -5    1.38    0.09
   0  -1   5    1.50    0.13
   0  -1  -5    1.52    0.10
   0  -1   5    1.48    0.11
   0  -1  -5    1.48    0.11
   0   1  -5    1.37    0.09
   0   1  -5    1.62    0.10
   0   1  -5    1.58    0.12
   0   1   5    1.36    0.12
  -1  -1  -5   61.54    2.03
  -1  -1  -5   62.69    2.01
   1  -1   5   61.12    2.04
   1  -1   5   63.43    2.03
  -1  -1  -5   62.83    2.02
  -1   1  -5   59.66    2.00
   1   1   5   61.22    2.03
   1   1   5   65.22    2.02
  -1   1  -5   64.72    2.02
  -1   1  -5   64.17    2.03
  -2  -1  -5   28.27    0.99
   2  -1   5   30.15    1.00
   2  -1   5   29.49    1.00
  -2  -1  -5   32.35    0.98
  -2   1  -5   31.09    1.00
   2   1   5   28.59    0.99
  -2   1  -5   29.83    0.99
   2   1   5   30.63    0.99
   2   1   5   28.86    0.99
   3  -1   5   90.53    2.65
   3  -1   5   85.43    2.70
   3  -1   5   80.21    2.70
  -3  -1  -5   85.10    2.68
   3   1   5   80.26    2.69
  -3   1  -5   85.14    2.70
  -3   1  -5   82.31    2.70
   3   1   5   84.94    2.69
   3   1   5   78.87    2.69
   4  -1   5   10.36    0.39
  -4  -1  -5   10.96    0.36
   4  -1   5   10.93    0.40
   4   1   5   10.06    0.38
  -4   1  -5    9.89    0.38
  -4   1  -5   10.11    0.40
   4   1   5   10.39    0.39
   4   1   5   10.37    0.39
   5  -1   5    3.69    0.21
   5  -1   5    3.38    0.17
   5  -1   5    3.66    0.19
  -5  -1  -5    3.69    0.16
   5   1   5    3.72    0.18
   5   1   5    3.82    0.19
   5   1   5    3.76    0.20
   5   1   5    3.78    0.20
   6  -1   5    5.34    0.28
   6  -1   5    5.51    0.24
   6  -1   5    6.14    0.26
  -6  -1  -5    5.98    0.23
   6   1   5    5.88    0.26
  -6   1  -5    5.31    0.30
   6   1   5    5.89    0.24
   6   1   5    6.11    0.28
   6   1   5    5.91    0.25
  -7  -1  -5    9.43    0.36
   7  -1   5    9.93    0.38
   7  -1   5    9.26    0.36
   7  -1   5    9.54    0.41
  -7   1  -5    9.00    0.42
   7   1   5   10.01    0.37
   7   1   5    9.80    0.37
   7   1   5   10.15    0.40
   7   1   5   11.47    0.41
  -8  -1  -5   15.19    0.54
   8  -1   5   15.57    0.55
   8  -1   5   15.09    0.59
  -8   1  -5   15.22    0.61
   8   1   5   16.34    0.58
   8   1   5   14.87    0.54
   8   1   5   15.18    0.54
   8   1   5   15.93    0.59
   9  -1   5    5.42    0.24
   9  -1   5    4.95    0.31
  -9  -1  -5    4.86    0.24
   9   1   5    5.49    0.31
  -9   1  -5    5.03    0.34
   9   1   5    5.38    0.29
   9   1   5    5.19    0.22
  10  -1   5    5.55    0.35
  10  -1   5    5.81    0.26
  10   1   5    5.90    0.24
  10   1   5    5.99    0.31
 -10   1  -5    6.04    0.39
  10   1   5    5.62    0.32
 -11  -1  -5    1.86    0.25
  11  -1   5    1.75    0.15
  11  -1   5    1.63    0.21
  11   1   5    1.80    0.20
 -11   1  -5    1.51    0.23
  11   1   5    1.80    0.19
  11   1   5    1.74    0.13
  12  -1   5    0.28    0.17
 -12  -1  -5   -0.10    0.20
  12  -1   5    0.15    0.08
  12   1   5    0.08    0.15
  12   1   5    0.15    0.07
 -12   1  -5   -0.03    0.19
  13  -1   5   11.01    0.53
  13  -1   5   11.23    0.41
 -13  -1  -5   12.18    0.59
 -13   1  -5   11.92    0.59
  13   1   5   12.25    0.39
  13   1   5   10.89    0.51
  14  -1   5    6.50    0.43
  14  -1   5    6.98    0.26
 -14  -1  -5    7.77    0.51
 -14   1  -5    8.12    0.49
  14   1   5    7.19    0.39
 -15  -1  -5    8.82    0.56
  15  -1   5    7.41    0.49
 -15   1  -5    9.62    0.57
 -14  -2   5    3.75    0.34
  14  -2  -5    3.58    0.28
 -14   2   5    2.70    0.37
  13  -2  -5    1.87    0.18
  13  -2  -5    1.46    0.09
 -13  -2   5    1.23    0.26
 -13   2   5    1.16    0.30
  13   2  -5    1.84    0.17
  12  -2  -5    1.28    0.11
  12  -2  -5    1.42    0.16
 -12   2   5    1.45    0.28
  12   2  -5    1.80    0.16
  12   2  -5    1.47    0.20
  11  -2  -5   17.15    0.57
  11  -2  -5   16.98    0.62
  11   2  -5   16.63    0.61
  11   2  -5   17.29    0.66
  11   2  -5   16.58    0.55
 -11   2   5   16.46    0.73
  11   2  -5   16.02    0.55
  10  -2  -5    7.85    0.31
  10  -2  -5    8.31    0.36
  10   2  -5    8.43    0.39
  10   2  -5    7.91    0.29
 -10   2   5    7.78    0.46
  10   2  -5    7.77    0.29
  10   2  -5    8.09    0.34
   9  -2  -5    0.19    0.11
  -9  -2   5    0.36    0.12
   9  -2  -5    0.19    0.08
   9   2  -5    0.25    0.07
   9   2  -5    0.20    0.13
   9   2  -5    0.27    0.06
   9   2  -5    0.25    0.09
  -9   2   5    0.22    0.16
   8  -2  -5   77.03    2.48
   8  -2  -5   75.10    2.50
  -8  -2   5   72.44    2.49
   8   2  -5   79.23    2.52
  -8   2   5   76.60    2.54
   8   2  -5   84.35    2.48
   8   2  -5   75.22    2.47
   8   2  -5   75.07    2.49
   7  -2  -5    1.50    0.14
  -7  -2   5    1.28    0.12
   7  -2  -5    1.15    0.10
   7   2  -5    1.11    0.14
   7   2  -5    1.35    0.12
   7   2  -5    1.36    0.12
  -7   2   5    1.33    0.18
   7   2  -5    1.73    0.13
  -6  -2   5    7.81    0.32
   6  -2  -5    7.75    0.33
   6  -2  -5    8.24    0.32
   6  -2  -5    8.44    0.32
   6   2  -5    8.50    0.31
  -6   2   5    7.97    0.37
   6   2  -5    7.93    0.32
   6   2  -5    9.11    0.32
   5  -2  -5    2.92    0.16
   5  -2  -5    2.86    0.16
  -5  -2   5    2.88    0.16
   5  -2  -5    2.86    0.18
  -5   2   5    2.83    0.20
   5   2  -5    3.14    0.16
   5   2  -5    3.62    0.17
   5   2  -5    3.07    0.20
   5   2  -5    2.88    0.16
  -4  -2   5   70.36    2.25
   4  -2  -5   67.77    2.27
   4  -2  -5   68.37    2.26
   4   2  -5   70.76    2.26
  -4   2   5   69.88    2.28
   4   2  -5   71.46    2.26
   4   2  -5   72.85    2.26
   4   2  -5   73.93    2.28
  -4   2   5   64.40    2.28
   3  -2  -5   20.12    0.69
  -3  -2   5   20.41    0.68
  -3  -2   5   19.26    0.70
   3  -2  -5   20.36    0.70
  -3   2   5   21.63    0.72
   3   2  -5   19.72    0.70
  -3   2   5   19.94    0.70
   3   2  -5   20.71    0.69
   3   2  -5   20.47    0.69
   2  -2  -5    0.89    0.09
   2  -2  -5    0.73    0.08
  -2  -2   5    0.70    0.08
  -2  -2   5    0.65    0.08
  -2   2   5    0.76    0.09
   2   2  -5    0.63    0.07
  -2   2   5    0.67    0.05
   2   2  -5    0.65    0.08
  -2   2   5    0.79    0.10
  -1  -2   5    4.81    0.23
   1  -2  -5    5.02    0.22
  -1  -2   5    4.98    0.22
  -1  -2   5    4.88    0.23
   1  -2  -5    5.33    0.22
  -1   2   5    5.23    0.23
   1   2  -5    5.12    0.22
  -1   2   5    5.55    0.23
  -1   2   5    4.92    0.19
   1   2  -5    5.22    0.22
   0  -2  -5    4.57    0.21
   0  -2   5    4.25    0.20
   0  -2   5    4.63    0.22
   0  -2   5    4.42    0.20
   0   2  -5    4.83    0.21
   0   2  -5    4.50    0.21
   0   2   5    4.64    0.20
   0   2   5    4.48    0.18
  -1  -2  -5    6.65    0.27
   1  -2   5    6.87    0.28
   1  -2   5    7.25    0.26
  -1  -2  -5    6.98    0.28
   1  -2   5    7.33    0.30
   1   2   5    6.97    0.28
  -1   2  -5    6.69    0.27
   1   2   5    6.99    0.27
   1   2   5    6.89    0.26
  -1   2  -5    6.73    0.28
   2  -2   5    0.18    0.05
   2  -2   5    0.17    0.08
  -2  -2  -5    0.24    0.07
  -2  -2  -5    0.16    0.06
   2  -2   5    0.19    0.08
  -2   2  -5    0.27    0.08
   2   2   5    0.09    0.06
   2   2   5    0.08    0.06
   2   2   5    0.11    0.06
  -2   2  -5    0.12    0.06
   3  -2   5    0.58    0.10
   3  -2   5    0.50    0.09
  -3  -2  -5    0.74    0.09
  -3  -2  -5    0.76    0.09
   3  -2   5    0.82    0.07
   3   2   5    0.82    0.09
  -3   2  -5    0.64    0.09
   3   2   5    0.82    0.09
  -3   2  -5    0.51    0.08
   3   2   5    0.74    0.09
   4  -2   5   13.97    0.56
  -4  -2  -5   14.52    0.53
   4  -2   5   15.45    0.55
  -4  -2  -5   14.71    0.53
   4  -2   5   16.07    0.49
  -4   2  -5   14.96    0.54
   4   2   5   15.59    0.54
   4   2   5   14.80    0.53
  -4   2  -5   15.72    0.56
   4   2   5   15.04    0.54
  -5  -2  -5   16.02    0.58
   5  -2   5   17.02    0.60
   5  -2   5   15.91    0.61
   5  -2   5   17.10    0.53
   5   2   5   16.14    0.58
   5   2   5   16.12    0.58
   5   2   5   16.54    0.59
  -5   2  -5   16.22    0.59
   5   2   5   16.75    0.58
  -5   2  -5   16.76    0.61
   6  -2   5    0.61    0.11
  -6  -2  -5    0.35    0.09
   6  -2   5    0.26    0.11
  -6   2  -5    0.29    0.12
   6   2   5    0.35    0.10
   6   2   5    0.39    0.08
   6   2   5    0.39    0.09
  -7  -2  -5   10.33    0.43
   7  -2   5   11.21    0.47
   7  -2   5   12.09    0.44
   7   2   5   11.15    0.42
  -7   2  -5   10.77    0.49
   7   2   5   11.42    0.45
   7   2   5   12.44    0.44
   8  -2   5   29.84    0.98
   8  -2   5   28.94    1.02
  -8  -2  -5   27.01    0.97
  -8   2  -5   25.81    1.03
   8   2   5   29.38    1.00
   8   2   5   30.26    0.98
   8   2   5   28.75    0.96
  -9  -2  -5    7.27    0.34
   9  -2   5    7.69    0.33
   9  -2   5    7.90    0.38
   9   2   5    8.30    0.35
  -9   2  -5    6.50    0.42
   9   2   5    7.35    0.35
   9   2   5    7.78    0.31
  10  -2   5   20.91    0.74
 -10  -2  -5   20.76    0.75
  10  -2   5   20.83    0.81
 -10   2  -5   21.09    0.85
  10   2   5   21.72    0.76
  10   2   5   21.96    0.79
  10   2   5   20.64    0.72
  11  -2   5    0.58    0.11
  11  -2   5    0.82    0.20
  11   2   5    0.58    0.16
 -11   2  -5    0.74    0.23
  11   2   5    0.79    0.09
  11   2   5    1.11    0.15
  12  -2   5    1.15    0.13
  12  -2   5    1.25    0.22
 -12   2  -5    1.34    0.27
  12   2   5    0.99    0.19
  12   2   5    0.94    0.09
  13  -2   5    0.03    0.20
  13  -2   5    0.09    0.09
 -13   2  -5    0.04    0.23
  13   2   5    0.10    0.06
  13   2   5    0.08    0.19
  14  -2   5   31.81    1.08
  14  -2   5   30.91    1.20
  14   2   5   32.76    1.19
 -14   2  -5   36.57    1.28
  14  -3  -5   11.71    0.49
  14  -3  -5   11.36    0.40
 -14  -3   5   11.55    0.66
  14   3  -5   11.45    0.49
 -14   3   5   10.82    0.68
  13  -3  -5    0.90    0.10
 -13  -3   5    1.13    0.29
  13  -3  -5    0.82    0.16
 -13   3   5    0.66    0.30
  13   3  -5    1.08    0.16
  12  -3  -5    0.46    0.10
 -12  -3   5    0.47    0.26
  12  -3  -5    0.72    0.15
  12   3  -5    0.49    0.06
 -12   3   5    0.23    0.29
  12   3  -5    1.01    0.15
  11  -3  -5    3.91    0.22
  11  -3  -5    4.47    0.27
 -11  -3   5    3.37    0.34
 -11   3   5    3.75    0.36
  11   3  -5    3.65    0.18
  11   3  -5    3.86    0.25
  10  -3  -5   19.78    0.70
 -10  -3   5   19.08    0.82
  10  -3  -5   19.41    0.67
 -10   3   5   19.57    0.81
  10   3  -5   18.64    0.65
  10   3  -5   18.74    0.70
   9  -3  -5    4.84    0.27
   9  -3  -5    4.66    0.24
  -9  -3   5    5.30    0.40
   9   3  -5    5.08    0.22
  -9   3   5    4.47    0.38
   9   3  -5    4.83    0.26
  -8  -3   5    2.50    0.27
   8  -3  -5    2.57    0.18
   8  -3  -5    2.16    0.20
  -8   3   5    2.48    0.26
   8   3  -5    2.54    0.16
   8   3  -5    2.40    0.19
  -7  -3   5    1.01    0.20
   7  -3  -5    1.16    0.14
   7  -3  -5    1.01    0.11
  -7   3   5    0.91    0.17
   7   3  -5    0.97    0.12
   7   3  -5    1.12    0.11
   6  -3  -5    1.04    0.13
   6  -3  -5    1.33    0.12
  -6  -3   5    1.19    0.20
   6   3  -5    1.43    0.14
  -6   3   5    1.47    0.19
   6   3  -5    1.29    0.13
   5  -3  -5   10.13    0.39
  -5  -3   5    9.39    0.35
  -5  -3   5    9.43    0.45
   5  -3  -5   10.34    0.38
   5   3  -5    9.90    0.38
  -5   3   5    9.68    0.43
   5   3  -5    9.97    0.39
   4  -3  -5   16.46    0.59
   4  -3  -5   16.58    0.59
  -4  -3   5   15.20    0.56
  -4  -3   5   15.45    0.63
  -4   3   5   16.78    0.62
   4   3  -5   16.55    0.59
  -4   3   5   17.16    0.54
  -4   3   5   16.45    0.60
   4   3  -5   17.86    0.59
  -3  -3   5    5.11    0.25
   3  -3  -5    5.41    0.24
  -3  -3   5    4.70    0.29
   3  -3  -5    5.06    0.25
  -3  -3   5    4.59    0.22
   3   3  -5    5.04    0.24
  -3   3   5    5.18    0.27
  -3   3   5    5.39    0.26
  -3   3   5    5.39    0.19
   3   3  -5    5.20    0.24
  -2  -3   5    7.87    0.33
   2  -3  -5    8.89    0.35
  -2  -3   5    8.56    0.36
  -2  -3   5    8.43    0.38
   2  -3  -5    9.02    0.36
  -2   3   5    9.50    0.36
  -2   3   5    9.16    0.31
   2   3  -5    8.96    0.35
   2   3  -5    8.97    0.35
  -2   3   5    9.01    0.36
   1  -3  -5   37.20    1.24
   1  -3  -5   37.66    1.25
  -1  -3   5   33.86    1.23
  -1  -3   5   36.67    1.26
  -1  -3   5   37.64    1.25
  -1   3   5   38.46    1.25
   1   3  -5   38.14    1.25
  -1   3   5   38.84    1.25
  -1   3   5   38.28    1.22
   1   3  -5   37.12    1.25
   0  -3  -5    5.09    0.25
   0  -3   5    4.94    0.26
   0  -3  -5    5.37    0.24
   0  -3   5    5.48    0.25
   0  -3   5    4.73    0.23
   0   3  -5    5.78    0.26
   0   3   5    5.18    0.24
   0   3   5    5.40    0.26
   0   3   5    5.32    0.22
   1  -3   5    2.35    0.19
  -1  -3  -5    2.39    0.17
  -1  -3  -5    2.40    0.18
   1  -3   5    2.19    0.16
   1  -3   5    2.33    0.17
   1   3   5    2.38    0.15
  -1   3  -5    2.29    0.17
  -1   3  -5    2.56    0.17
   1   3   5    2.64    0.18
   1   3   5    2.27    0.16
   2  -3   5   61.27    2.09
  -2  -3  -5   64.31    2.09
  -2  -3  -5   64.48    2.10
   2  -3   5   64.08    2.07
   2  -3   5   65.06    2.11
   2   3   5   64.53    2.08
  -2   3  -5   64.78    2.10
  -2   3  -5   63.44    2.10
   2   3   5   65.99    2.10
   2   3   5   63.64    2.08
   3  -3   5    5.91    0.29
   3  -3   5    5.85    0.28
  -3  -3  -5    5.86    0.26
   3  -3   5    5.82    0.23
  -3  -3  -5    5.40    0.28
   3   3   5    6.11    0.25
   3   3   5    5.75    0.26
  -3   3  -5    5.80    0.27
   3   3   5    6.23    0.27
  -3   3  -5    5.71    0.28
   4  -3   5   23.01    0.85
  -4  -3  -5   23.96    0.84
   4  -3   5   24.53    0.79
   4  -3   5   24.55    0.85
  -4  -3  -5   24.11    0.84
   4   3   5   24.28    0.83
   4   3   5   23.82    0.83
  -4   3  -5   23.55    0.84
  -4   3  -5   23.96    0.85
   4   3   5   24.76    0.81
  -5  -3  -5    5.38    0.28
   5  -3   5    5.45    0.30
   5  -3   5    5.10    0.28
   5  -3   5    5.37    0.21
  -5   3  -5    6.09    0.30
   5   3   5    5.49    0.27
   5   3   5    5.80    0.25
   5   3   5    5.69    0.27
   6  -3   5    2.07    0.20
  -6  -3  -5    2.10    0.20
   6  -3   5    1.61    0.18
   6   3   5    2.27    0.17
   6   3   5    2.11    0.17
   6   3   5    2.33    0.20
  -6   3  -5    1.95    0.19
   7  -3   5   31.43    1.13
   7  -3   5   32.78    1.10
  -7  -3  -5   30.37    1.10
   7   3   5   33.12    1.07
   7   3   5   32.33    1.08
   7   3   5   31.41    1.10
  -7   3  -5   33.03    1.14
   8  -3   5    1.68    0.21
  -8  -3  -5    1.92    0.18
   8  -3   5    1.68    0.16
   8   3   5    1.52    0.16
   8   3   5    1.81    0.18
  -8   3  -5    1.64    0.22
   8   3   5    1.74    0.17
   9  -3   5    0.07    0.11
  -9  -3  -5   -0.05    0.12
   9  -3   5    0.07    0.16
   9   3   5   -0.06    0.09
  -9   3  -5   -0.10    0.18
   9   3   5    0.02    0.13
 -10  -3  -5    1.09    0.17
  10  -3   5    1.31    0.15
  10  -3   5    1.12    0.20
  10   3   5    1.40    0.13
  10   3   5    1.44    0.19
 -10   3  -5    1.12    0.25
  11  -3   5   21.28    0.75
 -11  -3  -5   21.17    0.78
  11  -3   5   21.59    0.83
  11   3   5   20.26    0.72
 -11   3  -5   20.18    0.89
  11   3   5   21.08    0.80
  12  -3   5    6.51    0.44
  12  -3   5    6.91    0.33
  12   3   5    6.99    0.30
 -12   3  -5    6.50    0.53
  12   3   5    7.17    0.41
  13  -3   5    0.23    0.22
  13  -3   5    0.31    0.12
  13   3   5    0.46    0.09
 -13   3  -5    0.56    0.29
  13   3   5    0.35    0.18
  14  -3   5    6.69    0.31
  14  -3   5    7.07    0.46
  14   3   5    6.98    0.43
 -14   3  -5    7.60    0.58
  14   3   5    6.58    0.25
 -13  -4   5    1.54    0.35
  13  -4  -5    2.09    0.20
  13  -4  -5    2.07    0.20
  13   4  -5    1.89    0.20
  13   4  -5    1.85    0.13
 -13   4   5    1.34    0.36
 -12  -4   5   13.37    0.73
  12  -4  -5   13.95    0.55
  12  -4  -5   14.00    0.52
 -12   4   5   13.02    0.72
  12   4  -5   13.53    0.48
  12   4  -5   13.06    0.55
  11  -4  -5    1.38    0.15
  11  -4  -5    1.23    0.18
 -11  -4   5    1.42    0.32
  11   4  -5    1.26    0.17
 -11   4   5    1.36    0.30
  11   4  -5    1.22    0.12
  10  -4  -5   13.63    0.52
 -10  -4   5   13.92    0.70
  10  -4  -5   13.92    0.55
  10   4  -5   13.20    0.54
 -10   4   5   13.73    0.68
  10   4  -5   13.42    0.49
   9  -4  -5   24.82    0.87
   9  -4  -5   25.41    0.86
  -9  -4   5   23.28    0.99
   9   4  -5   24.40    0.84
  -9   4   5   24.60    0.97
   9   4  -5   24.26    0.87
   8  -4  -5    2.41    0.19
  -8  -4   5    2.30    0.30
   8  -4  -5    1.96    0.20
  -8   4   5    1.80    0.26
   8   4  -5    2.20    0.18
   8   4  -5    2.05    0.18
  -7  -4   5   15.94    0.71
   7  -4  -5   16.03    0.61
   7  -4  -5   17.24    0.61
   7   4  -5   16.25    0.59
  -7   4   5   16.32    0.67
   7   4  -5   15.97    0.61
  -6  -4   5   -0.18    0.19
   6  -4  -5    0.29    0.12
   6  -4  -5    0.10    0.10
  -6   4   5   -0.01    0.16
   6   4  -5    0.08    0.11
   6   4  -5    0.21    0.09
   5  -4  -5   25.57    0.89
   5  -4  -5   25.88    0.89
  -5  -4   5   24.09    0.95
   5   4  -5   25.88    0.88
  -5   4   5   25.52    0.92
   5   4  -5   25.62    0.89
  -4  -4   5   12.06    0.56
   4  -4  -5   13.29    0.51
   4  -4  -5   13.33    0.50
   4   4  -5   12.82    0.49
   4   4  -5   12.65    0.50
  -4   4   5   12.71    0.52
  -3  -4   5   14.21    0.63
   3  -4  -5   15.67    0.58
  -3   4   5   15.54    0.54
  -3   4   5   16.03    0.59
   3   4  -5   16.17    0.58
   3   4  -5   15.85    0.58
   2  -4  -5   26.44    0.88
   2  -4  -5   25.77    0.89
  -2  -4   5   24.29    0.90
  -2  -4   5   23.93    0.84
  -2   4   5   24.96    0.84
  -2   4   5   26.04    0.89
   2   4  -5   24.99    0.88
  -2   4   5   26.11    0.88
   2   4  -5   24.95    0.88
  -1  -4   5    7.52    0.37
  -1  -4   5    8.54    0.38
  -1  -4   5    7.70    0.31
   1  -4  -5    7.92    0.35
   1  -4  -5    8.04    0.36
   1   4  -5    8.25    0.35
  -1   4   5    8.60    0.34
   1   4  -5    7.91    0.36
  -1   4   5    8.12    0.32
  -1   4   5    7.70    0.37
   0  -4   5   11.66    0.46
   0  -4  -5   12.45    0.46
   0  -4   5   11.34    0.43
   0  -4  -5   11.45    0.47
   0  -4   5   11.01    0.47
   0   4   5   12.51    0.47
   0   4   5   11.46    0.44
   0   4  -5   10.96    0.46
   0   4   5   11.38    0.43
   0   4  -5   11.36    0.45
  -1  -4  -5    5.52    0.31
   1  -4   5    5.67    0.27
  -1  -4  -5    5.66    0.28
   1  -4   5    5.50    0.30
   1  -4   5    5.78    0.27
  -1   4  -5    6.07    0.29
  -1   4  -5    5.59    0.29
   1   4   5    5.82    0.30
   1   4   5    5.85    0.26
   1   4   5    5.76    0.26
  -2  -4  -5    6.77    0.31
   2  -4   5    6.57    0.28
  -2  -4  -5    6.69    0.34
   2  -4   5    6.58    0.33
   2  -4   5    6.27    0.30
   2   4   5    6.57    0.32
   2   4   5    6.80    0.28
  -2   4  -5    6.31    0.31
   2   4   5    6.38    0.29
  -2   4  -5    6.35    0.32
  -3  -4  -5    2.68    0.26
   3  -4   5    3.21    0.22
   3  -4   5    2.85    0.18
   3  -4   5    3.05    0.24
   3   4   5    2.81    0.21
   3   4   5    2.90    0.18
  -3   4  -5    2.90    0.22
   3   4   5    2.94    0.22
  -3   4  -5    3.03    0.24
   4  -4   5    9.81    0.42
   4  -4   5    9.97    0.44
   4  -4   5   10.20    0.37
  -4  -4  -5    9.40    0.44
   4   4   5    9.95    0.41
   4   4   5   10.49    0.38
   4   4   5    9.96    0.41
  -4   4  -5    9.13    0.43
   5  -4   5    3.43    0.26
   5  -4   5    3.38    0.25
  -5  -4  -5    3.43    0.27
  -5   4  -5    3.39    0.26
   5   4   5    3.23    0.23
   5   4   5    3.44    0.24
  -6  -4  -5   27.20    1.00
   6  -4   5   29.17    1.01
   6  -4   5   28.50    1.01
   6   4   5   28.53    0.99
  -6   4  -5   28.20    1.02
   6   4   5   28.63    0.98
   7  -4   5    1.67    0.19
   7  -4   5    1.53    0.17
  -7  -4  -5    1.37    0.19
   7   4   5    1.50    0.17
  -7   4  -5    1.89    0.22
   7   4   5    2.05    0.20
  -8  -4  -5   11.56    0.52
   8  -4   5   11.95    0.53
   8  -4   5   11.61    0.50
   8   4   5   11.56    0.47
  -8   4  -5   12.19    0.55
   8   4   5   11.61    0.50
   9  -4   5    8.60    0.41
   9  -4   5    8.99    0.46
  -9  -4  -5    8.45    0.44
   9   4   5    9.11    0.42
  -9   4  -5    8.85    0.49
   9   4   5    8.83    0.38
 -10  -4  -5    4.36    0.34
  10  -4   5    4.23    0.29
  10  -4   5    4.38    0.36
 -10   4  -5    4.27    0.41
  10   4   5    4.45    0.26
  10   4   5    4.41    0.33
 -11  -4  -5    0.20    0.19
  11  -4   5   -0.09    0.19
  11  -4   5   -0.05    0.13
  11   4   5   -0.05    0.11
  11   4   5   -0.04    0.16
 -11   4  -5   -0.12    0.22
  12  -4   5   -0.08    0.20
  12  -4   5    0.23    0.14
  12   4   5    0.29    0.11
 -12   4  -5    0.11    0.25
  12   4   5    0.17    0.19
  13  -4   5   16.22    0.72
  13  -4   5   16.07    0.62
  13   4   5   16.04    0.68
 -13   4  -5   15.66    0.77
  13   4   5   16.19    0.58
  11  -5  -5    3.11    0.26
 -11  -5   5    2.83    0.41
  11  -5  -5    2.69    0.23
 -11   5   5    2.78    0.37
  11   5  -5    2.63    0.21
  11   5  -5    2.66    0.24
 -10  -5   5    0.12    0.30
  10  -5  -5    0.28    0.16
  10  -5  -5    0.15    0.14
  10   5  -5    0.13    0.15
 -10   5   5    0.22    0.26
  10   5  -5    0.09    0.11
   9  -5  -5    6.88    0.37
   9  -5  -5    6.81    0.35
  -9  -5   5    6.61    0.56
  -9   5   5    6.43    0.48
   9   5  -5    6.21    0.31
   9   5  -5    6.20    0.35
   8  -5  -5   12.75    0.52
   8  -5  -5   13.20    0.53
  -8  -5   5   12.96    0.69
   8   5  -5   12.62    0.53
  -8   5   5   13.15    0.62
   8   5  -5   12.52    0.50
  -7  -5   5    1.47    0.29
   7  -5  -5    1.27    0.16
   7  -5  -5    1.02    0.17
   7   5  -5    1.10    0.15
  -7   5   5    1.16    0.23
   7   5  -5    1.30    0.18
   6  -5  -5   22.81    0.83
   6  -5  -5   23.26    0.83
  -6  -5   5   22.54    0.93
  -6   5   5   22.47    0.87
   6   5  -5   22.70    0.82
   6   5  -5   23.24    0.83
   5  -5  -5    6.20    0.34
  -5  -5   5    5.62    0.44
   5  -5  -5    5.79    0.32
  -5   5   5    6.04    0.36
   5   5  -5    6.14    0.32
   5   5  -5    5.74    0.33
   4  -5  -5    8.30    0.40
   4  -5  -5    8.33    0.41
  -4  -5   5    7.87    0.49
   4   5  -5    8.57    0.40
  -4   5   5    9.30    0.42
   4   5  -5    8.78    0.40
  -3  -5   5   10.17    0.50
   3  -5  -5    9.69    0.44
   3  -5  -5   10.07    0.45
  -3   5   5   10.60    0.45
   3   5  -5    9.96    0.43
   3   5  -5   10.29    0.44
  -2  -5   5   16.29    0.67
   2  -5  -5   17.47    0.66
   2  -5  -5   16.56    0.64
   2   5  -5   17.04    0.64
  -2   5   5   16.75    0.63
   2   5  -5   16.96    0.65
   1  -5  -5    0.51    0.16
  -1  -5   5    0.32    0.15
   1  -5  -5    0.18    0.12
  -1   5   5    0.32    0.12
  -1   5   5    0.33    0.11
   1   5  -5    0.20    0.13
   1   5  -5    0.24    0.13
   0  -5  -5   23.19    0.85
   0  -5  -5   24.09    0.87
   0  -5   5   23.64    0.85
   0   5   5   23.10    0.86
   0   5  -5   23.93    0.85
   0   5   5   22.59    0.82
   0   5   5   24.81    0.82
   0   5  -5   22.76    0.85
  -1  -5  -5   14.21    0.57
   1  -5   5   12.64    0.56
   1  -5   5   13.39    0.50
   1  -5   5   13.49    0.53
   1   5   5   13.92    0.50
  -1   5  -5   13.37    0.55
  -1   5  -5   14.10    0.55
   1   5   5   13.65    0.55
   1   5   5   13.40    0.51
   2  -5   5    0.20    0.12
   2  -5   5    0.23    0.12
  -2  -5  -5    0.46    0.17
   2  -5   5    0.27    0.11
  -2   5  -5    0.31    0.14
   2   5   5    0.40    0.13
   2   5   5    0.07    0.11
   3  -5   5   25.68    0.96
   3  -5   5   26.57    0.91
   3  -5   5   26.31    0.93
  -3  -5  -5   27.88    0.98
   3   5   5   26.08    0.94
   3   5   5   26.00    0.92
  -3   5  -5   26.79    0.96
   4  -5   5    2.94    0.24
   4  -5   5    2.91    0.22
  -4  -5  -5    3.68    0.31
   4  -5   5    3.25    0.28
  -4   5  -5    3.28    0.28
   4   5   5    2.76    0.23
   4   5   5    2.91    0.24
   5  -5   5    0.36    0.15
  -5  -5  -5    0.25    0.18
   5  -5   5    0.18    0.14
  -5   5  -5    0.39    0.17
   5   5   5    0.28    0.14
   5   5   5    0.18    0.13
   6  -5   5   27.94    0.99
   6  -5   5   26.62    0.98
  -6  -5  -5   26.70    0.99
   6   5   5   27.82    0.96
   6   5   5   26.65    0.96
  -6   5  -5   26.33    0.99
   7  -5   5    3.46    0.30
  -7  -5  -5    3.11    0.27
   7  -5   5    2.97    0.29
  -7   5  -5    2.51    0.26
   7   5   5    2.78    0.27
   7   5   5    3.18    0.26
  -8  -5  -5    1.05    0.21
   8  -5   5    1.29    0.22
   8  -5   5    1.16    0.19
  -8   5  -5    1.28    0.23
   8   5   5    1.17    0.19
   8   5   5    1.53    0.17
  -9  -5  -5    0.77    0.22
   9  -5   5    1.13    0.22
   9  -5   5    0.95    0.18
   9   5   5    1.02    0.16
  -9   5  -5    1.00    0.23
   9   5   5    0.93    0.19
  10  -5   5   24.54    0.94
 -10  -5  -5   24.54    0.93
  10  -5   5   24.30    0.90
  10   5   5   23.09    0.86
 -10   5  -5   24.33    0.96
  10   5   5   23.77    0.90
  11  -5   5    3.06    0.31
 -11  -5  -5    2.55    0.29
  11  -5   5    3.09    0.31
  11   5   5    2.93    0.27
  11   5   5    2.70    0.25
 -11   5  -5    3.11    0.33
   9  -6  -5    0.37    0.16
  -9  -6   5    0.36    0.34
   9  -6  -5    0.35    0.18
  -9   6   5   -0.10    0.27
   9   6  -5    0.29    0.14
   9   6  -5    0.16    0.17
   8  -6  -5    4.49    0.33
   8  -6  -5    4.97    0.35
  -8  -6   5    4.47    0.44
  -8   6   5    4.66    0.44
   8   6  -5    4.61    0.34
   8   6  -5    4.39    0.30
   7  -6  -5    1.38    0.19
  -7  -6   5    1.21    0.32
   7  -6  -5    1.62    0.21
   7   6  -5    1.54    0.18
  -7   6   5    1.41    0.26
   7   6  -5    1.36    0.20
   6  -6  -5    0.93    0.19
  -6  -6   5    0.69    0.29
   6  -6  -5    1.37    0.19
   6   6  -5    0.70    0.16
  -6   6   5    0.85    0.22
   6   6  -5    0.82    0.19
   5  -6  -5    0.16    0.17
  -5  -6   5    0.13    0.24
   5  -6  -5    0.02    0.15
   5   6  -5    0.39    0.17
  -5   6   5    0.40    0.19
   5   6  -5    0.01    0.14
   4  -6  -5    5.03    0.34
   4  -6  -5    5.99    0.38
  -4  -6   5    5.69    0.46
  -4   6   5    5.55    0.37
   4   6  -5    5.05    0.35
   4   6  -5    5.67    0.35
  -3  -6   5   12.13    0.59
   3  -6  -5   11.10    0.51
   3  -6  -5   11.78    0.53
   3   6  -5   10.81    0.51
   3   6  -5   11.69    0.51
  -3   6   5   11.97    0.51
   2  -6  -5    9.70    0.48
  -2  -6   5    8.90    0.48
   2   6  -5    8.43    0.44
  -2   6   5    9.34    0.42
   2   6  -5    8.37    0.43
   1  -6  -5   12.96    0.59
  -1  -6   5   13.24    0.58
   1   6  -5   13.38    0.57
   1   6  -5   12.98    0.56
   0  -6   5   36.03    1.24
   0  -6  -5   35.68    1.27
   0   6   5   34.65    1.21
   0   6  -5   35.92    1.25
  -1  -6  -5    4.83    0.38
   1  -6   5    5.24    0.32
   1   6   5    4.67    0.30
  -1   6  -5    5.10    0.35
  -2  -6  -5    0.06    0.20
   2  -6   5    0.08    0.14
   2   6   5    0.06    0.15
  -2   6  -5    0.29    0.17
   2   6   5    0.02    0.13
   3  -6   5    0.55    0.15
  -3  -6  -5    0.93    0.23
   3   6   5    0.68    0.16
   3   6   5    0.64    0.17
  -3   6  -5    0.61    0.18
   4  -6   5   11.45    0.53
  -4  -6  -5   11.49    0.56
   4   6   5   11.14    0.49
   4   6   5   10.81    0.48
  -4   6  -5   11.13    0.53
   5  -6   5   14.39    0.59
   5  -6   5   15.30    0.64
  -5  -6  -5   14.82    0.67
  -5   6  -5   14.57    0.63
   5   6   5   13.88    0.59
   5   6   5   14.78    0.59
   6  -6   5    8.67    0.45
   6  -6   5    9.78    0.49
  -6  -6  -5    9.77    0.53
  -6   6  -5    8.75    0.48
   6   6   5    8.59    0.43
   6   6   5    8.41    0.43
   7  -6   5    8.52    0.46
   7  -6   5    8.37    0.46
  -7  -6  -5    8.49    0.49
   7   6   5    7.82    0.41
   7   6   5    7.88    0.43
  -7   6  -5    8.33    0.49
  -8  -6  -5    0.60    0.24
   8  -6   5    0.48    0.20
   8  -6   5    0.72    0.20
   8   6   5    0.76    0.17
   8   6   5    0.58    0.19
  -8   6  -5    0.39    0.22
   9  -6   5    2.50    0.29
   9  -6   5    3.35    0.29
  -9  -6  -5    2.76    0.30
   9   6   5    3.08    0.29
  -9   6  -5    2.73    0.31
   9   6   5    3.12    0.27
   5  -7  -5    9.55    0.50
  -5  -7   5   10.86    0.65
   5  -7  -5   10.44    0.51
   5   7  -5   10.04    0.49
   5   7  -5   10.12    0.51
   4  -7  -5    1.18    0.24
  -4  -7   5    1.30    0.29
   4   7  -5    1.27    0.20
   4   7  -5    1.20    0.23
  -3  -7   5    0.04    0.24
   3  -7  -5    0.07    0.21
   3   7  -5    0.07    0.18
   3   7  -5   -0.16    0.17
  -2  -7   5    0.19    0.23
   2  -7  -5    0.09    0.22
   2   7  -5    0.41    0.20
   1  -7  -5   16.11    0.71
  -1  -7   5   16.71    0.69
   1   7  -5   15.80    0.69
   0  -7   5    0.57    0.20
   0  -7  -5    0.47    0.24
   0   7  -5    0.34    0.20
   1  -7   5    4.85    0.36
  -1  -7  -5    4.56    0.37
  -1   7  -5    5.15    0.39
   2  -7   5    0.04    0.17
  -2  -7  -5    0.22    0.24
  -2   7  -5    0.06    0.20
   2   7   5    0.14    0.16
  -3  -7  -5    0.08    0.26
   3   7   5    0.23    0.17
  -3   7  -5    0.30    0.21
  -4  -7  -5    0.24    0.26
   4   7   5    0.20    0.17
  -4   7  -5   -0.05    0.20
   4   7   5    0.00    0.16
  -5  -7  -5   11.79    0.62
   5   7   5   10.95    0.51
  -5   7  -5   11.67    0.57
   5   7   5   10.73    0.52
  15   0  -6    0.06    0.16
 -15   0   6   -0.22    0.26
 -14   0   6    0.83    0.28
  14   0  -6    0.74    0.17
 -13   0   6   -0.18    0.22
  13   0  -6   -0.04    0.14
  12   0  -6    2.95    0.26
 -12   0   6    3.01    0.29
  11   0  -6    0.11    0.04
  11   0  -6    0.22    0.14
 -11   0   6   -0.09    0.19
  11   0  -6    0.09    0.04
  10   0  -6   56.96    1.83
 -10   0   6   55.59    1.92
  10   0  -6   56.00    1.83
  10   0  -6   60.12    1.90
   9   0  -6    0.02    0.06
   9   0  -6   -0.09    0.11
  -9   0   6    0.03    0.14
   9   0  -6    0.02    0.05
   8   0  -6   12.62    0.42
   8   0  -6   11.65    0.43
  -8   0   6   11.68    0.50
   8   0  -6   12.83    0.43
   8   0  -6   12.03    0.48
  -7   0   6    0.17    0.11
   7   0  -6    0.06    0.06
   7   0  -6    0.03    0.05
   7   0  -6   -0.01    0.09
   7   0  -6    0.04    0.05
   6   0  -6   47.72    1.49
   6   0  -6   43.91    1.52
   6   0  -6   45.83    1.51
   6   0  -6   46.32    1.50
  -6   0   6   46.79    1.54
  -5   0   6    0.06    0.09
   5   0  -6    0.00    0.05
   5   0  -6    0.03    0.06
   5   0  -6    0.04    0.04
   5   0  -6   -0.02    0.07
   4   0  -6    9.73    0.38
  -4   0   6   10.75    0.39
   4   0  -6    9.51    0.38
   4   0  -6   10.35    0.34
   4   0  -6   10.18    0.37
  -3   0   6    0.28    0.08
   3   0  -6    0.09    0.03
  -3   0   6   -0.04    0.07
   3   0  -6    0.02    0.06
   3   0  -6   -0.01    0.06
   2   0  -6  573.21   17.44
  -2   0   6  482.76   16.87
  -2   0   6  551.76   16.84
   2   0  -6  525.68   17.84
   2   0  -6  502.35   18.26
   1   0  -6    0.02    0.05
  -1   0   6    0.04    0.06
   1   0  -6    0.04    0.04
   1   0  -6    0.07    0.05
   0   0  -6    9.77    0.38
   0   0   6   10.43    0.37
   0   0   6    9.84    0.39
   0   0  -6   10.58    0.35
   0   0  -6    9.38    0.36
  -1   0  -6    0.04    0.04
  -1   0  -6    0.04    0.06
   1   0   6    0.18    0.07
  -1   0  -6    0.06    0.05
   1   0   6    0.00    0.07
  -2   0  -6  135.29    4.27
   2   0   6  139.31    4.31
  -2   0  -6  129.79    4.30
   2   0   6  135.43    4.27
  -2   0  -6  125.36    4.26
   3   0   6    0.04    0.07
  -3   0  -6    0.11    0.07
  -3   0  -6    0.03    0.04
   3   0   6    0.01    0.07
  -3   0  -6    0.10    0.06
   4   0   6  124.64    3.91
  -4   0  -6  115.41    3.89
  -4   0  -6  129.29    3.86
  -4   0  -6  114.23    3.88
   4   0   6  121.45    3.89
  -5   0  -6    0.01    0.03
  -5   0  -6   -0.05    0.09
   5   0   6    0.00    0.09
   5   0   6   -0.04    0.06
   5   0   6    0.04    0.07
   6   0   6   35.58    1.19
   6   0   6   33.71    1.17
  -6   0  -6   35.33    1.13
  -6   0  -6   32.85    1.20
   6   0   6   39.00    1.19
   7   0   6    0.12    0.12
   7   0   6    0.06    0.07
  -7   0  -6    0.11    0.13
   8   0   6   26.84    0.90
  -8   0  -6   25.97    0.96
   8   0   6   26.86    0.94
   9   0   6    0.14    0.08
  -9   0  -6    0.14    0.14
   9   0   6    0.15    0.13
  10   0   6    0.80    0.17
 -10   0  -6    0.75    0.20
  10   0   6    0.92    0.11
  11   0   6    0.00    0.15
 -11   0  -6    1.26    0.22
  11   0   6    0.28    0.09
 -12   0  -6  174.33    5.50
  12   0   6  168.55    5.46
  12   0   6  163.72    5.39
 -13   0  -6   -0.04    0.22
  13   0   6   -0.08    0.17
  13   0   6    0.03    0.07
 -14   0  -6   32.56    1.21
  14   0   6   31.33    1.16
 -15   0  -6   -0.02    0.24
  15   0   6   -0.15    0.19
  15  -1  -6    2.95    0.24
 -15   1   6    2.28    0.36
  15   1  -6    2.52    0.25
  14  -1  -6    0.42    0.17
  14   1  -6    0.48    0.18
 -14   1   6    0.51    0.27
  13  -1  -6    8.36    0.40
 -13   1   6    6.96    0.51
  13   1  -6    8.24    0.42
  12  -1  -6   47.91    1.53
  12  -1  -6   49.46    1.54
 -12  -1   6   46.27    1.64
  12  -1  -6   50.67    1.61
 -12   1   6   45.64    1.68
  12   1  -6   47.97    1.63
  11  -1  -6   38.87    1.27
  11  -1  -6   38.18    1.22
 -11  -1   6   35.39    1.30
  11   1  -6   38.43    1.30
 -11   1   6   36.33    1.34
  11   1  -6   39.70    1.21
  11   1  -6   36.02    1.20
  10  -1  -6   15.56    0.57
 -10  -1   6   13.63    0.59
  10  -1  -6   15.67    0.51
  10   1  -6   15.34    0.54
  10   1  -6   14.84    0.50
 -10   1   6   13.87    0.63
  10   1  -6   14.52    0.59
  10   1  -6   15.24    0.50
   9  -1  -6  122.40    3.90
   9  -1  -6  125.57    3.88
  -9  -1   6  114.01    3.91
  -9   1   6  117.88    3.94
   9   1  -6  126.10    3.88
   9   1  -6  120.10    3.92
   9   1  -6  122.23    3.86
   9   1  -6  119.42    3.88
   8  -1  -6   51.21    1.68
   8  -1  -6   53.01    1.71
   8  -1  -6   53.63    1.68
  -8  -1   6   51.03    1.72
   8   1  -6   51.60    1.67
   8   1  -6   52.24    1.68
  -8   1   6   50.64    1.74
   8   1  -6   52.09    1.72
   8   1  -6   49.47    1.67
   7  -1  -6    0.07    0.06
  -7  -1   6    0.37    0.11
   7  -1  -6    0.11    0.09
   7  -1  -6    0.13    0.07
   7   1  -6    0.08    0.10
   7   1  -6    0.13    0.06
  -7   1   6    0.10    0.13
   7   1  -6    0.01    0.06
   7   1  -6    0.08    0.06
   6  -1  -6    4.49    0.22
  -6  -1   6    4.38    0.24
   6  -1  -6    4.37    0.20
   6  -1  -6    4.48    0.20
  -6   1   6    4.06    0.16
   6   1  -6    4.20    0.24
   6   1  -6    4.68    0.19
   6   1  -6    4.77    0.21
   6   1  -6    4.14    0.20
  -6   1   6    5.45    0.28
   5  -1  -6   35.59    1.16
   5  -1  -6   35.06    1.17
   5  -1  -6   34.44    1.16
  -5  -1   6   34.82    1.17
   5   1  -6   32.72    1.16
   5   1  -6   35.16    1.15
   5   1  -6   37.18    1.17
   5   1  -6   34.18    1.18
  -5   1   6   37.20    1.20
   4  -1  -6   32.58    1.13
  -4  -1   6   33.78    1.14
   4  -1  -6   33.57    1.14
   4  -1  -6   32.95    1.13
   4   1  -6   33.90    1.13
   4   1  -6   34.20    1.15
   4   1  -6   34.47    1.12
  -4   1   6   35.61    1.16
   4   1  -6   37.21    1.15
  -3  -1   6  101.53    3.55
   3  -1  -6  109.71    3.57
  -3  -1   6  114.30    3.56
   3  -1  -6  113.39    3.52
  -3   1   6  103.13    3.55
   3   1  -6  112.82    3.57
   3   1  -6  114.46    3.60
   3   1  -6  110.01    3.58
  -3   1   6  116.14    3.57
  -2  -1   6    4.00    0.21
   2  -1  -6    3.89    0.19
  -2  -1   6    4.19    0.19
   2  -1  -6    4.04    0.19
   2  -1  -6    4.54    0.15
   2   1  -6    4.14    0.20
  -2   1   6    3.88    0.20
   2   1  -6    4.37    0.18
   2   1  -6    4.11    0.20
  -2   1   6    4.44    0.21
  -1  -1   6   41.04    1.32
  -1  -1   6   38.42    1.34
   1  -1  -6   39.46    1.32
   1  -1  -6   42.45    1.30
   1  -1  -6   40.17    1.32
  -1   1   6   40.17    1.33
   1   1  -6   40.70    1.33
   1   1  -6   39.17    1.31
  -1   1   6   38.73    1.33
   1   1  -6   42.18    1.31
   0  -1   6    9.29    0.36
   0  -1  -6    9.66    0.36
   0  -1   6    9.77    0.38
   0  -1  -6    9.53    0.34
   0  -1  -6    9.15    0.35
   0   1   6   10.17    0.36
   0   1  -6   10.36    0.35
   0   1  -6    9.85    0.37
   0   1   6    9.57    0.37
   0   1  -6    9.28    0.34
  -1  -1  -6    7.52    0.29
   1  -1   6    7.33    0.32
  -1  -1  -6    7.27    0.29
   1  -1   6    7.28    0.30
  -1  -1  -6    7.65    0.28
  -1   1  -6    7.42    0.27
   1   1   6    7.24    0.30
  -1   1  -6    7.69    0.31
  -1   1  -6    7.77    0.29
   1   1   6    7.74    0.29
   2  -1   6    1.47    0.13
  -2  -1  -6    1.32    0.12
  -2  -1  -6    1.16    0.10
   2  -1   6    1.11    0.11
   2   1   6    1.38    0.13
  -2   1  -6    1.25    0.11
   2   1   6    1.35    0.13
  -2   1  -6    1.18    0.07
  -2   1  -6    1.18    0.11
   3  -1   6    0.05    0.08
  -3  -1  -6    0.30    0.06
   3  -1   6    0.23    0.09
   3  -1   6    0.25    0.03
  -3  -1  -6    0.23    0.08
  -3   1  -6    0.20    0.08
   3   1   6    0.22    0.07
  -3   1  -6    0.26    0.08
  -4  -1  -6   96.46    3.49
   4  -1   6  115.91    3.51
   4  -1   6  103.82    3.51
  -4  -1  -6  110.12    3.50
  -4  -1  -6  110.39    3.52
   4   1   6  113.72    3.51
  -4   1  -6  106.41    3.52
  -4   1  -6  107.57    3.50
   4   1   6  113.98    3.52
   4   1   6  110.58    3.50
   5  -1   6  292.33    8.98
  -5  -1  -6  293.15    8.92
  -5  -1  -6  272.95    8.98
   5  -1   6  259.99    8.97
   5   1   6  290.13    9.01
   5   1   6  278.47    8.97
   5   1   6  280.78    8.95
   5   1   6  287.70    8.98
  -5   1  -6  257.02    8.98
   6  -1   6  105.11    3.29
   6  -1   6   98.69    3.26
  -6  -1  -6  102.33    3.24
   6   1   6  101.87    3.28
   6   1   6  103.33    3.27
   6   1   6  101.05    3.27
   6   1   6  102.20    3.26
  -6   1  -6   94.92    3.29
   7  -1   6   24.69    0.85
  -7  -1  -6   24.09    0.81
  -7  -1  -6   24.56    0.89
   7  -1   6   24.72    0.87
   7   1   6   24.61    0.87
  -7   1  -6   24.20    0.89
   7   1   6   24.36    0.83
   7   1   6   24.89    0.85
   8  -1   6   66.27    2.17
  -8  -1  -6   63.32    2.11
  -8  -1  -6   64.31    2.19
   8  -1   6   63.99    2.13
   8   1   6   67.93    2.15
  -8   1  -6   65.41    2.19
   8   1   6   65.59    2.16
   8   1   6   67.06    2.12
  -9  -1  -6   30.85    1.15
   9  -1   6   32.93    1.15
   9  -1   6   32.79    1.09
   9   1   6   34.42    1.13
   9   1   6   31.98    1.08
  -9   1  -6   31.98    1.17
  10  -1   6    0.81    0.11
  10  -1   6    0.35    0.17
 -10  -1  -6    0.59    0.18
 -10   1  -6    0.64    0.20
  10   1   6    0.58    0.15
  10   1   6    0.56    0.09
  11  -1   6   21.70    0.79
  11  -1   6   22.45    0.87
 -11  -1  -6   24.25    0.91
  11   1   6   22.07    0.77
  11   1   6   24.11    0.85
 -11   1  -6   24.26    0.91
 -12  -1  -6    0.64    0.23
  12  -1   6    0.68    0.20
  12  -1   6    0.75    0.11
  12   1   6    0.55    0.09
  12   1   6    0.64    0.18
 -12   1  -6    0.71    0.22
  13  -1   6   10.26    0.40
 -13  -1  -6   11.66    0.60
  13  -1   6   10.38    0.52
  13   1   6   10.36    0.38
 -13   1  -6   11.21    0.58
  13   1   6   11.19    0.50
 -14  -1  -6   16.65    0.76
  14  -1   6   15.76    0.56
  14  -1   6   16.18    0.69
  14   1   6   16.35    0.67
  14   1   6   16.18    0.54
 -14   1  -6   16.14    0.75
  15  -1   6    1.13    0.25
  15  -1   6    1.02    0.08
 -15  -1  -6    0.84    0.29
 -15   1  -6    1.16    0.29
 -14  -2   6    0.64    0.25
  14  -2  -6    0.82    0.17
 -14   2   6    0.69    0.31
  13  -2  -6    5.63    0.32
  13  -2  -6    5.89    0.22
  13   2  -6    5.98    0.38
 -13   2   6    6.06    0.50
  12  -2  -6   10.32    0.37
  12  -2  -6   10.31    0.43
  12   2  -6    9.55    0.33
  12   2  -6   10.61    0.42
  12   2  -6   10.29    0.33
  12   2  -6   10.15    0.48
 -12   2   6    9.64    0.58
  11  -2  -6    2.29    0.22
  11  -2  -6    2.39    0.16
  11   2  -6    2.49    0.20
  11   2  -6    2.16    0.12
 -11   2   6    2.28    0.30
  11   2  -6    2.03    0.22
  10  -2  -6    0.20    0.12
  10  -2  -6    0.15    0.08
  10   2  -6    0.18    0.10
 -10   2   6   -0.01    0.21
  10   2  -6    0.09    0.06
  10   2  -6    0.12    0.15
  -9  -2   6   13.32    0.54
   9  -2  -6   14.58    0.54
   9  -2  -6   14.13    0.51
   9   2  -6   14.13    0.52
  -9   2   6   13.82    0.60
   9   2  -6   15.15    0.58
   9   2  -6   13.90    0.49
  -8  -2   6   18.72    0.70
   8  -2  -6   19.81    0.68
   8  -2  -6   19.95    0.71
   8   2  -6   18.98    0.69
   8   2  -6   20.14    0.67
  -8   2   6   19.17    0.76
   8   2  -6   21.74    0.74
   7  -2  -6    0.03    0.10
  -7  -2   6    0.04    0.10
   7   2  -6    0.05    0.08
   7   2  -6    0.00    0.11
   7   2  -6    0.06    0.07
  -7   2   6    0.14    0.15
   6  -2  -6    2.69    0.17
  -6  -2   6    3.07    0.18
   6  -2  -6    2.63    0.19
   6   2  -6    2.90    0.21
   6   2  -6    2.64    0.16
  -6   2   6    2.94    0.22
   6   2  -6    2.77    0.17
   5  -2  -6   60.25    2.03
  -5  -2   6   60.89    2.03
   5  -2  -6   60.11    2.04
   5   2  -6   62.36    2.03
   5   2  -6   63.68    2.05
   5   2  -6   61.13    2.03
  -5   2   6   63.80    2.06
   5   2  -6   68.14    2.05
   4  -2  -6   33.84    1.14
   4  -2  -6   33.86    1.14
  -4  -2   6   33.36    1.13
   4   2  -6   34.48    1.14
   4   2  -6   34.03    1.15
  -4   2   6   32.54    1.14
   4   2  -6   36.14    1.14
   4   2  -6   34.29    1.13
  -4   2   6   35.13    1.16
  -3  -2   6   90.34    2.94
  -3  -2   6   86.32    2.96
   3  -2  -6   92.98    2.95
   3  -2  -6   90.78    2.95
   3   2  -6   93.14    2.96
  -3   2   6   90.05    2.96
   3   2  -6   93.42    2.96
  -3   2   6   96.34    2.97
   3   2  -6   91.18    2.96
  -2  -2   6    9.33    0.36
   2  -2  -6    9.26    0.36
   2  -2  -6   10.12    0.32
   2  -2  -6    9.97    0.37
  -2  -2   6    9.03    0.38
   2   2  -6    9.73    0.36
   2   2  -6    9.89    0.37
  -1  -2   6  262.77    8.22
   1  -2  -6  255.35    8.25
  -1  -2   6  254.97    8.22
  -1  -2   6  257.82    9.00
   1  -2  -6  261.61    8.25
  -1   2   6  258.30    8.23
  -1   2   6  259.59    8.21
   1   2  -6  266.11    8.28
  -1   2   6  229.52    8.52
   1   2  -6  254.86    8.25
   0  -2   6   46.41    1.58
   0  -2   6   46.80    1.60
   0  -2   6   50.76    1.58
   0  -2  -6   49.65    1.58
   0  -2  -6   48.09    1.58
   0   2   6   44.57    1.56
   0   2  -6   48.48    1.59
   0   2   6   50.28    1.59
   0   2   6   48.65    1.58
   0   2  -6   49.03    1.58
  -1  -2  -6   63.20    2.06
  -1  -2  -6   62.82    2.06
   1  -2   6   63.04    2.07
   1  -2   6   66.21    2.05
   1  -2   6   63.35    2.08
   1   2   6   64.26    2.07
  -1   2  -6   64.94    2.07
   1   2   6   62.97    2.06
  -1   2  -6   64.08    2.07
   1   2   6   59.76    2.05
   2  -2   6   48.79    1.50
  -2  -2  -6   46.37    1.51
  -2  -2  -6   45.23    1.52
   2  -2   6   45.57    1.53
   2  -2   6   46.12    1.54
   2   2   6   46.85    1.53
   2   2   6   45.10    1.51
  -2   2  -6   45.32    1.53
   2   2   6   47.59    1.52
  -2   2  -6   45.84    1.53
   3  -2   6    5.99    0.29
   3  -2   6    6.46    0.22
   3  -2   6    6.37    0.29
  -3  -2  -6    6.03    0.26
  -3  -2  -6    5.99    0.26
  -3   2  -6    5.89    0.28
   3   2   6    5.90    0.27
   3   2   6    6.12    0.26
   3   2   6    6.05    0.26
  -3   2  -6    6.12    0.28
   4  -2   6   54.11    1.60
   4  -2   6   48.38    1.66
   4  -2   6   49.05    1.67
  -4  -2  -6   49.19    1.65
  -4  -2  -6   49.29    1.64
  -4   2  -6   49.67    1.66
   4   2   6   51.34    1.65
  -4   2  -6   51.39    1.67
   4   2   6   49.85    1.64
   4   2   6   49.09    1.65
  -5  -2  -6    3.47    0.19
   5  -2   6    4.52    0.23
   5  -2   6    3.57    0.24
   5   2   6    3.85    0.21
   5   2   6    3.39    0.21
  -5   2  -6    3.86    0.25
   5   2   6    3.44    0.20
  -5   2  -6    3.75    0.21
   6  -2   6    1.91    0.20
  -6  -2  -6    2.54    0.17
   6  -2   6    2.21    0.19
   6   2   6    2.38    0.17
  -6   2  -6    2.02    0.19
   6   2   6    2.29    0.18
   6   2   6    2.22    0.19
  -7  -2  -6   28.84    0.97
   7  -2   6   29.42    0.99
   7  -2   6   28.03    1.02
   7   2   6   29.53    0.98
   7   2   6   28.60    0.98
   7   2   6   28.71    1.00
  -7   2  -6   28.30    1.04
   8  -2   6    5.07    0.34
   8  -2   6    6.17    0.30
  -8  -2  -6    5.80    0.28
   8   2   6    5.97    0.27
  -8   2  -6    5.23    0.35
   8   2   6    6.43    0.29
   8   2   6    6.51    0.32
  -9  -2  -6   -0.03    0.11
   9  -2   6    0.02    0.11
   9  -2   6    0.07    0.14
  -9   2  -6    0.03    0.18
   9   2   6    0.18    0.12
   9   2   6   -0.01    0.12
   9   2   6   -0.01    0.09
  10  -2   6   31.61    1.09
  10  -2   6   30.10    1.15
  10   2   6   31.71    1.13
  10   2   6   31.83    1.07
  10   2   6   35.27    1.11
 -10   2  -6   31.82    1.19
  11  -2   6   65.88    2.31
  11  -2   6   67.14    2.25
  11   2   6   74.47    2.28
 -11   2  -6   72.36    2.36
  11   2   6   65.66    2.23
  11   2   6   68.56    2.30
  12  -2   6    6.41    0.32
  12  -2   6    6.65    0.43
  12   2   6    7.42    0.37
  12   2   6    7.43    0.43
 -12   2  -6    7.95    0.52
  12   2   6    6.87    0.28
  13  -2   6    7.83    0.47
  13  -2   6    8.04    0.35
  13   2   6    8.08    0.31
 -13   2  -6   10.22    0.56
  13   2   6    8.33    0.46
  14  -2   6    0.32    0.10
 -14  -2  -6   -0.08    0.25
  14  -2   6    0.18    0.22
  14   2   6    0.28    0.07
 -14   2  -6    0.18    0.28
 -13  -3   6   14.82    0.75
  13  -3  -6   16.06    0.54
  13  -3  -6   15.72    0.60
  13   3  -6   15.49    0.59
  13   3  -6   14.39    0.49
 -13   3   6   14.10    0.76
 -12  -3   6   38.22    1.45
  12  -3  -6   40.98    1.30
  12  -3  -6   40.82    1.33
 -12   3   6   37.69    1.46
  12   3  -6   38.22    1.27
  12   3  -6   39.10    1.33
  11  -3  -6    0.25    0.14
 -11  -3   6    0.43    0.25
  11  -3  -6    0.20    0.10
  11   3  -6    0.21    0.12
  11   3  -6    0.19    0.07
 -11   3   6    0.40    0.26
  10  -3  -6   15.86    0.60
  10  -3  -6   16.08    0.57
 -10  -3   6   15.46    0.72
 -10   3   6   15.02    0.70
  10   3  -6   15.10    0.54
  10   3  -6   15.98    0.59
   9  -3  -6    0.28    0.10
   9  -3  -6    0.29    0.13
  -9  -3   6    0.60    0.23
   9   3  -6    0.41    0.09
   9   3  -6    0.36    0.11
  -9   3   6    0.19    0.19
   8  -3  -6   59.81    1.98
  -8  -3   6   59.63    2.05
   8  -3  -6   62.61    1.96
   8   3  -6   59.91    1.95
  -8   3   6   58.61    2.03
   8   3  -6   58.83    1.97
  -7  -3   6   34.14    1.27
   7  -3  -6   35.45    1.19
   7  -3  -6   36.14    1.18
   7   3  -6   34.93    1.18
  -7   3   6   34.69    1.24
   7   3  -6   35.67    1.18
  -6  -3   6  162.56    5.38
   6  -3  -6  169.51    5.32
   6  -3  -6  168.93    5.32
   6   3  -6  169.01    5.35
   6   3  -6  160.62    5.34
  -6   3   6  165.35    5.35
  -5  -3   6   11.41    0.43
   5  -3  -6   12.57    0.46
  -5  -3   6   11.20    0.53
   5  -3  -6   12.64    0.47
   5   3  -6   12.53    0.46
   5   3  -6   11.93    0.46
  -5   3   6   12.35    0.51
  -4  -3   6    1.31    0.18
  -4  -3   6    1.27    0.11
   4  -3  -6    1.19    0.12
   4  -3  -6    1.16    0.13
  -4   3   6    1.23    0.16
   4   3  -6    1.21    0.13
   4   3  -6    1.07    0.12
  -3  -3   6    0.32    0.13
   3  -3  -6    0.44    0.10
  -3  -3   6    0.29    0.09
   3  -3  -6    0.38    0.10
   3   3  -6    0.28    0.09
   3   3  -6    0.24    0.09
  -3   3   6    0.41    0.10
  -3   3   6    0.23    0.12
  -3   3   6    0.36    0.04
   2  -3  -6    0.96    0.12
  -2  -3   6    0.85    0.11
  -2  -3   6    0.86    0.14
  -2  -3   6    0.81    0.12
   2  -3  -6    0.70    0.10
  -2   3   6    0.80    0.11
   2   3  -6    0.76    0.10
   2   3  -6    0.95    0.12
  -2   3   6    0.88    0.13
  -2   3   6    0.81    0.07
  -1  -3   6   10.70    0.45
   1  -3  -6   12.29    0.46
  -1  -3   6   11.92    0.47
   1  -3  -6   12.28    0.46
  -1  -3   6   12.07    0.46
   1   3  -6   11.99    0.45
  -1   3   6   12.09    0.42
  -1   3   6   12.05    0.47
  -1   3   6   12.79    0.47
   1   3  -6   12.44    0.46
   0  -3  -6   41.27    1.36
   0  -3  -6   42.46    1.36
   0  -3   6   35.01    1.35
   0  -3   6   39.13    1.37
   0  -3   6   41.83    1.35
   0   3  -6   41.39    1.36
   0   3  -6   41.11    1.37
   0   3   6   42.39    1.37
   0   3   6   41.41    1.35
   0   3   6   41.83    1.33
  -1  -3  -6    0.00    0.08
   1  -3   6   -0.02    0.10
   1  -3   6   -0.07    0.07
  -1  -3  -6    0.25    0.10
   1   3   6    0.12    0.08
  -1   3  -6    0.05    0.08
   1   3   6    0.07    0.09
  -1   3  -6    0.18    0.09
   1   3   6    0.02    0.07
  -2  -3  -6  159.53    5.05
   2  -3   6  162.04    5.03
   2  -3   6  146.98    5.06
   2  -3   6  158.48    5.07
  -2  -3  -6  156.16    5.05
   2   3   6  159.22    5.07
   2   3   6  160.74    5.08
  -2   3  -6  156.68    5.10
  -2   3  -6  156.98    5.06
   2   3   6  158.46    5.06
  -3  -3  -6   73.78    2.43
   3  -3   6   69.88    2.45
  -3  -3  -6   75.20    2.44
   3  -3   6   76.25    2.40
   3  -3   6   75.64    2.46
  -3   3  -6   73.49    2.45
  -3   3  -6   74.30    2.45
   3   3   6   76.90    2.42
   3   3   6   75.59    2.43
   3   3   6   77.18    2.44
  -4  -3  -6   33.18    1.16
   4  -3   6   34.24    1.18
   4  -3   6   32.14    1.17
   4  -3   6   35.85    1.11
  -4   3  -6   34.34    1.17
   4   3   6   36.02    1.16
   4   3   6   34.84    1.14
   4   3   6   34.24    1.15
  -4   3  -6   33.32    1.17
   5  -3   6   51.83    1.77
  -5  -3  -6   52.31    1.74
   5  -3   6   54.41    1.77
   5   3   6   51.98    1.75
  -5   3  -6   51.41    1.77
   5   3   6   54.31    1.75
   5   3   6   53.65    1.73
   6  -3   6   33.77    1.20
  -6  -3  -6   32.80    1.16
   6  -3   6   35.41    1.18
   6   3   6   35.52    1.17
   6   3   6   33.98    1.15
   6   3   6   35.03    1.16
  -6   3  -6   33.31    1.19
   7  -3   6    4.76    0.28
  -7  -3  -6    4.12    0.26
   7  -3   6    4.22    0.31
   7   3   6    4.40    0.25
  -7   3  -6    4.80    0.31
   7   3   6    4.50    0.24
   7   3   6    4.60    0.28
   8  -3   6  134.17    4.43
  -8  -3  -6  131.98    4.39
   8  -3   6  138.70    4.40
  -8   3  -6  136.77    4.45
   8   3   6  132.80    4.40
   8   3   6  137.11    4.38
   8   3   6  142.42    4.38
   9  -3   6    6.35    0.40
   9  -3   6    6.74    0.34
  -9  -3  -6    6.53    0.34
   9   3   6    6.87    0.31
   9   3   6    6.84    0.36
  -9   3  -6    5.83    0.45
  10  -3   6   15.84    0.62
  10  -3   6   16.24    0.68
 -10  -3  -6   16.45    0.63
 -10   3  -6   15.64    0.73
  10   3   6   15.98    0.59
  10   3   6   16.51    0.64
  11  -3   6   14.64    0.64
  11  -3   6   15.40    0.58
  11   3   6   15.65    0.56
 -11   3  -6   13.46    0.71
  11   3   6   15.61    0.63
  12  -3   6   21.43    0.78
  12  -3   6   21.43    0.86
  12   3   6   22.32    0.84
  12   3   6   21.26    0.75
 -12   3  -6   22.28    0.94
  13  -3   6    0.08    0.12
  13  -3   6    0.07    0.22
  13   3   6    0.05    0.20
 -13   3  -6   -0.14    0.28
  13   3   6    0.08    0.09
 -12  -4   6    1.86    0.36
  12  -4  -6    1.84    0.16
  12  -4  -6    1.98    0.20
  12   4  -6    1.57    0.15
 -12   4   6    1.85    0.36
  12   4  -6    1.81    0.19
 -11  -4   6    0.13    0.30
  11  -4  -6    0.08    0.15
  11  -4  -6    0.05    0.12
 -11   4   6    0.07    0.25
  11   4  -6    0.17    0.14
  11   4  -6    0.23    0.09
  10  -4  -6    0.27    0.12
  10  -4  -6    0.39    0.15
 -10  -4   6    0.03    0.28
  10   4  -6    0.23    0.14
  10   4  -6    0.28    0.10
 -10   4   6    0.22    0.26
   9  -4  -6    9.77    0.40
  -9  -4   6    9.08    0.58
   9  -4  -6    9.41    0.43
   9   4  -6    9.11    0.37
  -9   4   6    9.00    0.54
   9   4  -6    9.02    0.41
  -8  -4   6    7.44    0.51
   8  -4  -6    7.37    0.36
   8  -4  -6    7.42    0.34
   8   4  -6    7.05    0.34
  -8   4   6    7.59    0.46
   8   4  -6    7.28    0.32
   7  -4  -6   44.32    1.50
  -7  -4   6   43.78    1.58
   7  -4  -6   45.47    1.49
  -7   4   6   43.48    1.54
   7   4  -6   44.53    1.49
   7   4  -6   45.22    1.48
  -6  -4   6   14.05    0.65
   6  -4  -6   14.40    0.55
   6  -4  -6   14.87    0.56
   6   4  -6   14.74    0.56
  -6   4   6   13.95    0.60
   6   4  -6   14.70    0.55
   5  -4  -6   47.79    1.60
  -5  -4   6   45.04    1.66
   5  -4  -6   47.40    1.60
   5   4  -6   48.84    1.60
  -5   4   6   50.63    1.64
   5   4  -6   48.39    1.60
  -4  -4   6    1.26    0.21
   4  -4  -6    1.37    0.16
   4  -4  -6    1.21    0.14
   4   4  -6    1.27    0.14
  -4   4   6    1.78    0.19
   4   4  -6    1.38    0.15
   3  -4  -6    0.20    0.10
  -3  -4   6   -0.04    0.15
   3  -4  -6    0.11    0.12
   3   4  -6    0.10    0.11
   3   4  -6    0.19    0.11
  -3   4   6    0.19    0.13
   2  -4  -6   81.86    2.65
  -2  -4   6   80.04    2.66
  -2  -4   6   77.79    2.62
   2  -4  -6   81.10    2.64
   2   4  -6   82.69    2.65
  -2   4   6   80.61    2.68
  -2   4   6   83.14    2.61
   2   4  -6   78.14    2.65
  -2   4   6   84.00    2.65
   1  -4  -6    1.08    0.15
  -1  -4   6    1.19    0.12
  -1  -4   6    1.34    0.16
   1  -4  -6    1.34    0.14
  -1   4   6    1.27    0.15
  -1   4   6    1.22    0.15
   1   4  -6    1.41    0.15
   1   4  -6    1.00    0.14
  -1   4   6    1.11    0.11
   0  -4   6    6.06    0.29
   0  -4   6    5.95    0.33
   0  -4   6    6.44    0.31
   0  -4  -6    6.04    0.32
   0  -4  -6    6.66    0.31
   0   4   6    7.00    0.33
   0   4  -6    6.28    0.32
   0   4  -6    6.63    0.32
   0   4   6    6.54    0.30
   0   4   6    6.48    0.28
   1  -4   6  164.71    5.26
   1  -4   6  161.04    5.29
  -1  -4  -6  165.37    5.27
  -1  -4  -6  164.67    5.27
   1  -4   6  164.74    5.25
  -1   4  -6  159.81    5.28
   1   4   6  167.55    5.28
   1   4   6  164.51    5.25
  -1   4  -6  161.36    5.27
   1   4   6  166.02    5.27
  -2  -4  -6   40.18    1.32
   2  -4   6   38.16    1.31
   2  -4   6   36.83    1.33
   2  -4   6   38.29    1.28
   2   4   6   40.36    1.29
  -2   4  -6   38.64    1.32
   2   4   6   39.25    1.31
   2   4   6   39.05    1.29
  -2   4  -6   36.92    1.32
   3  -4   6    3.68    0.28
   3  -4   6    3.38    0.24
  -3  -4  -6    3.63    0.26
   3  -4   6    3.12    0.19
  -3   4  -6    2.87    0.25
   3   4   6    3.42    0.21
   3   4   6    3.58    0.24
   3   4   6    3.31    0.21
   4  -4   6    7.80    0.37
   4  -4   6    7.71    0.38
  -4  -4  -6    7.95    0.38
   4   4   6    7.74    0.35
   4   4   6    7.58    0.35
   4   4   6    7.71    0.33
  -4   4  -6    7.39    0.37
  -5  -4  -6   30.29    1.09
   5  -4   6   31.79    1.10
   5  -4   6   32.90    1.11
   5   4   6   31.24    1.08
  -5   4  -6   30.42    1.10
   5   4   6   31.21    1.05
   5   4   6   30.86    1.07
  -6  -4  -6    1.44    0.18
   6  -4   6    1.58    0.19
   6  -4   6    1.35    0.20
   6   4   6    1.63    0.18
   6   4   6    1.30    0.15
  -6   4  -6    1.80    0.21
   7  -4   6   17.35    0.70
   7  -4   6   18.38    0.69
  -7  -4  -6   17.22    0.67
   7   4   6   17.16    0.65
   7   4   6   17.24    0.66
  -7   4  -6   17.08    0.71
  -8  -4  -6    3.51    0.29
   8  -4   6    3.32    0.29
   8  -4   6    3.46    0.30
   8   4   6    2.97    0.24
   8   4   6    3.55    0.28
  -8   4  -6    3.75    0.35
   9  -4   6   94.47    3.00
   9  -4   6   91.37    3.03
  -9  -4  -6   89.69    2.99
   9   4   6   90.90    2.97
   9   4   6   89.23    2.99
  -9   4  -6   91.76    3.05
  10  -4   6    1.72    0.19
 -10  -4  -6    1.25    0.21
  10  -4   6    1.95    0.27
  10   4   6    1.62    0.17
  10   4   6    1.58    0.21
 -10   4  -6    1.59    0.27
  11  -4   6    1.53    0.27
  11  -4   6    1.46    0.19
  11   4   6    1.35    0.16
 -11   4  -6    1.27    0.28
  11   4   6    1.71    0.22
  12  -4   6   22.59    0.92
  12  -4   6   22.72    0.83
  12   4   6   23.43    0.88
 -12   4  -6   22.57    0.97
  12   4   6   22.28    0.80
  11  -5  -6    4.83    0.34
  11  -5  -6    4.58    0.31
 -11  -5   6    4.58    0.47
  11   5  -6    4.44    0.25
  11   5  -6    4.64    0.33
 -11   5   6    5.31    0.52
  10  -5  -6    2.18    0.20
 -10  -5   6    2.66    0.39
  10  -5  -6    2.08    0.22
  10   5  -6    1.98    0.21
  10   5  -6    2.20    0.21
 -10   5   6    2.26    0.34
  -9  -5   6   32.55    1.29
   9  -5  -6   32.85    1.12
   9  -5  -6   32.23    1.13
   9   5  -6   32.64    1.13
   9   5  -6   30.87    1.10
  -9   5   6   32.05    1.22
   8  -5  -6    2.92    0.27
   8  -5  -6    3.19    0.26
  -8  -5   6    3.38    0.38
  -8   5   6    2.67    0.30
   8   5  -6    2.71    0.24
   8   5  -6    2.90    0.26
   7  -5  -6   18.78    0.71
  -7  -5   6   18.26    0.86
   7  -5  -6   19.23    0.71
  -7   5   6   19.71    0.78
   7   5  -6   18.26    0.70
   7   5  -6   19.00    0.71
  -6  -5   6   32.18    1.25
   6  -5  -6   33.69    1.16
   6  -5  -6   33.60    1.15
  -6   5   6   32.64    1.19
   6   5  -6   33.08    1.16
   6   5  -6   33.89    1.15
   5  -5  -6   46.54    1.58
   5  -5  -6   47.09    1.58
  -5  -5   6   44.49    1.65
   5   5  -6   47.68    1.58
  -5   5   6   47.37    1.60
   5   5  -6   46.61    1.58
   4  -5  -6    8.55    0.41
  -4  -5   6    8.39    0.50
   4  -5  -6    9.00    0.43
  -4   5   6    9.54    0.44
   4   5  -6    8.96    0.41
   4   5  -6    8.71    0.41
  -3  -5   6    0.41    0.19
   3  -5  -6    0.25    0.12
   3  -5  -6    0.47    0.16
   3   5  -6    0.59    0.14
  -3   5   6    0.36    0.15
   3   5  -6    0.27    0.14
   2  -5  -6    2.28    0.20
  -2  -5   6    2.43    0.24
   2  -5  -6    2.60    0.23
  -2   5   6    2.36    0.24
   2   5  -6    2.19    0.20
   2   5  -6    2.12    0.21
  -1  -5   6    6.33    0.35
   1  -5  -6    5.88    0.36
   1  -5  -6    5.82    0.32
   1   5  -6    5.86    0.32
   1   5  -6    5.86    0.32
  -1   5   6    5.95    0.32
   0  -5   6   41.02    1.37
   0  -5  -6   41.80    1.40
   0   5  -6   40.86    1.39
   0   5  -6   38.55    1.38
   0   5   6   41.56    1.36
   0   5   6   39.60    1.39
   0   5   6   39.92    1.35
   1  -5   6   14.74    0.61
   1  -5   6   15.49    0.59
  -1  -5  -6   15.74    0.64
   1   5   6   16.45    0.58
   1   5   6   15.79    0.58
  -1   5  -6   16.63    0.62
   1   5   6   15.96    0.62
  -1   5  -6   15.06    0.62
   2  -5   6   26.80    0.95
   2  -5   6   27.56    1.00
   2  -5   6   26.76    0.99
   2  -5   6   27.19    0.94
  -2  -5  -6   28.74    0.99
   2   5   6   27.40    0.94
   2   5   6   25.92    0.96
  -2   5  -6   27.04    0.98
   3  -5   6   25.69    0.87
   3  -5   6   25.18    0.94
  -3  -5  -6   26.29    0.94
   3  -5   6   24.75    0.90
   3   5   6   24.43    0.90
   3   5   6   24.69    0.89
  -3   5  -6   25.10    0.92
  -4  -5  -6    1.97    0.23
   4  -5   6    2.45    0.24
   4  -5   6    2.68    0.26
   4   5   6    2.38    0.21
   4   5   6    2.45    0.24
  -4   5  -6    2.28    0.23
   5  -5   6   29.78    1.08
  -5  -5  -6   29.10    1.07
   5  -5   6   30.79    1.07
  -5   5  -6   29.96    1.08
   5   5   6   29.81    1.05
   5   5   6   29.16    1.04
  -6  -5  -6    0.68    0.19
   6  -5   6    1.08    0.19
   6  -5   6    0.62    0.18
   6   5   6    0.45    0.15
   6   5   6    0.82    0.17
  -6   5  -6    0.59    0.19
  -7  -5  -6   18.88    0.77
   7  -5   6   20.49    0.77
   7  -5   6   20.76    0.77
   7   5   6   19.76    0.73
  -7   5  -6   18.69    0.78
   7   5   6   18.00    0.73
   8  -5   6    4.81    0.35
  -8  -5  -6    4.27    0.37
   8  -5   6    4.30    0.36
   8   5   6    4.39    0.32
   8   5   6    4.10    0.30
  -8   5  -6    4.59    0.38
   9  -5   6   23.97    0.92
   9  -5   6   24.28    0.89
  -9  -5  -6   22.83    0.89
  -9   5  -6   22.85    0.94
   9   5   6   22.97    0.85
   9   5   6   23.12    0.88
  10  -5   6   16.39    0.71
 -10  -5  -6   16.61    0.69
  10  -5   6   15.91    0.66
  10   5   6   15.38    0.66
 -10   5  -6   16.17    0.74
  10   5   6   15.68    0.62
 -11  -5  -6   40.04    1.41
  11  -5   6   40.55    1.45
  11  -5   6   39.74    1.38
  11   5   6   37.76    1.39
  11   5   6   38.60    1.34
 -11   5  -6   40.80    1.48
   8  -6  -6   22.85    0.86
   8  -6  -6   23.57    0.86
  -8  -6   6   24.57    1.06
   8   6  -6   22.95    0.86
   8   6  -6   21.92    0.84
  -8   6   6   22.99    0.96
  -7  -6   6    8.40    0.63
   7  -6  -6    8.56    0.43
   7  -6  -6    8.29    0.43
   7   6  -6    8.39    0.42
   7   6  -6    8.66    0.43
  -7   6   6    8.20    0.51
  -6  -6   6    0.78    0.30
   6  -6  -6    0.18    0.18
   6  -6  -6    0.06    0.15
  -6   6   6   -0.08    0.21
   6   6  -6    0.06    0.16
   6   6  -6    0.30    0.16
   5  -6  -6    0.80    0.20
   5  -6  -6    0.51    0.16
  -5  -6   6    0.53    0.26
   5   6  -6    0.90    0.19
  -5   6   6    0.79    0.21
   5   6  -6    0.75    0.17
   4  -6  -6   35.50    1.23
   4  -6  -6   34.93    1.23
  -4  -6   6   34.91    1.29
   4   6  -6   34.83    1.23
   4   6  -6   33.42    1.22
  -4   6   6   35.22    1.23
  -3  -6   6    4.08    0.38
   3  -6  -6    3.57    0.33
   3  -6  -6    3.29    0.31
  -3   6   6    3.52    0.32
   3   6  -6    3.40    0.31
   3   6  -6    3.64    0.31
   2  -6  -6   31.31    1.17
  -2  -6   6   33.56    1.19
   2   6  -6   33.45    1.17
  -2   6   6   33.36    1.15
   2   6  -6   31.51    1.16
  -1  -6   6    2.42    0.24
   1  -6  -6    2.17    0.25
   1   6  -6    1.93    0.23
   1   6  -6    2.46    0.24
   0  -6  -6   29.88    1.09
   0  -6   6   30.44    1.06
   0   6  -6   29.13    1.08
   1  -6   6    1.32    0.18
  -1  -6  -6    1.33    0.23
  -1   6  -6    1.33    0.22
   1   6   6    1.14    0.17
   2  -6   6   25.63    0.90
  -2  -6  -6   26.72    0.97
   2   6   6   24.66    0.90
   2   6   6   24.21    0.93
  -2   6  -6   25.39    0.95
  -3  -6  -6   15.85    0.66
   3   6   6   13.68    0.60
   3   6   6   14.83    0.59
  -3   6  -6   14.68    0.63
  -4  -6  -6   33.96    1.21
   4  -6   6   34.41    1.20
   4   6   6   32.91    1.15
  -4   6  -6   32.53    1.19
   4   6   6   31.31    1.16
   5  -6   6    0.38    0.19
   5  -6   6    0.49    0.18
  -5  -6  -6    0.31    0.22
   5   6   6    0.26    0.16
  -5   6  -6    0.08    0.19
   5   6   6    0.18    0.16
   6  -6   6    8.42    0.46
  -6  -6  -6    8.62    0.49
   6  -6   6    9.03    0.49
  -6   6  -6    8.88    0.51
   6   6   6    8.13    0.43
   6   6   6    8.32    0.42
   7  -6   6   31.41    1.14
  -7  -6  -6   31.25    1.16
   7  -6   6   33.13    1.16
  -7   6  -6   31.00    1.17
   7   6   6   30.72    1.11
   7   6   6   30.16    1.11
   8  -6   6    6.90    0.44
   8  -6   6    6.82    0.42
  -8  -6  -6    6.70    0.48
  -8   6  -6    7.36    0.48
   8   6   6    6.59    0.39
   8   6   6    6.66    0.40
  -5  -7   6    2.31    0.36
   5  -7  -6    2.63    0.28
   5   7  -6    2.33    0.26
   4  -7  -6   10.67    0.54
  -4  -7   6   11.23    0.63
   4   7  -6   10.43    0.52
   4   7  -6   10.55    0.53
  -3  -7   6   43.80    1.48
   3  -7  -6   40.41    1.45
   3   7  -6   38.99    1.43
   3   7  -6   40.01    1.44
  -2  -7   6    1.15    0.26
   2  -7  -6    0.86    0.24
   2   7  -6    0.89    0.22
  -1  -7   6   35.01    1.25
   1  -7  -6   34.29    1.26
   1   7  -6   34.16    1.25
   0  -7   6    0.91    0.22
   0  -7  -6    0.85    0.26
   0   7  -6    1.17    0.22
  -1  -7  -6    1.50    0.28
   1  -7   6    1.50    0.22
  -1   7  -6    1.46    0.25
  -2  -7  -6   17.21    0.76
  -2   7  -6   17.08    0.74
  -3  -7  -6   27.09    1.06
  -3   7  -6   26.00    1.02
  -4  -7  -6    0.53    0.27
  -4   7  -6    0.24    0.23
   4   7   6    0.53    0.19
   4   7   6    0.28    0.17
  14   0  -7   -0.09    0.16
 -14   0   7    0.08    0.26
 -13   0   7    0.61    0.26
  13   0  -7    0.28    0.16
  12   0  -7    0.00    0.04
  12   0  -7    0.04    0.14
  12   0  -7    0.00    0.04
 -12   0   7    0.19    0.21
  11   0  -7    5.50    0.32
 -11   0   7    4.60    0.36
  11   0  -7    4.69    0.20
 -10   0   7   -0.01    0.16
  10   0  -7    0.02    0.06
  10   0  -7    0.08    0.14
   9   0  -7    9.23    0.40
  -9   0   7    8.89    0.44
   9   0  -7    8.79    0.33
   8   0  -7    0.02    0.07
   8   0  -7    0.11    0.12
  -8   0   7    0.07    0.14
  -7   0   7    1.29    0.16
   7   0  -7    1.34    0.13
   7   0  -7    1.43    0.15
   7   0  -7    1.23    0.10
   6   0  -7   -0.02    0.06
  -6   0   7   -0.09    0.11
   6   0  -7    0.01    0.07
   6   0  -7    0.01    0.09
   6   0  -7    0.13    0.05
  -5   0   7  108.33    3.57
   5   0  -7  108.34    3.54
   5   0  -7  111.50    3.56
   5   0  -7  111.59    3.57
   5   0  -7  112.41    3.54
  -4   0   7   -0.01    0.09
   4   0  -7    0.03    0.08
   4   0  -7   -0.01    0.06
   4   0  -7    0.06    0.07
   4   0  -7    0.05    0.04
   3   0  -7    5.33    0.25
  -3   0   7    5.55    0.25
   3   0  -7    5.66    0.20
  -3   0   7    4.54    0.26
   3   0  -7    5.34    0.25
   2   0  -7   -0.01    0.07
  -2   0   7    0.11    0.09
   2   0  -7    0.02    0.07
  -2   0   7    0.04    0.09
   2   0  -7    0.12    0.04
  -1   0   7  149.11    4.57
   1   0  -7  137.65    4.56
   1   0  -7  138.05    4.57
   1   0  -7  147.73    4.53
  -1   0   7  133.57    4.54
   0   0  -7    0.10    0.06
   0   0   7    0.06    0.08
   0   0   7    0.20    0.09
   0   0  -7    0.13    0.07
   0   0  -7    0.07    0.05
  -1   0  -7   58.94    1.84
  -1   0  -7   51.99    1.85
  -1   0  -7   57.31    1.83
   1   0   7   56.57    1.87
   1   0   7   58.94    1.86
   2   0   7    0.04    0.07
   2   0   7    0.06    0.08
  -2   0  -7   -0.08    0.06
  -2   0  -7    0.06    0.07
  -2   0  -7    0.07    0.05
  -3   0  -7    0.54    0.10
  -3   0  -7    0.42    0.08
  -3   0  -7    0.51    0.06
   3   0   7    0.39    0.09
   3   0   7    0.53    0.10
   4   0   7   -0.01    0.07
  -4   0  -7   -0.04    0.07
   4   0   7    0.02    0.09
  -4   0  -7    0.07    0.08
  -4   0  -7   -0.01    0.04
   5   0   7    2.71    0.19
  -5   0  -7    2.72    0.17
  -5   0  -7    2.92    0.11
   5   0   7    3.01    0.18
  -5   0  -7    2.80    0.22
  -6   0  -7   -0.10    0.12
   6   0   7    0.10    0.08
   6   0   7    0.11    0.11
   7   0   7    4.40    0.26
   7   0   7    4.42    0.22
  -7   0  -7    4.40    0.30
   8   0   7    0.14    0.09
  -8   0  -7   -0.11    0.15
   8   0   7    0.04    0.13
   9   0   7    1.98    0.17
  -9   0  -7    2.29    0.24
   9   0   7    2.11    0.21
 -10   0  -7   -0.03    0.18
  10   0   7    0.09    0.09
  10   0   7   -0.07    0.15
  11   0   7   40.82    1.39
  11   0   7   43.83    1.46
 -11   0  -7   41.45    1.49
  12   0   7    0.09    0.09
 -12   0  -7    0.11    0.21
  12   0   7    0.03    0.17
  13   0   7   21.47    0.75
 -13   0  -7   22.98    0.91
  13   0   7   21.73    0.84
  14   0   7    0.06    0.08
  14   0   7   -0.10    0.19
 -14   0  -7    0.10    0.25
  14  -1  -7    3.75    0.30
  14   1  -7    3.60    0.34
 -14   1   7    3.23    0.37
  13  -1  -7    7.98    0.40
 -13   1   7    6.78    0.54
  13   1  -7    7.43    0.42
 -12  -1   7   19.21    0.82
  12  -1  -7   21.95    0.77
  12  -1  -7   22.04    0.70
  12   1  -7   20.52    0.68
  12   1  -7   20.97    0.68
  12   1  -7   22.42    0.81
 -12   1   7   20.57    0.87
  11  -1  -7   45.80    1.50
 -11  -1   7   42.14    1.53
  11  -1  -7   46.13    1.45
 -11   1   7   43.82    1.57
  11   1  -7   43.86    1.44
  11   1  -7   45.92    1.53
  10  -1  -7   13.24    0.51
  10  -1  -7   13.60    0.46
 -10  -1   7   12.24    0.54
  10   1  -7   12.99    0.45
  10   1  -7   13.14    0.54
 -10   1   7   11.82    0.58
  -9  -1   7    0.39    0.15
   9  -1  -7    0.53    0.13
   9  -1  -7    0.45    0.09
   9   1  -7    0.48    0.09
  -9   1   7    0.56    0.20
   9   1  -7    0.41    0.08
   9   1  -7    0.49    0.15
  -8  -1   7   27.07    0.98
   8  -1  -7   30.11    0.94
   8  -1  -7   27.93    0.97
  -8   1   7   27.06    1.01
   8   1  -7   28.41    0.99
   8   1  -7   26.94    0.93
   8   1  -7   28.42    0.93
  -7  -1   7   35.64    1.22
   7  -1  -7   36.83    1.19
   7  -1  -7   37.07    1.21
   7   1  -7   35.96    1.17
  -7   1   7   35.92    1.24
   7   1  -7   35.10    1.22
   7   1  -7   33.81    1.18
   6  -1  -7    5.12    0.23
  -6  -1   7    4.76    0.27
   6  -1  -7    5.21    0.25
   6   1  -7    4.81    0.23
  -6   1   7    4.98    0.30
   6   1  -7    5.04    0.27
   6   1  -7    4.89    0.21
   5  -1  -7    9.62    0.37
  -5  -1   7    9.11    0.38
   5  -1  -7    9.27    0.37
   5   1  -7    8.82    0.36
   5   1  -7    9.88    0.37
   5   1  -7    9.28    0.34
  -5   1   7    9.83    0.40
   5   1  -7    9.53    0.39
   4  -1  -7    0.02    0.08
   4  -1  -7    0.10    0.07
  -4  -1   7    0.10    0.09
   4  -1  -7    0.09    0.02
   4   1  -7    0.08    0.07
   4   1  -7    0.02    0.05
   4   1  -7    0.17    0.09
  -4   1   7    0.13    0.10
   4   1  -7   -0.06    0.07
   3  -1  -7    3.91    0.20
   3  -1  -7    3.76    0.13
   3  -1  -7    3.87    0.19
  -3  -1   7    3.25    0.21
  -3  -1   7    3.98    0.20
   3   1  -7    3.83    0.17
   3   1  -7    3.85    0.21
   3   1  -7    3.69    0.20
  -3   1   7    3.87    0.21
  -3   1   7    3.34    0.21
  -2  -1   7    0.39    0.10
  -2  -1   7    0.45    0.09
   2  -1  -7    0.50    0.08
   2  -1  -7    0.56    0.09
   2  -1  -7    0.61    0.06
  -2   1   7    0.83    0.11
   2   1  -7    0.67    0.09
   2   1  -7    0.48    0.09
  -2   1   7    0.60    0.09
   2   1  -7    0.69    0.07
  -1  -1   7    7.17    0.34
  -1  -1   7    7.68    0.31
   1  -1  -7    8.09    0.27
   1  -1  -7    7.24    0.30
   1   1  -7    7.13    0.29
   1   1  -7    7.72    0.29
   1   1  -7    7.72    0.33
   0  -1   7   -0.03    0.08
   0  -1  -7    0.03    0.05
   0  -1   7    0.12    0.10
   0  -1  -7    0.04    0.06
   0  -1  -7    0.15    0.06
   0   1   7    0.05    0.08
   0   1  -7    0.06    0.06
   0   1   7    0.27    0.08
   0   1  -7    0.02    0.08
   1  -1   7   14.91    0.59
   1  -1   7   16.58    0.58
  -1  -1  -7   15.21    0.55
  -1  -1  -7   15.96    0.57
  -1  -1  -7   16.07    0.55
  -1   1  -7   17.11    0.57
   1   1   7   17.15    0.58
  -1   1  -7   16.14    0.59
   1   1   7   16.35    0.58
  -1   1  -7   15.75    0.54
  -2  -1  -7   21.97    0.81
   2  -1   7   23.69    0.82
   2  -1   7   21.78    0.83
  -2  -1  -7   24.30    0.81
  -2  -1  -7   25.04    0.79
   2   1   7   23.30    0.82
  -2   1  -7   23.15    0.77
  -2   1  -7   25.01    0.82
   2   1   7   25.07    0.82
  -2   1  -7   24.21    0.82
  -3  -1  -7    0.19    0.06
  -3  -1  -7    0.24    0.09
  -3  -1  -7    0.14    0.07
   3  -1   7    0.13    0.10
   3  -1   7    0.22    0.09
  -3   1  -7    0.28    0.09
   3   1   7    0.30    0.09
   3   1   7    0.25    0.08
  -3   1  -7    0.27    0.09
   4  -1   7    2.15    0.18
   4  -1   7    1.89    0.18
  -4  -1  -7    2.07    0.13
  -4  -1  -7    2.14    0.18
  -4  -1  -7    1.68    0.14
  -4   1  -7    2.13    0.18
  -4   1  -7    1.97    0.16
   4   1   7    2.09    0.17
   4   1   7    2.03    0.17
   5  -1   7   53.36    1.74
  -5  -1  -7   53.17    1.76
   5  -1   7   54.57    1.75
  -5  -1  -7   54.67    1.70
   5   1   7   52.05    1.74
  -5   1  -7   53.26    1.74
   5   1   7   51.81    1.74
  -5   1  -7   49.38    1.76
  -6  -1  -7   28.25    1.00
  -6  -1  -7   28.99    0.94
   6  -1   7   29.41    1.00
   6  -1   7   28.22    0.98
   6   1   7   28.56    0.98
   6   1   7   28.44    0.98
   7  -1   7   51.59    1.69
  -7  -1  -7   50.50    1.70
  -7  -1  -7   49.34    1.63
   7  -1   7   52.44    1.67
  -7   1  -7   49.33    1.71
   7   1   7   49.27    1.67
   7   1   7   50.31    1.66
  -8  -1  -7    0.44    0.17
   8  -1   7    0.81    0.12
   8  -1   7    0.62    0.15
   8   1   7    0.71    0.14
   8   1   7    0.62    0.10
  -8   1  -7    1.11    0.19
   9  -1   7    0.03    0.14
  -9  -1  -7    0.03    0.17
   9  -1   7    0.05    0.09
  -9   1  -7    0.00    0.16
   9   1   7    0.05    0.13
   9   1   7    0.05    0.08
  10  -1   7    9.40    0.46
 -10  -1  -7    9.54    0.50
  10  -1   7    9.27    0.39
 -10   1  -7    9.39    0.50
  10   1   7    9.11    0.37
  10   1   7    9.60    0.43
 -11  -1  -7   14.46    0.65
  11  -1   7   14.34    0.60
  11  -1   7   13.43    0.52
  11   1   7   14.47    0.57
 -11   1  -7   13.57    0.64
  11   1   7   13.02    0.50
 -12  -1  -7   10.02    0.55
  12  -1   7    9.93    0.49
  12  -1   7    9.04    0.39
  12   1   7    9.26    0.37
 -12   1  -7   10.43    0.56
  12   1   7   10.06    0.47
  13  -1   7    3.50    0.22
 -13  -1  -7    3.31    0.34
  13  -1   7    3.57    0.35
 -13   1  -7    3.67    0.36
  13   1   7    3.34    0.19
  13   1   7    3.58    0.33
  14  -1   7    3.55    0.21
 -14  -1  -7    4.06    0.37
  14  -1   7    3.41    0.31
 -14   1  -7    3.70    0.36
  14   1   7    4.08    0.35
  14   1   7    3.91    0.19
  14  -2  -7    6.55    0.36
  14  -2  -7    6.34    0.21
 -14   2   7    5.84    0.56
  14   2  -7    5.82    0.42
  13  -2  -7    3.41    0.16
  13  -2  -7    2.89    0.27
  13   2  -7    3.16    0.28
 -13   2   7    2.73    0.36
  12  -2  -7    0.82    0.09
  12  -2  -7    0.71    0.15
 -12   2   7    0.74    0.28
  12   2  -7    0.75    0.07
  12   2  -7    0.65    0.20
  11  -2  -7    2.55    0.25
  11  -2  -7    2.53    0.17
  11   2  -7    2.59    0.25
  11   2  -7    2.40    0.20
  11   2  -7    2.31    0.14
 -11   2   7    2.47    0.32
  10  -2  -7    4.19    0.27
  10  -2  -7    4.25    0.22
  10   2  -7    4.69    0.32
 -10   2   7    3.82    0.35
  10   2  -7    4.31    0.24
  10   2  -7    4.15    0.20
   9  -2  -7    1.93    0.16
   9  -2  -7    2.22    0.18
   9   2  -7    2.15    0.21
   9   2  -7    1.93    0.15
  -9   2   7    1.91    0.24
   9   2  -7    1.87    0.17
   8  -2  -7    0.14    0.08
  -8  -2   7   -0.04    0.12
   8  -2  -7    0.10    0.11
  -8   2   7    0.04    0.18
   8   2  -7    0.02    0.14
   8   2  -7    0.08    0.08
   8   2  -7    0.13    0.08
  -7  -2   7   16.03    0.61
   7  -2  -7   16.86    0.60
   7  -2  -7   16.99    0.62
   7   2  -7   17.96    0.65
  -7   2   7   16.47    0.66
   7   2  -7   16.47    0.59
   7   2  -7   17.01    0.59
  -6  -2   7   14.48    0.55
   6  -2  -7   15.63    0.57
   6  -2  -7   15.60    0.55
   6   2  -7   14.89    0.55
   6   2  -7   15.96    0.59
   6   2  -7   14.86    0.54
  -6   2   7   15.74    0.61
   5  -2  -7    0.18    0.10
   5  -2  -7    0.23    0.08
  -5  -2   7    0.33    0.10
   5   2  -7    0.19    0.08
   5   2  -7    0.25    0.11
  -5   2   7    0.30    0.14
   5   2  -7    0.24    0.08
  -4  -2   7   47.22    1.59
   4  -2  -7   48.56    1.60
  -4   2   7   50.01    1.62
   4   2  -7   48.17    1.61
   4   2  -7   48.35    1.60
   4   2  -7   48.57    1.59
   3  -2  -7    5.96    0.27
  -3  -2   7    5.69    0.26
   3  -2  -7    5.97    0.26
  -3  -2   7    5.66    0.28
  -3   2   7    5.80    0.28
   3   2  -7    5.96    0.25
   3   2  -7    6.01    0.27
  -3   2   7    6.07    0.30
   3   2  -7    6.00    0.27
   2  -2  -7   38.64    1.16
   2  -2  -7   34.90    1.20
  -2  -2   7   33.66    1.21
   2  -2  -7   36.16    1.20
  -2  -2   7   35.46    1.20
   2   2  -7   36.70    1.21
   2   2  -7   34.71    1.20
   2   2  -7   35.75    1.19
  -2   2   7   37.79    1.22
  -2   2   7   35.90    1.21
   1  -2  -7    4.04    0.20
   1  -2  -7    3.74    0.20
  -1  -2   7    3.72    0.24
   1  -2  -7    3.82    0.17
  -1  -2   7    4.08    0.21
   1   2  -7    3.91    0.22
   1   2  -7    3.76    0.19
  -1   2   7    4.43    0.23
   1   2  -7    4.18    0.20
  -1   2   7    4.03    0.22
   0  -2   7   75.27    2.55
   0  -2  -7   76.69    2.55
   0  -2  -7   81.82    2.53
   0  -2   7   84.21    2.55
   0  -2  -7   77.79    2.56
   0  -2   7   76.88    2.58
   0   2  -7   77.93    2.55
   0   2  -7   78.79    2.57
   0   2   7   78.48    2.55
   0   2   7   80.07    2.56
   1  -2   7   11.08    0.46
   1  -2   7   11.00    0.44
   1  -2   7   11.84    0.41
  -1  -2  -7   11.03    0.42
   1   2   7   10.56    0.41
   1   2   7   11.15    0.42
  -1   2  -7   11.77    0.43
  -1   2  -7   12.03    0.45
   1   2   7   10.98    0.44
  -2  -2  -7    0.20    0.08
  -2  -2  -7    0.22    0.08
   2  -2   7    0.17    0.11
   2  -2   7    0.15    0.06
   2  -2   7    0.04    0.09
   2   2   7    0.13    0.09
   2   2   7    0.14    0.09
  -2   2  -7    0.18    0.09
  -2   2  -7    0.17    0.09
   2   2   7    0.18    0.07
  -3  -2  -7    4.56    0.22
   3  -2   7    4.40    0.25
   3  -2   7    4.39    0.26
  -3  -2  -7    4.54    0.22
   3  -2   7    4.65    0.18
  -3   2  -7    4.65    0.25
   3   2   7    4.29    0.22
   3   2   7    4.26    0.23
  -3   2  -7    4.44    0.24
   3   2   7    4.64    0.24
  -4  -2  -7   15.36    0.57
   4  -2   7   15.55    0.59
   4  -2   7   15.94    0.60
  -4  -2  -7   15.91    0.56
  -4   2  -7   15.64    0.59
   4   2   7   16.10    0.57
  -4   2  -7   16.42    0.60
   4   2   7   15.76    0.58
   4   2   7   16.10    0.58
  -5  -2  -7    5.65    0.26
   5  -2   7    5.68    0.31
   5  -2   7    5.71    0.30
  -5   2  -7    5.46    0.31
   5   2   7    5.73    0.28
   5   2   7    6.00    0.28
   5   2   7    5.69    0.28
   6  -2   7    0.31    0.12
  -6  -2  -7    0.44    0.10
   6  -2   7    0.50    0.15
   6   2   7    0.33    0.11
   6   2   7    0.45    0.10
  -6   2  -7    0.35    0.14
   6   2   7    0.42    0.12
   7  -2   7    1.99    0.20
   7  -2   7    2.22    0.22
  -7  -2  -7    2.07    0.17
   7   2   7    2.18    0.22
  -7   2  -7    1.73    0.21
   7   2   7    1.90    0.18
   7   2   7    2.04    0.19
   8  -2   7    7.24    0.35
  -8  -2  -7    7.40    0.32
   8  -2   7    7.33    0.39
   8   2   7    7.76    0.35
   8   2   7    7.56    0.33
  -8   2  -7    6.69    0.42
   8   2   7    7.20    0.35
   9  -2   7   14.46    0.60
   9  -2   7   13.93    0.55
   9   2   7   15.29    0.56
  -9   2  -7   14.05    0.64
   9   2   7   13.97    0.54
   9   2   7   14.74    0.59
  10  -2   7    5.06    0.38
  10  -2   7    5.55    0.30
  10   2   7    6.08    0.33
 -10   2  -7    5.26    0.43
  10   2   7    5.50    0.36
  10   2   7    5.56    0.28
  11  -2   7    4.56    0.28
  11  -2   7    4.78    0.37
  11   2   7    4.61    0.24
  11   2   7    4.63    0.34
  11   2   7    5.16    0.32
 -11   2  -7    5.13    0.44
  12  -2   7   17.24    0.66
  12  -2   7   17.70    0.75
 -12  -2  -7   18.68    0.80
  12   2   7   18.00    0.73
  12   2   7   16.64    0.63
  12   2   7   19.53    0.71
 -12   2  -7   20.42    0.82
 -13  -2  -7    3.96    0.36
  13  -2   7    3.71    0.38
  13  -2   7    3.44    0.24
  13   2   7    3.56    0.20
 -13   2  -7    4.53    0.40
  14  -2   7    1.99    0.20
 -14  -2  -7    2.07    0.32
  14  -2   7    1.79    0.28
  14   2   7    1.85    0.15
 -14   2  -7    2.64    0.35
  13  -3  -7    3.17    0.27
  13  -3  -7    2.83    0.19
 -13  -3   7    3.01    0.38
 -13   3   7    2.92    0.40
  13   3  -7    2.83    0.14
  12  -3  -7   16.20    0.57
 -12  -3   7   15.88    0.77
  12  -3  -7   16.30    0.62
  12   3  -7   15.97    0.61
 -12   3   7   15.75    0.79
  12   3  -7   15.14    0.54
  11  -3  -7   26.97    0.93
 -11  -3   7   25.00    1.07
  11  -3  -7   26.80    0.90
 -11   3   7   25.99    1.05
  11   3  -7   24.98    0.87
  11   3  -7   26.66    0.92
 -10  -3   7    7.92    0.53
  10  -3  -7    7.90    0.34
  10  -3  -7    8.30    0.38
  10   3  -7    8.02    0.32
 -10   3   7    7.47    0.50
  10   3  -7    7.72    0.36
   9  -3  -7    1.00    0.16
  -9  -3   7    0.72    0.25
   9  -3  -7    0.84    0.12
   9   3  -7    0.93    0.11
  -9   3   7    0.80    0.21
   9   3  -7    0.70    0.13
   8  -3  -7   10.82    0.42
  -8  -3   7   11.12    0.57
   8  -3  -7   10.51    0.44
   8   3  -7   10.26    0.41
   8   3  -7   10.29    0.42
  -8   3   7   10.14    0.52
  -7  -3   7    5.49    0.42
   7  -3  -7    5.66    0.31
   7  -3  -7    5.85    0.28
  -7   3   7    6.13    0.38
   7   3  -7    6.12    0.28
   7   3  -7    5.75    0.28
  -6  -3   7   34.49    1.28
   6  -3  -7   34.99    1.20
   6  -3  -7   36.75    1.22
   6   3  -7   36.35    1.20
  -6   3   7   34.46    1.24
   6   3  -7   37.46    1.21
  -5  -3   7    8.41    0.44
   5  -3  -7    8.86    0.37
   5  -3  -7    8.58    0.36
  -5  -3   7    8.20    0.34
  -5   3   7    8.70    0.42
   5   3  -7    8.68    0.36
   5   3  -7    8.81    0.36
   4  -3  -7    0.92    0.13
  -4  -3   7    1.21    0.12
   4  -3  -7    1.13    0.12
  -4  -3   7    1.00    0.18
   4   3  -7    1.45    0.14
  -4   3   7    1.80    0.19
   4   3  -7    1.20    0.13
  -3  -3   7    3.60    0.28
   3  -3  -7    3.91    0.23
   3  -3  -7    3.78    0.22
  -3  -3   7    3.69    0.21
  -3   3   7    3.73    0.27
   3   3  -7    3.67    0.23
   3   3  -7    3.66    0.22
   2  -3  -7    1.11    0.13
   2  -3  -7    0.98    0.11
  -2  -3   7    1.26    0.15
  -2  -3   7    0.99    0.12
  -2  -3   7    1.02    0.14
   2   3  -7    1.06    0.13
  -2   3   7    0.73    0.12
   2   3  -7    1.00    0.12
  -2   3   7    0.97    0.08
  -2   3   7    0.90    0.14
  -1  -3   7    3.59    0.23
   1  -3  -7    3.12    0.20
  -1  -3   7    3.36    0.24
  -1  -3   7    3.31    0.21
   1  -3  -7    3.09    0.22
   1   3  -7    3.49    0.21
  -1   3   7    3.37    0.22
  -1   3   7    3.03    0.16
  -1   3   7    3.31    0.23
   1   3  -7    3.19    0.22
   0  -3   7   10.84    0.46
   0  -3   7   10.74    0.43
   0  -3  -7   11.13    0.43
   0  -3   7   11.50    0.43
   0  -3  -7   11.45    0.43
   0   3   7   10.41    0.40
   0   3  -7   10.57    0.44
   0   3   7   11.21    0.43
   0   3  -7   10.88    0.43
   0   3   7   11.57    0.45
   1  -3   7    9.96    0.44
   1  -3   7    9.94    0.42
  -1  -3  -7   10.00    0.41
  -1  -3  -7    9.96    0.41
   1  -3   7   10.66    0.39
  -1   3  -7   10.51    0.43
   1   3   7   10.43    0.38
   1   3   7   10.33    0.40
   1   3   7   10.67    0.42
  -1   3  -7   10.03    0.42
   2  -3   7    0.25    0.08
   2  -3   7    0.02    0.11
  -2  -3  -7    0.05    0.10
   2  -3   7    0.21    0.13
  -2  -3  -7   -0.04    0.09
   2   3   7    0.06    0.10
   2   3   7    0.00    0.09
  -2   3  -7    0.06    0.10
   2   3   7    0.03    0.08
  -2   3  -7    0.45    0.12
   3  -3   7   23.18    0.75
   3  -3   7   20.30    0.80
   3  -3   7   21.91    0.82
  -3  -3  -7   22.48    0.79
   3   3   7   23.86    0.80
  -3   3  -7   22.23    0.80
   3   3   7   22.47    0.78
   3   3   7   22.94    0.78
  -3   3  -7   22.36    0.81
   4  -3   7   22.63    0.81
  -4  -3  -7   22.02    0.78
   4  -3   7   20.96    0.81
   4   3   7   21.96    0.78
  -4   3  -7   20.93    0.80
   4   3   7   23.11    0.77
   4   3   7   23.28    0.79
   5  -3   7    2.69    0.26
  -5  -3  -7    2.62    0.22
   5  -3   7    2.87    0.25
   5   3   7    3.08    0.23
  -5   3  -7    3.19    0.26
   5   3   7    3.39    0.22
   5   3   7    3.04    0.22
  -6  -3  -7   35.72    1.22
   6  -3   7   33.29    1.25
   6  -3   7   36.05    1.25
   6   3   7   38.70    1.23
   6   3   7   36.35    1.22
  -6   3  -7   35.58    1.26
   6   3   7   36.30    1.23
   7  -3   7    2.24    0.21
   7  -3   7    2.24    0.24
  -7  -3  -7    2.11    0.18
  -7   3  -7    2.02    0.22
   7   3   7    2.49    0.23
   7   3   7    2.40    0.21
   7   3   7    2.62    0.22
  -8  -3  -7    4.88    0.29
   8  -3   7    4.15    0.35
   8  -3   7    5.10    0.31
   8   3   7    5.13    0.31
   8   3   7    5.02    0.28
  -8   3  -7    4.81    0.38
   8   3   7    5.11    0.27
   9  -3   7    4.95    0.39
  -9  -3  -7    5.33    0.31
   9  -3   7    5.86    0.34
   9   3   7    6.38    0.31
  -9   3  -7    5.39    0.43
   9   3   7    6.22    0.30
   9   3   7    6.02    0.35
  10  -3   7    4.46    0.31
  10  -3   7    4.75    0.38
  10   3   7    5.49    0.28
  10   3   7    5.22    0.35
 -10   3  -7    4.81    0.44
  11  -3   7   13.62    0.64
  11  -3   7   13.19    0.56
  11   3   7   14.25    0.54
  11   3   7   14.64    0.60
 -11   3  -7   14.72    0.71
  12  -3   7    3.75    0.28
  12  -3   7    3.94    0.40
  12   3   7    4.43    0.37
 -12   3  -7    5.12    0.43
  12   3   7    4.28    0.25
  13  -3   7    1.93    0.18
  13  -3   7    1.47    0.26
  13   3   7    2.16    0.27
 -13   3  -7    2.57    0.37
  13   3   7    2.01    0.18
  12  -4  -7    8.40    0.37
 -12  -4   7    8.76    0.64
  12  -4  -7    8.76    0.42
 -12   4   7    8.37    0.62
  12   4  -7    8.33    0.40
  12   4  -7    8.19    0.33
  11  -4  -7    0.94    0.15
 -11  -4   7    1.17    0.34
  11  -4  -7    1.09    0.18
  11   4  -7    1.22    0.17
 -11   4   7    1.55    0.33
  11   4  -7    0.94    0.12
  10  -4  -7    0.18    0.12
 -10  -4   7    0.16    0.29
  10  -4  -7    0.22    0.16
  10   4  -7    0.31    0.14
 -10   4   7   -0.03    0.26
  10   4  -7    0.28    0.11
  -9  -4   7    2.91    0.36
   9  -4  -7    3.26    0.27
   9  -4  -7    3.12    0.24
   9   4  -7    2.92    0.24
   9   4  -7    3.30    0.22
  -9   4   7    3.07    0.33
  -8  -4   7   19.69    0.87
   8  -4  -7   21.22    0.75
   8  -4  -7   20.19    0.73
   8   4  -7   20.23    0.72
   8   4  -7   20.26    0.74
  -8   4   7   19.48    0.82
  -7  -4   7    0.12    0.23
   7  -4  -7    0.26    0.12
   7  -4  -7    0.27    0.15
   7   4  -7    0.28    0.12
   7   4  -7    0.21    0.11
  -7   4   7    0.37    0.19
  -6  -4   7   11.32    0.58
   6  -4  -7   11.58    0.48
   6  -4  -7   11.34    0.47
   6   4  -7   11.50    0.47
  -6   4   7   11.61    0.53
   6   4  -7   11.33    0.46
   5  -4  -7   32.10    1.11
  -5  -4   7   29.37    1.17
   5  -4  -7   32.75    1.11
   5   4  -7   33.24    1.12
   5   4  -7   32.99    1.11
  -5   4   7   33.20    1.15
  -4  -4   7    9.28    0.49
   4  -4  -7    9.64    0.41
   4  -4  -7   10.14    0.42
   4   4  -7    9.68    0.41
   4   4  -7    9.25    0.41
  -4   4   7    9.25    0.44
  -3  -4   7    7.51    0.40
   3  -4  -7    7.04    0.34
   3  -4  -7    7.15    0.35
   3   4  -7    7.13    0.35
   3   4  -7    7.18    0.34
  -3   4   7    7.91    0.37
  -2  -4   7    4.48    0.31
   2  -4  -7    4.60    0.28
   2  -4  -7    4.35    0.27
   2   4  -7    4.61    0.28
   2   4  -7    4.41    0.25
  -2   4   7    4.71    0.29
   1  -4  -7   35.00    1.19
  -1  -4   7   35.03    1.20
  -1  -4   7   33.13    1.17
   1  -4  -7   34.69    1.19
   1   4  -7   35.23    1.19
  -1   4   7   34.81    1.15
  -1   4   7   35.05    1.20
  -1   4   7   35.85    1.19
   1   4  -7   34.35    1.20
   0  -4  -7   15.39    0.58
   0  -4   7   15.40    0.57
   0  -4  -7   14.90    0.58
   0  -4   7   14.38    0.60
   0  -4   7   14.23    0.57
   0   4  -7   15.46    0.58
   0   4   7   15.59    0.59
   0   4  -7   14.97    0.59
   0   4   7   14.96    0.54
   0   4   7   15.92    0.57
   1  -4   7    8.62    0.37
  -1  -4  -7    9.09    0.40
   1  -4   7    8.92    0.43
   1  -4   7    8.47    0.39
  -1  -4  -7    9.10    0.39
   1   4   7    9.46    0.41
  -1   4  -7    8.57    0.40
   1   4   7    9.23    0.38
  -1   4  -7    8.77    0.40
   1   4   7    9.26    0.36
   2  -4   7   15.12    0.61
   2  -4   7   15.08    0.55
   2  -4   7   14.59    0.59
  -2  -4  -7   16.00    0.60
   2   4   7   15.33    0.56
   2   4   7   15.05    0.56
  -2   4  -7   15.00    0.59
  -2   4  -7   14.65    0.59
   2   4   7   15.81    0.59
   3  -4   7   17.58    0.68
  -3  -4  -7   17.65    0.66
   3  -4   7   17.08    0.61
   3  -4   7   16.73    0.67
  -3   4  -7   17.24    0.67
   3   4   7   17.67    0.63
   3   4   7   17.33    0.65
   3   4   7   17.14    0.63
  -4  -4  -7    7.58    0.38
   4  -4   7    8.01    0.41
   4  -4   7    7.39    0.39
   4   4   7    7.79    0.37
   4   4   7    8.16    0.35
  -4   4  -7    7.63    0.39
   4   4   7    7.57    0.35
  -5  -4  -7    2.12    0.20
   5  -4   7    2.56    0.24
   5  -4   7    2.40    0.22
   5   4   7    2.68    0.24
  -5   4  -7    2.31    0.23
   5   4   7    2.52    0.20
   5   4   7    2.35    0.22
   6  -4   7    0.09    0.17
   6  -4   7    0.24    0.16
  -6  -4  -7   -0.04    0.14
   6   4   7   -0.01    0.12
  -6   4  -7    0.11    0.16
   6   4   7    0.10    0.13
   7  -4   7    5.18    0.37
   7  -4   7    5.90    0.36
  -7  -4  -7    5.30    0.33
   7   4   7    5.26    0.31
  -7   4  -7    5.45    0.39
   7   4   7    5.19    0.32
   8  -4   7   19.89    0.76
   8  -4   7   19.75    0.78
  -8  -4  -7   18.89    0.73
   8   4   7   18.50    0.71
   8   4   7   19.36    0.73
  -8   4  -7   19.22    0.80
  -9  -4  -7    0.75    0.18
   9  -4   7    0.26    0.21
   9  -4   7    0.68    0.18
   9   4   7    0.57    0.18
  -9   4  -7    0.65    0.25
   9   4   7    0.56    0.15
  10  -4   7   12.52    0.55
  10  -4   7   12.21    0.60
 -10   4  -7   11.83    0.65
  10   4   7   12.15    0.50
  10   4   7   12.84    0.56
  11  -4   7    1.75    0.29
  11  -4   7    1.58    0.20
  11   4   7    1.65    0.17
  11   4   7    1.88    0.25
 -11   4  -7    1.30    0.30
  12  -4   7    3.99    0.36
  12  -4   7    3.95    0.31
  12   4   7    4.72    0.38
 -12   4  -7    4.29    0.42
  12   4   7    4.35    0.27
  10  -5  -7    2.68    0.24
  10  -5  -7    2.98    0.28
 -10  -5   7    3.22    0.43
 -10   5   7    2.38    0.35
  10   5  -7    3.21    0.23
  10   5  -7    2.90    0.28
  -9  -5   7    2.13    0.38
   9  -5  -7    2.23    0.20
   9  -5  -7    2.56    0.23
   9   5  -7    2.17    0.19
   9   5  -7    2.79    0.23
  -9   5   7    2.21    0.32
   8  -5  -7    9.75    0.43
   8  -5  -7    9.45    0.45
  -8  -5   7    8.98    0.62
   8   5  -7    8.42    0.42
   8   5  -7    8.91    0.41
  -8   5   7    8.04    0.53
   7  -5  -7    7.60    0.38
   7  -5  -7    7.74    0.39
  -7  -5   7    6.91    0.57
   7   5  -7    7.89    0.38
  -7   5   7    7.34    0.46
   7   5  -7    7.42    0.37
  -6  -5   7    1.77    0.30
   6  -5  -7    1.59    0.18
   6  -5  -7    1.86    0.20
   6   5  -7    1.31    0.17
  -6   5   7    1.42    0.23
   6   5  -7    1.60    0.19
   5  -5  -7    5.73    0.33
  -5  -5   7    5.12    0.44
   5  -5  -7    5.73    0.35
  -5   5   7    4.97    0.37
   5   5  -7    5.83    0.32
   5   5  -7    5.14    0.32
   4  -5  -7   26.94    0.96
   4  -5  -7   27.05    0.97
  -4  -5   7   26.09    1.02
   4   5  -7   26.77    0.96
   4   5  -7   27.72    0.97
  -4   5   7   26.90    0.98
   3  -5  -7    1.24    0.17
  -3  -5   7    1.55    0.23
   3  -5  -7    1.14    0.19
  -3   5   7    1.49    0.20
   3   5  -7    1.02    0.17
   3   5  -7    1.19    0.18
  -2  -5   7   21.36    0.80
   2  -5  -7   19.76    0.77
   2  -5  -7   20.44    0.77
  -2   5   7   21.62    0.77
   2   5  -7   20.28    0.77
   2   5  -7   20.02    0.77
   1  -5  -7    7.95    0.39
  -1  -5   7    8.28    0.41
   1  -5  -7    8.13    0.41
   1   5  -7    8.27    0.40
   1   5  -7    7.55    0.39
  -1   5   7    7.63    0.39
   0  -5  -7    0.12    0.16
   0  -5   7    0.07    0.14
   0   5  -7    0.22    0.15
   0   5  -7    0.38    0.15
   0   5   7    0.39    0.15
  -1  -5  -7    4.29    0.32
   1  -5   7    4.59    0.28
   1   5   7    4.01    0.31
   1   5   7    4.49    0.27
  -1   5  -7    4.37    0.31
   1   5   7    4.12    0.26
   2  -5   7   21.48    0.80
  -2  -5  -7   22.15    0.84
   2  -5   7   21.99    0.78
   2  -5   7   21.73    0.85
   2   5   7   22.74    0.79
  -2   5  -7   21.67    0.83
   2   5   7   22.51    0.82
   2   5   7   22.78    0.78
   3  -5   7    4.98    0.31
  -3  -5  -7    4.67    0.33
   3  -5   7    4.89    0.36
   3   5   7    4.36    0.28
   3   5   7    4.24    0.30
  -3   5  -7    3.78    0.31
   4  -5   7   12.88    0.56
   4  -5   7   13.42    0.59
  -4  -5  -7   13.38    0.58
  -4   5  -7   12.81    0.57
   4   5   7   12.79    0.52
   4   5   7   12.33    0.54
   5  -5   7   11.02    0.53
  -5  -5  -7    9.87    0.50
   5  -5   7   10.89    0.51
   5   5   7   10.60    0.45
  -5   5  -7   10.12    0.51
   5   5   7   10.71    0.48
   6  -5   7    0.32    0.19
  -6  -5  -7    0.50    0.19
   6  -5   7    0.51    0.20
   6  -5   7    0.43    0.19
  -6   5  -7    0.46    0.19
   6   5   7    0.43    0.16
   6   5   7    0.43    0.16
  -7  -5  -7   12.38    0.56
   7  -5   7   12.22    0.57
   7  -5   7   12.03    0.57
   7   5   7   11.82    0.53
   7   5   7   11.75    0.51
  -7   5  -7   12.23    0.58
   8  -5   7    2.11    0.24
  -8  -5  -7    2.47    0.26
   8  -5   7    2.25    0.28
  -8   5  -7    2.07    0.28
   8   5   7    2.49    0.21
   8   5   7    2.25    0.23
   9  -5   7    1.16    0.26
  -9  -5  -7    1.54    0.24
   9  -5   7    1.53    0.22
   9   5   7    1.19    0.21
   9   5   7    1.30    0.19
  -9   5  -7    1.56    0.29
 -10  -5  -7   10.37    0.54
  10  -5   7   10.70    0.52
  10  -5   7   10.26    0.57
  10   5   7   10.70    0.48
 -10   5  -7   11.14    0.63
  10   5   7   10.28    0.52
  -8  -6   7    7.77    0.65
   8  -6  -7    6.49    0.41
   8  -6  -7    6.66    0.39
  -8   6   7    6.72    0.50
   8   6  -7    6.51    0.37
   8   6  -7    6.60    0.39
  -7  -6   7   16.49    0.85
   7  -6  -7   16.69    0.68
   7  -6  -7   16.70    0.67
   7   6  -7   16.95    0.67
   7   6  -7   16.30    0.67
  -7   6   7   16.85    0.75
   6  -6  -7    0.34    0.17
   6  -6  -7    0.36    0.19
  -6  -6   7    0.33    0.29
   6   6  -7    0.41    0.17
   6   6  -7    0.41    0.16
  -6   6   7    0.36    0.23
  -5  -6   7    0.28    0.26
   5  -6  -7    0.08    0.19
   5  -6  -7   -0.01    0.16
   5   6  -7    0.01    0.15
   5   6  -7   -0.02    0.16
  -5   6   7    0.00    0.21
   4  -6  -7    5.09    0.37
   4  -6  -7    4.29    0.34
  -4  -6   7    4.87    0.46
   4   6  -7    4.83    0.34
  -4   6   7    4.86    0.36
   4   6  -7    4.55    0.35
  -3  -6   7    4.94    0.43
   3  -6  -7    5.23    0.35
   3  -6  -7    5.31    0.38
   3   6  -7    5.55    0.36
  -3   6   7    4.99    0.37
   3   6  -7    5.13    0.36
  -2  -6   7    0.00    0.19
   2  -6  -7    0.26    0.19
   2   6  -7   -0.05    0.17
  -2   6   7    0.16    0.18
   2   6  -7   -0.03    0.16
   1  -6  -7    1.12    0.23
  -1  -6   7    0.93    0.20
   1   6  -7    1.19    0.21
   1   6  -7    1.00    0.19
   0  -6  -7    3.01    0.28
   0  -6   7    3.04    0.25
   0   6  -7    2.78    0.27
  -1  -6  -7    9.68    0.53
   1  -6   7    9.69    0.45
  -1   6  -7    9.32    0.48
  -2  -6  -7   14.83    0.64
  -2   6  -7   13.76    0.62
  -3  -6  -7    8.01    0.47
   3   6   7    8.08    0.40
  -3   6  -7    7.79    0.45
   3   6   7    7.88    0.43
  -4  -6  -7   20.75    0.81
   4   6   7   19.79    0.76
   4   6   7   19.62    0.78
  -4   6  -7   20.22    0.81
  -5  -6  -7    0.96    0.24
   5  -6   7    0.96    0.23
   5  -6   7    1.10    0.22
  -5   6  -7    1.15    0.24
   5   6   7    0.88    0.18
   5   6   7    0.88    0.19
  -6  -6  -7    2.16    0.28
   6  -6   7    1.97    0.25
   6  -6   7    2.17    0.27
  -6   6  -7    2.20    0.27
   6   6   7    1.62    0.21
   6   6   7    1.98    0.22
  -7  -6  -7    5.22    0.41
   7  -6   7    5.23    0.39
   7  -6   7    5.17    0.42
   7   6   7    5.14    0.37
  -7   6  -7    5.08    0.43
   7   6   7    5.37    0.35
   8  -6   7    9.34    0.52
   8  -6   7    9.04    0.50
  -8  -6  -7    9.45    0.53
   8   6   7    8.24    0.46
   8   6   7    8.95    0.45
  -8   6  -7    8.73    0.55
   3  -7  -7   25.19    0.95
  -3  -7   7   25.23    0.99
   3   7  -7   23.67    0.94
   3   7  -7   23.49    0.94
  -2  -7   7    5.29    0.44
   2  -7  -7    5.21    0.43
   2   7  -7    4.96    0.40
  -1  -7   7    2.84    0.29
   1  -7  -7    2.34    0.30
   1   7  -7    2.32    0.28
   0  -7  -7    2.00    0.30
   0  -7   7    2.42    0.26
   0   7  -7    1.63    0.26
  -1  -7  -7    3.46    0.34
  -1   7  -7    2.84    0.30
  -2  -7  -7    0.48    0.26
  -2   7  -7    0.36    0.23
  -3  -7  -7   13.20    0.67
  -3   7  -7   13.10    0.64
 -14   0   8   47.26    1.77
  14   0  -8   52.49    1.70
  13   0  -8    0.23    0.16
 -13   0   8    0.23    0.25
 -12   0   8   84.27    2.98
  12   0  -8   97.87    2.95
  12   0  -8   87.28    2.87
  11   0  -8    0.17    0.07
 -11   0   8   -0.08    0.21
  11   0  -8    0.02    0.15
  10   0  -8    0.78    0.16
 -10   0   8    0.78    0.20
  10   0  -8    0.80    0.10
   9   0  -8    0.07    0.07
  -9   0   8    0.02    0.16
   9   0  -8    0.15    0.13
   8   0  -8   21.45    0.72
   8   0  -8   21.23    0.76
  -8   0   8   20.01    0.78
   7   0  -8    0.08    0.08
  -7   0   8    0.37    0.15
   7   0  -8    0.14    0.12
   6   0  -8  156.75    5.00
   6   0  -8  160.21    5.55
  -6   0   8  150.42    5.03
   6   0  -8  158.32    5.04
   5   0  -8   -0.04    0.08
   5   0  -8    0.01    0.09
   5   0  -8    0.00    0.05
  -5   0   8    0.05    0.12
  -4   0   8   12.44    0.51
   4   0  -8   12.99    0.50
   4   0  -8   13.47    0.45
   4   0  -8   13.83    0.50
   3   0  -8    0.06    0.05
   3   0  -8   -0.03    0.08
   3   0  -8    0.02    0.08
  -3   0   8   -0.05    0.10
  -3   0   8    0.09    0.10
   2   0  -8    3.25    0.19
  -2   0   8    2.71    0.22
  -2   0   8    2.95    0.20
   2   0  -8    3.07    0.20
   2   0  -8    2.99    0.14
   1   0  -8   -0.01    0.06
   1   0  -8    0.02    0.05
   1   0  -8    0.06    0.08
  -1   0   8    0.34    0.10
  -1   0   8    0.11    0.10
   0   0  -8    1.71    0.13
   0   0   8    1.63    0.16
   0   0   8    1.53    0.14
   0   0  -8    1.50    0.15
   0   0  -8    1.56    0.12
   1   0   8   -0.01    0.09
  -1   0  -8    0.13    0.07
  -1   0  -8   -0.01    0.05
  -1   0  -8   -0.01    0.08
   1   0   8    0.03    0.09
  -2   0  -8  389.62   13.28
  -2   0  -8  416.90   13.96
   2   0   8  434.56   13.32
  -2   0  -8  418.64   13.30
   3   0   8    0.03    0.08
  -3   0  -8    0.02    0.05
  -3   0  -8    0.00    0.07
   3   0   8    0.44    0.11
  -4   0  -8    0.24    0.11
   4   0   8    0.27    0.11
  -4   0  -8    0.23    0.09
   4   0   8    0.20    0.09
  -4   0  -8    0.28    0.05
   5   0   8    0.09    0.10
   5   0   8    0.07    0.08
  -5   0  -8   -0.09    0.10
   6   0   8   78.83    2.60
   6   0   8   78.66    2.59
  -6   0  -8   81.32    2.62
  -7   0  -8   -0.01    0.15
   7   0   8    0.08    0.13
   7   0   8    0.07    0.09
  -8   0  -8   29.25    1.09
   8   0   8   29.95    1.06
   8   0   8   31.71    1.04
  -9   0  -8   -0.08    0.18
   9   0   8    0.41    0.16
   9   0   8   -0.02    0.09
 -10   0  -8   17.76    0.73
  10   0   8   17.55    0.68
  10   0   8   17.29    0.63
  11   0   8    0.14    0.11
 -11   0  -8    0.02    0.20
  11   0   8    0.23    0.18
  12   0   8   13.99    0.53
  12   0   8   14.68    0.62
 -12   0  -8   14.51    0.67
  13   0   8    0.12    0.20
 -13   0  -8    0.00    0.24
  13   0   8    0.01    0.10
 -14   0  -8    0.89    0.28
  14   0   8    0.71    0.11
  14   0   8    0.95    0.23
  14  -1  -8    0.92    0.19
  14   1  -8    0.77    0.20
 -14   1   8    0.91    0.31
  13  -1  -8    5.27    0.33
  13  -1  -8    5.49    0.20
 -13   1   8    4.76    0.48
  13   1  -8    5.02    0.36
  12  -1  -8   14.53    0.57
  12  -1  -8   14.42    0.48
  12   1  -8   14.11    0.59
 -12   1   8   12.89    0.68
  12   1  -8   13.47    0.47
  11  -1  -8    2.19    0.20
 -11  -1   8    1.87    0.24
  11  -1  -8    2.04    0.15
  11   1  -8    1.60    0.21
  11   1  -8    1.94    0.14
 -11   1   8    1.66    0.26
  10  -1  -8    1.00    0.16
 -10  -1   8    0.95    0.20
  10  -1  -8    1.35    0.11
  10   1  -8    1.24    0.19
  10   1  -8    1.12    0.10
 -10   1   8    0.85    0.22
   9  -1  -8   11.75    0.47
  -9  -1   8   11.45    0.51
   9  -1  -8   12.34    0.43
   9   1  -8   11.84    0.50
  -9   1   8   10.84    0.54
   9   1  -8   11.08    0.42
   8  -1  -8   32.16    1.03
   8  -1  -8   32.06    1.06
  -8  -1   8   29.32    1.07
   8   1  -8   29.10    1.02
   8   1  -8   30.98    1.02
   8   1  -8   31.11    1.08
  -8   1   8   29.43    1.10
  -7  -1   8   18.22    0.71
   7  -1  -8   19.04    0.67
   7  -1  -8   19.59    0.69
   7   1  -8   19.47    0.72
  -7   1   8   19.04    0.72
   7   1  -8   19.46    0.67
   7   1  -8   19.36    0.65
   6  -1  -8   26.67    0.92
   6  -1  -8   26.78    0.91
  -6  -1   8   25.47    0.93
  -6   1   8   27.04    0.96
   6   1  -8   27.17    0.91
   6   1  -8   26.38    0.89
   6   1  -8   27.22    0.94
   5  -1  -8  148.69    4.57
  -5  -1   8  135.28    4.52
   5  -1  -8  142.44    4.54
   5   1  -8  133.32    4.53
  -5   1   8  140.19    4.54
   5   1  -8  145.28    4.54
   5   1  -8  140.02    4.52
   4  -1  -8   97.93    3.17
  -4  -1   8   96.93    3.17
   4  -1  -8  101.77    3.17
   4   1  -8   98.38    3.18
  -4   1   8  100.72    3.19
   4   1  -8   95.39    3.17
   4   1  -8   95.34    3.17
  -3  -1   8    0.24    0.11
   3  -1  -8    0.35    0.09
   3  -1  -8    0.33    0.09
  -3  -1   8    0.26    0.10
   3  -1  -8    0.36    0.04
   3   1  -8    0.34    0.07
  -3   1   8    0.38    0.10
   3   1  -8    0.38    0.10
   3   1  -8    0.33    0.10
   2  -1  -8    0.74    0.06
   2  -1  -8    0.73    0.10
   2  -1  -8    0.81    0.10
  -2  -1   8    0.79    0.13
  -2  -1   8    0.71    0.11
  -2   1   8    0.66    0.12
   2   1  -8    0.73    0.08
   2   1  -8    0.61    0.12
  -2   1   8    0.81    0.12
   2   1  -8    0.72    0.10
   1  -1  -8   53.36    1.78
   1  -1  -8   51.89    1.77
   1  -1  -8   58.25    1.75
  -1  -1   8   50.41    1.81
  -1  -1   8   56.68    1.79
  -1   1   8   51.47    1.80
  -1   1   8   54.93    1.79
   1   1  -8   56.70    1.77
   1   1  -8   53.89    1.77
   1   1  -8   55.20    1.80
   0  -1  -8    4.37    0.19
   0  -1   8    4.31    0.22
   0  -1   8    3.59    0.25
   0  -1  -8    3.80    0.20
   0   1   8    4.07    0.24
   0   1   8    4.06    0.23
   0   1  -8    4.24    0.20
   0   1  -8    4.35    0.19
   0   1  -8    3.97    0.24
  -1  -1  -8  118.16    3.79
  -1  -1  -8  112.24    3.78
  -1  -1  -8  115.34    3.77
   1  -1   8  117.79    3.77
   1  -1   8  113.54    3.79
  -1   1  -8  116.72    3.76
  -1   1  -8  118.69    3.78
  -1   1  -8  119.32    3.79
   1   1   8  117.55    3.78
   1   1   8  120.69    3.77
   2  -1   8    4.11    0.25
  -2  -1  -8    3.64    0.21
  -2  -1  -8    4.35    0.19
  -2  -1  -8    3.70    0.21
   2  -1   8    3.95    0.23
   2   1   8    4.00    0.23
   2   1   8    4.11    0.22
  -2   1  -8    3.74    0.24
  -2   1  -8    3.80    0.16
  -2   1  -8    4.04    0.22
  -3  -1  -8   16.95    0.66
  -3  -1  -8   20.02    0.63
   3  -1   8   19.10    0.68
   3  -1   8   18.27    0.68
  -3  -1  -8   19.51    0.67
  -3   1  -8   16.12    0.60
  -3   1  -8   19.28    0.67
   3   1   8   20.01    0.67
   3   1   8   18.50    0.67
  -3   1  -8   19.23    0.67
  -4  -1  -8   16.53    0.60
   4  -1   8   17.01    0.60
  -4  -1  -8   17.15    0.55
   4  -1   8   16.51    0.60
  -4  -1  -8   13.32    0.57
   4   1   8   15.58    0.59
   4   1   8   15.54    0.59
  -4   1  -8   15.44    0.59
  -4   1  -8   16.86    0.59
  -5  -1  -8    2.55    0.14
   5  -1   8    2.62    0.21
   5  -1   8    2.83    0.21
  -5  -1  -8    2.47    0.22
   5   1   8    2.48    0.21
   5   1   8    2.69    0.20
  -5   1  -8    2.00    0.20
   6  -1   8    8.75    0.38
  -6  -1  -8    8.06    0.38
   6  -1   8    8.55    0.36
  -6  -1  -8    8.42    0.31
  -6   1  -8    7.41    0.40
   6   1   8    8.57    0.36
   6   1   8    7.87    0.37
  -7  -1  -8    4.90    0.33
   7  -1   8    5.19    0.31
   7  -1   8    5.30    0.27
   7   1   8    4.73    0.26
  -7   1  -8    4.44    0.31
   7   1   8    5.06    0.28
   8  -1   8   46.49    1.52
  -8  -1  -8   44.84    1.57
   8  -1   8   47.26    1.55
  -8   1  -8   45.31    1.58
   8   1   8   43.22    1.50
   8   1   8   45.91    1.53
  -9  -1  -8  157.33    5.03
   9  -1   8  156.70    5.01
   9  -1   8  155.92    4.98
   9   1   8  147.40    4.96
  -9   1  -8  152.40    5.03
   9   1   8  159.54    4.99
  10  -1   8   24.41    0.85
 -10  -1  -8   24.15    0.94
  10  -1   8   24.12    0.90
  10   1   8   25.07    0.88
 -10   1  -8   24.10    0.94
  10   1   8   23.08    0.83
 -11  -1  -8   13.99    0.65
  11  -1   8   13.85    0.53
  11  -1   8   14.39    0.61
  11   1   8   13.65    0.52
  11   1   8   13.84    0.57
 -11   1  -8   13.89    0.65
  12  -1   8   44.60    1.50
  12  -1   8   45.02    1.57
 -12  -1  -8   46.11    1.61
  12   1   8   46.61    1.56
  12   1   8   42.03    1.48
 -12   1  -8   46.62    1.62
  13  -1   8   34.00    1.18
  13  -1   8   34.06    1.26
 -13  -1  -8   36.23    1.32
  13   1   8   36.23    1.25
  13   1   8   33.97    1.17
 -13   1  -8   37.24    1.33
  14  -1   8    1.34    0.25
 -14  -1  -8    1.37    0.31
  14  -1   8    1.31    0.14
  14   1   8    1.26    0.12
 -14   1  -8    1.59    0.30
  14   1   8    1.55    0.23
  13  -2  -8    5.20    0.32
  13  -2  -8    5.11    0.22
  13   2  -8    4.92    0.18
 -13   2   8    4.88    0.44
  13   2  -8    4.78    0.40
  12  -2  -8   15.02    0.53
  12  -2  -8   15.46    0.59
  12   2  -8   14.19    0.51
  12   2  -8   15.58    0.65
 -12   2   8   14.15    0.73
  11  -2  -8   26.67    0.92
  11  -2  -8   26.35    0.88
  11   2  -8   25.13    0.86
 -11   2   8   25.41    1.03
  11   2  -8   25.70    0.96
  10  -2  -8    4.41    0.23
  10  -2  -8    4.63    0.28
 -10   2   8    3.84    0.37
  10   2  -8    4.35    0.24
  10   2  -8    4.25    0.22
  10   2  -8    4.62    0.34
   9  -2  -8   25.57    0.88
   9  -2  -8   25.19    0.91
   9   2  -8   26.14    0.88
  -9   2   8   24.21    0.97
   9   2  -8   27.34    0.95
   9   2  -8   25.39    0.87
   8  -2  -8   32.77    1.11
   8  -2  -8   34.06    1.13
  -8  -2   8   30.69    1.12
   8   2  -8   33.21    1.10
   8   2  -8   32.48    1.10
  -8   2   8   31.90    1.17
   8   2  -8   35.03    1.17
   7  -2  -8   13.48    0.49
  -7  -2   8   11.89    0.51
   7  -2  -8   13.65    0.51
   7   2  -8   12.68    0.48
   7   2  -8   12.69    0.49
  -7   2   8   12.65    0.57
   7   2  -8   14.71    0.55
   6  -2  -8    2.72    0.19
   6  -2  -8    3.59    0.22
  -6  -2   8    2.61    0.21
   6   2  -8    2.56    0.19
  -6   2   8    2.81    0.28
   6   2  -8    2.28    0.17
   6   2  -8    3.12    0.24
   5  -2  -8   18.02    0.65
   5  -2  -8   18.08    0.64
  -5  -2   8   17.31    0.64
   5   2  -8   17.78    0.66
   5   2  -8   17.40    0.62
  -5   2   8   18.91    0.70
   5   2  -8   17.81    0.64
   4  -2  -8   27.63    0.96
   4  -2  -8   27.61    0.96
  -4  -2   8   27.28    0.95
   4   2  -8   28.40    0.96
  -4   2   8   29.29    0.99
   4   2  -8   27.89    0.97
   4   2  -8   27.97    0.94
   3  -2  -8    7.13    0.31
   3  -2  -8    7.41    0.32
  -3  -2   8    7.13    0.32
  -3   2   8    7.93    0.36
   3   2  -8    6.98    0.32
  -3   2   8    7.00    0.33
   3   2  -8    7.23    0.30
   3   2  -8    7.44    0.33
  -2  -2   8    0.12    0.10
   2  -2  -8    0.15    0.09
   2  -2  -8    0.03    0.08
  -2  -2   8   -0.05    0.10
   2  -2  -8    0.21    0.05
   2   2  -8   -0.01    0.08
   2   2  -8    0.00    0.08
  -2   2   8    0.34    0.11
  -2   2   8    0.14    0.10
   2   2  -8    0.12    0.08
   1  -2  -8   63.77    2.13
  -1  -2   8   64.16    2.17
   1  -2  -8   64.45    2.14
  -1  -2   8   64.06    2.14
   1  -2  -8   67.62    2.10
   1   2  -8   64.17    2.13
   1   2  -8   67.21    2.16
  -1   2   8   67.07    2.15
  -1   2   8   66.05    2.16
   1   2  -8   66.68    2.13
   0  -2   8   55.38    1.84
   0  -2  -8   58.40    1.81
   0  -2  -8   54.28    1.83
   0  -2   8   56.68    1.87
   0  -2  -8   55.13    1.82
   0   2   8   57.30    1.84
   0   2  -8   55.31    1.83
   0   2  -8   51.96    1.80
   0   2  -8   57.27    1.85
   0   2   8   55.97    1.85
   1  -2   8  138.11    4.51
  -1  -2  -8  144.69    4.49
  -1  -2  -8  138.28    4.48
  -1  -2  -8  134.96    4.48
   1  -2   8  151.33    4.46
   1  -2   8  136.04    4.49
   1   2   8  136.74    4.49
  -1   2  -8  142.94    4.50
  -1   2  -8  136.36    4.54
   1   2   8  135.10    4.48
  -2  -2  -8    8.65    0.34
   2  -2   8    8.22    0.36
   2  -2   8    8.66    0.31
  -2  -2  -8    8.36    0.35
  -2  -2  -8    8.37    0.33
   2  -2   8    7.69    0.39
  -2   2  -8    8.45    0.35
   2   2   8    8.59    0.36
  -2   2  -8    7.93    0.36
   2   2   8    8.24    0.35
  -3  -2  -8  153.60    5.18
   3  -2   8  168.35    5.22
  -3  -2  -8  164.94    5.19
   3  -2   8  172.64    5.14
   3  -2   8  159.18    5.21
  -3  -2  -8  160.70    5.20
  -3   2  -8  153.47    5.19
   3   2   8  161.94    5.20
  -3   2  -8  166.01    5.20
   3   2   8  157.71    5.19
   3   2   8  160.01    5.18
   4  -2   8   41.55    1.35
  -4  -2  -8   39.80    1.30
   4  -2   8   36.19    1.34
   4   2   8   39.85    1.33
   4   2   8   40.47    1.33
  -4   2  -8   39.90    1.35
   4   2   8   38.90    1.33
   5  -2   8  109.41    3.48
  -5  -2  -8  109.21    3.44
   5  -2   8   96.74    3.47
   5   2   8  110.66    3.47
   5   2   8  107.40    3.46
   5   2   8  110.35    3.47
  -5   2  -8  105.40    3.49
   6  -2   8    6.24    0.35
  -6  -2  -8    6.92    0.30
   6  -2   8    7.52    0.36
   6   2   8    7.43    0.34
  -6   2  -8    7.04    0.38
   6   2   8    7.09    0.35
   6   2   8    7.10    0.33
  -7  -2  -8    8.93    0.37
   7  -2   8    9.21    0.42
   7  -2   8    9.70    0.45
  -7   2  -8    9.55    0.47
   7   2   8    9.26    0.42
   7   2   8    9.37    0.40
   7   2   8    8.76    0.40
   8  -2   8   37.74    1.27
   8  -2   8   35.50    1.24
   8   2   8   37.35    1.26
  -8   2  -8   33.38    1.29
   8   2   8   36.30    1.23
   8   2   8   36.55    1.23
  -9  -2  -8    4.62    0.37
   9  -2   8    4.70    0.35
   9  -2   8    4.18    0.28
   9   2   8    4.30    0.26
   9   2   8    4.43    0.31
   9   2   8    4.22    0.27
  -9   2  -8    3.93    0.38
  10  -2   8    0.78    0.22
 -10  -2  -8    0.71    0.23
  10  -2   8    0.93    0.15
 -10   2  -8    1.22    0.26
  10   2   8    0.94    0.14
  10   2   8    0.94    0.17
 -11  -2  -8   30.62    1.14
  11  -2   8   29.59    1.06
  11  -2   8   30.60    1.13
  11   2   8   32.54    1.09
  11   2   8   29.07    1.04
 -11   2  -8   31.84    1.19
  12  -2   8    5.26    0.30
 -12  -2  -8    5.24    0.46
  12  -2   8    5.09    0.37
 -12   2  -8    5.28    0.48
  12   2   8    5.57    0.36
  12   2   8    4.90    0.26
 -13  -2  -8    0.28    0.26
  13  -2   8    0.22    0.13
  13  -2   8    0.06    0.21
  13   2   8    0.15    0.10
 -13   2  -8    0.19    0.27
  13  -3  -8    0.07    0.16
 -13  -3   8    0.07    0.30
  13  -3  -8    0.10    0.09
  13   3  -8    0.11    0.07
 -13   3   8   -0.24    0.33
 -12  -3   8    0.34    0.30
  12  -3  -8    0.10    0.15
  12  -3  -8    0.02    0.10
 -12   3   8    0.05    0.31
  12   3  -8    0.08    0.08
  11  -3  -8    9.67    0.43
  11  -3  -8    9.17    0.38
 -11  -3   8    9.59    0.64
  11   3  -8    8.98    0.36
 -11   3   8    9.50    0.60
  11   3  -8    9.52    0.40
 -10  -3   8   13.78    0.72
  10  -3  -8   13.88    0.56
  10  -3  -8   14.53    0.53
 -10   3   8   13.36    0.68
  10   3  -8   14.25    0.54
  10   3  -8   13.63    0.51
  -9  -3   8   20.58    0.91
   9  -3  -8   22.24    0.79
   9  -3  -8   21.72    0.77
  -9   3   8   21.03    0.87
   9   3  -8   21.88    0.77
   9   3  -8   22.23    0.76
   8  -3  -8   30.12    1.02
  -8  -3   8   29.00    1.14
   8  -3  -8   30.11    1.04
   8   3  -8   30.50    1.02
  -8   3   8   28.16    1.10
   8   3  -8   30.15    1.02
   7  -3  -8    3.09    0.22
  -7  -3   8    2.82    0.30
   7  -3  -8    3.40    0.26
  -7   3   8    2.84    0.27
   7   3  -8    3.17    0.22
   7   3  -8    3.44    0.21
   6  -3  -8   10.88    0.46
  -6  -3   8   10.03    0.55
   6  -3  -8   11.32    0.44
   6   3  -8   11.23    0.44
   6   3  -8   10.94    0.43
  -6   3   8   10.61    0.51
   5  -3  -8   14.57    0.55
   5  -3  -8   14.09    0.54
  -5  -3   8   13.26    0.52
  -5  -3   8   13.87    0.61
  -5   3   8   14.98    0.60
   5   3  -8   14.32    0.53
   5   3  -8   14.30    0.54
   4  -3  -8   58.23    1.88
  -4  -3   8   53.80    1.91
   4  -3  -8   57.92    1.87
  -4  -3   8   53.70    1.86
   4   3  -8   57.80    1.87
   4   3  -8   57.01    1.88
  -4   3   8   59.25    1.91
   3  -3  -8   15.65    0.57
  -3  -3   8   14.72    0.60
   3  -3  -8   15.44    0.57
  -3  -3   8   14.44    0.56
   3   3  -8   15.69    0.58
   3   3  -8   15.27    0.56
  -3   3   8   15.50    0.60
   2  -3  -8  163.89    5.27
  -2  -3   8  157.31    5.27
   2  -3  -8  165.22    5.27
  -2  -3   8  165.70    5.29
   2   3  -8  159.42    5.33
  -2   3   8  169.40    5.29
   2   3  -8  170.49    5.29
  -2   3   8  162.97    5.30
  -1  -3   8    8.90    0.41
   1  -3  -8    8.72    0.38
  -1  -3   8    8.61    0.38
   1  -3  -8    8.64    0.37
  -1  -3   8    9.44    0.39
  -1   3   8    8.83    0.39
   1   3  -8    9.87    0.40
  -1   3   8    8.57    0.39
  -1   3   8    7.84    0.32
   1   3  -8    8.60    0.37
   0  -3   8    1.04    0.14
   0  -3  -8    0.66    0.12
   0  -3  -8    0.42    0.11
   0  -3   8    1.19    0.13
   0  -3   8    0.85    0.16
   0   3   8    0.78    0.14
   0   3  -8    0.77    0.14
   0   3   8    0.52    0.12
   0   3  -8    0.76    0.12
   0   3   8    0.55    0.09
  -1  -3  -8    1.18    0.13
   1  -3   8    1.48    0.13
  -1  -3  -8    1.04    0.13
   1  -3   8    1.16    0.18
   1  -3   8    1.15    0.14
  -1   3  -8    1.23    0.16
   1   3   8    1.31    0.12
   1   3   8    1.25    0.15
   1   3   8    1.02    0.14
  -1   3  -8    0.85    0.13
   2  -3   8   23.37    0.77
  -2  -3  -8   22.78    0.80
   2  -3   8   22.64    0.84
   2  -3   8   22.98    0.82
  -2  -3  -8   22.04    0.80
   2   3   8   22.48    0.79
   2   3   8   22.83    0.80
  -2   3  -8   22.08    0.81
  -2   3  -8   23.09    0.83
   2   3   8   23.00    0.82
  -3  -3  -8   -0.03    0.10
   3  -3   8    0.13    0.13
   3  -3   8    0.10    0.14
   3   3   8    0.42    0.12
   3   3   8    0.17    0.10
  -3   3  -8    0.30    0.13
  -4  -3  -8   24.42    0.87
   4  -3   8   24.65    0.91
   4  -3   8   26.10    0.91
   4   3   8   25.74    0.87
   4   3   8   24.58    0.88
  -4   3  -8   24.44    0.90
   4   3   8   24.95    0.87
   5  -3   8    0.19    0.16
  -5  -3  -8    0.15    0.11
   5  -3   8    0.15    0.14
  -5   3  -8   -0.03    0.14
   5   3   8    0.40    0.13
   5   3   8    0.24    0.12
   5   3   8    0.20    0.12
   6  -3   8   55.96    1.87
   6  -3   8   54.53    1.86
  -6  -3  -8   54.66    1.82
   6   3   8   55.76    1.83
  -6   3  -8   53.03    1.87
   6   3   8   56.14    1.84
   6   3   8   56.80    1.84
   7  -3   8   60.33    2.06
  -7  -3  -8   59.96    2.01
   7  -3   8   60.47    2.05
   7   3   8   61.02    2.01
   7   3   8   61.27    2.03
  -7   3  -8   60.47    2.08
   7   3   8   64.14    2.03
   8  -3   8    8.49    0.46
   8  -3   8    8.73    0.43
  -8  -3  -8    8.66    0.39
   8   3   8    9.21    0.43
   8   3   8    8.74    0.40
  -8   3  -8    8.13    0.49
   8   3   8    9.10    0.39
   9  -3   8   27.20    1.05
   9  -3   8   31.32    1.11
   9   3   8   30.16    1.07
   9   3   8   29.90    1.04
  -9   3  -8   28.52    1.13
   9   3   8   31.57    1.04
  10  -3   8   21.39    0.84
  10  -3   8   20.75    0.78
  10   3   8   21.06    0.76
  10   3   8   21.19    0.81
 -10   3  -8   19.25    0.88
  11  -3   8    1.53    0.26
  11  -3   8    1.45    0.19
 -11   3  -8    1.57    0.32
  11   3   8    1.33    0.17
  11   3   8    2.11    0.25
  12  -3   8   61.11    2.07
  12  -3   8   61.29    2.13
  12   3   8   60.78    2.04
 -12   3  -8   66.27    2.21
  12   3   8   62.39    2.12
 -13  -3  -8    5.73    0.49
  13   3   8    4.95    0.27
  13   3   8    4.82    0.41
 -11  -4   8   20.10    0.95
  11  -4  -8   20.54    0.73
  11  -4  -8   19.74    0.75
  11   4  -8   19.18    0.70
 -11   4   8   19.53    0.91
  11   4  -8   20.54    0.75
 -10  -4   8    0.31    0.32
  10  -4  -8    0.40    0.14
  10  -4  -8    0.48    0.17
  10   4  -8    0.49    0.14
  10   4  -8    0.25    0.11
 -10   4   8    0.13    0.28
   9  -4  -8   88.78    2.81
   9  -4  -8   87.95    2.82
  -9  -4   8   85.74    2.94
  -9   4   8   81.57    2.88
   9   4  -8   85.52    2.80
   9   4  -8   86.01    2.81
  -8  -4   8    7.71    0.56
   8  -4  -8    8.09    0.38
   8  -4  -8    8.41    0.40
   8   4  -8    8.07    0.37
   8   4  -8    8.24    0.38
  -8   4   8    7.42    0.49
   7  -4  -8    0.16    0.15
   7  -4  -8    0.44    0.13
  -7  -4   8    0.16    0.25
   7   4  -8    0.14    0.12
  -7   4   8    0.04    0.21
   7   4  -8    0.10    0.13
   6  -4  -8    0.11    0.12
   6  -4  -8    0.11    0.14
  -6  -4   8    0.33    0.23
  -6   4   8    0.36    0.21
   6   4  -8    0.36    0.13
   6   4  -8    0.07    0.12
  -5  -4   8    1.49    0.25
   5  -4  -8    1.13    0.15
   5  -4  -8    1.40    0.18
  -5   4   8    1.65    0.23
   5   4  -8    1.35    0.16
   5   4  -8    1.40    0.17
  -4  -4   8    0.38    0.19
   4  -4  -8    0.17    0.12
   4  -4  -8    0.12    0.13
   4   4  -8    0.27    0.13
   4   4  -8    0.43    0.13
  -4   4   8    0.30    0.18
   3  -4  -8   49.75    1.68
   3  -4  -8   50.76    1.68
  -3  -4   8   49.70    1.72
   3   4  -8   49.60    1.69
  -3   4   8   52.85    1.71
   3   4  -8   49.48    1.68
   2  -4  -8    3.36    0.26
   2  -4  -8    3.57    0.25
  -2  -4   8    3.53    0.30
   2   4  -8    3.45    0.26
  -2   4   8    3.45    0.28
   2   4  -8    3.69    0.26
  -1  -4   8   64.03    2.38
  -1  -4   8   76.41    2.40
   1  -4  -8   74.10    2.39
   1  -4  -8   72.32    2.39
   1   4  -8   72.03    2.39
  -1   4   8   77.19    2.40
   1   4  -8   73.37    2.41
   0  -4  -8    0.15    0.12
   0  -4   8    0.13    0.13
   0  -4  -8    0.27    0.14
   0  -4   8    0.02    0.12
   0   4   8    0.08    0.09
   0   4   8    0.03    0.13
   0   4  -8    0.13    0.12
   0   4  -8    0.32    0.13
   0   4   8   -0.03    0.13
  -1  -4  -8    0.72    0.16
   1  -4   8    0.83    0.18
   1  -4   8    0.89    0.16
   1  -4   8    0.73    0.13
  -1   4  -8    0.78    0.15
   1   4   8    0.61    0.14
   1   4   8    0.72    0.14
  -1   4  -8    1.03    0.16
   1   4   8    0.87    0.12
   2  -4   8   43.41    1.54
  -2  -4  -8   44.51    1.51
   2  -4   8   45.07    1.47
   2  -4   8   42.70    1.52
   2   4   8   44.76    1.52
   2   4   8   45.55    1.49
  -2   4  -8   45.02    1.52
   2   4   8   45.88    1.49
  -3  -4  -8    0.30    0.14
   3  -4   8    0.28    0.15
   3  -4   8    0.18    0.15
  -3   4  -8    0.46    0.14
   3   4   8    0.39    0.12
   3   4   8    0.34    0.13
   3   4   8    0.20    0.13
  -4  -4  -8    2.08    0.20
   4  -4   8    2.85    0.25
   4  -4   8    2.03    0.22
   4   4   8    2.22    0.22
   4   4   8    2.21    0.22
  -4   4  -8    2.13    0.21
   4   4   8    1.53    0.18
   5  -4   8   91.87    3.05
  -5  -4  -8   91.48    3.01
   5  -4   8   87.58    3.05
   5   4   8   94.90    3.02
   5   4   8   93.39    3.02
   5   4   8   95.96    3.00
  -5   4  -8   91.83    3.05
   6  -4   8   31.16    1.21
  -6  -4  -8   34.77    1.18
   6  -4   8   33.88    1.22
   6   4   8   35.56    1.17
  -6   4  -8   33.60    1.22
   6   4   8   34.60    1.18
   6   4   8   33.83    1.18
   7  -4   8    9.94    0.49
  -7  -4  -8   10.02    0.46
   7  -4   8    9.39    0.50
   7   4   8   10.63    0.45
  -7   4  -8    9.80    0.51
   7   4   8    9.34    0.45
   8  -4   8    4.61    0.35
  -8  -4  -8    4.19    0.32
   8  -4   8    4.11    0.38
   8   4   8    4.91    0.34
  -8   4  -8    4.48    0.40
   8   4   8    4.70    0.31
   9  -4   8   19.56    0.82
   9  -4   8   20.27    0.78
   9   4   8   20.14    0.74
  -9   4  -8   19.36    0.85
   9   4   8   19.65    0.77
  10  -4   8    4.08    0.36
  10  -4   8    4.25    0.41
  10   4   8    4.52    0.36
  10   4   8    4.45    0.30
 -10   4  -8    4.62    0.46
  11  -4   8    2.86    0.33
  11  -4   8    2.96    0.25
  11   4   8    2.82    0.26
 -11   4  -8    2.57    0.35
  11   4   8    3.00    0.28
  10  -5  -8   15.84    0.64
 -10  -5   8   16.41    0.88
  10  -5  -8   15.80    0.62
 -10   5   8   14.74    0.76
  10   5  -8   14.76    0.59
  10   5  -8   15.61    0.62
   9  -5  -8    2.24    0.23
  -9  -5   8    2.02    0.38
   9  -5  -8    1.76    0.19
   9   5  -8    1.46    0.19
   9   5  -8    1.65    0.18
  -9   5   8    1.59    0.31
   8  -5  -8    2.65    0.23
  -8  -5   8    2.92    0.39
   8  -5  -8    3.84    0.31
   8   5  -8    2.69    0.27
  -8   5   8    2.68    0.32
   8   5  -8    2.57    0.23
   7  -5  -8   10.16    0.47
   7  -5  -8   10.75    0.48
  -7  -5   8   10.65    0.64
   7   5  -8   10.84    0.47
  -7   5   8    9.91    0.55
   7   5  -8   10.24    0.47
   6  -5  -8    4.19    0.30
   6  -5  -8    4.33    0.34
  -6  -5   8    4.62    0.40
  -6   5   8    4.76    0.38
   6   5  -8    4.28    0.30
   6   5  -8    3.95    0.31
   5  -5  -8   41.00    1.40
   5  -5  -8   40.14    1.40
  -5  -5   8   39.86    1.48
   5   5  -8   40.58    1.40
   5   5  -8   41.02    1.40
  -5   5   8   42.05    1.44
   4  -5  -8    0.87    0.18
  -4  -5   8    1.09    0.24
   4  -5  -8    0.56    0.15
  -4   5   8    0.91    0.21
   4   5  -8    0.53    0.16
   4   5  -8    0.91    0.17
   3  -5  -8   37.60    1.32
  -3  -5   8   38.68    1.37
   3  -5  -8   38.36    1.33
  -3   5   8   38.93    1.33
   3   5  -8   38.35    1.34
   3   5  -8   37.97    1.32
  -2  -5   8   29.43    1.05
   2  -5  -8   28.68    1.04
   2  -5  -8   28.10    1.02
  -2   5   8   30.09    1.04
   2   5  -8   28.76    1.04
   2   5  -8   27.31    1.02
  -1  -5   8   53.28    1.78
   1  -5  -8   51.82    1.78
  -1   5   8   55.60    1.78
   1   5  -8   50.95    1.78
   1   5  -8   52.35    1.79
   0  -5  -8    9.31    0.44
   0  -5   8    8.18    0.41
   0   5  -8    8.48    0.44
   0   5  -8    8.31    0.41
   0   5   8    9.16    0.42
  -1  -5  -8    8.98    0.44
   1  -5   8    8.91    0.39
   1   5   8    9.19    0.41
   1   5   8    8.56    0.45
  -1   5  -8    8.39    0.43
   2  -5   8    4.86    0.33
  -2  -5  -8    4.78    0.35
   2   5   8    4.81    0.29
   2   5   8    4.42    0.34
   2   5   8    4.93    0.28
  -2   5  -8    4.55    0.33
   3  -5   8    0.68    0.18
  -3  -5  -8    0.95    0.19
   3  -5   8    0.73    0.21
   3   5   8    0.85    0.18
  -3   5  -8    0.93    0.19
   3   5   8    0.95    0.15
   4  -5   8   38.58    1.37
  -4  -5  -8   39.10    1.37
   4  -5   8   40.99    1.41
   4   5   8   39.70    1.36
   4   5   8   39.59    1.34
  -4   5  -8   38.17    1.38
   5  -5   8   13.14    0.60
   5  -5   8   14.10    0.63
  -5  -5  -8   13.07    0.58
  -5   5  -8   13.08    0.59
   5   5   8   13.71    0.57
   5   5   8   13.33    0.55
   6  -5   8   34.10    1.25
   6  -5   8   35.74    1.27
  -6  -5  -8   33.93    1.22
   6   5   8   34.15    1.20
  -6   5  -8   33.89    1.26
   6   5   8   35.31    1.21
  -7  -5  -8   17.20    0.70
   7  -5   8   17.38    0.73
   7  -5   8   18.22    0.74
   7   5   8   16.94    0.68
  -7   5  -8   16.32    0.74
   7   5   8   17.03    0.68
   8  -5   8    6.89    0.45
   8  -5   8    7.38    0.47
  -8  -5  -8    7.50    0.44
   8   5   8    7.45    0.41
  -8   5  -8    7.22    0.49
   8   5   8    7.57    0.41
   9  -5   8   20.64    0.86
   9  -5   8   21.12    0.82
  -9  -5  -8   20.95    0.81
   9   5   8   19.78    0.79
  -9   5  -8   20.60    0.89
   9   5   8   19.42    0.77
  10  -5   8    4.27    0.38
  10  -5   8    4.41    0.38
  10   5   8    4.01    0.32
  10   5   8    4.59    0.38
 -10   5  -8    4.68    0.42
   7  -6  -8    9.96    0.49
   7  -6  -8    9.60    0.48
  -7  -6   8   10.15    0.66
   7   6  -8    9.96    0.48
   7   6  -8    9.94    0.48
  -7   6   8   10.38    0.57
  -6  -6   8    4.63    0.43
   6  -6  -8    4.74    0.37
   6  -6  -8    4.36    0.34
  -6   6   8    4.23    0.42
   6   6  -8    4.23    0.34
   6   6  -8    4.17    0.34
   5  -6  -8    8.36    0.46
  -5  -6   8    7.93    0.54
   5  -6  -8    7.36    0.42
   5   6  -8    7.41    0.43
  -5   6   8    8.22    0.49
   5   6  -8    7.75    0.42
   4  -6  -8   21.56    0.84
  -4  -6   8   22.58    0.91
   4  -6  -8   22.60    0.85
  -4   6   8   22.95    0.86
   4   6  -8   21.37    0.84
   4   6  -8   21.44    0.84
   3  -6  -8   19.46    0.79
  -3  -6   8   19.82    0.82
  -3   6   8   20.31    0.77
   3   6  -8   18.50    0.76
   3   6  -8   18.98    0.77
  -2  -6   8    0.96    0.23
   2  -6  -8    1.26    0.23
   2   6  -8    0.47    0.18
  -2   6   8    0.55    0.20
   2   6  -8    0.55    0.18
   1  -6  -8    1.06    0.23
  -1  -6   8    0.98    0.21
   1   6  -8    0.77    0.19
   0  -6  -8   42.99    1.53
   0  -6   8   44.48    1.49
   0   6  -8   43.07    1.52
  -1  -6  -8    3.66    0.31
  -1   6  -8    3.17    0.31
  -2  -6  -8   28.76    1.06
  -2   6  -8   28.29    1.05
  -3  -6  -8    1.52    0.25
  -3   6  -8    1.43    0.24
   3   6   8    1.58    0.22
  -4  -6  -8   23.59    0.92
  -4   6  -8   23.60    0.92
   4   6   8   23.51    0.86
   4   6   8   22.92    0.89
   5  -6   8    5.18    0.42
  -5  -6  -8    4.98    0.42
  -5   6  -8    4.62    0.41
   5   6   8    4.66    0.36
   5   6   8    4.88    0.33
   6  -6   8   15.70    0.71
  -6  -6  -8   15.29    0.67
   6  -6   8   15.77    0.69
  -6   6  -8   15.64    0.72
   6   6   8   15.33    0.64
   6   6   8   14.78    0.64
   7  -6   8    4.68    0.42
   7  -6   8    4.70    0.43
  -7  -6  -8    4.04    0.34
   7   6   8    4.71    0.35
  -7   6  -8    4.79    0.44
   7   6   8    4.67    0.36
   1   7  -8    4.15    0.39
   0  -7  -8    4.17    0.36
   0   7  -8    4.54    0.40
  -1   7  -8   23.56    0.94
  13   0  -9   28.51    0.94
  13   0  -9   31.25    1.05
 -13   0   9   26.75    1.10
  12   0  -9    0.06    0.07
  12   0  -9    0.20    0.17
 -12   0   9   -0.01    0.23
 -11   0   9   17.88    0.80
  11   0  -9   21.80    0.77
  11   0  -9   20.46    0.69
  10   0  -9    0.09    0.08
  10   0  -9   -0.12    0.15
 -10   0   9    0.04    0.20
  -9   0   9    5.81    0.38
   9   0  -9    6.05    0.34
   9   0  -9    6.68    0.28
   8   0  -9    0.03    0.09
  -8   0   9    0.16    0.17
   8   0  -9    0.13    0.13
   7   0  -9    2.56    0.19
  -7   0   9    2.02    0.21
   7   0  -9    2.35    0.20
  -6   0   9    0.11    0.14
   6   0  -9   -0.06    0.11
   6   0  -9    0.03    0.09
   5   0  -9    4.22    0.25
   5   0  -9    4.26    0.25
  -5   0   9    4.10    0.26
   5   0  -9    4.22    0.18
  -4   0   9   -0.04    0.12
   4   0  -9   -0.06    0.09
   4   0  -9   -0.02    0.10
   4   0  -9    0.04    0.05
   3   0  -9    3.22    0.22
   3   0  -9    3.42    0.21
   3   0  -9    3.36    0.16
  -3   0   9    3.47    0.24
  -2   0   9    0.19    0.12
  -2   0   9    0.01    0.11
   2   0  -9    0.04    0.09
   2   0  -9    0.05    0.08
   2   0  -9    0.05    0.05
   1   0  -9   74.90    2.51
  -1   0   9   77.84    2.51
   1   0  -9   82.46    2.48
  -1   0   9   73.43    2.53
   1   0  -9   76.07    2.49
   0   0  -9    0.06    0.09
   0   0  -9    0.08    0.07
   0   0   9    0.05    0.10
   0   0  -9    0.01    0.07
   0   0   9    0.02    0.11
  -1   0  -9    0.78    0.11
  -1   0  -9    1.00    0.11
   1   0   9    0.73    0.12
   1   0   9    0.76    0.12
  -1   0  -9    0.96    0.09
   2   0   9    0.12    0.10
  -2   0  -9    0.37    0.10
  -2   0  -9    0.03    0.06
  -2   0  -9   -0.02    0.09
   2   0   9    0.05    0.09
  -3   0  -9  110.50    3.70
   3   0   9  118.23    3.71
  -3   0  -9  117.05    3.68
  -3   0  -9  113.88    3.70
   3   0   9  113.58    3.71
  -4   0  -9    0.00    0.11
   4   0   9    0.02    0.12
  -4   0  -9    0.01    0.04
   4   0   9    0.05    0.10
   5   0   9   20.14    0.72
   5   0   9   19.95    0.74
  -5   0  -9   19.73    0.74
   6   0   9    0.02    0.10
   6   0   9   -0.04    0.13
  -6   0  -9    0.03    0.13
   7   0   9    3.96    0.28
   7   0   9    4.58    0.25
  -7   0  -9    4.38    0.32
   8   0   9    0.17    0.11
  -8   0  -9    0.09    0.17
   8   0   9    0.18    0.13
   9   0   9    5.02    0.31
  -9   0  -9    5.15    0.35
   9   0   9    4.76    0.27
  10   0   9    0.26    0.18
  10   0   9    0.25    0.11
 -10   0  -9    0.36    0.21
 -11   0  -9    2.39    0.27
  11   0   9    2.52    0.24
  11   0   9    2.53    0.22
  12   0   9    0.13    0.19
 -12   0  -9    0.31    0.24
  12   0   9    0.00    0.11
  13   0   9    1.72    0.16
 -13   0  -9    2.00    0.30
  13   0   9    2.05    0.26
  13  -1  -9    3.05    0.16
  13  -1  -9    3.03    0.29
  13   1  -9    2.83    0.14
  13   1  -9    3.10    0.28
 -13   1   9    3.08    0.37
  12  -1  -9    2.87    0.27
  12  -1  -9    2.59    0.16
  12   1  -9    2.08    0.24
 -12   1   9    2.65    0.33
  12   1  -9    2.62    0.15
 -11  -1   9    1.12    0.23
  11  -1  -9    1.01    0.11
  11  -1  -9    1.19    0.17
  11   1  -9    1.11    0.20
  11   1  -9    1.08    0.11
 -11   1   9    0.68    0.24
  10  -1  -9    2.49    0.18
  10  -1  -9    2.09    0.20
 -10  -1   9    2.02    0.24
  10   1  -9    1.93    0.22
  10   1  -9    2.07    0.17
 -10   1   9    1.86    0.26
   9  -1  -9    9.85    0.42
   9  -1  -9   10.31    0.39
  -9  -1   9    9.38    0.46
   9   1  -9    9.26    0.38
   9   1  -9    9.86    0.46
  -9   1   9    8.80    0.50
   8  -1  -9   33.78    1.08
   8  -1  -9   32.66    1.10
  -8  -1   9   30.20    1.11
   8   1  -9   32.42    1.12
  -8   1   9   29.72    1.14
   8   1  -9   31.49    1.07
   7  -1  -9   37.39    1.25
  -7  -1   9   34.70    1.26
   7  -1  -9   38.66    1.24
   7   1  -9   37.32    1.27
  -7   1   9   36.35    1.29
   7   1  -9   35.81    1.21
   7   1  -9   37.21    1.24
   6  -1  -9   10.58    0.43
   6  -1  -9   11.24    0.42
  -6  -1   9   10.07    0.46
   6   1  -9   10.47    0.42
   6   1  -9   10.80    0.46
  -6   1   9   10.50    0.48
   6   1  -9   10.39    0.39
   5  -1  -9    7.65    0.34
  -5  -1   9    7.45    0.36
   5  -1  -9    7.86    0.33
   5   1  -9    7.27    0.34
   5   1  -9    7.68    0.36
  -5   1   9    7.60    0.37
   5   1  -9    7.40    0.29
   4  -1  -9   52.52    1.66
   4  -1  -9   49.94    1.66
  -4  -1   9   49.27    1.67
   4   1  -9   49.65    1.67
   4   1  -9   49.70    1.63
  -4   1   9   50.92    1.69
   4   1  -9   49.05    1.67
  -3  -1   9   45.23    1.52
   3  -1  -9   49.17    1.47
   3  -1  -9   45.86    1.52
   3  -1  -9   44.61    1.51
  -3   1   9   46.09    1.53
   3   1  -9   43.64    1.53
   3   1  -9   46.44    1.49
   3   1  -9   43.67    1.52
   2  -1  -9    9.35    0.37
   2  -1  -9    9.56    0.32
  -2  -1   9    9.10    0.38
   2  -1  -9    8.33    0.36
  -2  -1   9    7.89    0.40
   2   1  -9    9.07    0.39
   2   1  -9    8.44    0.36
  -2   1   9    8.33    0.39
   2   1  -9    9.08    0.34
  -2   1   9    9.58    0.40
   1  -1  -9    4.50    0.19
   1  -1  -9    4.18    0.23
  -1  -1   9    4.26    0.24
   1  -1  -9    4.04    0.21
  -1  -1   9    3.44    0.27
   1   1  -9    4.21    0.22
   1   1  -9    4.35    0.20
  -1   1   9    4.35    0.25
   1   1  -9    4.31    0.26
  -1   1   9    4.08    0.26
   0  -1  -9    1.75    0.13
   0  -1   9    1.37    0.17
   0  -1  -9    1.51    0.14
   0  -1  -9    1.74    0.15
   0  -1   9    1.45    0.15
   0   1  -9    1.85    0.14
   0   1   9    1.65    0.17
   0   1   9    1.14    0.14
   0   1  -9    1.56    0.14
   0   1  -9    1.63    0.16
  -1  -1  -9    0.08    0.07
  -1  -1  -9    0.06    0.08
   1  -1   9    0.07    0.11
   1  -1   9    0.03    0.10
  -1  -1  -9    0.03    0.07
  -1   1  -9    0.15    0.09
   1   1   9    0.01    0.11
  -1   1  -9    0.22    0.07
  -1   1  -9    0.02    0.10
   1   1   9    0.14    0.11
  -2  -1  -9    1.40    0.13
  -2  -1  -9    1.61    0.14
   2  -1   9    1.19    0.14
  -2  -1  -9    1.59    0.14
   2  -1   9    1.88    0.18
  -2   1  -9    2.01    0.18
   2   1   9    1.74    0.17
  -2   1  -9    1.48    0.11
  -2   1  -9    1.76    0.17
   2   1   9    1.64    0.16
  -3  -1  -9    4.72    0.24
   3  -1   9    4.83    0.28
  -3  -1  -9    5.00    0.21
   3  -1   9    5.41    0.28
  -3  -1  -9    4.44    0.24
  -3   1  -9    4.07    0.17
  -3   1  -9    4.69    0.26
   3   1   9    4.48    0.27
   3   1   9    4.73    0.26
  -3   1  -9    4.70    0.26
   4  -1   9    1.49    0.17
  -4  -1  -9    1.48    0.15
   4  -1   9    1.40    0.15
  -4  -1  -9    1.53    0.13
   4   1   9    1.50    0.15
   4   1   9    1.27    0.16
  -4   1  -9    1.29    0.16
  -5  -1  -9    8.51    0.32
  -5  -1  -9    8.76    0.39
   5  -1   9    8.67    0.38
   5  -1   9    8.75    0.39
   5   1   9    8.17    0.37
  -5   1  -9    7.69    0.40
   5   1   9    8.57    0.39
   6  -1   9    5.30    0.31
   6  -1   9    5.77    0.30
  -6  -1  -9    5.97    0.33
   6   1   9    5.23    0.29
   6   1   9    5.72    0.31
  -6   1  -9    5.20    0.33
  -7  -1  -9    7.67    0.40
   7  -1   9    8.13    0.36
   7  -1   9    7.47    0.38
   7   1   9    7.49    0.37
   7   1   9    7.50    0.35
  -7   1  -9    7.63    0.42
  -8  -1  -9    8.67    0.45
   8  -1   9    8.27    0.42
   8  -1   9    9.06    0.39
   8   1   9    8.34    0.40
   8   1   9    8.92    0.37
  -8   1  -9    8.37    0.45
   9  -1   9   38.99    1.34
   9  -1   9   39.05    1.30
  -9  -1  -9   38.05    1.36
   9   1   9   37.68    1.29
   9   1   9   37.39    1.31
  -9   1  -9   39.04    1.38
  10  -1   9   14.41    0.61
  10  -1   9   14.01    0.55
 -10  -1  -9   13.95    0.64
 -10   1  -9   15.31    0.66
  10   1   9   13.23    0.53
  10   1   9   14.22    0.58
  11  -1   9   15.07    0.59
 -11  -1  -9   15.92    0.70
  11  -1   9   16.23    0.67
 -11   1  -9   15.55    0.71
  11   1   9   14.60    0.57
  11   1   9   15.90    0.63
  12  -1   9    0.34    0.22
 -12  -1  -9    0.28    0.23
  12  -1   9    0.15    0.12
 -12   1  -9    0.22    0.24
  12   1   9    0.21    0.11
  12   1   9    0.24    0.18
 -13  -1  -9    1.27    0.28
  13  -1   9    1.26    0.25
  13  -1   9    1.04    0.14
 -13   1  -9    1.12    0.30
  13   1   9    1.21    0.22
  13   1   9    0.95    0.13
  13  -2  -9    0.62    0.17
  13  -2  -9    0.28    0.09
 -13   2   9    0.46    0.31
  13   2  -9    0.30    0.07
  13   2  -9    0.23    0.21
  12  -2  -9    0.11    0.16
  12  -2  -9    0.17    0.09
  12   2  -9   -0.22    0.19
  12   2  -9    0.03    0.07
 -12   2   9   -0.03    0.28
  11  -2  -9    1.51    0.19
  11  -2  -9    1.82    0.18
 -11   2   9    1.56    0.30
  11   2  -9    1.79    0.16
  11   2  -9    2.31    0.26
  10  -2  -9   20.51    0.70
  10  -2  -9   20.96    0.74
 -10   2   9   17.86    0.82
  10   2  -9   18.81    0.69
  10   2  -9   19.81    0.78
   9  -2  -9    6.29    0.34
   9  -2  -9    6.49    0.30
  -9   2   9    6.20    0.44
   9   2  -9    6.43    0.39
   9   2  -9    6.37    0.30
   8  -2  -9    1.33    0.14
  -8  -2   9    1.26    0.18
   8  -2  -9    1.48    0.17
   8   2  -9    1.46    0.13
   8   2  -9    1.34    0.13
   8   2  -9    2.03    0.22
  -8   2   9    1.06    0.21
   7  -2  -9    3.61    0.22
   7  -2  -9    3.70    0.25
  -7  -2   9    3.22    0.26
   7   2  -9    3.73    0.30
  -7   2   9    3.42    0.34
   7   2  -9    3.71    0.21
   7   2  -9    3.46    0.22
   6  -2  -9    3.66    0.22
  -6  -2   9    3.36    0.26
   6  -2  -9    3.83    0.25
   6   2  -9    3.37    0.19
  -6   2   9    3.76    0.32
   6   2  -9    3.67    0.28
   6   2  -9    3.45    0.23
   5  -2  -9    2.07    0.18
  -5  -2   9    1.94    0.18
   5  -2  -9    2.40    0.19
   5   2  -9    2.04    0.19
   5   2  -9    1.98    0.20
  -5   2   9    2.24    0.23
   5   2  -9    2.28    0.17
   4  -2  -9    0.70    0.12
   4  -2  -9    1.02    0.12
  -4  -2   9    0.88    0.14
  -4   2   9    0.88    0.16
   4   2  -9    0.77    0.10
   4   2  -9    0.88    0.14
   4   2  -9    0.71    0.12
  -3  -2   9   11.68    0.46
   3  -2  -9   11.48    0.45
   3  -2  -9   11.41    0.46
   3   2  -9   11.62    0.44
   3   2  -9   11.46    0.46
   3   2  -9   11.77    0.47
  -3   2   9   12.11    0.49
   2  -2  -9   15.87    0.58
   2  -2  -9   15.98    0.58
  -2  -2   9   16.10    0.59
  -2   2   9   16.17    0.61
   2   2  -9   15.53    0.57
  -2   2   9   15.19    0.60
   2   2  -9   16.09    0.61
   2   2  -9   15.98    0.57
   1  -2  -9    1.94    0.18
  -1  -2   9    1.96    0.19
   1  -2  -9    2.58    0.19
  -1  -2   9    2.43    0.21
   1  -2  -9    2.27    0.13
  -1   2   9    2.28    0.23
  -1   2   9    2.38    0.21
   1   2  -9    2.07    0.17
   1   2  -9    2.51    0.22
   1   2  -9    2.17    0.16
   0  -2   9   16.79    0.67
   0  -2  -9   17.19    0.59
   0  -2   9   16.97    0.63
   0  -2  -9   17.09    0.61
   0  -2  -9   16.79    0.62
   0   2  -9   17.32    0.62
   0   2  -9   17.66    0.65
   0   2  -9   16.29    0.59
   0   2   9   17.41    0.64
   0   2   9   17.53    0.64
  -1  -2  -9    8.70    0.35
   1  -2   9    8.32    0.38
   1  -2   9    7.94    0.41
   1  -2   9    9.41    0.35
  -1  -2  -9    9.02    0.34
  -1  -2  -9    8.63    0.36
   1   2   9    8.27    0.38
  -1   2  -9    8.64    0.39
   1   2   9    8.54    0.38
  -1   2  -9    8.82    0.37
   2  -2   9   56.68    2.09
   2  -2   9   67.36    2.03
   2  -2   9   62.55    2.08
  -2  -2  -9   66.85    2.06
  -2  -2  -9   61.85    2.07
  -2  -2  -9   63.20    2.05
  -2   2  -9   61.35    2.09
   2   2   9   66.71    2.09
   2   2   9   62.01    2.07
  -2   2  -9   60.69    2.07
   3  -2   9    1.60    0.17
  -3  -2  -9    1.68    0.16
  -3  -2  -9    1.70    0.15
   3  -2   9    1.62    0.19
   3   2   9    1.52    0.16
  -3   2  -9    1.76    0.17
   3   2   9    1.63    0.16
  -3   2  -9    1.46    0.16
  -4  -2  -9   62.38    2.02
   4  -2   9   57.03    2.04
   4  -2   9   62.46    2.03
  -4  -2  -9   61.82    1.99
   4   2   9   61.83    2.03
   4   2   9   62.09    2.02
  -4   2  -9   60.67    2.04
   5  -2   9    8.86    0.44
  -5  -2  -9    9.51    0.43
   5  -2   9   10.33    0.44
  -5  -2  -9    9.54    0.38
   5   2   9   10.33    0.43
  -5   2  -9    9.38    0.45
   5   2   9    9.74    0.42
  -6  -2  -9    4.27    0.29
   6  -2   9    4.34    0.30
   6  -2   9    4.67    0.31
  -6  -2  -9    4.30    0.23
   6   2   9    4.28    0.28
  -6   2  -9    4.00    0.32
   6   2   9    4.47    0.28
   7  -2   9    2.91    0.26
  -7  -2  -9    3.04    0.29
   7  -2   9    2.77    0.26
   7   2   9    2.80    0.24
  -7   2  -9    2.59    0.26
   7   2   9    2.80    0.26
  -8  -2  -9   15.97    0.67
   8  -2   9   16.62    0.64
   8  -2   9   16.77    0.67
   8   2   9   16.41    0.62
   8   2   9   16.65    0.62
  -8   2  -9   14.79    0.69
  -9  -2  -9    0.89    0.22
   9  -2   9    0.78    0.16
   9  -2   9    0.72    0.20
  -9   2  -9    0.57    0.22
   9   2   9    0.76    0.14
   9   2   9    0.81    0.16
  10  -2   9    0.18    0.18
  10  -2   9    0.20    0.14
 -10  -2  -9    0.50    0.22
  10   2   9    0.20    0.12
 -10   2  -9    0.15    0.24
  10   2   9    0.11    0.15
  11  -2   9    4.88    0.40
  11  -2   9    4.90    0.31
 -11  -2  -9    4.77    0.40
  11   2   9    4.48    0.32
  11   2   9    4.09    0.27
 -11   2  -9    4.87    0.47
  12  -2   9    1.78    0.27
 -12  -2  -9    1.80    0.29
  12  -2   9    1.95    0.19
  12   2   9    1.53    0.16
 -12   2  -9    1.48    0.31
  12   2   9    1.79    0.22
  13  -2   9   11.19    0.48
  13  -2   9   11.40    0.56
 -13  -2  -9   12.13    0.65
 -13   2  -9   12.97    0.69
  13   2   9   11.04    0.45
  12  -3  -9    0.30    0.11
  12  -3  -9    0.24    0.16
 -12  -3   9    0.33    0.31
  12   3  -9    0.19    0.09
 -12   3   9    0.28    0.31
 -11  -3   9    8.50    0.62
  11  -3  -9   10.20    0.44
  11  -3  -9    9.39    0.40
  11   3  -9    9.09    0.37
 -11   3   9    9.03    0.60
 -10  -3   9   11.51    0.69
  10  -3  -9   10.87    0.48
  10  -3  -9   11.06    0.44
 -10   3   9   10.05    0.60
  10   3  -9   11.11    0.44
  10   3  -9   11.09    0.44
   9  -3  -9    1.06    0.17
  -9  -3   9    1.14    0.31
   9  -3  -9    1.04    0.14
  -9   3   9    0.99    0.24
   9   3  -9    1.27    0.14
   9   3  -9    1.17    0.14
   8  -3  -9   21.05    0.77
   8  -3  -9   21.38    0.75
  -8  -3   9   20.15    0.90
   8   3  -9   20.74    0.75
  -8   3   9   20.51    0.84
   8   3  -9   20.90    0.74
  -7  -3   9   34.24    1.32
   7  -3  -9   35.62    1.21
   7  -3  -9   36.66    1.22
   7   3  -9   36.20    1.21
   7   3  -9   35.36    1.20
  -7   3   9   34.77    1.27
  -6  -3   9    1.09    0.25
   6  -3  -9    1.30    0.15
   6  -3  -9    1.26    0.16
   6   3  -9    1.25    0.14
   6   3  -9    1.18    0.15
  -6   3   9    1.35    0.23
   5  -3  -9    1.33    0.14
   5  -3  -9    1.12    0.16
  -5  -3   9    1.50    0.23
   5   3  -9    1.24    0.15
   5   3  -9    1.12    0.14
  -5   3   9    1.18    0.19
  -4  -3   9   27.86    1.02
   4  -3  -9   30.90    1.04
   4  -3  -9   29.28    1.03
  -4  -3   9   28.53    1.08
   4   3  -9   30.87    1.05
   4   3  -9   30.77    1.03
  -4   3   9   30.96    1.08
   3  -3  -9    7.33    0.35
  -3  -3   9    7.45    0.39
   3  -3  -9    7.73    0.35
  -3  -3   9    7.32    0.35
   3   3  -9    7.50    0.36
  -3   3   9    7.84    0.41
   3   3  -9    7.70    0.33
  -2  -3   9   33.97    1.22
   2  -3  -9   36.08    1.22
  -2  -3   9   34.96    1.24
   2  -3  -9   36.01    1.22
  -2   3   9   37.68    1.25
   2   3  -9   36.60    1.22
   2   3  -9   36.35    1.24
   1  -3  -9   10.04    0.42
  -1  -3   9   10.07    0.43
   1  -3  -9    9.54    0.41
  -1  -3   9    9.65    0.43
  -1   3   9   10.67    0.45
   1   3  -9   10.26    0.44
   1   3  -9    9.85    0.41
  -1   3   9    9.76    0.44
   0  -3   9    0.27    0.16
   0  -3   9    0.18    0.11
   0  -3  -9    0.06    0.10
   0  -3  -9    0.20    0.11
   0  -3   9    0.07    0.12
   0  -3  -9    0.20    0.08
   0   3  -9    0.24    0.13
   0   3  -9    0.21    0.11
   0   3   9    0.16    0.12
   0   3   9   -0.09    0.13
  -1  -3  -9   10.72    0.44
   1  -3   9   10.47    0.50
   1  -3   9   11.02    0.46
   1  -3   9   11.31    0.42
  -1  -3  -9   10.53    0.44
   1   3   9   11.08    0.46
   1   3   9   10.47    0.41
  -1   3  -9   10.75    0.45
   1   3   9   10.99    0.45
  -1   3  -9   11.56    0.48
   2  -3   9    1.78    0.21
   2  -3   9    1.66    0.18
  -2  -3  -9    1.73    0.16
   2   3   9    1.53    0.15
   2   3   9    1.72    0.18
  -2   3  -9    1.73    0.19
  -2   3  -9    1.27    0.15
   2   3   9    1.55    0.17
  -3  -3  -9    0.51    0.12
   3  -3   9    0.52    0.16
   3  -3   9    0.28    0.16
   3   3   9    0.45    0.13
  -3   3  -9    0.52    0.14
   3   3   9    0.55    0.14
   3   3   9    0.37    0.11
   4  -3   9    1.77    0.21
  -4  -3  -9    1.79    0.16
   4  -3   9    1.71    0.21
  -4   3  -9    2.03    0.21
   4   3   9    1.87    0.18
   4   3   9    1.72    0.18
   4   3   9    1.31    0.16
   5  -3   9   18.04    0.70
  -5  -3  -9   17.29    0.64
   5  -3   9   16.92    0.71
  -5   3  -9   17.98    0.71
   5   3   9   18.93    0.68
   5   3   9   17.93    0.66
   5   3   9   17.31    0.67
   6  -3   9    3.08    0.31
   6  -3   9    3.97    0.32
  -6  -3  -9    3.79    0.25
   6   3   9    3.92    0.28
   6   3   9    4.04    0.28
  -6   3  -9    3.59    0.32
   6   3   9    3.80    0.28
   7  -3   9    6.19    0.39
  -7  -3  -9    6.09    0.31
   7  -3   9    5.56    0.37
   7   3   9    6.33    0.34
   7   3   9    6.37    0.33
  -7   3  -9    5.68    0.40
   7   3   9    5.78    0.35
   8  -3   9   19.40    0.77
   8  -3   9   21.28    0.81
   8   3   9   19.50    0.75
   8   3   9   20.60    0.75
   8   3   9   20.54    0.78
  -8   3  -9   19.25    0.83
   9  -3   9    2.04    0.22
   9  -3   9    2.18    0.26
   9   3   9    2.05    0.20
   9   3   9    2.10    0.20
   9   3   9    2.08    0.24
  -9   3  -9    1.65    0.29
  10  -3   9   19.30    0.78
  10  -3   9   19.28    0.75
  10   3   9   19.60    0.77
  10   3   9   19.09    0.72
 -10   3  -9   18.26    0.85
  11  -3   9   -0.09    0.23
 -11  -3  -9   -0.10    0.24
  11  -3   9    0.08    0.16
 -11   3  -9    0.10    0.28
  11   3   9    0.32    0.21
  11   3   9    0.07    0.14
 -12  -3  -9    0.18    0.25
  12  -3   9    0.06    0.16
  12  -3   9    0.07    0.23
  12   3   9    0.01    0.13
 -12   3  -9    0.22    0.31
  11  -4  -9    5.01    0.33
 -11  -4   9    4.81    0.50
  11  -4  -9    5.26    0.30
 -11   4   9    4.54    0.43
  11   4  -9    4.92    0.32
  11   4  -9    4.33    0.26
  10  -4  -9    0.13    0.13
  10  -4  -9   -0.04    0.17
 -10  -4   9    0.29    0.34
  10   4  -9    0.06    0.12
  10   4  -9    0.21    0.14
 -10   4   9    0.16    0.29
   9  -4  -9    2.08    0.22
   9  -4  -9    2.01    0.19
  -9  -4   9    2.53    0.38
  -9   4   9    1.65    0.31
   9   4  -9    2.00    0.19
   9   4  -9    2.01    0.18
   8  -4  -9   17.37    0.66
   8  -4  -9   17.18    0.64
  -8  -4   9   16.22    0.83
  -8   4   9   15.92    0.72
   8   4  -9   16.61    0.64
   8   4  -9   16.70    0.64
   7  -4  -9    4.62    0.32
  -7  -4   9    3.85    0.38
   7  -4  -9    4.43    0.28
   7   4  -9    4.90    0.30
   7   4  -9    4.54    0.29
  -7   4   9    4.83    0.41
   6  -4  -9    1.67    0.17
   6  -4  -9    1.85    0.20
  -6  -4   9    1.87    0.29
   6   4  -9    1.68    0.18
   6   4  -9    1.71    0.18
  -6   4   9    1.72    0.27
  -5  -4   9    2.53    0.29
   5  -4  -9    2.89    0.25
   5  -4  -9    2.72    0.27
  -5   4   9    3.00    0.28
   5   4  -9    3.12    0.26
   5   4  -9    2.98    0.25
   4  -4  -9   18.91    0.72
  -4  -4   9   18.89    0.79
   4  -4  -9   19.58    0.72
  -4   4   9   20.16    0.77
   4   4  -9   19.73    0.74
   4   4  -9   19.10    0.72
   3  -4  -9    3.73    0.28
   3  -4  -9    3.96    0.27
  -3  -4   9    4.50    0.35
  -3   4   9    3.64    0.32
   3   4  -9    3.54    0.26
   3   4  -9    4.02    0.29
   2  -4  -9    3.63    0.27
   2  -4  -9    3.42    0.26
  -2  -4   9    3.88    0.31
   2   4  -9    3.48    0.28
  -2   4   9    4.00    0.31
   2   4  -9    3.61    0.27
  -1  -4   9   20.28    0.80
   1  -4  -9   22.41    0.80
  -1  -4   9   21.96    0.81
   1  -4  -9   21.52    0.81
   1   4  -9   22.46    0.81
   1   4  -9   22.29    0.82
  -1   4   9   23.42    0.82
   0  -4  -9   19.84    0.73
   0  -4  -9   20.00    0.73
   0  -4   9   20.05    0.73
   0  -4   9   17.71    0.73
   0   4  -9   20.12    0.74
   0   4  -9   21.13    0.76
   0   4   9   19.83    0.74
  -1  -4  -9    0.06    0.14
   1  -4   9    0.07    0.14
   1  -4   9    0.08    0.11
   1   4   9    0.01    0.13
  -1   4  -9    0.10    0.15
  -1   4  -9    0.19    0.13
   1   4   9    0.37    0.14
   2  -4   9    7.61    0.44
   2  -4   9    6.86    0.40
  -2  -4  -9    7.78    0.38
  -2   4  -9    7.80    0.40
   2   4   9    8.28    0.40
   2   4   9    7.78    0.34
   2   4   9    7.79    0.38
   3  -4   9   20.18    0.81
  -3  -4  -9   21.20    0.78
   3  -4   9   21.38    0.84
   3   4   9   21.56    0.77
   3   4   9   21.63    0.80
   3   4   9   22.18    0.77
  -3   4  -9   21.05    0.81
  -4  -4  -9   10.78    0.46
   4  -4   9   10.11    0.49
   4  -4   9    9.95    0.53
   4   4   9   10.94    0.48
   4   4   9   11.47    0.46
   4   4   9   10.88    0.46
  -4   4  -9   10.59    0.50
   5  -4   9    1.35    0.22
  -5  -4  -9    1.60    0.19
   5  -4   9    1.49    0.22
   5   4   9    1.65    0.19
   5   4   9    1.35    0.18
   5   4   9    1.65    0.18
  -5   4  -9    1.45    0.22
  -6  -4  -9    7.54    0.39
   6  -4   9    7.12    0.44
   6  -4   9    8.12    0.46
   6   4   9    7.94    0.38
   6   4   9    7.78    0.40
  -6   4  -9    7.65    0.45
   6   4   9    7.89    0.39
   7  -4   9   15.34    0.68
   7  -4   9   15.53    0.67
  -7  -4  -9   15.54    0.61
  -7   4  -9   15.03    0.69
   7   4   9   16.09    0.63
   7   4   9   15.19    0.63
   8  -4   9    1.45    0.25
   8  -4   9    1.40    0.22
  -8   4  -9    1.61    0.26
   8   4   9    2.38    0.23
   8   4   9    1.62    0.20
   9  -4   9    1.95    0.26
   9  -4   9    1.46    0.22
   9   4   9    1.61    0.22
   9   4   9    1.92    0.20
  -9   4  -9    1.45    0.29
  10  -4   9    1.91    0.29
  10  -4   9    1.83    0.24
  10   4   9    1.82    0.25
 -10   4  -9    2.05    0.34
  10   4   9    1.87    0.21
  11  -4   9    7.03    0.50
  11  -4   9    6.95    0.43
  11   4   9    7.05    0.38
  11   4   9    7.91    0.46
 -11   4  -9    5.61    0.58
   9  -5  -9    8.79    0.45
   9  -5  -9    9.00    0.43
  -9  -5   9    8.52    0.66
   9   5  -9    8.67    0.42
  -9   5   9    7.93    0.57
   9   5  -9    8.51    0.41
  -8  -5   9    2.13    0.38
   8  -5  -9    2.43    0.24
   8  -5  -9    2.00    0.20
  -8   5   9    1.77    0.30
   8   5  -9    2.34    0.21
   8   5  -9    1.87    0.21
   7  -5  -9    1.35    0.21
  -7  -5   9    1.58    0.34
   7  -5  -9    1.63    0.19
   7   5  -9    1.52    0.19
  -7   5   9    1.64    0.29
   7   5  -9    1.31    0.19
  -6  -5   9    4.69    0.41
   6  -5  -9    4.54    0.32
   6  -5  -9    4.73    0.34
  -6   5   9    4.54    0.40
   6   5  -9    4.70    0.32
   6   5  -9    4.51    0.33
   5  -5  -9   -0.08    0.14
  -5  -5   9    0.07    0.25
   5  -5  -9    0.08    0.17
   5   5  -9   -0.02    0.15
   5   5  -9    0.05    0.14
  -5   5   9    0.17    0.21
   4  -5  -9    6.77    0.38
  -4  -5   9    6.80    0.48
   4  -5  -9    6.61    0.40
   4   5  -9    6.67    0.37
   4   5  -9    6.37    0.38
  -4   5   9    6.80    0.42
   3  -5  -9   11.12    0.51
  -3  -5   9   11.88    0.56
   3  -5  -9   10.99    0.50
   3   5  -9   10.25    0.51
  -3   5   9   11.63    0.53
   3   5  -9   11.15    0.50
  -2  -5   9    4.12    0.35
   2  -5  -9    4.13    0.34
   2  -5  -9    3.57    0.30
  -2   5   9    4.28    0.36
   2   5  -9    3.80    0.33
   2   5  -9    4.03    0.29
   1  -5  -9    2.52    0.25
  -1  -5   9    2.76    0.25
   1   5  -9    2.87    0.26
  -1   5   9    2.82    0.29
   1   5  -9    2.79    0.28
   0  -5   9   33.34    1.15
   0  -5  -9   33.20    1.17
   0   5  -9   31.46    1.17
   0   5   9   33.70    1.16
  -1  -5  -9    1.37    0.21
   1   5   9    1.97    0.20
  -1   5  -9    1.51    0.21
  -2  -5  -9    8.85    0.44
   2  -5   9    8.18    0.44
   2   5   9    8.13    0.44
   2   5   9    9.11    0.41
  -2   5  -9    8.29    0.44
  -3  -5  -9    4.45    0.33
   3  -5   9    3.89    0.35
  -3   5  -9    3.86    0.33
   3   5   9    3.76    0.32
   3   5   9    4.21    0.28
   4  -5   9    3.20    0.29
  -4  -5  -9    3.39    0.31
   4  -5   9    3.60    0.32
   4   5   9    3.48    0.28
  -4   5  -9    2.88    0.28
   4   5   9    3.14    0.31
  -5  -5  -9    0.71    0.20
   5  -5   9    0.38    0.21
   5  -5   9    0.72    0.22
   5   5   9    0.67    0.18
   5   5   9    0.45    0.16
  -5   5  -9    0.47    0.21
   6  -5   9   16.41    0.72
   6  -5   9   16.29    0.71
  -6  -5  -9   15.84    0.66
   6   5   9   15.83    0.66
   6   5   9   16.70    0.65
  -6   5  -9   15.82    0.71
   7  -5   9    5.30    0.43
   7  -5   9    4.40    0.43
  -7  -5  -9    4.66    0.37
  -7   5  -9    4.64    0.42
   7   5   9    5.13    0.35
   7   5   9    4.84    0.35
  -8  -5  -9    6.15    0.40
   8  -5   9    5.63    0.45
   8  -5   9    4.89    0.44
   8   5   9    6.29    0.40
   8   5   9    6.01    0.38
  -8   5  -9    5.75    0.48
   9  -5   9    5.03    0.42
   9  -5   9    5.05    0.46
   9   5   9    5.63    0.37
   9   5   9    6.07    0.40
  -9   5  -9    5.79    0.51
  -6  -6   9   17.01    0.84
   6  -6  -9   16.98    0.71
   6  -6  -9   16.50    0.68
   6   6  -9   16.36    0.68
   6   6  -9   17.04    0.69
  -6   6   9   16.51    0.74
   5  -6  -9    1.64    0.22
   5  -6  -9    2.13    0.26
  -5  -6   9    1.87    0.33
   5   6  -9    2.18    0.23
   5   6  -9    1.65    0.23
  -5   6   9    1.74    0.28
  -4  -6   9    2.70    0.33
   4  -6  -9    2.61    0.25
   4  -6  -9    2.56    0.27
  -4   6   9    2.52    0.30
   4   6  -9    2.12    0.24
   4   6  -9    2.00    0.24
  -3  -6   9   11.18    0.59
   3  -6  -9   10.77    0.54
   3   6  -9   10.59    0.52
  -3   6   9   11.73    0.57
   3   6  -9   10.75    0.53
  -2  -6   9    3.41    0.29
   2  -6  -9    3.14    0.30
   2   6  -9    2.55    0.26
   2   6  -9    2.75    0.26
  -2   6   9    2.89    0.28
   1  -6  -9    1.47    0.25
  -1  -6   9    1.40    0.22
   1   6  -9    1.69    0.23
  -1   6   9    1.43    0.23
   0  -6  -9    3.05    0.29
   0   6  -9    3.42    0.29
  -1  -6  -9    9.27    0.51
  -1   6  -9    8.24    0.48
  -2  -6  -9    0.14    0.22
  -2   6  -9   -0.03    0.19
  -3  -6  -9    2.00    0.26
  -3   6  -9    1.72    0.25
  -4  -6  -9    0.85    0.23
  -4   6  -9    0.98    0.23
   4   6   9    1.09    0.21
  -5  -6  -9    4.83    0.39
   5   6   9    4.79    0.36
  -5   6  -9    4.17    0.42
   5   6   9    4.84    0.36
   6  -6   9   10.78    0.58
  -6  -6  -9    9.98    0.54
   6  -6   9   10.55    0.57
   6   6   9   10.56    0.50
   6   6   9   10.36    0.51
  -6   6  -9    9.92    0.58
  13   0 -10    0.01    0.17
 -13   0  10   -0.07    0.27
  13   0 -10    0.03    0.07
  12   0 -10   16.61    0.57
 -12   0  10   14.42    0.74
  12   0 -10   17.35    0.67
  11   0 -10    0.08    0.17
 -11   0  10    0.12    0.24
  11   0 -10    0.16    0.09
  10   0 -10   26.21    0.88
  10   0 -10   27.31    0.94
 -10   0  10   23.14    0.97
   9   0 -10   -0.09    0.14
   9   0 -10    0.15    0.10
  -9   0  10    0.07    0.20
   8   0 -10  113.86    3.62
   8   0 -10  116.94    3.65
  -8   0  10  105.91    3.67
  -7   0  10    0.06    0.18
   7   0 -10    0.10    0.13
   7   0 -10    0.06    0.10
  -6   0  10    2.55    0.24
   6   0 -10    2.68    0.21
   6   0 -10    2.79    0.24
  -5   0  10    0.33    0.16
   5   0 -10    0.00    0.10
   5   0 -10   -0.13    0.11
   4   0 -10   13.23    0.50
   4   0 -10   12.67    0.51
  -4   0  10   12.83    0.53
   4   0 -10   12.64    0.45
   3   0 -10    0.03    0.06
   3   0 -10   -0.02    0.10
  -3   0  10    0.51    0.15
   3   0 -10    0.12    0.11
  -2   0  10  140.43    4.63
   2   0 -10  146.76    4.64
   2   0 -10  144.70    4.62
   2   0 -10  143.16    4.59
   1   0 -10    0.06    0.09
   1   0 -10    0.06    0.10
  -1   0  10   -0.04    0.12
   1   0 -10    0.12    0.07
  -1   0  10    0.05    0.11
   0   0  10   12.54    0.50
   0   0 -10   12.66    0.46
   0   0 -10   12.84    0.46
   0   0 -10   11.88    0.50
   1   0  10    0.06    0.10
  -1   0 -10    0.06    0.07
   1   0  10    0.06    0.12
  -1   0 -10    0.15    0.09
  -1   0 -10    0.02    0.10
  -2   0 -10    6.50    0.26
   2   0  10    6.30    0.33
  -2   0 -10    6.33    0.31
   2   0  10    6.33    0.32
  -2   0 -10    6.57    0.30
  -3   0 -10    0.06    0.10
   3   0  10    0.12    0.11
  -3   0 -10    0.11    0.11
   3   0  10   -0.04    0.12
  -3   0 -10   -0.02    0.06
   4   0  10    3.55    0.24
  -4   0 -10    2.91    0.24
   4   0  10    3.62    0.27
  -5   0 -10    0.51    0.15
   5   0  10    0.05    0.11
   6   0  10  271.42    8.75
  -6   0 -10  269.50    8.74
   6   0  10  273.11    8.75
   7   0  10    0.06    0.11
  -7   0 -10    0.18    0.16
   7   0  10    0.03    0.15
   8   0  10    6.68    0.32
   8   0  10    5.50    0.33
  -8   0 -10    5.95    0.39
   9   0  10    0.14    0.17
  -9   0 -10   -0.08    0.18
   9   0  10    0.07    0.11
 -10   0 -10   80.44    2.69
  10   0  10   79.61    2.62
  10   0  10   80.96    2.66
  11   0  10    0.21    0.19
 -11   0 -10    0.23    0.23
  11   0  10    0.09    0.13
  12   0  10   25.88    0.92
  12   0  10   26.36    0.99
 -12   0 -10   27.38    1.05
  13   0  10    0.17    0.21
  13   0  10    0.08    0.12
 -13   0 -10    0.22    0.26
  13  -1 -10    0.64    0.19
  13  -1 -10    0.72    0.10
  13   1 -10    0.72    0.08
  13   1 -10    0.77    0.21
 -13   1  10    0.71    0.31
  12  -1 -10    2.34    0.23
  12  -1 -10    2.60    0.18
 -12   1  10    2.41    0.33
  12   1 -10    2.89    0.27
  12   1 -10    2.47    0.17
  11  -1 -10   20.10    0.69
  11  -1 -10   19.96    0.75
 -11  -1  10   18.13    0.80
 -11   1  10   18.90    0.84
  11   1 -10   21.60    0.79
  11   1 -10   19.85    0.69
 -10  -1  10    3.64    0.35
  10  -1 -10    4.71    0.24
  10  -1 -10    4.89    0.32
  10   1 -10    4.29    0.35
  10   1 -10    4.23    0.23
 -10   1  10    4.02    0.41
  -9  -1  10   32.98    1.26
   9  -1 -10   37.47    1.24
   9  -1 -10   38.16    1.21
   9   1 -10   35.48    1.20
  -9   1  10   32.69    1.28
   9   1 -10   37.63    1.27
   8  -1 -10   25.63    0.84
  -8  -1  10   22.67    0.89
   8  -1 -10   23.72    0.86
   8   1 -10   23.71    0.84
   8   1 -10   24.60    0.89
  -8   1  10   23.52    0.92
   7  -1 -10    5.84    0.29
  -7  -1  10    5.12    0.34
   7  -1 -10    5.46    0.31
   7   1 -10    5.35    0.29
  -7   1  10    5.34    0.37
   7   1 -10    5.61    0.34
   6  -1 -10    1.47    0.15
  -6  -1  10    1.00    0.18
   6  -1 -10    0.97    0.14
   6   1 -10    1.21    0.18
  -6   1  10    1.19    0.21
   6   1 -10    0.87    0.14
   5  -1 -10    1.60    0.15
  -5  -1  10    1.47    0.19
   5  -1 -10    1.44    0.15
   5   1 -10    1.53    0.14
   5   1 -10    1.61    0.18
   5   1 -10    1.42    0.15
  -5   1  10    1.41    0.20
   4  -1 -10   17.15    0.63
  -4  -1  10   17.36    0.65
   4  -1 -10   16.95    0.63
   4   1 -10   16.13    0.64
   4   1 -10   17.12    0.64
  -4   1  10   16.76    0.67
   4   1 -10   16.96    0.59
  -3  -1  10   21.52    0.75
   3  -1 -10   20.77    0.73
   3  -1 -10   20.82    0.74
   3   1 -10   19.32    0.73
   3   1 -10   20.26    0.70
   3   1 -10   19.98    0.75
  -2  -1  10   76.47    2.49
   2  -1 -10   76.67    2.48
   2  -1 -10   74.63    2.47
   2  -1 -10   80.61    2.43
   2   1 -10   73.98    2.47
  -2   1  10   75.58    2.49
   2   1 -10   75.94    2.45
   2   1 -10   73.09    2.50
   1  -1 -10  151.94    4.93
  -1  -1  10  157.28    4.92
   1  -1 -10  150.71    4.93
   1  -1 -10  166.96    4.91
  -1  -1  10  138.22    4.94
  -1   1  10  156.10    4.92
   1   1 -10  157.11    4.95
   1   1 -10  150.60    4.93
   1   1 -10  156.55    4.90
  -1   1  10  141.85    4.93
   0  -1 -10   74.25    2.45
   0  -1 -10   75.90    2.43
   0  -1  10   76.10    2.45
   0  -1 -10   79.74    2.42
   0  -1  10   71.75    2.48
   0   1 -10   72.65    2.42
   0   1 -10   75.64    2.43
   0   1  10   75.73    2.45
   0   1  10   71.42    2.47
   0   1 -10   74.58    2.47
  -1  -1 -10    2.91    0.19
  -1  -1 -10    2.93    0.18
  -1  -1 -10    2.74    0.21
   1  -1  10    2.97    0.24
   1  -1  10    3.36    0.28
   1   1  10    3.13    0.23
   1   1  10    2.43    0.24
  -1   1 -10    3.16    0.21
  -1   1 -10    2.91    0.17
  -1   1 -10    3.20    0.25
  -2  -1 -10    5.24    0.23
   2  -1  10    5.56    0.32
   2  -1  10    5.19    0.30
  -2  -1 -10    4.84    0.25
  -2   1 -10    4.70    0.20
   2   1  10    4.67    0.29
  -2   1 -10    4.94    0.26
   2   1  10    4.99    0.29
  -2   1 -10    5.09    0.30
   3  -1  10   49.33    1.58
  -3  -1 -10   45.01    1.55
   3  -1  10   45.87    1.57
  -3  -1 -10   48.19    1.52
   3   1  10   46.67    1.56
   3   1  10   45.34    1.57
  -3   1 -10   45.44    1.56
  -4  -1 -10    3.97    0.25
   4  -1  10    4.37    0.28
  -4  -1 -10    4.14    0.20
   4  -1  10    4.10    0.29
  -4   1 -10    4.17    0.28
   4   1  10    4.09    0.27
   4   1  10    4.20    0.28
   5  -1  10   65.42    2.15
   5  -1  10   64.17    2.15
  -5  -1 -10   67.39    2.15
  -5   1 -10   59.46    2.15
   5   1  10   65.65    2.15
   5   1  10   66.73    2.15
   6  -1  10    0.11    0.12
   6  -1  10    0.24    0.15
   6   1  10    0.21    0.15
   6   1  10    0.25    0.12
  -6   1 -10    0.03    0.16
   7  -1  10    8.46    0.39
  -7  -1 -10    7.96    0.41
   7  -1  10    7.87    0.39
   7   1  10    7.72    0.40
   7   1  10    8.37    0.37
  -7   1 -10    7.76    0.43
   8  -1  10   19.87    0.71
  -8  -1 -10   18.79    0.74
   8  -1  10   19.38    0.73
   8   1  10   18.22    0.71
   8   1  10   18.38    0.69
  -8   1 -10   17.81    0.76
  -9  -1 -10    4.11    0.36
   9  -1  10    3.76    0.31
   9  -1  10    4.66    0.29
  -9   1 -10    4.28    0.40
   9   1  10    4.22    0.31
   9   1  10    4.42    0.27
 -10  -1 -10    6.91    0.44
  10  -1  10    6.26    0.41
  10  -1  10    6.44    0.34
 -10   1 -10    6.51    0.46
  10   1  10    5.88    0.32
  10   1  10    6.02    0.37
  11  -1  10    0.32    0.14
  11  -1  10    0.38    0.20
 -11  -1 -10    0.60    0.23
  11   1  10    0.44    0.14
  11   1  10    0.00    0.19
 -11   1 -10    0.49    0.25
  12  -1  10   19.97    0.81
 -12  -1 -10   20.91    0.86
  12  -1  10   20.04    0.74
  12   1  10   18.44    0.72
 -12   1 -10   21.59    0.89
  12   1  10   20.78    0.79
  13  -1  10   36.36    1.34
  13  -1  10   36.62    1.26
 -13  -1 -10   39.50    1.39
 -13   1 -10   38.53    1.41
  13   1  10   37.87    1.33
  13   1  10   35.12    1.25
  12  -2 -10    2.00    0.18
  12  -2 -10    2.12    0.21
 -12   2  10    2.23    0.36
  12   2 -10    1.89    0.26
  12   2 -10    1.73    0.16
  11  -2 -10   38.55    1.25
  11  -2 -10   38.39    1.28
  11   2 -10   38.96    1.34
 -11   2  10   33.11    1.37
  11   2 -10   36.74    1.24
  10  -2 -10    1.65    0.19
  10  -2 -10    2.04    0.20
  10   2 -10    2.02    0.25
 -10   2  10    1.34    0.29
  10   2 -10    1.72    0.15
   9  -2 -10   11.40    0.47
   9  -2 -10   11.46    0.45
   9   2 -10   11.17    0.53
   9   2 -10   10.75    0.44
  -9   2  10   10.05    0.57
   8  -2 -10    7.68    0.34
  -8  -2  10    6.08    0.39
   8  -2 -10    7.43    0.36
   8   2 -10    7.38    0.34
  -8   2  10    6.72    0.45
   8   2 -10    8.22    0.43
   7  -2 -10   60.92    1.94
  -7  -2  10   54.85    1.95
   7  -2 -10   60.04    1.95
  -7   2  10   56.84    1.99
   7   2 -10   58.51    1.94
   7   2 -10   61.22    1.98
   7   2 -10   58.18    1.92
  -6  -2  10    5.73    0.34
   6  -2 -10    6.36    0.32
   6  -2 -10    6.47    0.31
   6   2 -10    6.30    0.37
   6   2 -10    5.90    0.31
  -6   2  10    5.86    0.37
   6   2 -10    6.14    0.28
   5  -2 -10   39.30    1.33
  -5  -2  10   37.60    1.34
   5  -2 -10   39.85    1.33
  -5   2  10   41.59    1.38
   5   2 -10   39.33    1.35
   5   2 -10   39.66    1.34
   5   2 -10   38.34    1.31
   4  -2 -10   52.62    1.74
   4  -2 -10   50.29    1.73
  -4  -2  10   50.27    1.74
   4   2 -10   51.40    1.72
   4   2 -10   53.37    1.75
  -4   2  10   55.07    1.77
   4   2 -10   53.19    1.75
  -3  -2  10    2.39    0.22
   3  -2 -10    2.39    0.21
   3  -2 -10    2.71    0.20
   3   2 -10    2.60    0.19
  -3   2  10    2.38    0.24
   3   2 -10    2.64    0.24
   3   2 -10    2.33    0.21
  -2  -2  10    3.87    0.26
   2  -2 -10    4.44    0.24
   2  -2 -10    3.71    0.24
   2   2 -10    4.39    0.22
  -2   2  10    4.15    0.31
   2   2 -10    4.30    0.28
   2   2 -10    3.74    0.23
  -1  -2  10   47.68    1.61
   1  -2 -10   47.10    1.59
   1  -2 -10   47.56    1.60
  -1   2  10   49.71    1.62
  -1   2  10   45.96    1.62
   1   2 -10   48.11    1.58
   1   2 -10   48.13    1.59
   1   2 -10   50.47    1.64
   0  -2 -10    4.84    0.22
   0  -2  10    4.99    0.29
   0  -2  10    4.57    0.33
   0  -2 -10    5.22    0.26
   0  -2 -10    4.74    0.26
   0   2 -10    4.87    0.23
   0   2  10    5.00    0.30
   0   2  10    5.19    0.30
   0   2 -10    4.96    0.31
   0   2 -10    5.14    0.26
   1  -2  10   22.02    0.90
   1  -2  10   23.74    0.87
  -1  -2 -10   24.14    0.84
   1  -2  10   26.61    0.83
  -1  -2 -10   23.79    0.85
  -1  -2 -10   24.23    0.83
  -1   2 -10   24.75    0.85
  -1   2 -10   24.39    0.89
   1   2  10   23.94    0.86
   1   2  10   24.81    0.88
  -2  -2 -10    0.82    0.12
   2  -2  10    0.75    0.16
  -2  -2 -10    0.71    0.12
  -2  -2 -10    0.59    0.11
   2  -2  10    0.57    0.16
  -2   2 -10    0.81    0.14
   2   2  10    0.66    0.15
   2   2  10    0.84    0.16
  -2   2 -10    0.93    0.14
   3  -2  10    8.06    0.43
   3  -2  10    9.32    0.42
  -3  -2 -10    9.29    0.39
  -3  -2 -10    9.06    0.36
  -3   2 -10    8.80    0.40
   3   2  10    9.33    0.41
   3   2  10    8.73    0.42
   4  -2  10   71.42    2.32
   4  -2  10   67.72    2.33
  -4  -2 -10   70.30    2.27
  -4  -2 -10   70.44    2.30
   4   2  10   72.87    2.31
  -4   2 -10   68.67    2.32
   4   2  10   68.36    2.31
  -5  -2 -10   51.36    1.67
   5  -2  10   51.47    1.72
  -5  -2 -10   52.71    1.72
   5  -2  10   51.98    1.73
   5   2  10   49.43    1.71
  -5   2 -10   47.88    1.73
   5   2  10   51.62    1.71
   6  -2  10    4.77    0.33
   6  -2  10    4.83    0.33
  -6  -2 -10    4.78    0.32
   6   2  10    4.57    0.32
  -6   2 -10    4.34    0.35
   6   2  10    4.59    0.30
   7  -2  10   97.45    3.07
   7  -2  10   96.97    3.08
  -7  -2 -10   95.68    3.08
   7   2  10   95.45    3.06
   7   2  10   93.97    3.06
  -7   2 -10   81.44    3.09
   8  -2  10    6.78    0.37
   8  -2  10    6.88    0.40
  -8  -2 -10    6.85    0.43
   8   2  10    6.87    0.36
  -8   2 -10    5.63    0.43
   8   2  10    6.03    0.35
   9  -2  10   82.32    2.74
  -9  -2 -10   83.73    2.76
   9  -2  10   85.90    2.72
  -9   2 -10   77.79    2.77
   9   2  10   81.88    2.70
   9   2  10   83.58    2.72
  10  -2  10    5.49    0.34
  10  -2  10    4.87    0.40
 -10  -2 -10    5.60    0.43
  10   2  10    4.94    0.35
 -10   2 -10    5.27    0.46
  10   2  10    4.97    0.31
  11  -2  10    0.25    0.22
  11  -2  10    0.41    0.16
 -11  -2 -10    0.29    0.24
  11   2  10    0.47    0.18
 -11   2 -10    0.34    0.28
  11   2  10    0.34    0.14
  12  -2  10   28.74    1.09
  12  -2  10   27.63    1.02
 -12  -2 -10   30.17    1.13
  12   2  10   26.58    0.99
  12   2  10   30.26    1.05
 -12   2 -10   30.44    1.17
 -11  -3  10    2.39    0.39
  11  -3 -10    3.33    0.29
  11  -3 -10    3.00    0.24
  11   3 -10    3.00    0.22
 -11   3  10    2.56    0.34
  10  -3 -10    0.12    0.15
  10  -3 -10   -0.01    0.12
 -10  -3  10    0.08    0.30
 -10   3  10    0.24    0.28
  10   3 -10    0.13    0.11
   9  -3 -10    0.62    0.17
   9  -3 -10    0.81    0.14
  -9  -3  10    0.60    0.31
  -9   3  10    0.47    0.24
   9   3 -10    0.81    0.14
   9   3 -10    0.61    0.14
   8  -3 -10    0.34    0.12
   8  -3 -10    0.28    0.15
  -8  -3  10    0.47    0.29
   8   3 -10    0.43    0.13
   8   3 -10    0.36    0.13
   8   3 -10    0.39    0.20
  -8   3  10    0.36    0.24
   7  -3 -10   15.85    0.59
  -7  -3  10   13.94    0.74
   7  -3 -10   15.25    0.60
   7   3 -10   15.89    0.57
   7   3 -10   15.75    0.65
  -7   3  10   14.80    0.68
   7   3 -10   14.79    0.59
   6  -3 -10   20.94    0.76
  -6  -3  10   19.42    0.85
   6  -3 -10   19.97    0.74
   6   3 -10   21.12    0.73
  -6   3  10   19.91    0.81
   6   3 -10   20.19    0.75
   5  -3 -10    5.63    0.30
  -5  -3  10    4.78    0.40
   5  -3 -10    5.41    0.31
  -5   3  10    4.95    0.36
   5   3 -10    5.37    0.31
   5   3 -10    5.31    0.29
   4  -3 -10   43.46    1.45
  -4  -3  10   42.73    1.50
  -4  -3  10   40.55    1.45
   4  -3 -10   43.91    1.45
   4   3 -10   42.52    1.44
   4   3 -10   44.62    1.47
  -4   3  10   43.70    1.49
   3  -3 -10    9.50    0.40
  -3  -3  10    8.36    0.40
   3  -3 -10    8.88    0.40
  -3  -3  10    9.25    0.45
  -3   3  10    9.19    0.44
   3   3 -10    9.06    0.38
   3   3 -10    8.66    0.42
   2  -3 -10   17.17    0.64
   2  -3 -10   16.81    0.64
  -2  -3  10   17.77    0.67
  -2  -3  10   16.23    0.65
   2   3 -10   17.31    0.64
   2   3 -10   17.91    0.68
  -2   3  10   17.39    0.69
  -1  -3  10   16.56    0.62
   1  -3 -10   16.59    0.62
  -1  -3  10   15.42    0.63
   1  -3 -10   15.55    0.62
   1   3 -10   17.07    0.66
   1   3 -10   15.83    0.61
  -1   3  10   17.44    0.65
   0  -3 -10   30.45    1.08
   0  -3  10   30.27    1.08
   0  -3 -10   30.59    1.06
   0  -3  10   32.16    1.06
   0   3 -10   32.62    1.11
   0   3  10   30.43    1.10
   0   3 -10   30.31    1.07
   0   3  10   31.72    1.09
   1  -3  10   22.89    0.84
  -1  -3 -10   23.84    0.80
  -1  -3 -10   22.65    0.82
   1  -3  10   22.81    0.89
  -1   3 -10   22.80    0.83
  -1   3 -10   23.34    0.87
   1   3  10   23.96    0.85
   1   3  10   22.81    0.84
   2  -3  10  140.85    4.84
  -2  -3 -10  152.16    4.78
  -2  -3 -10  156.46    4.78
   2  -3  10  150.30    4.81
   2   3  10  149.66    4.80
  -2   3 -10  142.77    4.80
   2   3  10  149.43    4.81
   3  -3  10    0.47    0.16
  -3  -3 -10    0.60    0.13
  -3  -3 -10    0.47    0.13
   3  -3  10    0.79    0.19
   3   3  10    0.62    0.15
   3   3  10    0.40    0.13
  -3   3 -10    0.75    0.16
  -4  -3 -10    4.25    0.28
   4  -3  10    4.21    0.31
   4  -3  10    3.67    0.34
  -4  -3 -10    4.27    0.25
   4   3  10    4.29    0.30
   4   3  10    3.95    0.28
  -4   3 -10    3.79    0.31
   5  -3  10    0.21    0.17
  -5  -3 -10    0.21    0.12
   5  -3  10    0.30    0.18
  -5  -3 -10    0.15    0.15
   5   3  10    0.25    0.14
   5   3  10    0.19    0.14
   5   3  10    0.43    0.16
  -5   3 -10    0.27    0.16
   6  -3  10   18.68    0.72
   6  -3  10   16.83    0.71
  -6  -3 -10   17.15    0.65
  -6  -3 -10   18.13    0.70
   6   3  10   17.59    0.68
  -6   3 -10   16.64    0.72
   6   3  10   18.94    0.69
   6   3  10   17.84    0.69
   7  -3  10    0.74    0.19
  -7  -3 -10    0.59    0.19
   7  -3  10    0.71    0.21
   7   3  10    1.10    0.19
   7   3  10    0.94    0.19
  -7   3 -10    0.59    0.20
   7   3  10    0.57    0.16
   8  -3  10   13.12    0.59
   8  -3  10   13.07    0.57
  -8  -3 -10   11.81    0.59
   8   3  10   12.80    0.53
   8   3  10   11.84    0.53
  -8   3 -10   11.09    0.61
   9  -3  10    6.93    0.45
  -9  -3 -10    7.17    0.45
   9  -3  10    7.41    0.42
  -9   3 -10    5.91    0.46
   9   3  10    7.23    0.38
   9   3  10    6.89    0.38
 -10  -3 -10   22.72    0.90
  10  -3  10   22.59    0.89
  10  -3  10   22.23    0.85
  10   3  10   22.05    0.82
 -10   3 -10   20.81    0.94
 -11  -3 -10   29.55    1.10
  11  -3  10   28.30    1.08
  11  -3  10   27.76    1.03
 -11   3 -10   28.07    1.15
  11   3  10   27.67    1.00
 -10  -4  10    0.42    0.35
  10  -4 -10    0.15    0.14
  10  -4 -10    0.02    0.17
  10   4 -10    0.27    0.13
 -10   4  10   -0.08    0.29
  10   4 -10    0.20    0.14
   9  -4 -10    0.16    0.17
  -9  -4  10    0.22    0.32
   9  -4 -10    0.04    0.14
  -9   4  10    0.36    0.27
   9   4 -10   -0.01    0.13
   9   4 -10    0.00    0.13
  -8  -4  10   22.45    1.01
   8  -4 -10   23.87    0.87
   8  -4 -10   24.14    0.86
   8   4 -10   23.77    0.85
  -8   4  10   22.39    0.95
   8   4 -10   23.83    0.86
   7  -4 -10   12.07    0.51
   7  -4 -10   11.58    0.53
  -7  -4  10   11.59    0.66
  -7   4  10   11.95    0.60
   7   4 -10   12.62    0.52
   7   4 -10   12.66    0.51
   6  -4 -10    1.29    0.20
   6  -4 -10    1.51    0.18
  -6  -4  10    1.30    0.28
  -6   4  10    1.45    0.26
   6   4 -10    1.48    0.18
   6   4 -10    1.16    0.17
   5  -4 -10   99.65    3.19
   5  -4 -10   99.23    3.20
  -5  -4  10   97.31    3.25
   5   4 -10   97.69    3.19
   5   4 -10   97.20    3.21
  -5   4  10   95.83    3.23
   4  -4 -10    6.63    0.37
  -4  -4  10    6.45    0.44
   4  -4 -10    6.45    0.35
  -4   4  10    6.89    0.43
   4   4 -10    6.47    0.37
   4   4 -10    6.33    0.34
   3  -4 -10    1.33    0.18
   3  -4 -10    1.17    0.16
  -3  -4  10    1.52    0.23
  -3   4  10    1.59    0.24
   3   4 -10    1.33    0.17
   3   4 -10    0.88    0.18
   2  -4 -10    1.02    0.17
  -2  -4  10    1.04    0.19
   2  -4 -10    1.05    0.16
   2   4 -10    1.09    0.17
  -2   4  10    1.01    0.21
   2   4 -10    0.95    0.18
  -1  -4  10    1.86    0.21
   1  -4 -10    1.73    0.19
   1  -4 -10    1.48    0.18
  -1  -4  10    1.76    0.20
   1   4 -10    2.20    0.23
  -1   4  10    1.70    0.21
   1   4 -10    1.44    0.18
   0  -4 -10    0.21    0.15
   0  -4  10    0.49    0.15
   0  -4  10    0.33    0.16
   0   4  10    0.10    0.16
   0   4 -10    0.38    0.14
   0   4 -10    0.25    0.15
  -1  -4 -10   31.62    1.08
   1  -4  10   30.91    1.09
   1   4  10   31.49    1.08
  -1   4 -10   29.04    1.08
   1   4  10   29.89    1.10
  -2  -4 -10    7.51    0.36
   2  -4  10    6.76    0.39
   2   4  10    7.30    0.37
   2   4  10    6.95    0.39
  -2   4 -10    7.03    0.39
  -3  -4 -10   58.93    1.96
   3  -4  10   56.87    2.03
   3  -4  10   60.55    2.00
   3   4  10   60.30    1.99
   3   4  10   59.86    1.96
  -3   4 -10   56.89    1.99
   3   4  10   60.24    1.97
   4  -4  10    5.03    0.36
   4  -4  10    4.73    0.39
  -4  -4 -10    4.91    0.32
   4   4  10    5.29    0.33
   4   4  10    4.91    0.33
   4   4  10    5.15    0.32
  -4   4 -10    4.42    0.35
   5  -4  10    6.83    0.45
  -5  -4 -10    6.77    0.36
   5  -4  10    7.25    0.43
   5   4  10    7.14    0.40
  -5   4 -10    6.41    0.42
   5   4  10    7.94    0.39
   5   4  10    7.49    0.39
   6  -4  10   36.02    1.36
  -6  -4 -10   37.08    1.30
   6  -4  10   39.18    1.36
   6   4  10   39.44    1.33
  -6   4 -10   35.63    1.36
   6   4  10   39.76    1.31
   6   4  10   37.67    1.32
   7  -4  10    3.40    0.31
   7  -4  10    3.23    0.29
  -7  -4 -10    3.53    0.32
   7   4  10    3.66    0.32
  -7   4 -10    3.36    0.33
   7   4  10    3.73    0.31
   8  -4  10   10.16    0.54
   8  -4  10   11.07    0.56
  -8   4 -10    9.92    0.58
   8   4  10   10.82    0.50
   8   4  10   10.56    0.51
   9  -4  10   46.28    1.59
   9  -4  10   45.31    1.57
  -9   4 -10   41.39    1.62
   9   4  10   43.80    1.53
   9   4  10   45.75    1.56
  10  -4  10   12.30    0.63
  10  -4  10   12.18    0.59
  10   4  10   12.38    0.55
  10   4  10   12.90    0.60
 -10   4 -10   11.50    0.69
   8  -5 -10   -0.04    0.15
  -8  -5  10    0.25    0.34
   8  -5 -10    0.13    0.19
   8   5 -10    0.10    0.16
   8   5 -10   -0.07    0.15
  -8   5  10    0.18    0.27
   7  -5 -10   16.30    0.66
   7  -5 -10   15.86    0.64
  -7  -5  10   15.04    0.79
   7   5 -10   16.63    0.65
   7   5 -10   16.01    0.64
  -7   5  10   15.00    0.72
   6  -5 -10   34.44    1.22
  -6  -5  10   34.77    1.33
   6  -5 -10   35.75    1.24
   6   5 -10   34.90    1.24
   6   5 -10   34.52    1.22
  -6   5  10   35.04    1.28
  -5  -5  10    1.32    0.29
   5  -5 -10    1.09    0.21
   5  -5 -10    1.21    0.19
  -5   5  10    1.44    0.28
   5   5 -10    1.22    0.20
   5   5 -10    1.11    0.19
   4  -5 -10   10.39    0.50
  -4  -5  10   11.04    0.59
   4  -5 -10   10.82    0.50
  -4   5  10   10.99    0.57
   4   5 -10   11.04    0.52
   4   5 -10   10.38    0.49
   3  -5 -10   17.89    0.71
   3  -5 -10   17.45    0.71
  -3  -5  10   18.72    0.76
   3   5 -10   18.45    0.74
  -3   5  10   17.75    0.74
   3   5 -10   17.67    0.70
  -2  -5  10    9.56    0.49
   2  -5 -10    9.49    0.47
   2   5 -10    9.73    0.50
  -2   5  10    9.84    0.50
   2   5 -10    9.42    0.46
   1  -5 -10   30.62    1.12
  -1  -5  10   32.26    1.12
  -1   5  10   32.20    1.13
   1   5 -10   31.97    1.15
   1   5 -10   29.95    1.12
   0  -5 -10    2.38    0.24
   0   5  10    2.17    0.23
   0   5 -10    2.09    0.23
  -1  -5 -10   33.24    1.16
  -1   5 -10   31.65    1.17
   1   5  10   33.62    1.16
  -2  -5 -10   20.34    0.77
  -2   5 -10   19.16    0.78
   2   5  10   20.11    0.75
   3  -5  10   48.37    1.70
  -3  -5 -10   50.87    1.68
   3   5  10   49.87    1.69
  -3   5 -10   47.36    1.69
  -4  -5 -10    5.47    0.37
   4  -5  10    4.64    0.41
  -4   5 -10    5.18    0.39
   4   5  10    5.01    0.37
  -5  -5 -10   17.92    0.71
   5  -5  10   16.31    0.76
   5  -5  10   17.62    0.78
  -5   5 -10   17.42    0.76
   5   5  10   18.22    0.69
   5   5  10   18.73    0.73
  -6  -5 -10    2.04    0.24
   6  -5  10    1.76    0.28
   6  -5  10    1.84    0.28
   6   5  10    2.49    0.24
  -6   5 -10    2.08    0.28
   6   5  10    1.83    0.22
   7  -5  10    1.73    0.29
  -7  -5 -10    1.98    0.24
   7  -5  10    1.84    0.27
   7   5  10    2.21    0.25
  -7   5 -10    2.29    0.30
   7   5  10    2.05    0.23
   8  -5  10   11.11    0.61
   8  -5  10   11.36    0.61
   8   5  10   12.30    0.55
   8   5  10   11.48    0.56
  -8   5 -10   11.33    0.64
  -4  -6  10   35.51    1.31
   4  -6 -10   34.31    1.25
   4   6 -10   32.83    1.25
  -4   6  10   35.50    1.27
   4   6 -10   35.58    1.25
  -3  -6  10    9.18    0.53
   3  -6 -10    7.93    0.47
   3   6 -10    7.13    0.44
  -3   6  10    8.00    0.49
   3   6 -10    7.79    0.47
   2  -6 -10    8.24    0.49
  -2  -6  10    9.23    0.52
   2   6 -10    9.29    0.48
  -2   6  10    9.95    0.51
   1  -6 -10    2.14    0.27
  -1   6  10    2.40    0.26
   1   6 -10    1.71    0.23
   0  -6 -10    9.08    0.49
   0   6 -10    8.00    0.47
  -1  -6 -10   18.81    0.75
  -1   6 -10   17.46    0.75
  -2  -6 -10    0.46    0.22
  -2   6 -10    0.30    0.20
  -3  -6 -10    0.34    0.22
  -3   6 -10    0.46    0.22
  -4  -6 -10   41.91    1.42
  -4   6 -10   38.01    1.44
  12   0 -11    0.06    0.19
 -12   0  11   -0.05    0.25
  12   0 -11    0.07    0.09
 -11   0  11   31.38    1.31
  11   0 -11   37.36    1.20
  11   0 -11   38.12    1.27
 -10   0  11   -0.12    0.23
  10   0 -11    0.13    0.11
  10   0 -11   -0.12    0.17
  -9   0  11   20.22    0.88
   9   0 -11   23.77    0.85
   9   0 -11   23.86    0.80
  -8   0  11    0.14    0.21
   8   0 -11    0.10    0.15
   8   0 -11    0.11    0.11
  -7   0  11   52.55    1.89
   7   0 -11   56.98    1.85
   7   0 -11   57.48    1.86
  -6   0  11    0.06    0.18
   6   0 -11    0.10    0.13
   6   0 -11    0.03    0.11
  -5   0  11   12.36    0.57
   5   0 -11   13.75    0.54
   5   0 -11   13.57    0.53
  -4   0  11    0.16    0.15
   4   0 -11    0.00    0.11
   4   0 -11    0.05    0.12
  -3   0  11    0.14    0.16
   3   0 -11    0.01    0.11
   3   0 -11   -0.04    0.11
   2   0 -11    0.01    0.07
   2   0 -11    0.05    0.12
  -2   0  11    0.11    0.13
   2   0 -11   -0.07    0.09
   1   0 -11    0.66    0.10
   1   0 -11    0.65    0.13
  -1   0  11    0.43    0.15
   1   0 -11    0.61    0.11
   0   0 -11    0.03    0.09
   0   0 -11    0.10    0.09
   0   0 -11    0.03    0.11
   0   0  11    0.06    0.12
   0   0  11   -0.06    0.12
   1   0  11    5.91    0.34
  -1   0 -11    6.77    0.30
  -1   0 -11    6.27    0.27
  -1   0 -11    6.12    0.33
   2   0  11    0.14    0.12
  -2   0 -11   -0.01    0.07
  -2   0 -11    0.03    0.12
   2   0  11    0.08    0.12
  -2   0 -11    0.01    0.11
   3   0  11   31.93    1.08
  -3   0 -11   29.56    1.05
   3   0  11   29.56    1.06
  -4   0 -11    0.05    0.13
   4   0  11    0.11    0.16
   4   0  11    0.02    0.11
   5   0  11   16.47    0.62
  -5   0 -11   16.32    0.64
   5   0  11   15.63    0.65
   6   0  11   -0.04    0.12
  -6   0 -11   -0.06    0.16
   6   0  11   -0.12    0.14
  -7   0 -11   74.27    2.42
   7   0  11   72.10    2.40
   7   0  11   71.40    2.39
   8   0  11    0.10    0.18
  -8   0 -11    0.31    0.19
   8   0  11    0.10    0.13
   9   0  11    3.20    0.29
   9   0  11    3.12    0.26
  -9   0 -11    3.14    0.30
  10   0  11    0.05    0.19
 -10   0 -11    0.17    0.22
  10   0  11    0.26    0.14
  11   0  11   12.52    0.53
  11   0  11   13.11    0.60
 -11   0 -11   13.79    0.65
 -12   0 -11    0.20    0.24
  12   0  11    0.16    0.14
  12   0  11    0.00    0.20
  12  -1 -11    0.13    0.17
  12  -1 -11    0.12    0.10
  12   1 -11    0.08    0.10
  12   1 -11   -0.11    0.19
 -12   1  11    0.02    0.28
  11  -1 -11    0.85    0.12
  11  -1 -11    1.03    0.19
  11   1 -11    1.04    0.21
 -11   1  11    0.72    0.28
  11   1 -11    0.69    0.12
 -10  -1  11   -0.15    0.21
  10  -1 -11    0.05    0.10
  10  -1 -11    0.12    0.16
  10   1 -11    0.11    0.11
  10   1 -11    0.11    0.18
 -10   1  11    0.18    0.25
   9  -1 -11    4.51    0.27
  -9  -1  11    4.27    0.39
   9  -1 -11    4.59    0.31
  -9   1  11    4.12    0.41
   9   1 -11    4.28    0.34
   9   1 -11    4.57    0.26
  -8  -1  11    3.14    0.33
   8  -1 -11    3.42    0.27
   8  -1 -11    3.25    0.24
  -8   1  11    2.53    0.29
   8   1 -11    3.24    0.31
   8   1 -11    3.18    0.24
  -7  -1  11    1.71    0.23
   7  -1 -11    1.71    0.19
   7  -1 -11    1.91    0.17
   7   1 -11    1.66    0.21
  -7   1  11    1.84    0.25
   7   1 -11    1.80    0.17
  -6  -1  11    0.42    0.18
   6  -1 -11    0.46    0.12
   6  -1 -11    0.25    0.13
  -6   1  11    0.27    0.20
   6   1 -11    0.45    0.13
   6   1 -11    0.29    0.15
   5  -1 -11    9.65    0.41
   5  -1 -11    9.35    0.40
  -5  -1  11    8.89    0.44
  -5   1  11    9.07    0.45
   5   1 -11    8.69    0.42
   5   1 -11    8.93    0.42
   4  -1 -11   32.12    1.13
   4  -1 -11   36.08    1.15
  -4  -1  11   32.46    1.16
   4   1 -11   31.69    1.15
   4   1 -11   32.57    1.10
   4   1 -11   34.06    1.16
  -4   1  11   33.05    1.18
  -3  -1  11   19.13    0.72
   3  -1 -11   20.02    0.71
   3  -1 -11   18.55    0.69
   3   1 -11   19.10    0.72
   3   1 -11   18.84    0.66
   3   1 -11   18.33    0.70
  -3   1  11   19.61    0.74
  -2  -1  11    4.01    0.29
   2  -1 -11    3.59    0.23
   2  -1 -11    3.87    0.25
   2   1 -11    3.58    0.24
   2   1 -11    3.40    0.27
  -2   1  11    3.78    0.30
   2   1 -11    3.69    0.20
   1  -1 -11   24.78    0.85
   1  -1 -11   25.48    0.82
   1  -1 -11   24.33    0.87
  -1  -1  11   24.37    0.88
  -1   1  11   24.20    0.88
   1   1 -11   24.26    0.84
   1   1 -11   24.11    0.89
   1   1 -11   23.36    0.84
   0  -1  11   60.38    2.04
   0  -1 -11   60.10    1.98
   0  -1 -11   64.10    1.97
   0  -1 -11   59.79    2.00
   0  -1  11   62.65    2.01
   0   1 -11   58.69    1.97
   0   1  11   60.04    2.01
   0   1 -11   60.65    2.02
   0   1 -11   61.27    1.98
   0   1  11   56.60    2.02
  -1  -1 -11   38.69    1.27
   1  -1  11   38.65    1.32
  -1  -1 -11   39.11    1.28
  -1  -1 -11   36.88    1.30
   1  -1  11   38.81    1.34
   1   1  11   39.14    1.32
  -1   1 -11   38.01    1.33
  -1   1 -11   36.94    1.26
   1   1  11   36.71    1.32
  -1   1 -11   39.82    1.29
  -2  -1 -11    5.16    0.25
  -2  -1 -11    5.10    0.27
   2  -1  11    5.09    0.32
   2  -1  11    5.19    0.34
   2   1  11    5.07    0.31
   2   1  11    4.76    0.30
  -2   1 -11    5.23    0.31
  -2   1 -11    5.12    0.28
  -3  -1 -11    0.27    0.12
   3  -1  11    0.57    0.17
  -3  -1 -11    0.27    0.09
   3  -1  11    0.27    0.14
  -3   1 -11    0.38    0.14
   3   1  11    0.24    0.12
   3   1  11    0.32    0.14
  -4  -1 -11    4.93    0.30
   4  -1  11    5.42    0.34
   4  -1  11    5.30    0.32
   4   1  11    4.73    0.31
  -4   1 -11    4.99    0.31
   4   1  11    4.88    0.33
   5  -1  11    0.39    0.15
   5  -1  11    0.29    0.14
  -5  -1 -11    0.21    0.14
  -5   1 -11    0.27    0.15
   5   1  11    0.19    0.14
   5   1  11    0.53    0.17
   6  -1  11    1.01    0.16
   6  -1  11    0.98    0.19
  -6  -1 -11    0.84    0.17
   6   1  11    0.77    0.15
   6   1  11    1.07    0.19
  -6   1 -11    0.93    0.19
   7  -1  11    1.40    0.21
   7  -1  11    1.13    0.17
  -7  -1 -11    1.35    0.20
  -7   1 -11    1.17    0.22
   7   1  11    1.09    0.16
   7   1  11    1.40    0.20
   8  -1  11    3.06    0.27
  -8  -1 -11    2.61    0.26
   8  -1  11    3.01    0.27
   8   1  11    2.58    0.24
  -8   1 -11    3.22    0.30
   8   1  11    2.71    0.25
   9  -1  11    1.20    0.18
   9  -1  11    0.98    0.21
  -9  -1 -11    1.14    0.22
  -9   1 -11    1.13    0.24
   9   1  11    1.32    0.17
   9   1  11    1.34    0.21
  10  -1  11    1.01    0.18
  10  -1  11    1.31    0.24
 -10  -1 -11    0.85    0.23
  10   1  11    0.99    0.16
  10   1  11    1.01    0.21
 -10   1 -11    1.19    0.27
  11  -1  11   10.50    0.47
 -11  -1 -11   10.45    0.56
  11  -1  11   10.35    0.52
  11   1  11    9.83    0.45
 -11   1 -11   10.35    0.58
  11   1  11   10.42    0.53
 -12  -1 -11   15.53    0.72
  12  -1  11   15.05    0.67
  12  -1  11   14.15    0.60
  12   1  11   14.39    0.58
  12   1  11   16.19    0.66
 -12   1 -11   15.47    0.73
  11  -2 -11    0.49    0.17
  11  -2 -11    0.45    0.12
  11   2 -11    0.38    0.23
  11   2 -11    0.51    0.12
 -11   2  11    0.65    0.30
  10  -2 -11   54.54    1.82
  10  -2 -11   56.76    1.80
  10   2 -11   53.92    1.79
 -10   2  11   49.00    1.89
  10   2 -11   56.88    1.87
   9  -2 -11    0.35    0.16
   9  -2 -11    0.34    0.13
  -9   2  11    0.38    0.25
   9   2 -11    0.06    0.20
   9   2 -11    0.41    0.12
   8  -2 -11    1.16    0.15
   8  -2 -11    1.33    0.18
   8   2 -11    1.52    0.23
  -8   2  11    1.07    0.26
   8   2 -11    1.23    0.15
   7  -2 -11    0.39    0.14
   7  -2 -11    0.51    0.12
  -7  -2  11    0.60    0.19
  -7   2  11    0.43    0.23
   7   2 -11    0.32    0.12
   7   2 -11    0.26    0.18
   6  -2 -11   39.30    1.30
   6  -2 -11   39.32    1.30
  -6  -2  11   36.12    1.31
  -6   2  11   36.68    1.34
   6   2 -11   37.59    1.33
   6   2 -11   39.78    1.31
   6   2 -11   37.70    1.27
  -5  -2  11    6.92    0.38
   5  -2 -11    6.79    0.35
   5  -2 -11    6.96    0.34
   5   2 -11    6.94    0.38
  -5   2  11    6.79    0.43
   5   2 -11    6.68    0.36
   5   2 -11    6.67    0.30
   4  -2 -11    1.79    0.17
   4  -2 -11    1.08    0.14
  -4  -2  11    1.14    0.18
   4   2 -11    1.07    0.17
   4   2 -11    1.20    0.13
   4   2 -11    1.17    0.16
  -4   2  11    1.24    0.23
   3  -2 -11    4.21    0.26
  -3  -2  11    3.92    0.30
   3  -2 -11    3.81    0.27
   3   2 -11    4.25    0.24
   3   2 -11    4.35    0.30
  -3   2  11    4.12    0.34
   3   2 -11    4.11    0.26
  -2  -2  11    0.12    0.14
   2  -2 -11    0.12    0.10
   2  -2 -11    0.11    0.11
   2   2 -11    0.30    0.14
   2   2 -11    0.16    0.11
   2   2 -11    0.13    0.10
  -2   2  11    0.25    0.16
   1  -2 -11    2.72    0.22
  -1  -2  11    2.76    0.25
   1  -2 -11    2.93    0.22
   1   2 -11    2.18    0.22
  -1   2  11    2.89    0.29
   1   2 -11    2.87    0.20
   1   2 -11    2.70    0.19
   0  -2  11    4.26    0.31
   0  -2 -11    4.41    0.26
   0  -2 -11    4.41    0.25
   0   2  11    4.95    0.32
   0   2 -11    4.10    0.31
   0   2  11    4.58    0.31
   0   2 -11    4.35    0.25
   0   2 -11    3.92    0.22
  -1  -2 -11    3.10    0.23
   1  -2  11    2.73    0.27
   1  -2  11    1.80    0.22
  -1  -2 -11    2.42    0.20
  -1  -2 -11    2.55    0.18
   1   2  11    2.87    0.27
  -1   2 -11    2.89    0.22
   1   2  11    3.05    0.27
  -1   2 -11    2.44    0.22
   2  -2  11   14.25    0.64
   2  -2  11   15.39    0.62
  -2  -2 -11   15.55    0.56
  -2  -2 -11   14.75    0.56
   2   2  11   15.83    0.62
  -2   2 -11   14.94    0.59
   2   2  11   15.30    0.60
  -3  -2 -11    3.66    0.22
   3  -2  11    3.68    0.30
  -3  -2 -11    3.84    0.25
   3  -2  11    3.77    0.32
   3   2  11    3.41    0.29
   3   2  11    3.65    0.29
  -3   2 -11    3.76    0.28
  -4  -2 -11    0.25    0.13
   4  -2  11    0.19    0.16
  -4  -2 -11    0.15    0.10
   4  -2  11    0.18    0.17
   4   2  11    0.08    0.14
  -4   2 -11    0.05    0.14
   4   2  11    0.10    0.16
  -5  -2 -11    6.46    0.34
   5  -2  11    6.59    0.39
   5  -2  11    6.17    0.36
   5   2  11    5.98    0.36
   5   2  11    6.28    0.36
  -5   2 -11    6.30    0.38
  -6  -2 -11   53.42    1.76
   6  -2  11   53.31    1.77
   6  -2  11   52.52    1.77
   6   2  11   51.72    1.76
  -6   2 -11   47.78    1.78
   6   2  11   53.33    1.76
   7  -2  11    2.09    0.24
  -7  -2 -11    2.45    0.24
   7  -2  11    2.26    0.23
  -7   2 -11    1.60    0.24
   7   2  11    2.42    0.22
   7   2  11    2.50    0.24
   8  -2  11   27.88    0.98
  -8  -2 -11   26.52    0.99
   8  -2  11   27.78    1.00
   8   2  11   26.47    0.96
  -8   2 -11   24.06    1.01
   8   2  11   26.55    0.97
  -9  -2 -11    3.98    0.38
   9  -2  11    4.37    0.33
   9  -2  11    4.00    0.38
   9   2  11    4.10    0.32
  -9   2 -11    4.26    0.43
   9   2  11    4.08    0.30
  10  -2  11    6.12    0.37
 -10  -2 -11    5.98    0.44
  10  -2  11    5.28    0.41
 -10   2 -11    5.36    0.47
  10   2  11    5.32    0.36
  10   2  11    5.56    0.34
  11  -2  11    1.39    0.20
  11  -2  11    1.52    0.26
 -11  -2 -11    1.44    0.28
 -11   2 -11    1.69    0.32
  11   2  11    1.41    0.23
  11   2  11    1.19    0.17
 -10  -3  11    0.83    0.34
  10  -3 -11    0.76    0.15
  10  -3 -11    0.89    0.19
 -10   3  11    0.72    0.29
  10   3 -11    0.79    0.14
   9  -3 -11    0.18    0.16
  -9  -3  11    0.15    0.31
   9  -3 -11    0.10    0.13
  -9   3  11   -0.05    0.27
   9   3 -11    0.01    0.12
   9   3 -11    0.00    0.21
   8  -3 -11    1.19    0.19
  -8  -3  11    1.50    0.33
   8  -3 -11    1.25    0.16
   8   3 -11    1.36    0.16
   8   3 -11    1.53    0.25
   8   3 -11    1.29    0.17
  -8   3  11    1.03    0.28
   7  -3 -11    7.37    0.39
   7  -3 -11    7.39    0.36
  -7  -3  11    6.38    0.53
  -7   3  11    6.72    0.47
   7   3 -11    7.44    0.43
   7   3 -11    7.23    0.37
   7   3 -11    7.57    0.34
   6  -3 -11   19.05    0.71
  -6  -3  11   18.78    0.82
   6  -3 -11   18.96    0.72
  -6   3  11   18.74    0.79
   6   3 -11   18.86    0.69
   6   3 -11   19.03    0.72
   6   3 -11   19.64    0.76
   5  -3 -11    0.03    0.14
   5  -3 -11    0.03    0.11
  -5  -3  11   -0.15    0.22
   5   3 -11    0.13    0.11
  -5   3  11   -0.08    0.22
   5   3 -11   -0.05    0.13
  -4  -3  11   13.59    0.61
   4  -3 -11   12.67    0.52
   4  -3 -11   13.07    0.54
  -4  -3  11   12.73    0.54
   4   3 -11   13.10    0.52
  -4   3  11   13.29    0.61
   4   3 -11   13.66    0.56
   3  -3 -11   33.10    1.14
  -3  -3  11   33.37    1.17
  -3  -3  11   32.04    1.15
   3  -3 -11   32.02    1.14
   3   3 -11   33.18    1.13
  -3   3  11   34.31    1.19
   3   3 -11   33.43    1.18
  -2  -3  11    0.96    0.17
  -2  -3  11    1.13    0.19
   2  -3 -11    1.01    0.16
   2  -3 -11    1.33    0.16
   2   3 -11    0.92    0.14
   2   3 -11    0.98    0.18
  -2   3  11    0.95    0.21
  -1  -3  11    4.62    0.32
   1  -3 -11    4.86    0.29
   1  -3 -11    4.93    0.30
  -1  -3  11    5.02    0.30
   1   3 -11    4.86    0.35
   1   3 -11    4.81    0.29
  -1   3  11    5.15    0.35
   0  -3 -11   32.77    1.11
   0  -3  11   32.25    1.14
   0  -3 -11   31.08    1.12
   0   3  11   32.76    1.14
   0   3 -11   31.97    1.12
   0   3 -11   33.61    1.17
  -1  -3 -11    6.36    0.33
   1  -3  11    6.92    0.37
   1   3  11    7.10    0.38
  -1   3 -11    6.51    0.35
  -1   3 -11    6.77    0.40
   1   3  11    6.84    0.38
  -2  -3 -11   29.36    1.00
   2  -3  11   27.27    1.08
   2  -3  11   29.49    1.03
   2   3  11   29.56    1.03
  -2   3 -11   28.21    1.02
  -3  -3 -11   17.56    0.63
   3  -3  11   17.40    0.68
   3  -3  11   14.96    0.71
  -3  -3 -11   17.31    0.64
   3   3  11   17.51    0.68
   3   3  11   17.33    0.66
  -3   3 -11   16.44    0.67
   4  -3  11    0.31    0.17
  -4  -3 -11    0.39    0.14
  -4  -3 -11    0.27    0.12
   4  -3  11   -0.05    0.18
  -4   3 -11    0.37    0.17
   4   3  11    0.06    0.15
   4   3  11    0.28    0.16
  -5  -3 -11    8.86    0.40
   5  -3  11    8.81    0.49
   5  -3  11    9.44    0.47
  -5  -3 -11    9.13    0.43
  -5   3 -11    9.04    0.46
   5   3  11    9.12    0.45
   5   3  11    9.84    0.44
  -6  -3 -11    0.15    0.17
   6  -3  11    0.00    0.18
   6  -3  11   -0.01    0.17
   6   3  11   -0.12    0.16
  -6   3 -11   -0.06    0.19
   6   3  11    0.31    0.18
   7  -3  11    0.40    0.19
  -7  -3 -11    0.19    0.18
   7  -3  11    0.16    0.20
   7   3  11    0.13    0.16
   7   3  11    0.25    0.18
  -7   3 -11    0.02    0.21
   8  -3  11    0.53    0.19
   8  -3  11    0.45    0.22
  -8  -3 -11    0.41    0.21
   8   3  11    0.08    0.17
   8   3  11    0.30    0.18
  -8   3 -11    0.01    0.21
   9  -3  11   15.25    0.65
   9  -3  11   14.90    0.68
  -9  -3 -11   16.31    0.68
   9   3  11   14.85    0.62
   9   3  11   15.06    0.63
  -9   3 -11   13.69    0.72
  10  -3  11    9.18    0.52
  10  -3  11    9.63    0.49
 -10  -3 -11    8.51    0.53
  10   3  11    8.51    0.45
 -10   3 -11    8.72    0.59
   9  -4 -11    4.61    0.35
   9  -4 -11    5.11    0.31
  -9  -4  11    4.30    0.47
   9   4 -11    4.84    0.32
   9   4 -11    5.00    0.32
  -9   4  11    3.79    0.39
   8  -4 -11    1.94    0.20
  -8  -4  11    2.12    0.37
   8  -4 -11    2.14    0.23
   8   4 -11    2.07    0.19
   8   4 -11    2.02    0.21
  -8   4  11    1.68    0.29
   7  -4 -11   10.90    0.51
  -7  -4  11   11.49    0.66
   7  -4 -11   11.43    0.49
   7   4 -11   11.02    0.50
  -7   4  11   10.49    0.59
   7   4 -11   10.90    0.47
   6  -4 -11    0.17    0.17
  -6  -4  11    0.53    0.26
   6  -4 -11    0.28    0.14
   6   4 -11    0.31    0.15
  -6   4  11    0.21    0.25
   6   4 -11    0.26    0.16
   5  -4 -11    2.38    0.21
  -5  -4  11    2.19    0.30
   5  -4 -11    2.13    0.22
  -5   4  11    2.43    0.29
   5   4 -11    2.01    0.21
   5   4 -11    2.21    0.20
   4  -4 -11   21.96    0.80
  -4  -4  11   20.92    0.85
   4  -4 -11   20.97    0.80
  -4   4  11   21.34    0.86
   4   4 -11   21.17    0.79
   4   4 -11   22.09    0.83
   3  -4 -11    7.61    0.39
   3  -4 -11    7.01    0.38
  -3  -4  11    7.58    0.45
   3   4 -11    7.66    0.43
   3   4 -11    7.78    0.38
  -3   4  11    8.18    0.46
  -2  -4  11    4.48    0.35
   2  -4 -11    3.81    0.29
   2  -4 -11    3.89    0.29
   2   4 -11    4.07    0.29
   2   4 -11    3.71    0.34
  -2   4  11    4.03    0.36
   1  -4 -11    1.14    0.18
  -1  -4  11    1.48    0.20
   1   4 -11    1.24    0.18
  -1   4  11    1.45    0.22
   1   4 -11    1.51    0.23
   0  -4  11   11.79    0.52
   0  -4 -11   10.95    0.49
   0   4 -11   11.42    0.56
   0   4  11   12.09    0.53
   0   4 -11   10.93    0.50
  -1  -4 -11    3.89    0.30
   1  -4  11    4.10    0.32
  -1   4 -11    3.56    0.29
   1   4  11    3.95    0.32
   2  -4  11    0.32    0.19
  -2  -4 -11    0.31    0.15
   2   4  11    0.18    0.17
   2   4  11    0.14    0.15
  -2   4 -11    0.13    0.15
  -3  -4 -11    9.72    0.45
   3  -4  11   10.73    0.50
   3   4  11   10.27    0.48
   3   4  11   10.28    0.48
  -3   4 -11    8.91    0.48
   4  -4  11   17.94    0.78
   4  -4  11   19.06    0.76
  -4  -4 -11   18.80    0.70
   4   4  11   18.65    0.70
   4   4  11   18.67    0.71
   4   4  11   18.09    0.73
  -4   4 -11   17.14    0.74
   5  -4  11    0.78    0.23
  -5  -4 -11    0.58    0.16
   5  -4  11    0.86    0.22
   5   4  11    1.10    0.19
  -5   4 -11    0.67    0.21
   5   4  11    0.94    0.19
   5   4  11    0.94    0.19
   6  -4  11    7.45    0.46
   6  -4  11    6.69    0.48
   6   4  11    7.62    0.42
   6   4  11    7.65    0.41
   6   4  11    7.49    0.42
  -6   4 -11    6.90    0.44
   7  -4  11   12.71    0.63
   7  -4  11   13.64    0.63
   7   4  11   12.89    0.58
  -7   4 -11   11.47    0.63
   7   4  11   13.98    0.59
   8  -4  11    6.09    0.45
  -8  -4 -11    5.36    0.42
   8  -4  11    5.55    0.42
  -8   4 -11    4.87    0.47
   8   4  11    5.45    0.38
   8   4  11    5.63    0.38
   9  -4  11    0.72    0.22
   9  -4  11    0.79    0.26
  -9  -4 -11    0.86    0.25
   9   4  11    0.70    0.20
  -9   4 -11    0.31    0.27
   7  -5 -11    1.21    0.22
   7  -5 -11    1.09    0.19
  -7  -5  11    1.40    0.36
  -7   5  11    1.13    0.29
   7   5 -11    1.23    0.21
   7   5 -11    0.92    0.18
   6  -5 -11    8.23    0.43
  -6  -5  11    8.79    0.62
   6  -5 -11    8.28    0.45
   6   5 -11    8.41    0.43
   6   5 -11    8.46    0.46
  -6   5  11    8.32    0.54
   5  -5 -11   10.92    0.51
  -5  -5  11   11.47    0.64
   5  -5 -11   10.56    0.52
   5   5 -11   11.14    0.51
  -5   5  11   10.94    0.59
   5   5 -11   10.91    0.53
   4  -5 -11    4.23    0.36
   4  -5 -11    4.61    0.33
  -4  -5  11    5.34    0.46
  -4   5  11    4.35    0.42
   4   5 -11    4.61    0.33
   4   5 -11    4.80    0.38
  -3  -5  11   -0.10    0.21
   3  -5 -11    0.16    0.15
   3  -5 -11    0.10    0.18
   3   5 -11    0.05    0.18
  -3   5  11   -0.09    0.23
   3   5 -11    0.06    0.16
  -2  -5  11    5.10    0.39
   2  -5 -11    4.94    0.36
   2   5 -11    5.07    0.35
   2   5 -11    5.05    0.39
  -2   5  11    5.50    0.41
   1  -5 -11    2.61    0.25
  -1   5  11    2.45    0.27
   1   5 -11    2.70    0.25
   0  -5 -11    2.24    0.24
   0   5 -11    2.03    0.23
   0   5  11    2.53    0.26
  -1  -5 -11    8.30    0.45
  -1   5 -11    7.92    0.44
   1   5  11    8.50    0.44
  -2  -5 -11    5.44    0.37
  -2   5 -11    4.85    0.37
   2   5  11    5.25    0.36
  -3  -5 -11    0.58    0.19
   3  -5  11    0.24    0.22
   3   5  11    0.53    0.20
  -3   5 -11    0.90    0.21
  -4  -5 -11   22.48    0.82
   4  -5  11   21.10    0.87
   4   5  11   21.62    0.84
  -4   5 -11   20.48    0.85
   5  -5  11    2.14    0.30
  -5  -5 -11    2.29    0.24
   5   5  11    2.46    0.26
  -5   5 -11    1.94    0.27
   6  -5  11    2.48    0.31
   6  -5  11    2.45    0.31
  -6  -5 -11    2.81    0.26
   6   5  11    2.51    0.26
   6   5  11    2.51    0.25
  -6   5 -11    2.49    0.30
   7  -5  11    1.12    0.25
   7  -5  11    0.96    0.28
  -7   5 -11    1.34    0.27
   7   5  11    1.09    0.21
   7   5  11    1.30    0.22
   2  -6 -11   16.67    0.73
  -2   6  11   17.45    0.74
   2   6 -11   16.45    0.70
   1  -6 -11    1.41    0.26
  -1   6  11    1.64    0.26
   1   6 -11    1.23    0.22
   0  -6 -11   -0.05    0.22
   0   6 -11    0.02    0.19
  -1  -6 -11    1.97    0.26
  -1   6 -11    1.62    0.25
  -2  -6 -11    4.99    0.42
  -2   6 -11    4.68    0.41
 -11   0  12    0.24    0.26
  11   0 -12    0.12    0.11
  11   0 -12   -0.06    0.19
  10   0 -12    1.23    0.15
  10   0 -12    1.34    0.22
 -10   0  12    1.06    0.27
   9   0 -12    0.03    0.11
   9   0 -12    0.06    0.17
  -9   0  12   -0.17    0.23
   8   0 -12   13.08    0.51
   8   0 -12   12.85    0.55
  -8   0  12   11.27    0.59
   7   0 -12    0.08    0.15
   7   0 -12    0.02    0.12
  -7   0  12    0.09    0.21
  -6   0  12   29.40    1.12
   6   0 -12   31.32    1.08
   6   0 -12   31.42    1.07
   5   0 -12    0.02    0.12
  -5   0  12    0.18    0.20
   5   0 -12   -0.03    0.13
   4   0 -12  209.03    6.62
  -4   0  12  194.21    6.62
   4   0 -12  213.96    6.61
   3   0 -12    0.10    0.12
   3   0 -12    0.01    0.12
  -3   0  12    0.05    0.17
   2   0 -12    0.12    0.11
   2   0 -12    0.23    0.13
  -2   0  12    0.20    0.17
   1   0 -12    0.09    0.11
   1   0 -12    0.05    0.09
  -1   0  12    0.33    0.17
   1   0 -12    0.07    0.12
   0   0 -12   18.66    0.69
   0   0 -12   17.97    0.64
   0   0  12   17.02    0.69
   0   0 -12   17.67    0.63
   1   0  12    0.00    0.14
  -1   0 -12    0.09    0.12
  -1   0 -12    0.01    0.10
   1   0  12    0.05    0.12
  -1   0 -12    0.00    0.09
   2   0  12  126.60    4.13
   2   0  12  127.82    4.13
  -2   0 -12  126.95    4.10
  -3   0 -12    0.89    0.15
   3   0  12    0.05    0.17
   3   0  12    0.19    0.13
   4   0  12   17.86    0.69
  -4   0 -12   16.07    0.66
   4   0  12   17.57    0.67
   5   0  12    0.03    0.18
  -5   0 -12    0.08    0.15
   5   0  12    0.08    0.14
   6   0  12   18.66    0.70
  -6   0 -12   18.05    0.72
   6   0  12   17.61    0.71
   7   0  12   -0.01    0.14
  -7   0 -12   -0.16    0.18
   7   0  12    0.17    0.19
   8   0  12    4.34    0.31
  -8   0 -12    4.28    0.37
   8   0  12    4.00    0.32
  -9   0 -12    0.05    0.21
   9   0  12    0.08    0.15
   9   0  12    0.14    0.19
  10   0  12   96.11    3.19
 -10   0 -12  101.07    3.26
  10   0  12   96.54    3.22
 -11   0 -12    0.17    0.24
  11   0  12    0.17    0.21
  11   0  12    0.16    0.15
  11  -1 -12   27.42    0.96
  11  -1 -12   26.17    0.89
  11   1 -12   26.95    0.99
  11   1 -12   24.96    0.89
 -11   1  12   23.11    1.03
  10  -1 -12    9.77    0.45
  10  -1 -12    9.34    0.40
 -10  -1  12    8.36    0.53
 -10   1  12    8.80    0.57
  10   1 -12    9.79    0.40
  10   1 -12    9.74    0.51
   9  -1 -12    0.00    0.12
   9  -1 -12   -0.06    0.16
  -9  -1  12    0.23    0.22
   9   1 -12    0.13    0.18
  -9   1  12    0.03    0.24
   9   1 -12    0.07    0.12
   8  -1 -12    5.86    0.34
   8  -1 -12    5.68    0.31
  -8  -1  12    5.05    0.40
   8   1 -12    6.16    0.38
  -8   1  12    4.92    0.44
   8   1 -12    6.09    0.32
   7  -1 -12   24.52    0.90
  -7  -1  12   22.84    0.94
   7  -1 -12   25.92    0.90
   7   1 -12   26.50    0.91
  -7   1  12   23.28    0.97
   7   1 -12   27.15    0.94
  -6  -1  12    9.10    0.51
   6  -1 -12   10.80    0.44
   6  -1 -12   10.10    0.45
  -6   1  12    9.62    0.53
   6   1 -12    9.67    0.47
   6   1 -12   10.40    0.46
   5  -1 -12   33.75    1.18
  -5  -1  12   32.23    1.21
   5  -1 -12   36.45    1.18
   5   1 -12   34.02    1.20
   5   1 -12   35.43    1.20
  -5   1  12   32.80    1.22
   4  -1 -12   41.39    1.42
   4  -1 -12   44.75    1.44
  -4  -1  12   41.49    1.46
   4   1 -12   41.75    1.45
  -4   1  12   41.48    1.47
   4   1 -12   42.12    1.44
  -3  -1  12    0.29    0.17
   3  -1 -12    0.26    0.12
   3  -1 -12    0.22    0.12
   3   1 -12    0.19    0.14
   3   1 -12    0.35    0.13
  -3   1  12    0.33    0.17
   3   1 -12    0.16    0.09
  -2  -1  12    3.25    0.30
   2  -1 -12    2.81    0.24
   2  -1 -12    2.48    0.22
  -2   1  12    2.77    0.25
   2   1 -12    2.73    0.23
   2   1 -12    2.62    0.19
   2   1 -12    2.75    0.27
   1  -1 -12    3.55    0.26
   1  -1 -12    3.64    0.23
  -1  -1  12    3.54    0.30
   1   1 -12    3.56    0.24
   1   1 -12    3.36    0.29
   1   1 -12    3.56    0.22
  -1   1  12    3.68    0.31
   0  -1  12    2.92    0.29
   0  -1 -12    3.08    0.19
   0  -1 -12    3.18    0.25
   0  -1 -12    2.86    0.21
   0   1 -12    2.83    0.20
   0   1  12    3.35    0.30
   0   1 -12    3.16    0.29
   0   1 -12    2.85    0.22
  -1  -1 -12    9.92    0.39
   1  -1  12   10.43    0.49
  -1  -1 -12   10.21    0.40
  -1  -1 -12    9.42    0.43
   1  -1  12    9.70    0.46
  -1   1 -12    9.63    0.46
  -1   1 -12   10.40    0.42
   1   1  12    9.65    0.47
   1   1  12    9.61    0.47
   2  -1  12   55.01    1.87
   2  -1  12   57.85    1.88
  -2  -1 -12   56.46    1.81
  -2  -1 -12   52.28    1.82
   2   1  12   55.01    1.86
  -2   1 -12   55.10    1.84
   2   1  12   55.47    1.87
   3  -1  12   93.97    3.11
  -3  -1 -12   93.39    3.07
   3  -1  12   94.19    3.11
  -3   1 -12   95.45    3.09
   3   1  12   97.76    3.11
   3   1  12   91.94    3.09
   4  -1  12   63.97    2.19
   4  -1  12   68.99    2.19
  -4  -1 -12   66.61    2.16
  -4   1 -12   63.88    2.18
   4   1  12   64.86    2.18
   4   1  12   63.78    2.18
   5  -1  12    1.32    0.20
   5  -1  12    1.61    0.19
  -5  -1 -12    1.35    0.18
   5   1  12    2.21    0.24
  -5   1 -12    1.42    0.21
   5   1  12    1.81    0.20
  -6  -1 -12   13.88    0.60
   6  -1  12   15.32    0.60
   6  -1  12   13.60    0.59
  -6   1 -12   14.45    0.62
   6   1  12   14.26    0.61
   6   1  12   14.37    0.58
  -7  -1 -12   44.04    1.50
   7  -1  12   43.55    1.49
   7  -1  12   43.16    1.50
   7   1  12   42.13    1.49
  -7   1 -12   42.43    1.52
   7   1  12   44.57    1.48
   8  -1  12    0.10    0.20
  -8  -1 -12    0.07    0.18
   8  -1  12    0.28    0.16
  -8   1 -12   -0.15    0.20
   8   1  12    0.10    0.14
   8   1  12    0.18    0.18
  -9  -1 -12   42.21    1.48
   9  -1  12   40.90    1.46
   9  -1  12   42.93    1.44
  -9   1 -12   42.43    1.51
   9   1  12   40.96    1.46
   9   1  12   42.16    1.43
 -10  -1 -12    0.71    0.23
  10  -1  12    0.73    0.23
  10  -1  12    0.93    0.18
  10   1  12    0.58    0.17
  10   1  12    1.07    0.22
 -10   1 -12    0.59    0.25
  11  -1  12    6.75    0.39
  11  -1  12    6.86    0.45
 -11  -1 -12    7.51    0.49
 -11   1 -12    7.24    0.51
  11   1  12    6.61    0.43
  11   1  12    6.45    0.37
  11  -2 -12   10.86    0.43
  11  -2 -12   10.52    0.49
  11   2 -12    9.77    0.56
  11   2 -12    9.92    0.43
  10  -2 -12   14.71    0.56
  10  -2 -12   14.38    0.59
 -10   2  12   13.45    0.72
  10   2 -12   13.89    0.56
  10   2 -12   15.34    0.66
   9  -2 -12   -0.01    0.13
   9  -2 -12    0.16    0.16
   9   2 -12    0.09    0.12
  -9   2  12   -0.11    0.26
   9   2 -12    0.11    0.21
   8  -2 -12    2.90    0.27
   8  -2 -12    2.72    0.25
  -8   2  12    2.27    0.29
   8   2 -12    2.37    0.27
   8   2 -12    2.76    0.25
   7  -2 -12   21.70    0.78
  -7  -2  12   19.20    0.80
   7  -2 -12   20.68    0.76
   7   2 -12   22.03    0.78
  -7   2  12   21.05    0.86
   7   2 -12   20.52    0.82
   6  -2 -12    6.34    0.34
   6  -2 -12    6.28    0.34
  -6  -2  12    6.02    0.40
   6   2 -12    6.06    0.38
  -6   2  12    6.89    0.46
   6   2 -12    6.89    0.36
  -5  -2  12   26.70    1.01
   5  -2 -12   28.09    0.99
   5  -2 -12   28.44    0.98
  -5   2  12   27.78    1.05
   5   2 -12   27.53    1.01
   5   2 -12   28.40    0.96
   5   2 -12   28.75    1.01
   4  -2 -12    5.34    0.30
  -4  -2  12    5.22    0.36
   4  -2 -12    5.37    0.30
   4   2 -12    5.22    0.34
   4   2 -12    4.92    0.27
   4   2 -12    5.32    0.33
  -4   2  12    5.03    0.40
  -3  -2  12   47.62    1.63
   3  -2 -12   46.95    1.60
   3  -2 -12   47.76    1.61
   3   2 -12   47.44    1.59
  -3   2  12   49.52    1.66
   3   2 -12   48.10    1.65
   3   2 -12   47.40    1.61
   2  -2 -12   16.52    0.62
  -2  -2  12   15.75    0.65
   2  -2 -12   15.85    0.63
  -2   2  12   16.93    0.67
   2   2 -12   17.10    0.61
   2   2 -12   16.43    0.61
   2   2 -12   16.76    0.68
   1  -2 -12   31.58    1.12
  -1  -2  12   32.19    1.15
   1  -2 -12   33.16    1.11
   1   2 -12   30.66    1.09
   1   2 -12   32.26    1.17
  -1   2  12   33.33    1.16
   1   2 -12   33.53    1.11
   0  -2  12   30.37    1.06
   0  -2 -12   30.05    1.04
   0  -2 -12   30.99    1.02
   0   2 -12   29.68    1.03
   0   2 -12   29.40    1.08
   0   2  12   29.50    1.05
   0   2 -12   26.89    0.99
  -1  -2 -12    2.59    0.21
   1  -2  12    2.87    0.30
   1   2  12    3.21    0.29
  -1   2 -12    3.27    0.28
   1   2  12    2.59    0.25
  -1   2 -12    2.73    0.24
   2  -2  12    5.94    0.40
  -2  -2 -12    6.06    0.30
   2  -2  12    5.75    0.37
  -2  -2 -12    6.33    0.30
  -2   2 -12    6.28    0.34
   2   2  12    5.72    0.37
   2   2  12    5.81    0.34
  -3  -2 -12   18.31    0.67
   3  -2  12   19.18    0.73
   3  -2  12   18.23    0.74
  -3  -2 -12   17.82    0.65
   3   2  12   18.37    0.72
   3   2  12   17.85    0.71
  -3   2 -12   17.68    0.70
  -4  -2 -12    1.34    0.17
   4  -2  12    1.20    0.20
   4  -2  12    1.26    0.21
   4   2  12    1.27    0.19
  -4   2 -12    1.25    0.19
   4   2  12    1.13    0.19
   5  -2  12   16.75    0.67
   5  -2  12   16.93    0.69
  -5  -2 -12   16.26    0.64
   5   2  12   16.32    0.67
   5   2  12   16.48    0.67
  -5   2 -12   15.48    0.67
   6  -2  12    1.60    0.22
   6  -2  12    1.11    0.22
  -6  -2 -12    1.02    0.19
   6   2  12    1.34    0.22
   6   2  12    1.20    0.19
  -6   2 -12    1.05    0.22
   7  -2  12    0.30    0.18
  -7  -2 -12    0.09    0.18
   7  -2  12    0.53    0.21
   7   2  12    0.04    0.16
  -7   2 -12   -0.06    0.21
   7   2  12    0.57    0.19
  -8  -2 -12   30.65    1.15
   8  -2  12   32.90    1.14
   8  -2  12   32.01    1.16
   8   2  12   32.29    1.14
  -8   2 -12   30.67    1.19
   8   2  12   31.44    1.13
   9  -2  12   35.51    1.26
   9  -2  12   36.02    1.24
  -9  -2 -12   35.72    1.27
  -9   2 -12   33.31    1.30
   9   2  12   32.88    1.22
   9   2  12   34.65    1.22
  10  -2  12    2.46    0.28
 -10  -2 -12    2.00    0.28
  10  -2  12    2.39    0.24
 -10   2 -12    1.73    0.32
  10   2  12    1.69    0.21
  10   2  12    2.06    0.24
  10  -3 -12   21.23    0.77
 -10  -3  12   19.35    0.98
  10   3 -12   21.44    0.77
   9  -3 -12    0.25    0.14
   9  -3 -12    0.38    0.17
  -9  -3  12    0.15    0.33
   9   3 -12    0.29    0.14
  -9   3  12   -0.13    0.26
   9   3 -12   -0.17    0.23
   8  -3 -12   51.18    1.72
   8  -3 -12   53.64    1.74
   8   3 -12   50.76    1.73
  -8   3  12   48.15    1.80
   8   3 -12   53.23    1.79
   7  -3 -12    7.73    0.38
   7  -3 -12    7.49    0.41
   7   3 -12    7.09    0.44
  -7   3  12    7.34    0.51
   7   3 -12    7.39    0.39
   6  -3 -12    0.54    0.17
   6  -3 -12    0.50    0.14
  -6  -3  12    0.54    0.27
   6   3 -12    0.47    0.19
   6   3 -12    0.56    0.14
  -6   3  12    0.53    0.26
   5  -3 -12    0.39    0.16
  -5  -3  12    0.50    0.24
   5  -3 -12    0.28    0.13
   5   3 -12    0.33    0.13
   5   3 -12    0.33    0.16
  -5   3  12    0.78    0.26
   4  -3 -12    8.64    0.41
  -4  -3  12    9.01    0.50
   4  -3 -12    8.68    0.40
  -4  -3  12    8.31    0.43
   4   3 -12    8.70    0.45
  -4   3  12    8.98    0.51
   4   3 -12    8.40    0.38
  -3  -3  12    9.54    0.47
  -3  -3  12   10.29    0.50
   3  -3 -12    9.70    0.44
   3  -3 -12    9.77    0.44
   3   3 -12   10.21    0.43
  -3   3  12    9.95    0.53
   3   3 -12   10.44    0.50
  -2  -3  12   26.21    0.92
   2  -3 -12   23.46    0.89
  -2  -3  12   23.85    0.92
   2  -3 -12   24.66    0.89
   2   3 -12   24.86    0.89
  -2   3  12   26.08    0.95
   2   3 -12   25.84    0.95
  -1  -3  12    3.48    0.31
   1  -3 -12    3.09    0.26
   1  -3 -12    3.36    0.27
  -1  -3  12    3.46    0.30
   1   3 -12    3.56    0.33
   1   3 -12    3.06    0.25
  -1   3  12    3.73    0.34
   0  -3  12   32.14    1.13
   0  -3 -12   31.77    1.09
   0   3  12   31.20    1.12
   0   3 -12   30.23    1.10
   0   3 -12   32.90    1.16
   1  -3  12   38.50    1.34
  -1  -3 -12   38.99    1.30
   1   3  12   38.69    1.34
  -1   3 -12   37.08    1.32
   2  -3  12    1.50    0.22
  -2  -3 -12    1.76    0.17
   2   3  12    1.73    0.22
   2   3  12    1.78    0.22
  -2   3 -12    2.60    0.22
   3  -3  12   12.83    0.55
   3  -3  12   10.11    0.58
  -3  -3 -12   12.05    0.48
  -3   3 -12   12.17    0.53
   3   3  12   12.46    0.54
  -4  -3 -12   37.23    1.27
  -4  -3 -12   38.20    1.29
   4  -3  12   39.35    1.33
   4  -3  12   36.18    1.36
   4   3  12   39.92    1.34
   4   3  12   37.08    1.31
  -4   3 -12   35.53    1.33
   5  -3  12    2.13    0.26
   5  -3  12    2.37    0.27
  -5  -3 -12    2.48    0.23
   5   3  12    2.23    0.23
  -5   3 -12    1.93    0.25
   5   3  12    2.24    0.24
   6  -3  12  108.78    3.46
  -6  -3 -12  109.50    3.45
   6  -3  12  104.50    3.47
   6   3  12  104.47    3.45
  -6   3 -12   95.82    3.47
   6   3  12  107.14    3.44
  -7  -3 -12   -0.02    0.18
   7  -3  12    0.16    0.19
   7  -3  12    0.14    0.21
  -7   3 -12    0.21    0.22
   7   3  12    0.00    0.17
   7   3  12    0.34    0.20
   8  -3  12    2.63    0.27
   8  -3  12    3.08    0.31
  -8  -3 -12    2.72    0.28
  -8   3 -12    2.44    0.32
   8   3  12    2.59    0.26
   8   3  12    3.42    0.28
   9  -3  12    1.55    0.24
   9  -3  12    1.58    0.28
  -9  -3 -12    1.36    0.26
  -9   3 -12    0.65    0.27
   9   3  12    1.25    0.22
   9   3  12    1.40    0.22
   8  -4 -12    5.94    0.35
   8  -4 -12    6.10    0.41
  -8  -4  12    5.07    0.49
   8   4 -12    5.84    0.37
  -8   4  12    6.46    0.51
   8   4 -12    6.80    0.36
   7  -4 -12   11.82    0.50
   7  -4 -12   11.56    0.53
  -7  -4  12   11.79    0.68
   7   4 -12   11.73    0.49
   7   4 -12   10.98    0.52
  -7   4  12   10.91    0.63
   6  -4 -12    0.41    0.15
  -6  -4  12    0.13    0.28
   6  -4 -12    0.37    0.18
   6   4 -12    0.58    0.16
   6   4 -12    0.38    0.17
  -6   4  12    0.67    0.27
   5  -4 -12    0.41    0.18
  -5  -4  12    0.46    0.26
   5  -4 -12    0.33    0.15
   5   4 -12    0.53    0.18
   5   4 -12    0.53    0.16
  -5   4  12    0.67    0.26
  -4  -4  12   32.47    1.20
   4  -4 -12   31.24    1.14
   4  -4 -12   32.15    1.14
   4   4 -12   33.65    1.18
  -4   4  12   33.06    1.21
   4   4 -12   31.87    1.13
  -3  -4  12    8.46    0.49
   3  -4 -12    7.71    0.42
   3  -4 -12    8.67    0.43
   3   4 -12    8.31    0.41
   3   4 -12    8.39    0.47
  -3   4  12    9.02    0.51
   2  -4 -12    2.88    0.28
   2  -4 -12    2.70    0.24
  -2  -4  12    3.60    0.29
  -2   4  12    3.98    0.37
   2   4 -12    2.93    0.27
   2   4 -12    3.45    0.30
   1  -4 -12  104.23    3.48
  -1   4  12  110.56    3.52
   1   4 -12  101.64    3.49
   1   4 -12  111.72    3.54
   0  -4 -12   18.46    0.72
   0  -4  12   19.33    0.74
   0   4 -12   17.74    0.72
   0   4  12   19.78    0.76
  -1  -4 -12    0.49    0.16
   1  -4  12    0.20    0.19
   1   4  12    0.41    0.20
  -1   4 -12    0.21    0.16
  -2  -4 -12   11.60    0.50
   2  -4  12   12.70    0.55
  -2   4 -12   11.18    0.53
   2   4  12   11.44    0.53
  -3  -4 -12    3.55    0.29
   3  -4  12    3.72    0.35
   3   4  12    3.77    0.35
   3   4  12    3.70    0.33
  -3   4 -12    3.27    0.34
   4  -4  12    0.77    0.23
  -4  -4 -12    0.84    0.17
   4   4  12    1.13    0.21
   4   4  12    0.70    0.20
  -4   4 -12    0.72    0.20
   5  -4  12   10.76    0.53
   5  -4  12    8.86    0.56
   5   4  12   10.15    0.50
  -5   4 -12    9.37    0.50
   5   4  12    9.55    0.50
  -6  -4 -12    0.16    0.19
   6  -4  12    0.31    0.23
   6  -4  12    0.34    0.23
   6   4  12    0.13    0.19
   6   4  12    0.28    0.19
  -6   4 -12    0.16    0.22
   7  -4  12   40.88    1.48
  -7  -4 -12   43.71    1.47
   7  -4  12   43.67    1.48
  -7   4 -12   37.37    1.49
   7   4  12   40.33    1.45
  -8  -4 -12    1.48    0.26
   8  -4  12    1.55    0.30
   8  -4  12    1.50    0.26
   8   4  12    1.38    0.23
  -8   4 -12    1.72    0.31
  -5  -5  12    0.22    0.28
   5  -5 -12    0.32    0.20
   5  -5 -12    0.23    0.16
  -5   5  12    0.28    0.27
   5   5 -12    0.19    0.17
   5   5 -12    0.22    0.19
  -4  -5  12    0.35    0.26
   4  -5 -12    0.35    0.21
   4  -5 -12    0.17    0.16
   4   5 -12    0.24    0.20
   4   5 -12    0.20    0.18
  -4   5  12    0.53    0.26
   3  -5 -12    6.26    0.40
   3   5 -12    6.65    0.45
  -3   5  12    6.84    0.47
   3   5 -12    6.02    0.38
   2  -5 -12   22.97    0.87
  -2   5  12   23.36    0.91
   2   5 -12   23.86    0.92
   2   5 -12   21.44    0.86
   1  -5 -12    1.92    0.23
  -1   5  12    1.59    0.27
   1   5 -12    2.02    0.23
   0  -5 -12    5.10    0.36
   0   5  12    6.01    0.40
   0   5 -12    5.06    0.37
  -1  -5 -12   12.06    0.55
  -1   5 -12   10.98    0.55
   1   5  12   12.62    0.57
  -2  -5 -12   18.21    0.69
   2   5  12   17.34    0.71
  -2   5 -12   15.55    0.71
  -3  -5 -12   16.35    0.65
   3   5  12   16.38    0.66
  -3   5 -12   15.08    0.69
  -4  -5 -12    2.96    0.26
   4  -5  12    3.13    0.32
  -4   5 -12    3.08    0.31
  -5  -5 -12   28.28    1.03
   5  -5  12   29.11    1.09
   5   5  12   27.97    1.06
  -5   5 -12   27.52    1.09
  10   0 -13   -0.03    0.19
  10   0 -13    0.10    0.13
 -10   0  13   -0.24    0.25
   9   0 -13   -0.09    0.17
   9   0 -13    0.07    0.13
  -9   0  13    0.10    0.25
   8   0 -13   -0.12    0.17
   8   0 -13    0.16    0.14
  -8   0  13    0.07    0.25
   7   0 -13   38.08    1.27
  -7   0  13   34.22    1.33
   7   0 -13   37.85    1.29
   6   0 -13    0.02    0.15
   6   0 -13   -0.09    0.12
  -6   0  13   -0.12    0.22
   5   0 -13   12.07    0.50
  -5   0  13   11.49    0.58
   5   0 -13   12.32    0.51
  -4   0  13    0.14    0.21
   4   0 -13   -0.04    0.13
   4   0 -13    0.07    0.13
   3   0 -13  102.75    3.23
   3   0 -13  100.58    3.25
  -3   0  13   94.57    3.26
   2   0 -13   -0.16    0.12
   2   0 -13    0.05    0.13
  -2   0  13    0.34    0.19
   1   0 -13   12.49    0.53
   1   0 -13   12.74    0.49
  -1   0  13   12.36    0.56
   0   0 -13    0.17    0.14
   0   0  13    0.23    0.18
   0   0 -13    0.20    0.11
   0   0 -13    0.13    0.11
  -1   0 -13    3.07    0.22
   1   0  13    3.42    0.32
  -2   0 -13   -0.06    0.12
   2   0  13    0.06    0.15
   2   0  13    0.03    0.18
   3   0  13    0.70    0.19
   3   0  13    0.86    0.16
  -3   0 -13    0.89    0.17
  -4   0 -13   -0.03    0.14
   4   0  13    0.10    0.16
   4   0  13    0.00    0.19
   5   0  13    5.25    0.36
  -5   0 -13    6.02    0.37
   5   0  13    5.72    0.40
  -6   0 -13   -0.06    0.16
   6   0  13    0.19    0.16
   6   0  13   -0.12    0.20
  -7   0 -13    4.31    0.37
   7   0  13    4.26    0.33
   7   0  13    4.08    0.37
  -8   0 -13    0.11    0.20
   8   0  13    0.14    0.20
   8   0  13    0.29    0.16
  -9   0 -13   32.30    1.19
   9   0  13   30.83    1.15
   9   0  13   31.95    1.12
  10   0  13   -0.11    0.16
  10   0  13    0.06    0.22
 -10   0 -13    0.07    0.23
  10  -1 -13   10.94    0.50
  10  -1 -13   10.93    0.45
 -10  -1  13    9.46    0.60
 -10   1  13    9.20    0.61
  10   1 -13   11.17    0.55
  10   1 -13   11.02    0.45
   9  -1 -13   12.27    0.50
  -9  -1  13   10.80    0.59
   9  -1 -13   12.12    0.53
  -9   1  13   10.92    0.64
   9   1 -13   12.49    0.50
   9   1 -13   12.87    0.57
   8  -1 -13    0.18    0.16
   8  -1 -13    0.23    0.14
  -8  -1  13    0.15    0.23
   8   1 -13    0.16    0.19
  -8   1  13    0.21    0.26
   8   1 -13    0.24    0.14
   7  -1 -13    1.54    0.19
  -7  -1  13    1.12    0.25
   7  -1 -13    1.36    0.17
  -7   1  13    1.41    0.28
   7   1 -13    1.39    0.21
   7   1 -13    1.57    0.19
  -6  -1  13    0.21    0.22
   6  -1 -13    0.24    0.13
   6  -1 -13    0.12    0.14
   6   1 -13    0.13    0.15
  -6   1  13    0.40    0.25
   6   1 -13    0.04    0.17
   5  -1 -13    2.65    0.25
  -5  -1  13    2.76    0.28
   5  -1 -13    2.95    0.26
   5   1 -13    2.23    0.22
   5   1 -13    2.73    0.25
  -5   1  13    3.00    0.31
   4  -1 -13    0.93    0.16
  -4  -1  13    1.22    0.23
   4  -1 -13    1.09    0.16
   4   1 -13    0.88    0.18
   4   1 -13    1.77    0.21
  -4   1  13    1.22    0.24
   3  -1 -13    3.81    0.26
  -3  -1  13    3.99    0.34
   3  -1 -13    4.23    0.29
   3   1 -13    3.22    0.28
  -3   1  13    3.81    0.37
   3   1 -13    3.52    0.31
  -2  -1  13    0.47    0.19
   2  -1 -13    0.74    0.14
   2  -1 -13    0.67    0.13
   2   1 -13    0.61    0.11
   2   1 -13    0.83    0.18
   2   1 -13    0.67    0.15
  -2   1  13    0.89    0.22
   1  -1 -13    6.45    0.34
  -1  -1  13    6.21    0.39
   1  -1 -13    6.15    0.30
  -1   1  13    5.77    0.36
   1   1 -13    6.05    0.37
   1   1 -13    5.16    0.29
   1   1 -13    5.80    0.29
   0  -1  13   23.74    0.89
   0  -1 -13   24.82    0.84
   0  -1 -13   23.52    0.87
   0   1 -13   23.81    0.90
   0   1  13   23.79    0.90
   0   1 -13   23.80    0.84
  -1  -1 -13    3.71    0.23
  -1  -1 -13    3.24    0.22
   1  -1  13    3.51    0.33
   1   1  13    3.80    0.33
  -1   1 -13    2.98    0.25
  -2  -1 -13    0.22    0.13
   2  -1  13    0.17    0.19
   2  -1  13    0.45    0.17
   2   1  13    0.37    0.15
  -2   1 -13    0.48    0.14
   2   1  13    0.38    0.19
  -3  -1 -13   28.75    1.02
   3  -1  13   29.39    1.07
   3  -1  13   29.34    1.07
  -3   1 -13   29.15    1.04
   3   1  13   29.07    1.06
   4  -1  13   40.64    1.38
  -4  -1 -13   38.55    1.35
   4  -1  13   37.58    1.38
   4   1  13   40.50    1.38
  -4   1 -13   39.21    1.37
   4   1  13   39.80    1.39
   5  -1  13   27.22    0.99
   5  -1  13   27.03    0.98
  -5  -1 -13   26.59    0.96
   5   1  13   27.17    0.99
  -5   1 -13   24.86    0.97
   5   1  13   25.45    0.96
   6  -1  13    0.86    0.19
  -6  -1 -13    1.04    0.19
   6  -1  13    0.93    0.22
   6   1  13    0.85    0.20
  -6   1 -13    0.56    0.20
   6   1  13    0.76    0.17
  -7  -1 -13    0.30    0.18
   7  -1  13    0.29    0.18
   7  -1  13    0.25    0.21
  -7   1 -13    0.29    0.21
   7   1  13    0.20    0.21
   7   1  13    0.08    0.15
   8  -1  13    6.48    0.43
   8  -1  13    7.07    0.40
  -8  -1 -13    6.73    0.43
   8   1  13    6.64    0.42
  -8   1 -13    6.92    0.46
   8   1  13    6.55    0.39
   9  -1  13    2.31    0.24
   9  -1  13    2.52    0.29
  -9  -1 -13    2.15    0.27
  -9   1 -13    3.06    0.32
   9   1  13    2.41    0.23
   9   1  13    2.38    0.28
 -10  -1 -13    0.22    0.23
  10  -1  13    0.23    0.24
  10  -1  13   -0.08    0.17
 -10   1 -13    0.17    0.24
  10   1  13    0.01    0.20
  10   1  13   -0.01    0.16
   9  -2 -13   11.93    0.49
   9  -2 -13   11.82    0.52
   9   2 -13   11.74    0.50
   9   2 -13   11.23    0.58
  -9   2  13   11.43    0.65
   8  -2 -13    5.89    0.36
   8  -2 -13    5.91    0.34
  -8   2  13    5.72    0.50
   8   2 -13    5.94    0.35
   8   2 -13    5.93    0.43
   7  -2 -13    0.06    0.13
  -7  -2  13    0.07    0.23
   7  -2 -13    0.13    0.15
   7   2 -13   -0.18    0.18
  -7   2  13   -0.13    0.25
   7   2 -13    0.01    0.14
  -6  -2  13   46.01    1.63
   6  -2 -13   48.33    1.59
   6  -2 -13   47.23    1.59
  -6   2  13   46.38    1.66
   6   2 -13   47.82    1.61
   6   2 -13   46.27    1.62
  -5  -2  13    1.97    0.24
   5  -2 -13    1.81    0.19
   5  -2 -13    1.94    0.19
   5   2 -13    1.85    0.21
   5   2 -13    1.57    0.21
  -5   2  13    1.74    0.28
   4  -2 -13    9.60    0.43
  -4  -2  13    8.98    0.48
   4  -2 -13    8.66    0.42
   4   2 -13    9.27    0.39
   4   2 -13   10.30    0.48
   4   2 -13    9.05    0.44
  -4   2  13    8.91    0.52
   3  -2 -13    0.22    0.14
  -3  -2  13    0.46    0.19
   3  -2 -13    0.45    0.14
  -3   2  13    0.52    0.23
   3   2 -13    0.37    0.17
   3   2 -13    0.89    0.16
   3   2 -13    0.38    0.12
  -2  -2  13   39.60    1.37
   2  -2 -13   39.50    1.32
   2  -2 -13   38.70    1.33
  -2   2  13   39.15    1.38
   2   2 -13   36.66    1.31
   2   2 -13   38.57    1.31
   2   2 -13   40.13    1.39
   1  -2 -13    6.94    0.34
   1  -2 -13    6.38    0.34
  -1  -2  13    6.69    0.40
  -1   2  13    7.01    0.43
   1   2 -13    6.21    0.42
   1   2 -13    6.80    0.33
   1   2 -13    6.65    0.31
   0  -2 -13    0.16    0.12
   0  -2  13   -0.21    0.17
   0   2 -13    0.08    0.13
   0   2  13    0.12    0.20
   0   2 -13   -0.07    0.17
  -1  -2 -13    4.41    0.27
   1  -2  13    4.92    0.36
  -1   2 -13    4.85    0.31
   1   2  13    4.61    0.37
   2  -2  13    0.07    0.19
  -2  -2 -13    0.10    0.11
   2   2  13    0.21    0.18
  -2   2 -13    0.09    0.14
   2   2  13    0.23    0.18
  -3  -2 -13    1.23    0.16
   3  -2  13    1.48    0.23
   3  -2  13    1.36    0.22
  -3   2 -13    1.32    0.19
   3   2  13    1.43    0.21
   3   2  13    0.94    0.21
   4  -2  13    3.36    0.34
   4  -2  13    3.63    0.36
  -4  -2 -13    3.80    0.29
  -4   2 -13    3.54    0.32
   4   2  13    3.53    0.34
   4   2  13    4.01    0.34
  -5  -2 -13    0.30    0.16
   5  -2  13    0.34    0.20
   5  -2  13    0.46    0.20
  -5   2 -13    0.23    0.18
   5   2  13    0.25    0.17
   5   2  13    0.35    0.20
  -6  -2 -13    9.34    0.46
   6  -2  13    9.88    0.51
   6  -2  13   10.22    0.52
   6   2  13    9.69    0.51
   6   2  13   10.04    0.49
  -6   2 -13    8.57    0.50
   7  -2  13    6.65    0.42
  -7  -2 -13    6.05    0.39
   7  -2  13    6.24    0.43
   7   2  13    5.38    0.40
  -7   2 -13    5.30    0.43
   7   2  13    6.34    0.40
   8  -2  13    2.08    0.28
   8  -2  13    2.30    0.24
  -8  -2 -13    2.17    0.26
   8   2  13    1.90    0.25
   8   2  13    2.33    0.24
  -8   2 -13    2.06    0.29
   9  -2  13    3.16    0.28
   9  -2  13    2.96    0.31
  -9  -2 -13    2.97    0.30
   9   2  13    2.69    0.27
  -9   2 -13    3.35    0.36
   9   2  13    2.79    0.25
  -8  -3  13    3.03    0.41
   8  -3 -13    3.78    0.33
   8  -3 -13    3.85    0.29
  -8   3  13    2.79    0.34
   8   3 -13    3.26    0.32
   8   3 -13    3.53    0.30
   7  -3 -13    7.51    0.42
   7  -3 -13    7.00    0.37
   7   3 -13    6.91    0.45
   7   3 -13    7.28    0.40
  -7   3  13    7.06    0.53
   6  -3 -13    1.38    0.20
   6  -3 -13    1.29    0.18
  -6  -3  13    1.04    0.31
   6   3 -13    1.18    0.20
   6   3 -13    1.24    0.22
  -6   3  13    1.33    0.31
   5  -3 -13    0.64    0.17
   5  -3 -13    0.71    0.15
  -5  -3  13    0.91    0.27
   5   3 -13    0.82    0.19
  -5   3  13    0.81    0.28
   5   3 -13    0.72    0.15
   4  -3 -13    1.63    0.20
   4  -3 -13    2.10    0.20
  -4  -3  13    1.85    0.27
  -4   3  13    1.96    0.31
   4   3 -13    2.26    0.22
   4   3 -13    1.56    0.22
   3  -3 -13    2.38    0.21
  -3  -3  13    2.10    0.24
  -3  -3  13    2.09    0.25
   3  -3 -13    1.81    0.19
   3   3 -13    1.94    0.19
  -3   3  13    2.50    0.31
   3   3 -13    1.50    0.22
   2  -3 -13   16.24    0.63
  -2  -3  13   15.85    0.67
   2  -3 -13   15.56    0.63
   2   3 -13   17.17    0.70
   2   3 -13   15.79    0.62
  -2   3  13   16.47    0.69
   1  -3 -13    1.17    0.17
  -1   3  13    1.00    0.23
   1   3 -13    0.96    0.22
   1   3 -13    1.08    0.17
   0  -3  13    5.37    0.37
   0  -3 -13    4.97    0.30
   0   3 -13    5.16    0.32
   0   3  13    5.71    0.39
  -1  -3 -13   14.32    0.55
   1  -3  13   13.89    0.61
  -1   3 -13   13.81    0.58
   1   3  13   13.54    0.61
  -2  -3 -13    7.15    0.35
   2  -3  13    6.92    0.44
   2   3  13    6.74    0.42
  -2   3 -13    7.17    0.39
   3  -3  13    4.67    0.36
  -3  -3 -13    4.78    0.29
   3   3  13    4.94    0.39
  -3   3 -13    4.52    0.34
   3   3  13    4.41    0.36
   4  -3  13   29.88    1.11
   4  -3  13   29.80    1.06
   4   3  13   28.75    1.05
   4   3  13   28.45    1.07
  -4   3 -13   26.52    1.05
  -5  -3 -13    3.47    0.30
   5  -3  13    3.71    0.37
   5  -3  13    2.95    0.30
   5   3  13    3.67    0.31
   5   3  13    3.63    0.35
  -5   3 -13    3.05    0.29
   6  -3  13    9.69    0.52
   6  -3  13    9.60    0.54
  -6  -3 -13    9.41    0.46
   6   3  13    9.27    0.51
   6   3  13   10.37    0.52
  -6   3 -13    8.50    0.51
   7  -3  13   15.88    0.70
  -7  -3 -13   16.05    0.66
   7  -3  13   16.28    0.70
  -7   3 -13   13.61    0.70
   7   3  13   16.23    0.68
   7   3  13   15.43    0.68
  -8  -3 -13    0.51    0.22
   8  -3  13    0.66    0.25
   8  -3  13    0.51    0.21
   8   3  13    0.39    0.22
   8   3  13    0.28    0.20
  -8   3 -13    0.23    0.25
   6  -4 -13    3.47    0.33
  -6  -4  13    3.36    0.38
   6  -4 -13    2.95    0.29
   6   4 -13    3.11    0.27
   6   4 -13    3.33    0.30
  -6   4  13    2.56    0.34
   5  -4 -13    2.05    0.23
   5  -4 -13    1.84    0.20
  -5  -4  13    2.13    0.31
   5   4 -13    1.55    0.23
  -5   4  13    2.13    0.32
   5   4 -13    2.24    0.22
  -4  -4  13    0.65    0.24
   4  -4 -13    0.33    0.15
   4  -4 -13    0.23    0.18
  -4   4  13    0.51    0.26
   4   4 -13    0.15    0.15
   4   4 -13    0.20    0.19
   3  -4 -13   17.10    0.70
   3  -4 -13   18.04    0.71
   3   4 -13   19.07    0.77
  -3   4  13   18.30    0.78
   3   4 -13   17.49    0.69
   2  -4 -13    0.58    0.18
   2   4 -13    0.65    0.18
  -2   4  13    0.76    0.25
   2   4 -13    0.48    0.20
   1  -4 -13    2.71    0.24
  -1   4  13    2.54    0.29
   1   4 -13    2.63    0.24
   0  -4  13   25.08    0.93
   0  -4 -13   24.26    0.89
   0   4 -13   23.35    0.90
   0   4  13   24.60    0.94
  -1  -4 -13   10.24    0.49
   1  -4  13   12.14    0.54
  -1   4 -13   11.31    0.52
   1   4  13   11.17    0.55
  -2  -4 -13    2.46    0.22
   2  -4  13    2.52    0.28
   2   4  13    2.61    0.27
  -2   4 -13    2.04    0.23
  -3  -4 -13    1.05    0.18
   3  -4  13    0.96    0.24
   3   4  13    1.18    0.23
  -3   4 -13    0.81    0.22
   4  -4  13    2.93    0.29
   4   4  13    2.20    0.26
   4   4  13    2.37    0.26
  -4   4 -13    2.68    0.28
   5  -4  13    5.24    0.42
  -5   4 -13    4.27    0.40
   5   4  13    5.61    0.42
   5   4  13    5.51    0.39
   6  -4  13    3.64    0.34
   6  -4  13    3.24    0.33
   6   4  13    3.26    0.30
  -6   4 -13    3.36    0.34
   6   4  13    3.42    0.36
   3  -5 -13    3.06    0.28
   3   5 -13    3.12    0.28
  -3   5  13    3.24    0.34
   3   5 -13    3.11    0.31
   2  -5 -13    2.55    0.26
   2   5 -13    2.24    0.25
  -2   5  13    2.29    0.31
   1  -5 -13    4.09    0.36
  -1   5  13    4.23    0.40
   1   5 -13    3.71    0.34
   0  -5 -13    7.06    0.41
   0   5  13    7.11    0.46
   0   5 -13    6.63    0.42
  -1  -5 -13    0.96    0.21
  -1   5 -13    0.81    0.20
   1   5  13    1.08    0.25
  -2  -5 -13    4.35    0.36
  -2   5 -13    4.17    0.37
   2   5  13    4.34    0.38
  -3  -5 -13    5.25    0.35
   3   5  13    5.37    0.40
  -3   5 -13    4.33    0.40
   9   0 -14    0.37    0.20
   9   0 -14    0.13    0.14
  -9   0  14    0.20    0.27
  -8   0  14   32.55    1.32
   8   0 -14   36.80    1.26
   8   0 -14   36.66    1.23
   7   0 -14    0.13    0.15
   7   0 -14   -0.02    0.16
  -7   0  14    0.17    0.24
   6   0 -14   15.26    0.62
  -6   0  14   14.27    0.70
   6   0 -14   15.76    0.62
   5   0 -14   -0.03    0.14
  -5   0  14    0.04    0.24
   5   0 -14    0.11    0.15
   4   0 -14    1.23    0.18
  -4   0  14    1.19    0.25
   4   0 -14    1.30    0.18
   3   0 -14    0.06    0.14
  -3   0  14   -0.08    0.21
   3   0 -14   -0.01    0.12
  -2   0  14   13.66    0.63
   2   0 -14   13.91    0.58
   2   0 -14   13.69    0.54
   1   0 -14    0.17    0.14
  -1   0  14    0.80    0.23
   1   0 -14    0.06    0.12
   0   0  14  137.18    4.47
   1   0  14    0.18    0.19
  -1   0 -14   -0.02    0.12
  -2   0 -14    3.76    0.28
   2   0  14    3.83    0.36
   3   0  14    0.38    0.22
  -3   0 -14    0.03    0.15
   3   0  14    0.18    0.17
   4   0  14   31.67    1.16
   4   0  14   31.94    1.14
  -4   0 -14   30.44    1.12
   5   0  14    0.23    0.17
  -5   0 -14    0.38    0.18
   5   0  14   -0.10    0.21
   6   0  14   61.82    2.18
  -6   0 -14   65.03    2.18
   6   0  14   66.65    2.17
   7   0  14    0.15    0.18
   7   0  14   -0.11    0.22
  -7   0 -14   -0.08    0.20
  -8   0 -14    9.57    0.54
   8   0  14    9.55    0.48
   8   0  14    9.70    0.52
  -9   0 -14   -0.16    0.21
   9   0  14   -0.10    0.22
   9   0  14    0.07    0.17
   9  -1 -14    9.47    0.44
  -9  -1  14    8.85    0.58
   9  -1 -14   10.21    0.48
   9   1 -14   10.17    0.53
  -9   1  14    8.29    0.60
   9   1 -14    9.92    0.45
  -8  -1  14    0.86    0.28
   8  -1 -14    0.57    0.16
   8  -1 -14    1.27    0.20
   8   1 -14    0.86    0.17
   8   1 -14    0.62    0.21
  -8   1  14    0.52    0.30
   7  -1 -14   55.72    1.84
  -7  -1  14   49.17    1.88
   7  -1 -14   55.88    1.84
  -7   1  14   51.75    1.91
   7   1 -14   58.32    1.85
   7   1 -14   56.53    1.87
   6  -1 -14   17.62    0.68
  -6  -1  14   16.24    0.75
   6  -1 -14   18.29    0.69
  -6   1  14   16.56    0.78
   6   1 -14   18.93    0.71
   6   1 -14   16.96    0.71
   5  -1 -14    2.83    0.26
   5  -1 -14    3.03    0.28
  -5  -1  14    3.20    0.31
   5   1 -14    3.27    0.27
   5   1 -14    2.74    0.25
  -5   1  14    2.72    0.33
  -4  -1  14    2.41    0.28
   4  -1 -14    2.76    0.22
   4  -1 -14    3.39    0.28
  -4   1  14    2.27    0.30
   4   1 -14    2.71    0.24
   4   1 -14    3.00    0.26
   3  -1 -14   16.72    0.64
  -3  -1  14   15.25    0.68
   3  -1 -14   16.41    0.62
  -3   1  14   15.36    0.70
   3   1 -14   15.24    0.63
   3   1 -14   16.66    0.67
  -2  -1  14    6.11    0.42
   2  -1 -14    6.65    0.32
   2  -1 -14    6.51    0.36
  -2   1  14    5.92    0.44
   2   1 -14    5.45    0.33
   2   1 -14    6.42    0.40
   1  -1 -14   44.80    1.52
  -1  -1  14   43.59    1.55
   1  -1 -14   45.25    1.49
  -1   1  14   42.62    1.55
   1   1 -14   43.52    1.48
   1   1 -14   46.07    1.55
   0  -1  14   29.59    1.09
   0  -1 -14   30.15    1.02
   0   1  14   29.13    1.09
   0   1 -14   29.16    1.02
   1  -1  14    3.85    0.37
   1   1  14    3.53    0.36
  -1   1 -14    3.94    0.28
   2  -1  14    5.12    0.40
  -2   1 -14    4.88    0.31
   2   1  14    4.84    0.35
   3  -1  14    3.48    0.34
  -3  -1 -14    3.23    0.27
  -3   1 -14    3.15    0.28
   3   1  14    2.57    0.24
   3   1  14    3.31    0.32
  -4  -1 -14    1.39    0.19
   4  -1  14    1.37    0.26
   4  -1  14    1.34    0.21
   4   1  14    0.95    0.22
   4   1  14    1.66    0.22
  -4   1 -14    1.09    0.20
  -5  -1 -14    2.01    0.22
   5  -1  14    2.57    0.26
   5  -1  14    2.47    0.28
  -5   1 -14    1.67    0.24
   5   1  14    1.66    0.21
   5   1  14    2.15    0.28
   6  -1  14   32.46    1.20
  -6  -1 -14   34.36    1.20
   6  -1  14   34.38    1.21
   6   1  14   34.53    1.23
   6   1  14   31.61    1.19
  -6   1 -14   33.07    1.22
  -7  -1 -14   52.12    1.74
   7  -1  14   48.91    1.74
   7  -1  14   51.98    1.74
  -7   1 -14   50.24    1.76
   7   1  14   49.63    1.72
   7   1  14   50.32    1.75
  -8  -1 -14   17.25    0.72
   8  -1  14   16.51    0.73
   8  -1  14   16.91    0.70
   8   1  14   15.99    0.72
   8   1  14   18.48    0.70
  -8   1 -14   16.88    0.75
   9  -1  14    1.92    0.28
  -9  -1 -14    1.52    0.25
   9  -1  14    1.77    0.24
  -9   1 -14    1.79    0.28
   9   1  14    1.83    0.22
   9   1  14    1.79    0.26
   8  -2 -14    0.76    0.19
   8  -2 -14    1.09    0.17
  -8   2  14    0.61    0.29
   8   2 -14    0.85    0.24
   8   2 -14    0.82    0.17
   7  -2 -14   20.22    0.74
   7  -2 -14   18.92    0.74
  -7   2  14   17.72    0.85
   7   2 -14   19.57    0.75
   7   2 -14   19.60    0.79
   6  -2 -14    9.29    0.44
  -6  -2  14    9.29    0.53
   6  -2 -14   10.24    0.45
   6   2 -14    8.99    0.48
  -6   2  14    8.78    0.58
   6   2 -14   10.06    0.49
   5  -2 -14    0.97    0.17
  -5  -2  14    1.18    0.25
   5  -2 -14    0.94    0.16
   5   2 -14    1.04    0.20
  -5   2  14    1.01    0.30
   5   2 -14    1.10    0.20
   4  -2 -14    4.73    0.32
   4  -2 -14    4.67    0.33
  -4  -2  14    5.30    0.40
   4   2 -14    5.36    0.38
  -4   2  14    5.40    0.46
   4   2 -14    4.57    0.34
   3  -2 -14   11.25    0.47
   3  -2 -14   11.26    0.49
  -3  -2  14   11.38    0.54
  -3   2  14   11.19    0.59
   3   2 -14   10.94    0.55
   3   2 -14    9.77    0.48
   2  -2 -14   18.85    0.68
  -2  -2  14   17.56    0.74
   2  -2 -14   18.13    0.70
   2   2 -14   18.23    0.66
   2   2 -14   18.27    0.76
   2   2 -14   16.26    0.67
  -2   2  14   18.21    0.77
   1  -2 -14   34.40    1.14
  -1  -2  14   32.81    1.20
   1   2 -14   32.40    1.14
  -1   2  14   32.73    1.21
   1   2 -14   32.84    1.22
   0  -2 -14    0.94    0.15
   0  -2  14    0.72    0.23
   0   2 -14    1.06    0.16
   0   2  14    1.47    0.25
   1  -2  14   53.31    1.82
  -1  -2 -14   53.67    1.75
  -1   2 -14   51.11    1.77
   1   2  14   52.69    1.81
   2  -2  14    6.05    0.43
   2   2  14    6.14    0.42
  -2   2 -14    5.99    0.37
   3  -2  14   45.96    1.57
  -3   2 -14   43.93    1.54
   3   2  14   44.27    1.55
   4  -2  14   27.98    1.02
  -4  -2 -14   26.11    0.97
   4  -2  14   26.30    0.99
   4   2  14   25.61    0.99
   4   2  14   25.46    0.98
  -4   2 -14   25.05    0.97
  -5  -2 -14    2.53    0.23
   5  -2  14    1.72    0.26
   5  -2  14    1.95    0.26
   5   2  14    1.82    0.26
   5   2  14    1.42    0.22
  -5   2 -14    1.52    0.23
   6  -2  14   12.93    0.61
  -6  -2 -14   12.59    0.57
   6  -2  14   12.83    0.61
   6   2  14   13.34    0.59
  -6   2 -14   11.34    0.59
   6   2  14   12.90    0.60
  -7  -2 -14   17.47    0.71
   7  -2  14   19.21    0.75
   7  -2  14   17.79    0.75
   7   2  14   17.38    0.72
  -7   2 -14   15.42    0.75
   7   2  14   17.86    0.75
   8  -2  14    0.15    0.24
   8  -2  14    0.25    0.20
  -8  -2 -14    0.14    0.21
   8   2  14    0.18    0.19
  -8   2 -14    0.20    0.24
   8   2  14    0.09    0.21
  -7  -3  14    7.72    0.64
   7  -3 -14    7.21    0.38
   7  -3 -14    6.72    0.41
   7   3 -14    5.77    0.46
  -7   3  14    6.51    0.54
   7   3 -14    7.60    0.42
   6  -3 -14   18.70    0.74
   6  -3 -14   19.34    0.73
  -6  -3  14   20.22    0.89
   6   3 -14   19.90    0.78
  -6   3  14   18.13    0.85
   5  -3 -14    0.42    0.17
   5  -3 -14    0.30    0.15
  -5  -3  14    0.48    0.27
   5   3 -14    0.18    0.18
  -5   3  14    0.22    0.29
   4  -3 -14   69.14    2.34
  -4  -3  14   72.64    2.39
   4  -3 -14   70.82    2.34
   4   3 -14   72.55    2.39
   4   3 -14   68.83    2.32
  -4   3  14   69.47    2.41
   3  -3 -14    5.87    0.35
  -3  -3  14    5.84    0.40
   3  -3 -14    5.95    0.36
   3   3 -14    5.67    0.32
   3   3 -14    6.14    0.43
  -3   3  14    5.94    0.48
  -2  -3  14    0.49    0.22
   2  -3 -14    0.43    0.16
   2   3 -14    0.34    0.20
  -2   3  14    0.48    0.26
   2   3 -14    0.62    0.16
  -1  -3  14    2.45    0.28
   1  -3 -14    2.57    0.22
  -1   3  14    2.15    0.28
   1   3 -14    2.59    0.22
   0  -3  14   10.93    0.54
   0  -3 -14   10.95    0.48
   0   3  14   10.83    0.56
   0   3 -14   11.02    0.49
   1  -3  14    3.18    0.30
  -1  -3 -14    2.86    0.26
   1   3  14    2.98    0.29
  -1   3 -14    2.72    0.25
   2  -3  14    9.45    0.50
  -2  -3 -14    9.25    0.42
   2   3  14    9.69    0.50
  -2   3 -14    8.66    0.46
   3  -3  14    0.78    0.23
  -3   3 -14    0.69    0.19
   3   3  14    0.49    0.21
   4  -3  14   14.39    0.64
   4   3  14   14.58    0.65
  -4   3 -14   12.98    0.62
   4   3  14   14.24    0.64
   5  -3  14   26.12    0.99
  -5   3 -14   23.48    0.98
   5   3  14   24.98    0.97
   5   3  14   27.28    0.99
   6  -3  14    0.83    0.24
   6  -3  14    0.87    0.26
   6   3  14    0.79    0.24
   6   3  14    1.07    0.24
  -6   3 -14    0.65    0.23
  -7  -3 -14   11.79    0.58
   7  -3  14   12.29    0.61
   7  -3  14   12.52    0.62
   7   3  14   12.87    0.60
  -7   3 -14   10.18    0.61
   7   3  14   12.98    0.60
  -5  -4  14   32.40    1.21
   5   4 -14   29.95    1.10
   4  -4 -14    2.61    0.25
   4  -4 -14    1.81    0.20
   4   4 -14    2.14    0.22
   4   4 -14    1.91    0.25
  -4   4  14    1.77    0.31
   3  -4 -14    9.94    0.49
   3   4 -14    9.27    0.47
   3   4 -14    9.38    0.54
  -3   4  14   10.30    0.58
   2  -4 -14    0.25    0.17
   2   4 -14    0.37    0.17
  -2   4  14    0.27    0.26
   1  -4 -14    9.96    0.47
   1   4 -14    8.95    0.46
  -1   4  14    9.73    0.54
   0  -4 -14   14.89    0.60
   0   4  14   15.05    0.68
   0   4 -14   13.56    0.61
  -1  -4 -14    9.90    0.47
   1  -4  14   10.58    0.53
  -1   4 -14    9.27    0.50
   1   4  14   10.52    0.55
   2  -4  14    4.76    0.39
  -2  -4 -14    4.27    0.32
   2   4  14    4.66    0.41
  -2   4 -14    4.28    0.36
   3  -4  14   77.12    2.49
   3   4  14   75.43    2.48
  -3   4 -14   68.89    2.48
   4  -4  14    9.95    0.53
  -4   4 -14    8.95    0.52
   4   4  14    9.28    0.51
  -5   4 -14    0.18    0.22
   8   0 -15   -0.09    0.20
   8   0 -15   -0.10    0.15
  -8   0  15    0.01    0.29
   7   0 -15    7.80    0.42
   7   0 -15    7.95    0.44
  -7   0  15    7.18    0.54
  -6   0  15   -0.06    0.27
   6   0 -15   -0.02    0.15
   6   0 -15   -0.07    0.17
   5   0 -15    3.05    0.25
  -5   0  15    2.09    0.31
   5   0 -15    2.82    0.25
  -4   0  15    0.15    0.25
   4   0 -15    0.06    0.15
   4   0 -15    0.30    0.16
   3   0 -15   28.34    0.99
  -3   0  15   25.58    1.03
   3   0 -15   26.57    0.96
   2   0 -15    0.04    0.13
   2   0 -15    0.08    0.15
  -2   0  15    0.16    0.23
  -1   0  15    0.23    0.23
   0   0  15    0.06    0.21
   1   0  15   79.67    2.66
  -2   0 -15    0.02    0.14
   2   0  15   -0.11    0.21
  -3   0 -15    7.77    0.40
   3   0  15    7.19    0.48
   4   0  15    0.16    0.25
  -4   0 -15   -0.03    0.16
   5   0  15    4.79    0.38
   5   0  15    4.69    0.40
  -5   0 -15    4.52    0.36
  -6   0 -15   -0.11    0.19
   6   0  15    0.14    0.20
   6   0  15    0.26    0.24
  -7   0 -15    0.33    0.22
   7   0  15    0.52    0.25
   7   0  15    0.56    0.20
  -8   0 -15    0.11    0.23
   8   0  15    0.28    0.23
   8   0  15    0.09    0.19
   7  -1 -15    1.21    0.20
   7  -1 -15    1.04    0.18
  -7  -1  15    0.84    0.27
  -7   1  15    0.68    0.31
   7   1 -15    0.77    0.19
   7   1 -15    0.87    0.21
   6  -1 -15   25.03    0.90
  -6  -1  15   22.85    0.97
   6  -1 -15   25.12    0.91
   6   1 -15   25.79    0.93
  -6   1  15   22.60    1.00
   6   1 -15   25.63    0.93
   5  -1 -15   18.90    0.72
   5  -1 -15   19.77    0.74
  -5  -1  15   17.68    0.80
  -5   1  15   17.70    0.83
   5   1 -15   18.64    0.73
   5   1 -15   19.55    0.76
  -4  -1  15    0.48    0.24
   4  -1 -15    0.22    0.15
   4  -1 -15    0.13    0.15
   4   1 -15    0.01    0.16
  -4   1  15    0.08    0.26
   4   1 -15    0.09    0.17
   3  -1 -15    1.35    0.18
   3  -1 -15    1.25    0.18
  -3  -1  15    1.41    0.27
   3   1 -15    1.07    0.18
  -3   1  15    1.34    0.29
   3   1 -15    1.54    0.23
   2  -1 -15    2.01    0.21
  -2  -1  15    2.12    0.29
   2  -1 -15    2.05    0.19
   2   1 -15    2.05    0.24
  -2   1  15    2.28    0.30
  -1  -1  15    0.87    0.25
   1  -1 -15    1.02    0.15
  -1   1  15    1.65    0.28
   0  -1  15    1.44    0.25
   0   1  15    1.80    0.28
   1  -1  15    4.00    0.41
   1   1  15    3.99    0.41
  -1   1 -15    4.37    0.30
   2  -1  15    1.25    0.27
   2   1  15    1.24    0.25
  -2   1 -15    1.13    0.19
   3  -1  15    4.83    0.43
   3   1  15    3.83    0.40
  -3   1 -15    4.10    0.33
   4  -1  15   10.77    0.57
  -4  -1 -15   10.00    0.48
   4   1  15   10.66    0.56
  -4   1 -15    9.91    0.49
   5  -1  15    0.37    0.23
  -5  -1 -15    0.25    0.18
   5  -1  15    0.45    0.20
   5   1  15    0.75    0.26
  -5   1 -15    0.14    0.19
   5   1  15    0.24    0.18
  -6  -1 -15    3.40    0.29
   6  -1  15    3.36    0.30
   6  -1  15    3.07    0.31
   6   1  15    3.16    0.33
   6   1  15    3.71    0.35
  -6   1 -15    3.13    0.30
   7  -1  15   29.95    1.13
  -7  -1 -15   31.53    1.13
   7  -1  15   29.79    1.12
   7   1  15   31.42    1.12
  -7   1 -15   30.80    1.15
   7   1  15   30.07    1.14
   7  -2 -15    0.68    0.16
   7  -2 -15    0.69    0.18
  -7   2  15    0.06    0.30
   7   2 -15    0.53    0.18
   7   2 -15    0.48    0.22
   6  -2 -15    0.77    0.16
   6  -2 -15    0.55    0.18
  -6  -2  15    0.28    0.25
   6   2 -15    0.23    0.20
  -6   2  15    0.52    0.29
   6   2 -15    0.57    0.19
  -5  -2  15    7.67    0.51
   5  -2 -15    7.15    0.39
   5  -2 -15    7.11    0.39
  -5   2  15    7.68    0.55
   5   2 -15    8.41    0.46
   5   2 -15    6.80    0.43
   4  -2 -15    6.85    0.37
   4  -2 -15    6.29    0.36
  -4  -2  15    6.27    0.48
  -4   2  15    6.18    0.52
   4   2 -15    6.47    0.43
   4   2 -15    5.72    0.38
   3  -2 -15    0.62    0.16
  -3  -2  15    0.35    0.24
   3  -2 -15    0.54    0.16
   3   2 -15    0.63    0.22
  -3   2  15    0.25    0.24
   2  -2 -15   24.55    0.87
  -2  -2  15   24.45    0.95
   2   2 -15   24.02    0.96
  -2   2  15   24.21    0.96
  -1  -2  15    1.52    0.26
   1  -2 -15    1.60    0.18
   1   2 -15    1.43    0.18
  -1   2  15    1.62    0.28
   0  -2  15   18.31    0.77
   0  -2 -15   18.00    0.67
   0   2 -15   17.67    0.69
   0   2  15   17.55    0.75
   1  -2  15    0.03    0.24
  -1   2 -15   -0.07    0.14
   1   2  15    0.11    0.22
   2  -2  15   32.85    1.18
   2   2  15   30.85    1.16
  -2   2 -15   29.88    1.11
   3  -2  15    5.10    0.42
  -3   2 -15    5.12    0.36
   3   2  15    4.91    0.41
   4  -2  15    2.52    0.31
   4   2  15    1.91    0.27
  -4   2 -15    2.43    0.26
   5  -2  15    5.47    0.43
  -5   2 -15    4.08    0.38
   5   2  15    4.77    0.41
   6  -2  15    1.50    0.28
  -6  -2 -15    1.61    0.23
   6  -2  15    1.48    0.26
   6   2  15    1.11    0.25
  -6   2 -15    1.16    0.24
   6   2  15    1.48    0.23
   7  -2  15    0.13    0.25
   7  -2  15    0.30    0.22
  -7  -2 -15    0.22    0.21
   7   2  15    0.20    0.20
   7   2  15    0.13    0.24
  -7   2 -15    0.06    0.23
   5  -3 -15    8.65    0.45
   5  -3 -15    8.81    0.44
  -5  -3  15    9.24    0.59
   5   3 -15    9.71    0.52
  -5   3  15    8.59    0.60
   4  -3 -15    4.61    0.33
   4  -3 -15    4.78    0.33
   4   3 -15    4.34    0.40
  -4   3  15    4.57    0.42
   3  -3 -15    9.07    0.44
  -3   3  15    9.24    0.54
   3   3 -15    9.40    0.53
   3   3 -15    8.78    0.43
  -2  -3  15    1.10    0.27
   2  -3 -15    1.07    0.19
  -2   3  15    0.67    0.28
   2   3 -15    0.97    0.18
   1  -3 -15    1.07    0.18
  -1  -3  15    1.48    0.28
   1   3 -15    1.06    0.18
  -1   3  15    0.94    0.26
   0  -3 -15    1.43    0.19
   0  -3  15    1.37    0.26
   0   3 -15    1.32    0.19
   0   3  15    1.29    0.27
   1  -3  15    0.42    0.22
  -1   3 -15    0.35    0.18
   1   3  15    0.42    0.24
   2  -3  15    9.63    0.54
  -2   3 -15    8.56    0.48
   2   3  15    9.08    0.52
   3  -3  15    3.41    0.31
   3   3  15    2.47    0.28
  -3   3 -15    2.60    0.27
   4  -3  15    0.24    0.24
  -4   3 -15    0.10    0.20
   4   3  15    0.08    0.22
   5  -3  15    4.01    0.41
  -5   3 -15    3.79    0.34
   5   3  15    4.15    0.41
   0   4 -15    0.26    0.18
  -6   0  16    7.12    0.56
   6   0 -16    8.02    0.45
   6   0 -16    8.11    0.44
   5   0 -16    0.05    0.17
  -5   0  16    0.51    0.30
   5   0 -16   -0.01    0.16
   4   0 -16   44.39    1.52
  -4   0  16   41.86    1.60
   4   0 -16   47.33    1.56
   3   0 -16    0.05    0.16
   3   0 -16    0.08    0.14
  -3   0  16   -0.04    0.26
  -2   0  16    2.63    0.33
  -1   0  16    0.24    0.26
   0   0  16    1.79    0.30
   1   0  16    0.17    0.23
   2   0  16    0.49    0.27
   3   0  16   -0.15    0.25
   4   0  16   86.04    2.86
  -4   0 -16   83.89    2.81
  -5   0 -16    0.06    0.20
   5   0  16    0.07    0.26
   6   0  16    0.29    0.26
  -6   0 -16    0.23    0.22
   6   0  16    0.25    0.21
   6  -1 -16    2.84    0.25
   6   1 -16    3.61    0.30
   5  -1 -16   13.83    0.58
   5  -1 -16   13.23    0.56
  -5  -1  16   12.85    0.67
   5   1 -16   12.95    0.58
   5   1 -16   13.74    0.61
  -5   1  16   12.16    0.70
  -4  -1  16    4.89    0.47
   4  -1 -16    5.74    0.35
   4  -1 -16    6.35    0.38
   4   1 -16    4.66    0.36
   4   1 -16    6.29    0.42
  -4   1  16    5.76    0.52
   3  -1 -16   43.46    1.46
  -3  -1  16   41.01    1.54
   3  -1 -16   44.55    1.49
   3   1 -16   45.19    1.53
  -3   1  16   40.11    1.55
   2  -1 -16   18.28    0.66
  -2  -1  16   16.75    0.76
  -2   1  16   15.99    0.77
  -1  -1  16    0.58    0.27
  -1   1  16    0.19    0.23
   0  -1  16    3.50    0.34
   0   1  16    2.62    0.33
   1  -1  16   27.85    1.06
   1   1  16   26.27    1.03
   2  -1  16    5.18    0.47
  -2   1 -16    4.99    0.34
   2   1  16    5.04    0.46
   3  -1  16   38.69    1.40
   3   1  16   37.75    1.38
  -3   1 -16   36.79    1.32
   4  -1  16   11.85    0.62
  -4   1 -16   10.51    0.53
   4   1  16   11.79    0.58
   5  -1  16    0.90    0.25
  -5   1 -16    0.97    0.22
   5   1  16    0.96    0.28
  -4  -2  16    0.74    0.27
   4  -2 -16    0.75    0.17
   4  -2 -16    0.70    0.17
   4   2 -16    0.99    0.23
  -4   2  16    0.77    0.30
  -3  -2  16   31.13    1.20
   3  -2 -16   31.60    1.12
   3  -2 -16   33.27    1.15
  -3   2  16   29.96    1.22
   3   2 -16   33.19    1.20
   2  -2 -16    8.54    0.41
  -2  -2  16    8.52    0.55
  -2   2  16    8.64    0.56
   1  -2 -16    4.17    0.29
  -1  -2  16    3.97    0.36
  -1   2  16    3.99    0.37
   0  -2  16    0.11    0.25
   0   2  16    0.36    0.26
   0   2 -16    0.01    0.15
   1  -2  16    0.56    0.26
   1   2  16    0.51    0.26
  -1   2 -16    0.28    0.17
   2  -2  16   14.19    0.69
   2   2  16   14.75    0.68
  -2   2 -16   14.02    0.61
   3  -2  16   19.48    0.83
   3   2  16   19.43    0.80
  -3   2 -16   19.33    0.77
   4  -2  16    0.35    0.25
   4   2  16    0.14    0.26
  -4   2 -16    0.10    0.20
  -1  -3  16    0.30    0.25
   1  -3 -16    0.19    0.15
  -1   3  16    0.18    0.27
   1   3 -16    0.24    0.17
   0  -3  16   69.85    2.31
   0   3 -16   64.97    2.25
   0   3  16   67.33    2.31
   1  -3  16    5.26    0.43
   1   3  16    4.85    0.46
  -1   3 -16    4.28    0.35
   3   0 -17    9.61    0.50
  -3   0  17    8.97    0.60
  -2   0  17    0.34    0.30
  -1   0  17    3.02    0.35
   0   0  17    0.25    0.26
   1   0  17   16.82    0.75
   2   0  17    0.34    0.28
   3   0  17    2.44    0.35
  -2  -1  17   23.46    0.97
  -2   1  17   22.86    0.98
  -1  -1  17   16.46    0.76
  -1   1  17   15.22    0.76
   0  -1  17    0.42    0.29
   0   1  17    0.34    0.28
   1  -1  17    0.36    0.29
   1   1  17    0.42    0.28
   2  -1  17    4.98    0.51
   2   1  17    4.54    0.48
   0   0   0    0.00    0.00
;
_shelx_hkl_checksum              7549
_olex2_submission_special_instructions 'No special instructions were received'
loop_
_space_group_symop_operation_xyz
'x, y, z'
'-x+1/2, y+1/2, -z+1/2'
'-x, -y, -z'
'x-1/2, -y-1/2, z-1/2'
loop_
_atom_site_label
_atom_site_type_symbol
_atom_site_fract_x
_atom_site_fract_y
_atom_site_fract_z
_atom_site_U_iso_or_equiv
_atom_site_adp_type
_atom_site_occupancy
_atom_site_site_symmetry_order
_atom_site_calc_flag
Br1 Br 0.43243(2) 0.92658(3) 0.38328(2) 0.01116(6) Uani 1 1 d
Br2 Br 0.30323(2) 0.81756(4) 0.17279(2) 0.01162(6) Uani 1 1 d
Br3 Br 0.36572(2) 0.38298(4) 0.04312(2) 0.01218(6) Uani 1 1 d
Br4 Br 0.57601(2) 0.08244(4) 0.10918(2) 0.01281(6) Uani 1 1 d
O1 O 0.72322(13) 0.0987(3) 0.30599(13) 0.0180(4) Uani 1 1 d
O2 O 0.61408(13) 0.6496(3) 0.49969(12) 0.0171(3) Uani 1 1 d
O3 O 0.68629(12) 0.3640(3) 0.41747(11) 0.0133(3) Uani 1 1 d
C1 C 0.66979(17) 0.2546(4) 0.32750(16) 0.0115(4) Uani 1 1 d
C2 C 0.61538(17) 0.5390(4) 0.42635(16) 0.0120(4) Uani 1 1 d
C3 C 0.46817(16) 0.6824(3) 0.30537(16) 0.0089(4) Uani 1 1 d
C4 C 0.41482(16) 0.6353(4) 0.21618(15) 0.0087(4) Uani 1 1 d
C5 C 0.44424(16) 0.4522(4) 0.15824(15) 0.0092(4) Uani 1 1 d
C6 C 0.53006(16) 0.3195(3) 0.18679(16) 0.0088(4) Uani 1 1 d
C7 C 0.58094(16) 0.3671(4) 0.27565(16) 0.0091(4) Uani 1 1 d
C8 C 0.54971(17) 0.5428(4) 0.33434(15) 0.0092(4) Uani 1 1 d
loop_
_atom_site_aniso_label
_atom_site_aniso_U_11
_atom_site_aniso_U_22
_atom_site_aniso_U_33
_atom_site_aniso_U_23
_atom_site_aniso_U_13
_atom_site_aniso_U_12
Br1 0.01240(12) 0.01121(12) 0.00985(11) -0.00365(7) -0.00087(8) 0.00066(7)
Br2 0.00994(11) 0.01239(11) 0.01252(11) -0.00016(8) -0.00388(7) 0.00303(7)
Br3 0.01134(11) 0.01572(12) 0.00946(11) -0.00387(8) -0.00528(8) 0.00107(8)
Br4 0.01293(12) 0.01299(12) 0.01251(12) -0.00486(8) -0.00153(8) 0.00319(7)
O1 0.0155(9) 0.0199(9) 0.0187(9) -0.0001(7) -0.0015(7) 0.0077(6)
O2 0.0173(8) 0.0229(9) 0.0111(8) -0.0049(7) -0.0055(6) -0.0002(7)
O3 0.0110(7) 0.0185(8) 0.0105(8) 0.0003(6) -0.0038(6) 0.0028(6)
C1 0.0090(10) 0.0144(11) 0.0111(10) 0.0022(8) -0.0010(7) -0.0017(8)
C2 0.0088(10) 0.0166(11) 0.0107(10) 0.0027(9) -0.0032(8) -0.0018(8)
C3 0.0091(9) 0.0096(10) 0.0081(9) -0.0013(8) 0.0000(7) -0.0013(7)
C4 0.0062(9) 0.0100(10) 0.0099(10) 0.0027(8) -0.0010(7) 0.0009(7)
C5 0.0073(9) 0.0130(10) 0.0073(9) -0.0006(8) -0.0026(7) -0.0029(8)
C6 0.0087(9) 0.0085(10) 0.0092(10) -0.0010(8) 0.0007(7) -0.0007(7)
C7 0.0075(9) 0.0101(10) 0.0096(10) 0.0024(8) -0.0007(7) -0.0006(7)
C8 0.0095(10) 0.0121(10) 0.0060(9) -0.0002(8) -0.0018(7) -0.0026(8)
loop_
_atom_type_symbol
_atom_type_description
_atom_type_scat_dispersion_real
_atom_type_scat_dispersion_imag
_atom_type_scat_source
C C 0.0033 0.0016 'International Tables Vol C Tables 4.2.6.8 and 6.1.1.4'
O O 0.0106 0.0060 'International Tables Vol C Tables 4.2.6.8 and 6.1.1.4'
Br Br -0.2901 2.4595 'International Tables Vol C Tables 4.2.6.8 and 6.1.1.4'
loop_
_geom_angle_atom_site_label_1
_geom_angle_atom_site_label_2
_geom_angle_atom_site_label_3
_geom_angle
C1 O3 C2 110.29(17)
O1 C1 O3 120.40(19)
O1 C1 C7 132.4(2)
O3 C1 C7 107.17(18)
O2 C2 O3 120.86(19)
O2 C2 C8 132.0(2)
O3 C2 C8 107.08(18)
C4 C3 Br1 121.71(16)
C8 C3 Br1 120.59(16)
C8 C3 C4 117.69(19)
C3 C4 Br2 119.86(16)
C3 C4 C5 120.59(19)
C5 C4 Br2 119.55(15)
C4 C5 Br3 119.63(16)
C6 C5 Br3 119.75(16)
C6 C5 C4 120.61(19)
C5 C6 Br4 122.11(16)
C7 C6 Br4 120.00(16)
C7 C6 C5 117.88(19)
C6 C7 C1 130.8(2)
C6 C7 C8 121.48(19)
C8 C7 C1 107.71(18)
C3 C8 C2 130.6(2)
C3 C8 C7 121.64(19)
C7 C8 C2 107.70(19)
loop_
_geom_bond_atom_site_label_1
_geom_bond_atom_site_label_2
_geom_bond_distance
Br1 C3 1.871(2)
Br2 C4 1.875(2)
Br3 C5 1.875(2)
Br4 C6 1.870(2)
O1 C1 1.197(3)
O2 C2 1.191(3)
O3 C1 1.392(3)
O3 C2 1.392(3)
C1 C7 1.478(3)
C2 C8 1.480(3)
C3 C4 1.397(3)
C3 C8 1.383(3)
C4 C5 1.408(3)
C5 C6 1.397(3)
C6 C7 1.380(3)
C7 C8 1.385(3)
loop_
_geom_torsion_atom_site_label_1
_geom_torsion_atom_site_label_2
_geom_torsion_atom_site_label_3
_geom_torsion_atom_site_label_4
_geom_torsion
Br1 C3 C4 Br2 -0.7(2)
Br1 C3 C4 C5 179.12(16)
Br1 C3 C8 C2 5.2(3)
Br1 C3 C8 C7 -176.91(16)
Br2 C4 C5 Br3 -4.0(2)
Br2 C4 C5 C6 177.25(16)
Br3 C5 C6 Br4 4.1(2)
Br3 C5 C6 C7 -175.52(15)
Br4 C6 C7 C1 -2.3(3)
Br4 C6 C7 C8 179.28(16)
O1 C1 C7 C6 2.6(4)
O1 C1 C7 C8 -178.8(2)
O2 C2 C8 C3 2.0(4)
O2 C2 C8 C7 -176.1(2)
O3 C1 C7 C6 -176.7(2)
O3 C1 C7 C8 1.8(2)
O3 C2 C8 C3 -180.0(2)
O3 C2 C8 C7 1.9(2)
C1 O3 C2 O2 177.5(2)
C1 O3 C2 C8 -0.8(2)
C1 C7 C8 C2 -2.3(2)
C1 C7 C8 C3 179.41(19)
C2 O3 C1 O1 180.0(2)
C2 O3 C1 C7 -0.6(2)
C3 C4 C5 Br3 176.18(16)
C3 C4 C5 C6 -2.6(3)
C4 C3 C8 C2 -175.3(2)
C4 C3 C8 C7 2.6(3)
C4 C5 C6 Br4 -177.12(16)
C4 C5 C6 C7 3.2(3)
C5 C6 C7 C1 177.3(2)
C5 C6 C7 C8 -1.1(3)
C6 C7 C8 C2 176.44(19)
C6 C7 C8 C3 -1.9(3)
C8 C3 C4 Br2 179.83(15)
C8 C3 C4 C5 -0.3(3)
