#------------------------------------------------------------------------------
#$Date: 2019-11-25 04:54:22 +0200 (Mon, 25 Nov 2019) $
#$Revision: 240053 $
#$URL: file:///home/coder/svn-repositories/cod/cif/4/12/93/4129314.cif $
#------------------------------------------------------------------------------
#
# This file is available in the Crystallography Open Database (COD),
# http://www.crystallography.net/
#
# All data on this site have been placed in the public domain by the
# contributors.
#
data_4129314
loop_
_publ_author_name
'Harada, Jun'
'Ohtani, Masaki'
'Takahashi, Yukihiro'
'Inabe, Tamotsu'
_publ_section_title
;
 Molecular motion, dielectric response, and phase transition of
 charge-transfer crystals: acquired dynamic and dielectric properties of
 polar molecules in crystals.
;
_journal_issue                   13
_journal_name_full               'Journal of the American Chemical Society'
_journal_page_first              4477
_journal_page_last               4486
_journal_paper_doi               10.1021/jacs.5b00412
_journal_volume                  137
_journal_year                    2015
_chemical_formula_moiety         'Br4 C8 O3, C20 H12'
_chemical_formula_sum            'C28 H12 Br4 O3'
_chemical_formula_weight         716.02
_space_group_crystal_system      triclinic
_space_group_IT_number           2
_space_group_name_Hall           '-P 1'
_space_group_name_H-M_alt        'P -1'
_atom_sites_solution_hydrogens   geom
_atom_sites_solution_primary     direct
_audit_creation_date             2014-12-18
_audit_creation_method
;
Olex2 1.2
(compiled 2014.11.28 svn.r3106 for OlexSys, GUI svn.r4959)
;
_cell_angle_alpha                66.7020(10)
_cell_angle_beta                 84.4390(10)
_cell_angle_gamma                73.0640(10)
_cell_formula_units_Z            1
_cell_length_a                   7.7233(3)
_cell_length_b                   9.1834(3)
_cell_length_c                   9.1909(3)
_cell_measurement_reflns_used    7107
_cell_measurement_temperature    300
_cell_measurement_theta_max      27.418
_cell_measurement_theta_min      2.413
_cell_volume                     572.63(3)
_computing_cell_refinement       'SAINT v8.34A (Bruker, 2013)'
_computing_data_collection       'Bruker APEX2 2014.1-1 (Bruker, 2014)'
_computing_data_reduction        'SAINT v8.34A (Bruker, 2013)'
_computing_molecular_graphics    'Olex2 (Dolomanov et al., 2009)'
_computing_publication_material  'Olex2 (Dolomanov et al., 2009)'
_computing_structure_refinement  'ShelXL (Sheldrick, 2008)'
_computing_structure_solution    'ShelXT (Sheldrick, 2008)'
_diffrn_ambient_temperature      300
_diffrn_detector_area_resol_mean 8.3333
_diffrn_measured_fraction_theta_full 0.992
_diffrn_measured_fraction_theta_max 0.991
_diffrn_measurement_device_type  'Bruker APEX-II CCD'
_diffrn_measurement_method       '\f and \w scans'
_diffrn_radiation_type           MoK\a
_diffrn_radiation_wavelength     0.71073
_diffrn_reflns_av_R_equivalents  0.0287
_diffrn_reflns_av_unetI/netI     0.0231
_diffrn_reflns_Laue_measured_fraction_full 0.992
_diffrn_reflns_Laue_measured_fraction_max 0.991
_diffrn_reflns_limit_h_max       9
_diffrn_reflns_limit_h_min       -9
_diffrn_reflns_limit_k_max       11
_diffrn_reflns_limit_k_min       -11
_diffrn_reflns_limit_l_max       11
_diffrn_reflns_limit_l_min       -11
_diffrn_reflns_number            11086
_diffrn_reflns_point_group_measured_fraction_full 0.992
_diffrn_reflns_point_group_measured_fraction_max 0.991
_diffrn_reflns_theta_full        25.242
_diffrn_reflns_theta_max         27.470
_diffrn_reflns_theta_min         2.413
_diffrn_source                   'rotating-anode X-ray tube'
_diffrn_standards_number         0
_exptl_absorpt_coefficient_mu    7.060
_exptl_absorpt_correction_T_max  0.2200
_exptl_absorpt_correction_T_min  0.0692
_exptl_absorpt_correction_type   multi-scan
_exptl_absorpt_process_details
'SADABS-2014/4 (Bruker,2014/4) was used for absorption correction. wR2(int) was 0.1078 before and 0.0423 after correction. The Ratio of minimum to maximum transmission is 0.3145. The \l/2 correction factor is Not present.'
_exptl_crystal_colour            red
_exptl_crystal_colour_primary    red
_exptl_crystal_density_diffrn    2.076
_exptl_crystal_description       block
_exptl_crystal_F_000             344
_exptl_crystal_size_max          0.5
_exptl_crystal_size_mid          0.2
_exptl_crystal_size_min          0.18
_refine_diff_density_max         0.922
_refine_diff_density_min         -1.063
_refine_diff_density_rms         0.107
_refine_ls_extinction_coef       0.034(5)
_refine_ls_extinction_expression Fc^*^=kFc[1+0.001xFc^2^\l^3^/sin(2\q)]^-1/4^
_refine_ls_extinction_method     SHELXL
_refine_ls_goodness_of_fit_ref   1.090
_refine_ls_hydrogen_treatment    constr
_refine_ls_matrix_type           full
_refine_ls_number_parameters     188
_refine_ls_number_reflns         2586
_refine_ls_number_restraints     123
_refine_ls_restrained_S_all      1.095
_refine_ls_R_factor_all          0.0539
_refine_ls_R_factor_gt           0.0494
_refine_ls_shift/su_max          0.000
_refine_ls_shift/su_mean         0.000
_refine_ls_structure_factor_coef Fsqd
_refine_ls_weighting_details
'w=1/[\s^2^(Fo^2^)+(0.0780P)^2^+1.0381P] where P=(Fo^2^+2Fc^2^)/3'
_refine_ls_weighting_scheme      calc
_refine_ls_wR_factor_gt          0.1518
_refine_ls_wR_factor_ref         0.1558
_reflns_Friedel_coverage         0.000
_reflns_number_gt                2303
_reflns_number_total             2586
_reflns_threshold_expression     'I > 2\s(I)'
_cod_data_source_file            ja5b00412_si_002.cif
_cod_data_source_block           perylene_TBPA_300K
_cod_database_code               4129314
_shelxl_version_number           2014/6
_shelx_space_group_comment
;
The symmetry employed for this shelxl refinement is uniquely defined
by the following loop, which should always be used as a source of
symmetry information in preference to the above space-group names.
They are only intended as comments.
;
_shelx_estimated_absorpt_t_max   0.363
_shelx_estimated_absorpt_t_min   0.126
_olex2_refinement_description
;
1. Fixed Uiso
 At 1.2 times of:
  All C(H) groups
2. Rigid body (RIGU) restrains
 O3, O1, O2, Br1, Br2, Br3, Br4, C1, C2, C3, C4, C5, C6, C7, C8
 with sigma for 1-2 distances of 0.004 and sigma for 1-3 distances of 0.004
3. Others
 Fixed Sof: O3(0.5) O1(0.5) O2(0.5) Br1(0.5) Br2(0.5) Br3(0.5) Br4(0.5)
 C1(0.5) C2(0.5) C3(0.5) C4(0.5) C5(0.5) C6(0.5) C7(0.5) C8(0.5)
4.a Free rotating group:
 O3(O1,O2,Br1,Br2,Br3,Br4,C1,C2,C3,C4,C5,C6,C7,C8)
4.b Aromatic/amide H refined with riding coordinates:
 C9(H9), C10(H10), C11(H11), C12(H12), C13(H13), C14(H14)
;
_shelx_res_file
;
TITL perylene_TBPA_300K_a.res in P-1
CELL  0.71073   7.7233   9.1834   9.1909   66.702   84.439   73.064
ZERR    1.000   0.0003   0.0003   0.0003    0.001    0.001    0.001
LATT  1
SFAC C H O BR
UNIT 28 12 3 4
TEMP 27
SIZE 0.18 0.20 0.50
L.S. 5
BOND $H
CONF
ACTA
LIST 4
FMAP 2
PLAN 40
RIGU O3 > C8
WGHT    0.078000    1.038100
EXTI    0.034419
FVAR       0.20536
PART -1 10.5
AFIX   6
O3    3    0.405941    0.868834    0.505917    10.50000    0.10610    0.05165 =
         0.08451   -0.03440    0.00164   -0.01650
O1    3    0.548983    0.728881    0.742867    10.50000    0.08920    0.08013 =
         0.06976   -0.05493    0.01643   -0.03997
O2    3    0.277270    0.937740    0.271932    10.50000    0.08106    0.01988 =
         0.03295    0.01548   -0.00856    0.00126
BR1   4    0.327364    0.648404    0.144544    10.50000    0.10444    0.10077 =
         0.07657   -0.03827   -0.01938   -0.02205
BR2   4    0.487764    0.243699    0.327491    10.50000    0.07280    0.06632 =
         0.07960   -0.05612    0.01400   -0.03081
BR3   4    0.686651    0.090081    0.675205    10.50000    0.07638    0.02489 =
         0.06874   -0.00442   -0.00166    0.00071
BR4   4    0.687836    0.333209    0.858760    10.50000    0.06258    0.07505 =
         0.03849   -0.00718   -0.00432   -0.02990
C1    1    0.499385    0.725379    0.627871    10.50000    0.06192    0.06256 =
         0.06334   -0.04049    0.01141   -0.02880
C2    1    0.361079    0.834328    0.382218    10.50000    0.05560    0.04327 =
         0.05367   -0.01013   -0.00172    0.00140
C3    1    0.429024    0.554653    0.348553    10.50000    0.03810    0.05248 =
         0.04606   -0.02534    0.00332   -0.01328
C4    1    0.502554    0.384379    0.425773    10.50000    0.03542    0.04550 =
         0.05492   -0.03055    0.01569   -0.01327
C5    1    0.583055    0.317962    0.576176    10.50000    0.03731    0.03643 =
         0.05059   -0.02240    0.01123   -0.01223
C6    1    0.588906    0.418971    0.655122    10.50000    0.04349    0.04326 =
         0.04139   -0.01747    0.00727   -0.01382
C7    1    0.514241    0.587171    0.576971    10.50000    0.05005    0.04011 =
         0.04546   -0.02303    0.00160   -0.01556
C8    1    0.435698    0.652680    0.428616    10.50000    0.04963    0.03700 =
         0.04637   -0.01553    0.00131   -0.00887
AFIX   0
PART 0
C9    1    0.835874    0.832698    0.314659    11.00000    0.08225    0.03739 =
         0.08785   -0.00794   -0.01395   -0.01188
AFIX  43
H9    2    0.831534    0.914041    0.352171    11.00000   -1.20000
AFIX   0
C10   1    0.760126    0.879128    0.164733    11.00000    0.09796    0.05497 =
         0.09418    0.01523   -0.02974   -0.01958
AFIX  43
H10   2    0.709408    0.990185    0.103880    11.00000   -1.20000
AFIX   0
C11   1    0.760152    0.764877    0.108316    11.00000    0.07946    0.09264 =
         0.05266    0.00398   -0.01454   -0.03127
AFIX  43
H11   2    0.707769    0.797285    0.009464    11.00000   -1.20000
AFIX   0
C12   1    0.842330    0.476984    0.138774    11.00000    0.06612    0.12077 =
         0.05586   -0.04809    0.00917   -0.03867
AFIX  43
H12   2    0.790423    0.508524    0.039918    11.00000   -1.20000
AFIX   0
C13   1    0.920236    0.316208    0.223845    11.00000    0.07365    0.11087 =
         0.09361   -0.07630    0.01232   -0.03124
AFIX  43
H13   2    0.921660    0.237727    0.183347    11.00000   -1.20000
AFIX   0
C14   1    0.999002    0.266528    0.372689    11.00000    0.06241    0.06166 =
         0.08896   -0.04926    0.00887   -0.01347
AFIX  43
H14   2    1.051782    0.154930    0.429919    11.00000   -1.20000
AFIX   0
C15   1    0.915890    0.671495    0.407313    11.00000    0.04586    0.03692 =
         0.05250   -0.01365    0.00421   -0.01127
C16   1    0.918887    0.548583    0.348640    11.00000    0.03949    0.05040 =
         0.04127   -0.01782    0.00915   -0.01693
C17   1    1.000258    0.379336    0.436729    11.00000    0.04112    0.04435 =
         0.05299   -0.02468    0.00983   -0.01321
C18   1    0.838629    0.596756    0.197304    11.00000    0.05087    0.07688 =
         0.04270   -0.01630    0.00491   -0.02377
HKLF 4

REM  perylene_TBPA_300K_a.res in P-1
REM R1 =  0.0494 for    2303 Fo > 4sig(Fo)  and  0.0539 for all    2586 data
REM    188 parameters refined using    123 restraints

END

WGHT      0.0780      1.0382

REM Highest difference peak  0.922,  deepest hole -1.063,  1-sigma level  0.107
Q1    1   0.6208  0.0839  0.6434  11.00000  0.05    0.92
Q2    1   0.6653  0.0580  0.7104  11.00000  0.05    0.77
Q3    1   0.4992  0.6983  0.6816  11.00000  0.05    0.76
Q4    1   0.5444  0.2569  0.3316  11.00000  0.05    0.72
Q5    1   0.6713  0.1552  0.6993  11.00000  0.05    0.60
Q6    1   0.6034  0.5604  0.8048  11.00000  0.05    0.54
Q7    1   0.3051  0.8193  0.2051  11.00000  0.05    0.44
Q8    1   0.6986  0.2343  0.8205  11.00000  0.05    0.44
Q9    1   0.4991  0.4099  0.3894  11.00000  0.05    0.39
Q10   1   0.4650  0.6380  0.4982  11.00000  0.05    0.37
Q11   1   0.5861  0.4003  0.6234  11.00000  0.05    0.37
Q12   1   0.8208  0.6571  0.1741  11.00000  0.05    0.35
Q13   1   0.8774  0.5623  0.2749  11.00000  0.05    0.33
Q14   1   0.9076  0.6060  0.3778  11.00000  0.05    0.32
Q15   1   0.5994  0.3119  0.6146  11.00000  0.05    0.29
Q16   1   0.6549  0.3258  0.7612  11.00000  0.05    0.28
Q17   1   0.9903  0.3396  0.4127  11.00000  0.05    0.28
Q18   1   0.3270  0.5368  0.1184  11.00000  0.05    0.27
Q19   1   0.7421  0.2423  0.9431  11.00000  0.05    0.26
Q20   1   0.9567  0.2670  0.3023  11.00000  0.05    0.25
Q21   1   0.4086  0.7782  0.4411  11.00000  0.05    0.25
Q22   1   0.9535  0.6519  0.4769  11.00000  0.05    0.24
Q23   1   0.3048  0.6018  0.0420  11.00000  0.05    0.23
Q24   1   0.3812  0.5662  0.2673  11.00000  0.05    0.23
Q25   1   0.9799  0.4638  0.3806  11.00000  0.05    0.22
Q26   1   0.7468  0.8232  0.1480  11.00000  0.05    0.22
Q27   1   0.2079  1.0134  0.1971  11.00000  0.05    0.21
Q28   1   0.9077  0.7373  0.3525  11.00000  0.05    0.20
Q29   1   0.8991  0.2993  0.2005  11.00000  0.05    0.20
Q30   1   0.8291  0.8686  0.3262  11.00000  0.05    0.19
Q31   1   0.8534  0.5649  0.1412  11.00000  0.05    0.19
Q32   1   0.9051  0.4050  0.1996  11.00000  0.05    0.19
Q33   1   0.7941  1.0526  0.0907  11.00000  0.05    0.18
Q34   1   0.7307  1.0753  0.1198  11.00000  0.05    0.16
Q35   1   0.7356  0.4233  0.0404  11.00000  0.05    0.16
Q36   1   0.7362  1.1020 -0.0871  11.00000  0.05    0.15
Q37   1   0.6654  1.0273  0.1582  11.00000  0.05    0.15
Q38   1   0.7891  0.4607 -0.0474  11.00000  0.05    0.15
Q39   1   0.7032  0.8790 -0.1633  11.00000  0.05    0.15
Q40   1   0.8088  0.4618  0.1351  11.00000  0.05    0.14
;
_shelx_res_checksum              6428
_shelx_hkl_file
;
  -1   0   0  116.72    4.36
  -1   0   0  124.01    4.30
   1   0   0  123.06    4.29
   1   0   0  120.28    4.29
   1   0   0  122.53    4.37
  -2   0   0    0.22    0.03
  -2   0   0    0.27    0.02
  -2   0   0    0.23    0.01
  -2   0   0    0.22    0.01
  -2   0   0    0.28    0.03
  -2   0   0    0.14    0.03
   2   0   0    0.29    0.01
   2   0   0    0.26    0.01
   2   0   0    0.21    0.04
   2   0   0    0.16    0.03
   2   0   0    0.26    0.03
  -3   0   0   25.31    0.89
   3   0   0   25.62    0.88
   3   0   0   25.61    0.88
   3   0   0   25.87    0.89
  -4   0   0   10.29    0.39
  -4   0   0   10.71    0.37
   4   0   0   10.48    0.38
   4   0   0    9.79    0.37
   4   0   0   10.43    0.39
  -5   0   0   53.89    1.87
   5   0   0   53.17    1.84
   5   0   0   54.70    1.86
   5   0   0   54.54    1.85
  -6   0   0   22.13    0.83
   6   0   0   22.97    0.80
   6   0   0   22.82    0.77
   6   0   0   22.48    0.80
   6   0   0   22.41    0.82
  -7   0   0    0.06    0.08
   7   0   0   -0.01    0.06
   7   0   0    0.01    0.03
  -8   0   0    1.54    0.18
   8   0   0    1.13    0.13
   8   0   0    1.11    0.07
  -9   0   0    0.14    0.13
   9   0   0    0.04    0.08
   9   0   0    0.05    0.04
   9  -1   0    0.59    0.10
   9  -1   0    0.45    0.05
  -9   1   0    0.61    0.15
   8  -1   0    0.11    0.08
   8  -1   0    0.06    0.04
  -8   1   0    0.14    0.11
  -8   1   0   -0.01    0.03
   7  -1   0    1.31    0.11
   7  -1   0    1.32    0.07
  -7   1   0    1.37    0.16
  -7   1   0    1.16    0.07
   6  -1   0    0.69    0.06
   6  -1   0    0.63    0.05
   6  -1   0    0.77    0.12
  -6   1   0    0.58    0.04
  -6   1   0    0.63    0.09
  -6   1   0    0.54    0.05
   5  -1   0    8.70    0.32
   5  -1   0    8.53    0.32
   5  -1   0    9.05    0.30
   5  -1   0    8.89    0.30
   5  -1   0    8.90    0.37
   5  -1   0    8.82    0.31
  -5   1   0    8.74    0.33
  -5   1   0    8.44    0.30
  -5   1   0    8.62    0.37
   4  -1   0   35.50    1.24
   4  -1   0   35.90    1.21
   4  -1   0   36.23    1.22
  -4   1   0   35.20    1.25
   3  -1   0    7.16    0.26
   3  -1   0    7.57    0.29
   3  -1   0    7.78    0.26
  -3   1   0    7.45    0.30
  -3   1   0    7.36    0.27
   2  -1   0   36.67    1.26
   2  -1   0   36.73    1.26
   2  -1   0   37.81    1.28
  -2   1   0   37.73    1.28
   1  -1   0  109.43    3.73
  -1   1   0  109.52    3.73
   0  -1   0   77.53    3.06
   0  -1   0   81.60    2.92
   0  -1   0   82.38    2.94
   0   1   0   77.96    2.73
   0   1   0   78.86    2.90
   0   1   0   82.66    2.93
  -1  -1   0   34.68    1.16
  -1  -1   0   33.24    1.16
   1   1   0   33.67    1.16
   1   1   0   34.05    1.17
   1   1   0   33.60    1.16
  -2  -1   0  385.79   13.70
  -2  -1   0  388.22   13.74
   2   1   0  387.95   13.70
   2   1   0  403.34   13.76
   2   1   0  365.30   13.69
   2   1   0  403.99   13.82
  -3  -1   0    1.53    0.09
  -3  -1   0    1.57    0.06
  -3  -1   0    1.45    0.07
  -3  -1   0    1.46    0.06
   3   1   0    1.48    0.10
   3   1   0    1.44    0.09
   3   1   0    1.55    0.10
   3   1   0    1.56    0.09
  -4  -1   0  100.87    3.48
   4   1   0  101.23    3.48
   4   1   0  102.83    3.50
   4   1   0  103.29    3.50
   4   1   0  102.54    3.49
  -5  -1   0   12.30    0.47
   5   1   0   12.80    0.48
   5   1   0   12.37    0.47
   5   1   0   13.01    0.43
   5   1   0   12.48    0.47
   5   1   0   11.85    0.47
  -6  -1   0    3.28    0.20
  -6  -1   0    2.80    0.15
  -6  -1   0    2.84    0.12
   6   1   0    2.91    0.19
   6   1   0    2.85    0.18
   6   1   0    2.89    0.13
   6   1   0    3.05    0.10
   6   1   0    2.91    0.10
   6   1   0    2.67    0.21
   6   1   0    2.74    0.20
  -7  -1   0    1.84    0.15
   7   1   0    1.73    0.07
   7   1   0    1.82    0.11
   7   1   0    1.81    0.16
   7   1   0    1.78    0.07
  -8  -1   0    1.06    0.16
   8   1   0    0.81    0.05
   8   1   0    0.77    0.08
  -9  -1   0    1.90    0.21
   9   1   0    1.72    0.14
   9   1   0    1.38    0.08
   8  -2   0    0.18    0.08
   8  -2   0    0.09    0.05
  -8   2   0    0.03    0.05
  -8   2   0    0.15    0.13
   7  -2   0    0.92    0.07
   7  -2   0    1.14    0.12
  -7   2   0    0.86    0.13
  -7   2   0    0.81    0.08
   6  -2   0    1.65    0.12
   6  -2   0    1.79    0.08
  -6   2   0    1.71    0.09
  -6   2   0    1.74    0.17
   5  -2   0    1.83    0.08
   5  -2   0    1.82    0.10
   5  -2   0    1.72    0.17
  -5   2   0    1.92    0.14
  -5   2   0    1.65    0.16
  -5   2   0    1.79    0.08
   4  -2   0   13.83    0.53
   4  -2   0   14.37    0.49
  -4   2   0   14.17    0.55
  -4   2   0   14.00    0.50
   3  -2   0    0.67    0.05
   3  -2   0    0.52    0.08
   3  -2   0    0.65    0.03
   3  -2   0    0.65    0.04
  -3   2   0    0.66    0.04
  -3   2   0    0.71    0.08
  -3   2   0    0.61    0.04
  -3   2   0    0.64    0.10
   2  -2   0   69.25    2.41
  -2   2   0   71.73    2.41
   1  -2   0   84.20    2.92
  -1   2   0   85.73    3.00
  -1   2   0   85.03    3.00
  -1   2   0   84.91    2.91
   0  -2   0  110.44    3.91
   0   2   0  116.33    4.28
   0   2   0  114.22    3.91
   0   2   0  116.71    3.88
  -1  -2   0    3.15    0.13
  -1  -2   0    2.95    0.11
  -1  -2   0    3.02    0.13
  -1  -2   0    3.26    0.11
  -1  -2   0    3.19    0.11
   1   2   0    3.00    0.11
   1   2   0    2.98    0.13
   1   2   0    3.20    0.11
   1   2   0    3.26    0.13
   1   2   0    3.16    0.13
  -2  -2   0   15.68    0.56
  -2  -2   0   16.09    0.56
   2   2   0   16.16    0.56
   2   2   0   16.28    0.56
   2   2   0   15.54    0.56
  -3  -2   0   13.61    0.48
   3   2   0   12.76    0.48
   3   2   0   13.39    0.48
   3   2   0   13.63    0.48
   4   2   0   35.09    1.21
   4   2   0   34.95    1.21
   4   2   0   34.39    1.21
   4   2   0   34.92    1.21
   5   2   0   12.14    0.48
   5   2   0   12.55    0.47
   5   2   0   12.80    0.48
   5   2   0   12.64    0.48
  -6  -2   0    1.98    0.10
  -6  -2   0    2.05    0.12
  -6  -2   0    2.02    0.10
   6   2   0    2.01    0.17
   6   2   0    2.15    0.17
   6   2   0    2.09    0.17
   6   2   0    2.13    0.07
   6   2   0    2.13    0.07
   6   2   0    1.99    0.17
  -7  -2   0    0.07    0.07
  -7  -2   0    0.10    0.05
   7   2   0    0.05    0.05
   7   2   0    0.06    0.11
   7   2   0    0.05    0.01
   7   2   0    0.05    0.02
   7   2   0    0.13    0.11
   7   2   0    0.04    0.10
  -8  -2   0    0.63    0.10
   8   2   0    0.50    0.04
   8   2   0    0.56    0.07
  -9  -2   0    0.23    0.11
   9   2   0    0.03    0.08
   9   2   0    0.07    0.03
   8  -3   0    0.17    0.06
   8  -3   0    0.19    0.09
  -8   3   0   -0.03    0.15
  -8   3   0    0.14    0.06
   7  -3   0    0.52    0.08
   7  -3   0    0.46    0.05
  -7   3   0    0.51    0.14
  -7   3   0    0.48    0.06
   6  -3   0    4.93    0.19
   6  -3   0    4.92    0.21
  -6   3   0    5.13    0.27
  -6   3   0    5.17    0.19
   5  -3   0    3.26    0.13
   5  -3   0    3.27    0.15
  -5   3   0    3.33    0.13
  -5   3   0    3.26    0.19
   4  -3   0    2.79    0.20
   4  -3   0    2.83    0.12
   4  -3   0    2.79    0.11
  -4   3   0    2.85    0.11
  -4   3   0    2.84    0.17
  -4   3   0    2.65    0.23
   3  -3   0   37.75    1.34
  -3   3   0   39.01    1.36
   2  -3   0   50.60    1.74
  -2   3   0   49.65    1.70
  -2   3   0   51.70    1.75
  -2   3   0   49.66    1.71
   1  -3   0   71.39    2.48
  -1   3   0   72.24    2.48
  -1   3   0   75.51    2.49
  -1   3   0   71.91    2.48
   0  -3   0   56.20    1.94
   0   3   0   57.64    1.94
   0   3   0   55.92    1.94
   0   3   0   56.80    1.93
  -1  -3   0   21.52    0.77
   1   3   0   21.15    0.76
   1   3   0   22.27    0.77
   1   3   0   22.08    0.76
  -2  -3   0   85.14    2.99
   2   3   0   87.66    2.99
   2   3   0   90.23    3.01
  -3  -3   0   53.11    1.80
   3   3   0   53.09    1.80
   3   3   0   50.49    1.80
   3   3   0   52.93    1.80
  -4  -3   0    4.02    0.20
  -4  -3   0    3.87    0.15
  -4  -3   0    3.94    0.15
   4   3   0    3.96    0.21
   4   3   0    4.30    0.14
   4   3   0    4.47    0.21
   4   3   0    4.08    0.16
   4   3   0    3.89    0.21
   4   3   0    4.07    0.20
   5   3   0   13.74    0.54
   5   3   0   14.48    0.53
   5   3   0   14.09    0.53
   5   3   0   13.88    0.54
  -6  -3   0    0.06    0.05
  -6  -3   0    0.09    0.05
  -6  -3   0    0.13    0.04
   6   3   0    0.19    0.11
   6   3   0    0.11    0.09
   6   3   0    0.16    0.09
   6   3   0    0.12    0.01
   6   3   0    0.19    0.01
   6   3   0    0.04    0.10
  -7  -3   0    4.58    0.19
  -7  -3   0    4.80    0.21
  -7  -3   0    4.70    0.19
   7   3   0    5.02    0.16
   7   3   0    5.13    0.28
   7   3   0    4.80    0.16
  -8  -3   0    3.05    0.16
  -8  -3   0    3.22    0.19
   8   3   0    2.76    0.10
   8   3   0    3.03    0.15
   8   3   0    3.08    0.10
  -9  -3   0    0.62    0.11
   9   3   0    0.61    0.04
   9   3   0    0.52    0.08
   7  -4   0    3.13    0.19
   7  -4   0    3.05    0.14
  -7   4   0    2.89    0.15
  -7   4   0    2.59    0.26
   6  -4   0    0.31    0.08
   6  -4   0    0.24    0.05
  -6   4   0    0.17    0.12
  -6   4   0    0.26    0.06
   5  -4   0    2.97    0.12
  -5   4   0    2.84    0.21
  -5   4   0    2.94    0.13
   4  -4   0    3.09    0.12
   4  -4   0    3.01    0.14
  -4   4   0    3.10    0.18
  -4   4   0    3.08    0.13
   3  -4   0   14.24    0.50
   3  -4   0   14.23    0.56
  -3   4   0   14.87    0.52
  -3   4   0   14.64    0.59
   2  -4   0   84.51    2.87
  -2   4   0   82.74    2.86
  -2   4   0   89.70    2.89
  -2   4   0   78.61    2.83
   1  -4   0   74.13    2.55
  -1   4   0   73.19    2.52
  -1   4   0   76.40    2.55
  -1   4   0   73.42    2.53
   0  -4   0   34.73    1.22
   0   4   0   34.06    1.19
   0   4   0   35.68    1.21
   0   4   0   34.05    1.19
  -1  -4   0   84.91    2.91
   1   4   0   82.83    2.91
   1   4   0   85.24    3.04
   1   4   0   87.62    2.91
  -2  -4   0   15.00    0.56
   2   4   0   14.56    0.55
   2   4   0   15.58    0.56
  -3  -4   0  131.90    4.72
   3   4   0  140.99    4.73
   3   4   0  144.08    4.72
   3   4   0  135.48    4.69
  -4  -4   0  106.82    3.68
   4   4   0  109.01    3.70
   4   4   0  108.81    3.69
   4   4   0  108.47    3.69
  -5  -4   0    2.22    0.18
  -5  -4   0    2.24    0.11
  -5  -4   0    2.20    0.10
   5   4   0    2.23    0.19
   5   4   0    2.39    0.18
   5   4   0    2.01    0.19
   5   4   0    1.96    0.18
   5   4   0    2.41    0.08
   5   4   0    2.32    0.08
   5   4   0    2.24    0.11
  -6  -4   0    9.26    0.33
  -6  -4   0    9.51    0.34
   6   4   0    8.79    0.40
   6   4   0    9.81    0.40
   6   4   0    9.82    0.35
  -7  -4   0    0.57    0.07
  -7  -4   0    0.53    0.06
   7   4   0    0.56    0.03
   7   4   0    0.47    0.12
   7   4   0    0.57    0.03
   7   4   0    0.51    0.08
  -8  -4   0    2.41    0.13
  -8  -4   0    2.47    0.15
   8   4   0    2.41    0.09
   8   4   0    2.45    0.18
   8   4   0    2.50    0.09
  -9  -4   0    2.51    0.17
   9   4   0    2.47    0.21
   7  -5   0    0.01    0.06
   7  -5   0    0.04    0.10
  -7   5   0    0.06    0.07
  -7   5   0   -0.21    0.15
   6  -5   0    0.20    0.06
   6  -5   0    0.15    0.09
  -6   5   0   -0.04    0.13
  -6   5   0    0.11    0.06
   5  -5   0    2.81    0.16
   5  -5   0    2.62    0.12
  -5   5   0    2.32    0.23
  -5   5   0    2.67    0.13
   4  -5   0    1.16    0.08
   4  -5   0    1.12    0.12
  -4   5   0    1.16    0.09
  -4   5   0    0.99    0.12
   3  -5   0    7.89    0.29
   3  -5   0    7.57    0.28
  -3   5   0    8.29    0.32
  -3   5   0    8.08    0.28
   2  -5   0    0.37    0.12
   2  -5   0    0.30    0.04
   2  -5   0    0.27    0.05
   2  -5   0    0.33    0.03
  -2   5   0    0.25    0.06
  -2   5   0    0.34    0.07
  -2   5   0    0.37    0.04
   1  -5   0    9.94    0.34
   1  -5   0   10.56    0.43
   1  -5   0    9.62    0.35
   1  -5   0   10.39    0.35
  -1   5   0    9.82    0.36
  -1   5   0   10.17    0.38
  -1   5   0    9.85    0.34
  -1   5   0   10.39    0.43
  -1   5   0    9.73    0.37
  -1   5   0    9.92    0.35
   0  -5   0   25.23    0.92
   0   5   0   24.01    0.88
   0   5   0   24.93    0.88
   0   5   0   26.34    0.91
  -1  -5   0    3.08    0.14
  -1  -5   0    3.55    0.12
  -1  -5   0    3.52    0.13
  -1  -5   0    3.24    0.22
  -1  -5   0    3.36    0.13
   1   5   0    3.35    0.12
   1   5   0    4.19    0.21
   1   5   0    3.42    0.18
   1   5   0    3.46    0.19
   1   5   0    3.59    0.13
   1   5   0    3.27    0.14
  -2  -5   0   73.74    2.48
   2   5   0   74.72    2.47
   2   5   0   67.98    2.46
   2   5   0   70.82    2.46
  -3  -5   0   35.41    1.24
   3   5   0   34.26    1.22
   3   5   0   34.82    1.22
   3   5   0   34.29    1.23
  -4  -5   0    2.04    0.09
  -4  -5   0    1.99    0.18
  -4  -5   0    1.84    0.10
  -4  -5   0    1.83    0.08
  -4  -5   0    1.86    0.08
   4   5   0    1.98    0.18
   4   5   0    1.89    0.10
   4   5   0    1.65    0.15
   4   5   0    2.07    0.17
   4   5   0    2.09    0.07
   4   5   0    1.95    0.07
  -5  -5   0    6.71    0.31
  -5  -5   0    6.28    0.22
  -5  -5   0    6.32    0.24
  -5  -5   0    6.19    0.23
   5   5   0    6.40    0.30
   5   5   0    6.41    0.24
   5   5   0    6.32    0.22
   5   5   0    6.64    0.22
  -6  -5   0    3.35    0.23
  -6  -5   0    3.27    0.16
  -6  -5   0    3.22    0.14
   6   5   0    3.31    0.12
   6   5   0    3.40    0.12
   6   5   0    3.31    0.24
   6   5   0    2.89    0.25
   6   5   0    3.49    0.15
  -7  -5   0    4.80    0.19
  -7  -5   0    5.16    0.22
   7   5   0    5.37    0.22
   7   5   0    5.01    0.18
  -8  -5   0    6.77    0.28
   8   5   0    6.89    0.28
   8   5   0    6.73    0.23
  -9  -5   0    0.09    0.09
   9   5   0    0.02    0.10
   6  -6   0    0.61    0.10
   6  -6   0    0.61    0.07
  -6   6   0    0.33    0.15
  -6   6   0    0.64    0.08
   5  -6   0    0.58    0.06
   5  -6   0    0.59    0.09
  -5   6   0    0.56    0.07
  -5   6   0    0.42    0.14
   4  -6   0    4.41    0.21
   4  -6   0    4.34    0.17
  -4   6   0    4.38    0.26
  -4   6   0    4.64    0.18
   3  -6   0    0.22    0.07
   3  -6   0    0.26    0.04
  -3   6   0    0.18    0.09
  -3   6   0    0.26    0.05
   2  -6   0    1.53    0.08
   2  -6   0    1.63    0.12
  -2   6   0    1.54    0.14
  -2   6   0    1.59    0.09
   1  -6   0    4.57    0.17
   1  -6   0    4.50    0.18
   1  -6   0    4.31    0.16
  -1   6   0    4.44    0.19
  -1   6   0    4.58    0.17
  -1   6   0    4.25    0.21
  -1   6   0    4.53    0.16
  -1   6   0    4.27    0.21
   0  -6   0    6.16    0.22
   0  -6   0    6.23    0.22
   0  -6   0    6.56    0.22
   0  -6   0    5.94    0.23
   0  -6   0    6.55    0.33
   0   6   0    6.01    0.22
   0   6   0    5.58    0.27
   0   6   0    6.25    0.27
   0   6   0    6.10    0.22
   0   6   0    5.97    0.23
  -1  -6   0   10.74    0.44
  -1  -6   0    9.52    0.34
  -1  -6   0    9.86    0.33
  -1  -6   0    9.50    0.34
   1   6   0    9.05    0.34
   1   6   0    9.59    0.33
   1   6   0    9.52    0.33
   1   6   0    9.56    0.39
   1   6   0   10.46    0.42
   1   6   0    9.03    0.39
  -2  -6   0    7.08    0.25
  -2  -6   0    6.19    0.26
  -2  -6   0    7.58    0.36
  -2  -6   0    7.25    0.25
   2   6   0    7.47    0.33
   2   6   0    7.03    0.26
   2   6   0    6.85    0.32
   2   6   0    6.98    0.31
   2   6   0    6.84    0.24
  -3  -6   0    7.03    0.25
  -3  -6   0    6.89    0.35
  -3  -6   0    7.10    0.24
  -3  -6   0    6.56    0.25
   3   6   0    6.91    0.33
   3   6   0    6.87    0.32
   3   6   0    6.84    0.25
   3   6   0    6.89    0.24
   3   6   0    6.62    0.32
  -4  -6   0    7.86    0.39
  -4  -6   0    7.70    0.29
  -4  -6   0    8.06    0.28
  -4  -6   0    8.28    0.30
   4   6   0    8.35    0.28
   4   6   0    8.17    0.30
   4   6   0    8.57    0.37
  -5  -6   0    1.09    0.10
  -5  -6   0    1.18    0.06
  -5  -6   0    1.18    0.08
  -5  -6   0    1.15    0.15
   5   6   0    1.17    0.06
   5   6   0    1.29    0.10
  -6  -6   0    1.18    0.06
  -6  -6   0    1.31    0.06
  -6  -6   0    1.34    0.09
  -6  -6   0    1.38    0.12
   6   6   0    1.32    0.06
   6   6   0    1.27    0.11
  -7  -6   0    0.68    0.09
   7   6   0    0.66    0.08
   7   6   0    0.63    0.05
  -8  -6   0    5.44    0.24
   8   6   0    5.07    0.19
   8   6   0    5.43    0.24
  -9  -6   0    0.30    0.10
   5  -7   0    0.62    0.11
   5  -7   0    0.66    0.07
  -5   7   0    0.73    0.08
  -5   7   0    0.43    0.15
   4  -7   0    0.58    0.06
   4  -7   0    0.52    0.10
  -4   7   0    0.68    0.07
  -4   7   0    0.45    0.13
   3  -7   0    4.23    0.17
   3  -7   0    4.09    0.20
  -3   7   0    4.46    0.24
  -3   7   0    4.18    0.18
   2  -7   0    4.90    0.20
   2  -7   0    5.50    0.22
  -2   7   0    5.41    0.24
  -2   7   0    5.22    0.20
   1  -7   0    1.87    0.10
   1  -7   0    2.14    0.13
  -1   7   0    2.03    0.14
  -1   7   0    1.98    0.10
   0  -7   0    9.60    0.34
   0  -7   0    9.46    0.33
   0  -7   0    9.42    0.33
   0   7   0    8.98    0.38
   0   7   0    9.54    0.35
   0   7   0    9.03    0.39
   0   7   0    9.58    0.33
   0   7   0    9.46    0.33
  -1  -7   0    3.32    0.15
  -1  -7   0    3.11    0.14
  -1  -7   0    3.34    0.13
   1   7   0    3.35    0.13
   1   7   0    2.85    0.22
   1   7   0    3.08    0.22
   1   7   0    3.24    0.15
  -2  -7   0    2.33    0.10
  -2  -7   0    2.26    0.11
  -2  -7   0    1.74    0.13
   2   7   0    2.45    0.20
   2   7   0    2.30    0.09
   2   7   0    2.16    0.12
  -3  -7   0   12.21    0.41
  -3  -7   0   12.10    0.42
  -3  -7   0   10.79    0.42
   3   7   0   12.02    0.42
   3   7   0   12.25    0.41
  -4  -7   0    2.70    0.14
  -4  -7   0    2.62    0.13
  -4  -7   0    2.79    0.11
   4   7   0    2.76    0.11
   4   7   0    2.72    0.14
  -5  -7   0    9.08    0.33
  -5  -7   0    8.47    0.32
  -5  -7   0    9.12    0.31
   5   7   0    8.81    0.33
   5   7   0    9.04    0.31
  -6  -7   0    7.29    0.26
  -6  -7   0    7.63    0.29
   6   7   0    7.68    0.26
   6   7   0    7.54    0.29
  -7  -7   0    0.63    0.09
   7   7   0    0.65    0.09
   7   7   0    0.69    0.06
  -8  -7   0    0.42    0.10
   8   7   0    0.35    0.04
  -9  -7   0    0.02    0.11
   4  -8   0    3.75    0.22
  -4   8   0    3.24    0.26
  -4   8   0    3.61    0.18
   3  -8   0    2.55    0.18
  -3   8   0    2.55    0.14
  -3   8   0    2.34    0.21
   2  -8   0    0.43    0.09
  -2   8   0    0.46    0.06
  -2   8   0    0.54    0.11
   1  -8   0    6.15    0.25
  -1   8   0    6.11    0.26
   0  -8   0    0.01    0.07
   0  -8   0    0.00    0.05
   0   8   0    0.01    0.07
  -1  -8   0   18.88    0.61
  -1  -8   0   17.21    0.60
   1   8   0   16.92    0.59
   1   8   0   16.21    0.66
  -2  -8   0   21.12    0.71
  -2  -8   0   19.73    0.70
   2   8   0   20.22    0.69
  -3  -8   0    0.22    0.06
  -3  -8   0   -0.08    0.07
  -3  -8   0    0.13    0.05
   3   8   0    0.14    0.06
   3   8   0    0.18    0.04
  -4  -8   0    0.22    0.07
  -4  -8   0    0.17    0.04
  -4  -8   0    0.12    0.06
   4   8   0    0.19    0.07
  -5  -8   0    3.62    0.18
  -5  -8   0    3.47    0.14
   5   8   0    3.34    0.14
   5   8   0    3.32    0.17
  -6  -8   0    8.55    0.32
  -6  -8   0    8.21    0.29
   6   8   0    8.18    0.29
  -7  -8   0    5.62    0.25
  -7  -8   0    5.03    0.19
   7   8   0    5.46    0.20
  -8  -8   0    0.95    0.12
   8   8   0    1.06    0.08
   3  -9   0    0.08    0.11
  -3   9   0    0.00    0.13
   2  -9   0    2.18    0.18
  -2   9   0    2.15    0.21
   1  -9   0    0.75    0.10
  -1   9   0    0.68    0.11
   0  -9   0    2.50    0.17
   0   9   0    2.35    0.17
  -1  -9   0    6.71    0.26
  -1  -9   0    5.41    0.22
  -1  -9   0    5.66    0.23
   1   9   0    5.90    0.25
   1   9   0    5.42    0.22
  -2  -9   0    0.22    0.06
  -2  -9   0   -0.03    0.10
  -2  -9   0    0.10    0.05
   2   9   0    0.14    0.05
   2   9   0    0.15    0.08
  -3  -9   0    2.30    0.14
  -3  -9   0    2.28    0.12
   3   9   0    2.19    0.15
   3   9   0    2.30    0.11
  -4  -9   0    1.39    0.13
  -4  -9   0    1.39    0.10
   4   9   0    1.45    0.09
   4   9   0    1.34    0.14
  -5  -9   0    4.10    0.17
  -5  -9   0    4.12    0.20
   5   9   0    4.04    0.16
  -6  -9   0    0.04    0.09
  -6  -9   0    0.07    0.05
   6   9   0    0.14    0.05
  -7  -9   0    0.19    0.05
  -7  -9   0    0.23    0.10
   7   9   0    0.28    0.05
   1 -10   0    0.49    0.11
  -1  10   0    0.36    0.12
   0 -10   0    0.04    0.10
   0  10   0    0.06    0.10
  -1 -10   0    0.36    0.07
  -1 -10   0    0.47    0.11
   1  10   0    0.46    0.10
  -2 -10   0    0.68    0.08
  -2 -10   0    0.78    0.07
   2  10   0    0.63    0.06
   2  10   0    0.93    0.14
  -3 -10   0    1.31    0.12
  -3 -10   0    1.29    0.13
   3  10   0    1.25    0.10
   3  10   0    1.54    0.15
  -4 -10   0    0.89    0.10
  -4 -10   0    0.97    0.08
   4  10   0    0.93    0.07
  -5 -10   0   -0.05    0.09
  -5 -10   0    0.06    0.06
   5  10   0    0.02    0.05
  -6 -10   0   -0.01    0.10
  -6 -10   0   -0.01    0.06
   6  10   0   -0.01    0.05
   5  10  -1    0.23    0.06
  -5 -10   1    0.13    0.09
  -5 -10   1    0.20    0.07
   4  10  -1    1.72    0.12
  -4 -10   1    1.80    0.15
  -4 -10   1    1.79    0.13
   3  10  -1    0.64    0.10
   3  10  -1    0.74    0.07
  -3 -10   1    0.74    0.08
  -2 -10   1   -0.14    0.13
  -2 -10   1    0.01    0.06
  -1 -10   1    0.90    0.14
  -1 -10   1    0.61    0.08
   0  10  -1    0.11    0.10
   0 -10   1    0.06    0.12
   7   9  -1    2.09    0.12
  -7  -9   1    2.21    0.19
  -7  -9   1    2.11    0.11
   6   9  -1    0.77    0.06
  -6  -9   1    0.77    0.10
  -6  -9   1    0.72    0.06
   5   9  -1    3.00    0.13
  -5  -9   1    2.90    0.18
  -5  -9   1    2.89    0.14
   4   9  -1    3.00    0.14
  -4  -9   1    3.07    0.17
  -4  -9   1    2.98    0.15
   3   9  -1    0.32    0.05
  -3  -9   1    0.01    0.11
  -3  -9   1    0.32    0.06
  -3  -9   1    0.38    0.07
   2   9  -1    4.33    0.20
   2   9  -1    4.19    0.20
   2   9  -1    4.36    0.18
  -2  -9   1    4.27    0.18
  -2  -9   1    4.92    0.24
   1   9  -1    0.40    0.08
  -1  -9   1    0.35    0.11
  -1  -9   1    0.34    0.06
   0   9  -1    4.59    0.23
   0  -9   1    4.71    0.23
  -1   9  -1    4.76    0.25
   1  -9   1    4.67    0.24
  -2   9  -1    0.15    0.11
   2  -9   1    0.16    0.11
   8   8  -1    2.29    0.12
  -8  -8   1    2.61    0.20
   7   8  -1    0.01    0.04
  -7  -8   1    0.01    0.04
  -7  -8   1    0.08    0.09
   6   8  -1    0.37    0.05
  -6  -8   1    0.34    0.05
  -6  -8   1    0.38    0.09
   5   8  -1    1.31    0.08
  -5  -8   1    1.21    0.14
  -5  -8   1    1.17    0.09
   4   8  -1    2.92    0.12
  -4  -8   1    2.33    0.16
  -4  -8   1    2.93    0.13
  -4  -8   1    3.20    0.16
   3   8  -1   11.38    0.42
   3   8  -1   12.06    0.40
  -3  -8   1   11.94    0.41
  -3  -8   1   11.84    0.42
  -3  -8   1   11.25    0.44
   2   8  -1    2.36    0.11
   2   8  -1    2.32    0.13
  -2  -8   1    2.30    0.13
  -2  -8   1    2.08    0.16
  -2  -8   1    2.32    0.12
   1   8  -1    2.66    0.15
   1   8  -1    2.59    0.14
   1   8  -1    2.59    0.12
  -1  -8   1    2.97    0.17
  -1  -8   1    2.63    0.13
   0   8  -1    7.62    0.31
   0  -8   1    8.56    0.31
   0  -8   1    7.46    0.29
  -1   8  -1   -0.02    0.09
   1  -8   1    0.08    0.08
  -2   8  -1    5.16    0.26
   2  -8   1    5.15    0.24
  -3   8  -1    2.52    0.15
  -3   8  -1    2.48    0.22
   3  -8   1    2.68    0.19
  -4   8  -1   -0.02    0.13
  -4   8  -1    0.02    0.07
   4  -8   1    0.05    0.11
   8   7  -1    0.04    0.04
  -8  -7   1    0.06    0.09
   7   7  -1    0.03    0.04
  -7  -7   1   -0.01    0.09
  -7  -7   1    0.01    0.01
  -7  -7   1    0.02    0.02
  -6  -7   1    0.18    0.08
  -6  -7   1    0.19    0.04
   5   7  -1    2.31    0.10
  -5  -7   1    2.50    0.13
  -5  -7   1    2.43    0.15
  -5  -7   1    2.56    0.11
   4   7  -1    1.09    0.10
   4   7  -1    1.04    0.07
  -4  -7   1    1.02    0.11
  -4  -7   1    1.05    0.11
  -4  -7   1    1.14    0.08
   3   7  -1    1.50    0.08
   3   7  -1    1.37    0.10
  -3  -7   1    1.41    0.11
  -3  -7   1    1.30    0.12
  -3  -7   1    1.48    0.08
   2   7  -1    0.53    0.09
   2   7  -1    0.69    0.06
  -2  -7   1    0.64    0.05
  -2  -7   1    0.58    0.08
  -2  -7   1    0.40    0.08
   1   7  -1    0.02    0.10
   1   7  -1    0.06    0.06
   1   7  -1    0.06    0.04
  -1  -7   1   -0.02    0.07
  -1  -7   1    0.09    0.05
  -1  -7   1    0.06    0.04
   0   7  -1    1.97    0.11
   0   7  -1    2.07    0.13
   0   7  -1    2.03    0.10
   0  -7   1    2.11    0.14
   0  -7   1    1.99    0.10
  -1   7  -1    2.36    0.12
  -1   7  -1    2.51    0.16
   1  -7   1    2.50    0.12
   1  -7   1    2.50    0.15
  -2   7  -1    8.29    0.33
  -2   7  -1    7.73    0.29
   2  -7   1    7.89    0.31
  -3   7  -1    0.41    0.06
  -3   7  -1    0.39    0.11
   3  -7   1    0.34    0.09
  -4   7  -1   -0.02    0.12
  -4   7  -1    0.22    0.07
   4  -7   1    0.25    0.10
  -5   7  -1    0.18    0.07
  -5   7  -1    0.04    0.14
   5  -7   1    0.25    0.11
   5  -7   1    0.17    0.07
   9   6  -1    0.16    0.03
  -9  -6   1    0.13    0.10
   8   6  -1    0.09    0.03
  -8  -6   1    0.13    0.09
  -7  -6   1    0.08    0.08
   6   6  -1    5.21    0.21
   6   6  -1    5.02    0.18
  -6  -6   1    4.96    0.20
  -6  -6   1    5.26    0.22
  -6  -6   1    4.78    0.18
  -6  -6   1    5.08    0.18
  -5  -6   1   14.98    0.53
  -5  -6   1   15.50    0.54
   4   6  -1    7.24    0.25
   4   6  -1    7.25    0.26
  -4  -6   1    7.32    0.27
  -4  -6   1    7.36    0.25
  -4  -6   1    6.93    0.27
   3   6  -1    0.65    0.08
   3   6  -1    0.59    0.12
   3   6  -1    0.55    0.05
  -3  -6   1    0.66    0.09
  -3  -6   1    0.65    0.15
  -3  -6   1    0.63    0.06
  -3  -6   1    0.57    0.08
   2   6  -1    2.37    0.12
   2   6  -1    2.39    0.19
   2   6  -1    2.24    0.20
   2   6  -1    2.38    0.10
  -2  -6   1    2.46    0.24
  -2  -6   1    2.48    0.10
  -2  -6   1    2.29    0.13
  -2  -6   1    2.59    0.11
   1   6  -1    6.80    0.24
   1   6  -1    6.63    0.31
   1   6  -1    6.68    0.25
   1   6  -1    6.66    0.31
  -1  -6   1    7.48    0.39
  -1  -6   1    6.82    0.24
  -1  -6   1    6.77    0.24
  -1  -6   1    6.42    0.25
   0   6  -1   13.14    0.45
   0   6  -1   13.15    0.45
   0   6  -1   12.68    0.50
   0   6  -1   13.01    0.50
   0   6  -1   13.29    0.46
   0  -6   1   13.09    0.45
   0  -6   1   13.43    0.46
  -1   6  -1    1.85    0.10
  -1   6  -1    2.01    0.13
  -1   6  -1    1.85    0.10
  -1   6  -1    1.89    0.09
   1  -6   1    1.91    0.12
   1  -6   1    1.89    0.10
   1  -6   1    1.91    0.09
  -2   6  -1   -0.01    0.08
  -2   6  -1   -0.01    0.04
   2  -6   1    0.08    0.04
   2  -6   1    0.09    0.07
  -3   6  -1    2.32    0.18
  -3   6  -1    2.39    0.12
   3  -6   1    2.29    0.15
   3  -6   1    2.28    0.11
  -4   6  -1    1.40    0.11
  -4   6  -1    1.13    0.13
   4  -6   1    1.23    0.09
   4  -6   1    1.22    0.15
  -5   6  -1    0.86    0.15
  -5   6  -1    1.05    0.12
   5  -6   1    1.07    0.07
   5  -6   1    1.10    0.11
  -6   6  -1    0.12    0.08
  -6   6  -1   -0.18    0.14
   6  -6   1    0.13    0.10
   6  -6   1    0.13    0.07
   9   5  -1    0.49    0.04
  -9  -5   1    0.68    0.10
   8   5  -1    0.57    0.04
  -8  -5   1    0.49    0.09
   7   5  -1    6.03    0.24
  -7  -5   1    5.96    0.24
  -7  -5   1    5.86    0.23
   6   5  -1   16.92    0.57
  -6  -5   1   16.34    0.57
  -6  -5   1   15.87    0.57
  -5  -5   1    0.01    0.11
   4   5  -1   22.22    0.80
   4   5  -1   20.64    0.80
  -4  -5   1   21.62    0.81
   3   5  -1   12.50    0.51
   3   5  -1   12.42    0.49
   3   5  -1   13.40    0.51
  -3  -5   1   13.37    0.52
  -3  -5   1   12.18    0.43
  -3  -5   1   12.64    0.44
  -3  -5   1   12.44    0.44
   2   5  -1   16.91    0.63
   2   5  -1   18.24    0.64
   2   5  -1   16.80    0.63
  -2  -5   1   17.12    0.65
  -2  -5   1   15.35    0.58
   1   5  -1   92.97    3.25
   1   5  -1  100.94    3.27
   1   5  -1   92.68    3.25
  -1  -5   1   94.85    3.28
   0   5  -1   21.70    0.81
   0   5  -1   22.65    0.81
   0   5  -1   23.33    0.84
   0  -5   1   22.92    0.85
  -1   5  -1   11.31    0.42
  -1   5  -1   12.02    0.48
  -1   5  -1   11.18    0.39
  -1   5  -1   10.89    0.39
  -1   5  -1   10.96    0.43
   1  -5   1   11.08    0.40
   1  -5   1   11.58    0.39
   1  -5   1   11.45    0.48
   1  -5   1   11.13    0.39
  -2   5  -1   11.27    0.40
  -2   5  -1   12.42    0.42
   2  -5   1   11.30    0.40
   2  -5   1   11.49    0.41
   2  -5   1   11.34    0.40
  -3   5  -1    3.55    0.20
  -3   5  -1    3.47    0.14
   3  -5   1    3.59    0.17
   3  -5   1    3.50    0.14
  -4   5  -1    9.28    0.38
  -4   5  -1    9.42    0.33
   4  -5   1    9.07    0.33
   4  -5   1    9.33    0.35
  -5   5  -1    4.82    0.27
  -5   5  -1    5.26    0.20
   5  -5   1    4.89    0.19
   5  -5   1    5.03    0.22
  -6   5  -1    0.13    0.07
  -6   5  -1    0.02    0.13
   6  -5   1    0.12    0.06
   6  -5   1    0.14    0.09
  -7   5  -1    0.31    0.16
  -7   5  -1    0.58    0.08
   7  -5   1    0.60    0.07
   7  -5   1    0.61    0.11
   9   4  -1   -0.11    0.09
  -9  -4   1    0.17    0.08
   8   4  -1    0.47    0.03
   8   4  -1    0.46    0.03
   8   4  -1    0.42    0.09
  -8  -4   1    0.47    0.07
  -8  -4   1    0.52    0.08
   7   4  -1    0.05    0.07
   7   4  -1    0.00    0.02
  -7  -4   1    0.08    0.05
  -7  -4   1    0.07    0.06
   6   4  -1   10.92    0.47
   6   4  -1   11.04    0.38
  -6  -4   1   10.36    0.45
  -6  -4   1   10.42    0.38
  -6  -4   1   10.54    0.38
   5   4  -1   50.86    1.75
   5   4  -1   49.99    1.76
  -5  -4   1   49.74    1.75
   4   4  -1   22.98    0.86
   4   4  -1   23.63    0.87
   4   4  -1   23.82    0.86
  -4  -4   1   24.25    0.87
   3   4  -1   17.44    0.65
   3   4  -1   17.73    0.64
   3   4  -1   16.43    0.64
  -3  -4   1   17.34    0.65
  -3  -4   1   17.22    0.65
   2   4  -1   60.65    2.10
   2   4  -1   62.42    2.10
   2   4  -1   60.01    2.10
  -2  -4   1   61.21    2.10
  -2  -4   1   61.16    2.11
   1   4  -1    7.11    0.24
   1   4  -1    7.16    0.29
   1   4  -1    6.47    0.25
   1   4  -1    7.37    0.25
   1   4  -1    7.12    0.29
   1   4  -1    7.61    0.31
  -1  -4   1    6.31    0.25
  -1  -4   1    7.59    0.24
  -1  -4   1    7.25    0.32
  -1  -4   1    7.16    0.29
  -1  -4   1    7.31    0.25
   0   4  -1   22.54    0.81
   0   4  -1   22.61    0.81
   0   4  -1   24.24    0.83
   0  -4   1   22.11    0.83
   0  -4   1   23.22    0.81
  -1   4  -1   51.14    1.75
  -1   4  -1   53.64    1.79
  -1   4  -1   49.32    1.75
   1  -4   1   52.18    1.75
   1  -4   1   50.15    1.78
  -2   4  -1    1.24    0.10
  -2   4  -1    1.19    0.11
  -2   4  -1    1.13    0.11
  -2   4  -1    1.57    0.16
  -2   4  -1    1.27    0.06
  -2   4  -1    1.33    0.07
   2  -4   1    1.32    0.07
   2  -4   1    1.33    0.06
   2  -4   1    1.24    0.13
   2  -4   1    1.29    0.09
  -3   4  -1   25.01    0.90
   3  -4   1   22.10    0.86
  -4   4  -1    2.65    0.12
  -4   4  -1    2.73    0.18
   4  -4   1    2.51    0.11
   4  -4   1    2.56    0.14
  -5   4  -1    4.08    0.17
  -5   4  -1    3.98    0.22
   5  -4   1    3.90    0.18
   5  -4   1    4.11    0.16
  -6   4  -1    3.30    0.15
  -6   4  -1    2.84    0.24
   6  -4   1    3.29    0.17
   6  -4   1    3.08    0.14
  -7   4  -1    0.31    0.07
  -7   4  -1    0.22    0.14
   7  -4   1    0.24    0.06
   7  -4   1    0.32    0.10
   9   3  -1   -0.12    0.08
  -9  -3   1    0.02    0.09
  -8  -3   1    0.34    0.06
  -8  -3   1    0.35    0.08
  -8  -3   1    0.27    0.07
   7   3  -1    1.71    0.06
   7   3  -1    1.66    0.06
  -7  -3   1    1.81    0.11
  -7  -3   1    1.70    0.12
  -7  -3   1    1.76    0.12
   6   3  -1    1.51    0.16
   6   3  -1    1.58    0.15
   6   3  -1    1.94    0.20
   6   3  -1    1.93    0.07
   6   3  -1    1.87    0.06
  -6  -3   1    1.85    0.10
  -6  -3   1    1.78    0.11
  -6  -3   1    1.82    0.11
   5   3  -1   -0.03    0.08
   5   3  -1    0.06    0.10
   5   3  -1    0.01    0.01
   5   3  -1    0.01    0.09
   5   3  -1   -0.01    0.04
   5   3  -1    0.04    0.09
  -5  -3   1    0.02    0.04
  -5  -3   1    0.04    0.04
  -5  -3   1    0.00    0.08
   4   3  -1    1.85    0.16
   4   3  -1    2.08    0.07
   4   3  -1    1.92    0.07
   4   3  -1    1.79    0.16
   4   3  -1    1.92    0.15
   4   3  -1    1.96    0.09
  -4  -3   1    1.85    0.07
  -4  -3   1    1.94    0.15
  -4  -3   1    1.89    0.08
  -4  -3   1    1.98    0.09
  -4  -3   1    1.90    0.07
   3   3  -1    1.25    0.06
   3   3  -1    1.35    0.12
   3   3  -1    1.22    0.12
   3   3  -1    1.24    0.05
   3   3  -1    1.28    0.13
   3   3  -1    1.32    0.05
  -3  -3   1    1.11    0.07
  -3  -3   1    1.39    0.05
  -3  -3   1    1.24    0.11
  -3  -3   1    1.46    0.13
  -3  -3   1    1.24    0.06
  -3  -3   1    1.16    0.05
   2   3  -1   40.90    1.42
   2   3  -1   40.98    1.42
   2   3  -1   41.55    1.42
  -2  -3   1   40.68    1.42
  -2  -3   1   40.69    1.42
   1   3  -1   57.99    1.99
   1   3  -1   59.21    2.00
  -1  -3   1   57.94    2.00
  -1  -3   1   58.40    2.00
   0   3  -1  121.28    4.21
   0   3  -1  123.73    4.22
   0  -3   1  120.33    4.20
   0  -3   1  127.56    4.19
  -1   3  -1    5.19    0.18
  -1   3  -1    5.05    0.19
  -1   3  -1    4.90    0.18
  -1   3  -1    5.25    0.24
  -1   3  -1    4.72    0.20
  -1   3  -1    5.08    0.17
   1  -3   1    5.03    0.17
   1  -3   1    4.59    0.18
   1  -3   1    5.18    0.20
   1  -3   1    4.66    0.23
   1  -3   1    5.02    0.17
  -2   3  -1    6.72    0.29
  -2   3  -1    7.36    0.26
  -2   3  -1    7.06    0.24
  -2   3  -1    6.42    0.24
  -2   3  -1    7.03    0.31
  -2   3  -1    7.26    0.24
   2  -3   1    6.95    0.30
   2  -3   1    6.79    0.25
   2  -3   1    6.92    0.24
   2  -3   1    7.08    0.24
   2  -3   1    6.79    0.25
  -3   3  -1   10.61    0.44
  -3   3  -1   10.73    0.36
  -3   3  -1   10.45    0.36
   3  -3   1   10.93    0.36
   3  -3   1    9.94    0.36
   3  -3   1   10.23    0.37
   3  -3   1   10.31    0.42
  -4   3  -1   10.49    0.35
  -4   3  -1    9.10    0.44
  -4   3  -1   10.63    0.38
   4  -3   1    9.46    0.41
   4  -3   1    9.86    0.35
   4  -3   1    9.69    0.34
  -5   3  -1    4.17    0.21
  -5   3  -1    3.83    0.15
   5  -3   1    3.69    0.15
   5  -3   1    3.67    0.17
  -6   3  -1    0.03    0.10
  -6   3  -1    0.03    0.05
   6  -3   1    0.08    0.07
   6  -3   1    0.05    0.04
  -7   3  -1    0.24    0.13
  -7   3  -1    0.25    0.06
   7  -3   1    0.29    0.05
   7  -3   1    0.29    0.08
  -8   3  -1   -0.02    0.14
  -8   3  -1    0.02    0.07
   8  -3   1    0.08    0.09
   8  -3   1    0.09    0.06
   9   2  -1   -0.04    0.02
   9   2  -1   -0.07    0.08
  -9  -2   1    0.07    0.10
   8   2  -1    1.00    0.09
   8   2  -1    0.99    0.04
   8   2  -1    0.93    0.08
   8   2  -1    0.90    0.04
  -8  -2   1    0.93    0.14
   7   2  -1    6.52    0.22
   7   2  -1    6.40    0.22
   7   2  -1    6.00    0.32
  -7  -2   1    6.53    0.24
  -7  -2   1    6.45    0.26
  -7  -2   1    6.27    0.24
   6   2  -1    9.50    0.40
   6   2  -1    9.31    0.40
   6   2  -1    9.20    0.40
   6   2  -1    9.73    0.41
  -6  -2   1    9.50    0.34
  -6  -2   1    9.57    0.33
  -6  -2   1    9.25    0.33
   5   2  -1    2.84    0.20
   5   2  -1    2.72    0.19
   5   2  -1    2.85    0.19
   5   2  -1    2.77    0.18
  -5  -2   1    2.75    0.12
  -5  -2   1    2.78    0.11
  -5  -2   1    2.75    0.12
   4   2  -1   49.27    1.71
   4   2  -1   48.48    1.70
   4   2  -1   49.43    1.70
   4   2  -1   49.80    1.71
  -4  -2   1   49.98    1.71
   3   2  -1   10.07    0.39
   3   2  -1    9.99    0.38
   3   2  -1    9.71    0.38
  -3  -2   1    9.88    0.37
  -3  -2   1    9.84    0.38
   2   2  -1  129.46    4.45
  -2  -2   1  137.13    5.02
  -2  -2   1  125.99    4.72
   1   2  -1  114.01    3.87
  -1  -2   1  114.74    3.88
  -1  -2   1  110.89    3.87
   0   2  -1    0.20    0.03
   0   2  -1    0.16    0.02
   0   2  -1    0.16    0.04
   0   2  -1    0.18    0.02
   0   2  -1    0.13    0.04
   0   2  -1    0.12    0.01
   0  -2   1    0.17    0.01
   0  -2   1    0.10    0.03
   0  -2   1    0.18    0.02
   0  -2   1    0.24    0.05
  -1   2  -1   44.67    1.55
  -1   2  -1   46.13    1.56
   1  -2   1   46.19    1.55
   1  -2   1   44.25    1.55
  -2   2  -1    1.13    0.05
  -2   2  -1    0.98    0.10
  -2   2  -1    1.20    0.05
  -2   2  -1    1.39    0.09
  -2   2  -1    1.32    0.07
  -2   2  -1    1.14    0.05
   2  -2   1    1.18    0.05
   2  -2   1    1.21    0.06
   2  -2   1    1.00    0.09
   2  -2   1    1.25    0.05
   2  -2   1    1.18    0.07
  -3   2  -1    9.65    0.33
  -3   2  -1    9.09    0.39
  -3   2  -1    9.41    0.33
  -3   2  -1    9.63    0.35
   3  -2   1   10.29    0.33
   3  -2   1    9.63    0.33
   3  -2   1   10.10    0.33
   3  -2   1    9.48    0.34
   3  -2   1    9.32    0.38
  -4   2  -1    8.96    0.32
  -4   2  -1    9.50    0.40
  -4   2  -1    9.28    0.34
   4  -2   1    9.47    0.33
   4  -2   1    9.34    0.32
   4  -2   1    9.42    0.38
  -5   2  -1    0.47    0.04
  -5   2  -1    0.37    0.12
  -5   2  -1    0.45    0.08
   5  -2   1    0.53    0.11
   5  -2   1    0.46    0.06
   5  -2   1    0.41    0.04
  -6   2  -1    1.30    0.16
  -6   2  -1    1.11    0.08
   6  -2   1    1.24    0.11
   6  -2   1    1.13    0.07
  -7   2  -1    1.28    0.19
  -7   2  -1    1.07    0.09
   7  -2   1    1.09    0.08
   7  -2   1    1.21    0.13
  -8   2  -1    0.61    0.14
  -8   2  -1    0.55    0.06
   8  -2   1    0.54    0.06
   8  -2   1    0.63    0.09
   9   1  -1    0.46    0.04
   9   1  -1    0.42    0.09
  -9  -1   1    0.49    0.12
   8   1  -1    3.85    0.19
   8   1  -1    3.82    0.14
  -8  -1   1    4.00    0.21
   7   1  -1    0.22    0.06
   7   1  -1    0.26    0.02
   7   1  -1    0.28    0.02
   7   1  -1    0.26    0.06
  -7  -1   1    0.28    0.08
   6   1  -1    9.80    0.40
   6   1  -1    9.91    0.42
   6   1  -1    9.82    0.41
   6   1  -1    9.81    0.40
  -6  -1   1    9.89    0.36
  -6  -1   1    9.38    0.34
  -6  -1   1    9.48    0.34
   5   1  -1    0.80    0.11
   5   1  -1    0.77    0.03
   5   1  -1    0.88    0.10
   5   1  -1    0.71    0.09
   5   1  -1    0.66    0.10
  -5  -1   1    0.84    0.08
  -5  -1   1    0.75    0.06
  -5  -1   1    0.71    0.06
   4   1  -1  170.89    5.74
   4   1  -1  166.61    5.70
   4   1  -1  166.35    5.71
   4   1  -1  165.96    5.73
  -4  -1   1  168.78    6.05
   3   1  -1  133.73    4.71
   3   1  -1  139.51    4.73
   3   1  -1  141.22    4.73
   3   1  -1  140.02    4.72
  -3  -1   1  136.35    5.00
   2   1  -1  662.61   23.73
   2   1  -1  727.83   23.81
   2   1  -1  659.45   23.74
  -2  -1   1  744.24   23.91
  -2  -1   1  603.68   23.64
   1   1  -1   20.50    0.71
  -1  -1   1   20.23    0.71
   0   1  -1  107.79    3.46
   0   1  -1  100.36    3.91
   0  -1   1  104.97    3.45
   0  -1   1   91.82    3.44
  -1   1  -1    4.93    0.19
  -1   1  -1    5.17    0.17
  -1   1  -1    4.94    0.20
   1  -1   1    5.09    0.20
   1  -1   1    5.12    0.19
  -2   1  -1  263.73    9.20
  -2   1  -1  266.63    9.78
   2  -1   1  262.54    9.16
   2  -1   1  269.20    9.49
  -3   1  -1  137.99    4.70
  -3   1  -1  138.44    4.85
   3  -1   1  142.55    4.71
   3  -1   1  133.65    4.67
  -4   1  -1    1.10    0.09
  -4   1  -1    1.14    0.05
  -4   1  -1    1.15    0.08
  -4   1  -1    1.08    0.05
  -4   1  -1    0.92    0.10
  -4   1  -1    1.09    0.06
   4  -1   1    1.22    0.05
   4  -1   1    1.02    0.07
   4  -1   1    1.11    0.11
   4  -1   1    0.87    0.08
   4  -1   1    1.11    0.08
   4  -1   1    1.13    0.05
  -5   1  -1   13.76    0.50
  -5   1  -1   13.55    0.54
   5  -1   1   14.19    0.53
   5  -1   1   14.41    0.49
   5  -1   1   14.05    0.49
  -6   1  -1    0.42    0.04
  -6   1  -1    0.33    0.12
  -6   1  -1    0.44    0.08
   6  -1   1    0.43    0.06
   6  -1   1    0.49    0.11
   6  -1   1    0.44    0.04
  -7   1  -1    5.10    0.25
  -7   1  -1    4.95    0.19
   7  -1   1    4.98    0.19
   7  -1   1    5.33    0.21
  -8   1  -1    5.99    0.22
  -8   1  -1    6.32    0.30
   8  -1   1    6.39    0.25
   8  -1   1    6.05    0.23
  -9   1  -1   -0.01    0.03
  -9   1  -1    0.09    0.14
   9  -1   1    0.10    0.09
   9  -1   1    0.06    0.05
   9   0  -1    0.05    0.09
   9   0  -1    0.07    0.04
  -9   0   1    0.15    0.12
   8   0  -1    1.27    0.07
   8   0  -1    1.28    0.13
  -8   0   1    1.43    0.18
   7   0  -1    9.24    0.32
   7   0  -1    9.56    0.34
  -7   0   1    9.12    0.36
   6   0  -1    7.61    0.36
   6   0  -1    8.69    0.29
   6   0  -1    7.91    0.34
   6   0  -1    8.04    0.33
   6   0  -1    8.34    0.28
   6   0  -1    8.55    0.30
  -6   0   1    7.98    0.31
   5   0  -1    2.43    0.08
   5   0  -1    2.34    0.08
   5   0  -1    2.45    0.10
   5   0  -1    2.31    0.15
   5   0  -1    2.30    0.18
   5   0  -1    2.35    0.15
  -5   0   1    2.34    0.08
  -5   0   1    2.19    0.10
  -5   0   1    2.57    0.18
  -5   0   1    2.14    0.08
  -5   0   1    2.37    0.12
   4   0  -1   10.32    0.41
   4   0  -1   10.94    0.40
   4   0  -1   10.75    0.40
  -4   0   1   10.47    0.37
  -4   0   1   10.76    0.41
   3   0  -1    1.25    0.09
   3   0  -1    1.03    0.10
   3   0  -1    1.12    0.09
   3   0  -1    1.27    0.04
   3   0  -1    1.20    0.04
  -3   0   1    1.20    0.06
  -3   0   1    1.16    0.05
  -3   0   1    1.17    0.05
  -3   0   1    1.20    0.04
  -3   0   1    1.15    0.09
  -3   0   1    1.18    0.04
  -3   0   1    1.16    0.10
   2   0  -1  931.93   31.67
   2   0  -1  905.55   31.48
  -2   0   1 1000.00   31.61
  -2   0   1  827.14   31.56
   1   0  -1  102.53    3.85
   1   0  -1  101.92    3.83
   1   0  -1   99.47    3.82
  -1   0   1  102.56    3.86
  -1   0   1  101.46    3.46
   0   0  -1   66.27    2.39
   0   0  -1   72.70    2.38
   0   0   1   71.71    2.62
  -1   0  -1   22.88    0.84
  -1   0  -1   25.02    0.84
   1   0   1   26.27    0.84
   1   0   1   24.30    0.95
  -2   0  -1   40.28    1.41
  -2   0  -1   41.22    1.40
   2   0   1   41.37    1.41
   2   0   1   41.30    1.40
  -3   0  -1   29.34    1.02
  -3   0  -1   29.40    1.01
   3   0   1   29.18    1.01
   3   0   1   29.77    1.01
  -4   0  -1   61.96    2.16
  -4   0  -1   64.22    2.16
   4   0   1   61.54    2.16
   4   0   1   65.58    2.16
  -5   0  -1    0.54    0.07
  -5   0  -1    0.45    0.09
  -5   0  -1    0.47    0.04
  -5   0  -1    0.48    0.04
  -5   0  -1    0.43    0.05
  -5   0  -1    0.44    0.06
   5   0   1    0.44    0.07
   5   0   1    0.51    0.04
   5   0   1    0.49    0.03
   5   0   1    0.53    0.07
   5   0   1    0.40    0.08
   5   0   1    0.42    0.05
  -6   0  -1   11.69    0.44
  -6   0  -1   11.84    0.48
   6   0   1   12.24    0.42
   6   0   1   12.49    0.47
  -7   0  -1    5.50    0.20
  -7   0  -1    5.80    0.26
  -7   0  -1    5.48    0.20
   7   0   1    5.68    0.20
   7   0   1    5.91    0.22
   7   0   1    5.68    0.29
  -8   0  -1    0.14    0.02
  -8   0  -1    0.23    0.11
  -8   0  -1    0.16    0.02
   8   0   1    0.18    0.04
   8   0   1    0.22    0.07
  -9   0  -1    0.52    0.13
   9   0   1    0.34    0.05
   9   0   1    0.36    0.09
   9  -1  -1    0.18    0.09
   9  -1  -1    0.14    0.05
  -9   1   1    0.29    0.14
   8  -1  -1    0.22    0.08
   8  -1  -1    0.21    0.04
  -8   1   1    0.32    0.12
   7  -1  -1   -0.01    0.03
   7  -1  -1    0.03    0.07
  -7   1   1    0.10    0.09
  -7   1   1    0.00    0.02
  -7   1   1   -0.03    0.02
   6  -1  -1    1.35    0.06
   6  -1  -1    1.37    0.10
  -6   1   1    1.50    0.14
  -6   1   1    1.29    0.06
  -6   1   1    1.24    0.06
   5  -1  -1    0.88    0.05
   5  -1  -1    0.77    0.04
   5  -1  -1    0.94    0.08
   5  -1  -1    0.71    0.07
   5  -1  -1    0.79    0.07
   5  -1  -1    0.80    0.04
   5  -1  -1    0.73    0.11
  -5   1   1    0.69    0.05
  -5   1   1    1.02    0.10
  -5   1   1    0.78    0.12
  -5   1   1    0.77    0.04
   4  -1  -1   16.55    0.59
   4  -1  -1   17.05    0.62
   4  -1  -1   16.85    0.59
  -4   1   1   16.53    0.62
   3  -1  -1   33.56    1.17
   3  -1  -1   34.95    1.19
   3  -1  -1   34.88    1.17
  -3   1   1   33.97    1.17
  -3   1   1   34.20    1.19
   2  -1  -1   41.47    1.44
   2  -1  -1   43.74    1.45
  -2   1   1   42.95    1.45
  -2   1   1   41.55    1.57
   1  -1  -1   14.87    0.51
   1  -1  -1   14.41    0.50
  -1   1   1   14.64    0.51
  -1   1   1   14.00    0.50
   0  -1  -1   25.56    0.88
   0  -1  -1   25.95    0.88
   0   1   1   24.96    0.88
   0   1   1   25.88    0.88
  -1  -1  -1    8.51    0.29
   1   1   1    8.41    0.29
  -2  -1  -1  192.54    7.04
  -2  -1  -1  206.41    7.27
   2   1   1  204.21    7.07
   2   1   1  196.81    7.23
   2   1   1  197.84    7.04
  -3  -1  -1   47.09    1.60
  -3  -1  -1   46.74    1.71
   3   1   1   47.52    1.59
   3   1   1   45.72    1.59
  -4  -1  -1    0.99    0.09
  -4  -1  -1    0.66    0.03
  -4  -1  -1    0.65    0.07
  -4  -1  -1    0.61    0.04
  -4  -1  -1    0.60    0.03
  -4  -1  -1    0.61    0.07
   4   1   1    0.67    0.07
   4   1   1    0.59    0.07
   4   1   1    0.70    0.03
   4   1   1    0.66    0.03
   4   1   1    0.60    0.05
  -5  -1  -1    0.01    0.01
  -5  -1  -1    0.01    0.01
  -5  -1  -1    0.09    0.07
  -5  -1  -1    0.06    0.05
  -5  -1  -1    0.03    0.03
  -5  -1  -1    0.08    0.07
   5   1   1    0.02    0.06
   5   1   1   -0.02    0.06
   5   1   1    0.00    0.02
   5   1   1    0.02    0.03
   5   1   1    0.06    0.07
   5   1   1    0.02    0.01
  -6  -1  -1    8.26    0.35
  -6  -1  -1    8.23    0.30
  -6  -1  -1    8.38    0.32
   6   1   1    8.32    0.35
   6   1   1    8.58    0.28
   6   1   1    8.44    0.30
   6   1   1    8.52    0.34
   6   1   1    8.53    0.36
   6   1   1    8.04    0.34
  -7  -1  -1    6.27    0.30
  -7  -1  -1    5.92    0.26
   7   1   1    5.96    0.30
   7   1   1    5.85    0.21
   7   1   1    5.87    0.31
   7   1   1    6.02    0.23
  -8  -1  -1    3.88    0.22
   8   1   1    3.69    0.17
   8   1   1    3.42    0.14
  -9  -1  -1    0.25    0.12
   9   1   1    0.22    0.08
   9   1   1    0.10    0.04
   8  -2  -1    0.52    0.09
   8  -2  -1    0.56    0.05
  -8   2   1    0.62    0.14
  -8   2   1    0.40    0.05
   7  -2  -1    0.00    0.07
   7  -2  -1    0.03    0.04
  -7   2   1    0.11    0.11
  -7   2   1   -0.03    0.04
   6  -2  -1    0.61    0.05
   6  -2  -1    0.39    0.06
  -6   2   1    0.52    0.10
  -6   2   1    0.47    0.04
   5  -2  -1    0.08    0.02
   5  -2  -1    0.09    0.10
   5  -2  -1    0.06    0.05
  -5   2   1    0.09    0.03
  -5   2   1    0.09    0.02
  -5   2   1    0.15    0.08
   4  -2  -1   76.22    2.65
   4  -2  -1   77.20    2.61
   4  -2  -1   77.30    2.61
  -4   2   1   78.22    2.65
   3  -2  -1   50.35    1.76
   3  -2  -1   51.78    1.72
   3  -2  -1   50.33    1.72
  -3   2   1   51.56    1.76
   2  -2  -1    1.87    0.07
   2  -2  -1    1.99    0.07
   2  -2  -1    2.26    0.08
   2  -2  -1    1.91    0.08
   2  -2  -1    1.80    0.12
  -2   2   1    1.85    0.13
  -2   2   1    2.34    0.07
  -2   2   1    2.15    0.10
  -2   2   1    1.80    0.08
   1  -2  -1   97.74    3.45
   1  -2  -1   94.39    3.25
  -1   2   1   98.13    3.26
  -1   2   1   91.44    3.23
   0  -2  -1    4.69    0.15
   0  -2  -1    4.47    0.16
   0  -2  -1    4.20    0.17
   0   2   1    4.55    0.17
   0   2   1    3.74    0.15
   0   2   1    4.49    0.16
   0   2   1    4.62    0.15
  -1  -2  -1   45.47    1.62
  -1  -2  -1   49.96    1.64
   1   2   1   47.42    1.63
   1   2   1   47.27    1.63
  -2  -2  -1  100.00    3.75
  -2  -2  -1  103.78    3.43
   2   2   1   98.12    3.42
  -3  -2  -1   14.11    0.51
   3   2   1   14.00    0.50
   3   2   1   14.67    0.50
   3   2   1   13.76    0.51
  -4  -2  -1   15.76    0.58
   4   2   1   16.18    0.57
   4   2   1   15.79    0.58
   4   2   1   16.43    0.57
  -5  -2  -1   10.42    0.38
  -5  -2  -1   10.94    0.42
  -5  -2  -1   10.55    0.37
   5   2   1   10.62    0.40
   5   2   1   10.63    0.41
   5   2   1   10.76    0.40
   5   2   1   10.36    0.41
  -6  -2  -1    0.10    0.06
  -6  -2  -1    0.07    0.04
   6   2   1    0.14    0.02
   6   2   1    0.04    0.08
   6   2   1    0.08    0.08
   6   2   1    0.11    0.02
   6   2   1    0.10    0.08
   6   2   1    0.17    0.09
   6   2   1    0.12    0.04
  -7  -2  -1    0.21    0.05
  -7  -2  -1    0.20    0.08
   7   2   1    0.01    0.10
   7   2   1    0.15    0.02
   7   2   1    0.11    0.10
   7   2   1    0.19    0.05
   7   2   1    0.04    0.10
   7   2   1    0.21    0.02
   7   2   1    0.09    0.11
  -8  -2  -1    4.52    0.23
   8   2   1    4.35    0.16
   8   2   1    4.52    0.19
  -9  -2  -1    0.09    0.11
   9   2   1   -0.02    0.03
   9   2   1    0.03    0.07
   8  -3  -1    0.33    0.09
   8  -3  -1    0.36    0.06
  -8   3   1    0.28    0.15
  -8   3   1    0.26    0.06
   7  -3  -1    0.79    0.06
   7  -3  -1    0.77    0.09
  -7   3   1    0.79    0.07
  -7   3   1    0.68    0.15
   6  -3  -1    1.14    0.07
   6  -3  -1    1.11    0.12
  -6   3   1    1.12    0.18
  -6   3   1    1.18    0.09
  -5   3   1   28.37    1.00
   4  -3  -1    2.68    0.10
   4  -3  -1    2.62    0.12
   4  -3  -1    2.42    0.19
  -4   3   1    2.47    0.21
  -4   3   1    2.69    0.16
   3  -3  -1    5.40    0.25
   3  -3  -1    5.35    0.19
   3  -3  -1    5.37    0.19
  -3   3   1    5.21    0.19
  -3   3   1    5.30    0.19
  -3   3   1    5.26    0.22
  -3   3   1    5.50    0.27
   2  -3  -1   67.74    2.29
   2  -3  -1   65.33    2.30
  -2   3   1   68.64    2.31
   1  -3  -1    0.71    0.08
   1  -3  -1    0.73    0.03
   1  -3  -1    0.71    0.04
   1  -3  -1    0.63    0.05
  -1   3   1    0.68    0.04
  -1   3   1    1.16    0.11
  -1   3   1    0.71    0.03
  -1   3   1    0.65    0.06
   0  -3  -1  342.63   11.31
   0  -3  -1  292.59   11.72
   0   3   1  315.99   11.17
   0   3   1  318.33   11.67
  -1  -3  -1  260.88   10.11
  -1  -3  -1  308.03   10.18
   1   3   1  274.91   10.16
   1   3   1  285.02   10.36
  -2  -3  -1   19.74    0.68
  -2  -3  -1   19.36    0.68
   2   3   1   19.15    0.68
   2   3   1   18.82    0.67
  -3  -3  -1   50.68    1.72
  -3  -3  -1   50.17    1.71
   3   3   1   50.12    1.71
   3   3   1   49.81    1.72
  -4  -3  -1    1.92    0.09
  -4  -3  -1    2.13    0.07
  -4  -3  -1    1.98    0.08
  -4  -3  -1    1.99    0.12
  -4  -3  -1    2.07    0.15
   4   3   1    2.13    0.13
   4   3   1    2.03    0.15
   4   3   1    2.17    0.07
   4   3   1    2.05    0.10
   4   3   1    2.17    0.07
   4   3   1    2.24    0.16
   4   3   1    2.03    0.13
  -5  -3  -1   29.34    1.01
   5   3   1   28.42    1.00
   5   3   1   28.66    1.02
   5   3   1   27.59    0.99
   5   3   1   28.32    1.01
   6   3   1   43.21    1.51
   6   3   1   43.44    1.49
   6   3   1   41.76    1.50
   6   3   1   43.30    1.49
  -7  -3  -1    8.27    0.31
  -7  -3  -1    8.63    0.32
   7   3   1    7.90    0.38
   7   3   1    8.11    0.37
   7   3   1    8.44    0.36
   7   3   1    8.61    0.30
  -8  -3  -1    3.03    0.15
  -8  -3  -1    3.15    0.19
   8   3   1    2.88    0.11
   8   3   1    3.04    0.14
  -9  -3  -1    0.30    0.11
   9   3   1    0.21    0.03
   8  -4  -1    0.15    0.10
   8  -4  -1    0.15    0.06
  -8   4   1    0.08    0.07
  -8   4   1   -0.15    0.18
   7  -4  -1    0.07    0.05
   7  -4  -1    0.06    0.09
  -7   4   1   -0.14    0.15
  -7   4   1    0.00    0.06
   6  -4  -1    1.02    0.12
   6  -4  -1    0.99    0.08
  -6   4   1    1.02    0.09
  -6   4   1    0.87    0.15
   5  -4  -1    0.00    0.06
   5  -4  -1    0.02    0.04
  -5   4   1   -0.05    0.11
  -5   4   1    0.09    0.04
   4  -4  -1   16.44    0.57
  -4   4   1   16.53    0.60
   3  -4  -1   34.93    1.22
  -3   4   1   33.99    1.24
   2  -4  -1   -0.06    0.08
   2  -4  -1    0.01    0.02
   2  -4  -1    0.01    0.02
   2  -4  -1    0.01    0.03
   2  -4  -1   -0.02    0.01
  -2   4   1    0.14    0.04
  -2   4   1    0.07    0.02
  -2   4   1   -0.02    0.05
  -2   4   1    0.02    0.09
  -2   4   1    0.04    0.03
   1  -4  -1   67.75    2.41
   1  -4  -1   64.27    2.27
  -1   4   1   67.01    2.26
  -1   4   1   69.20    2.28
  -1   4   1   63.06    2.25
   0  -4  -1   31.02    1.04
   0  -4  -1   28.72    1.06
   0   4   1   30.10    1.04
   0   4   1   30.30    1.06
  -1  -4  -1   15.54    0.55
  -1  -4  -1   15.35    0.57
   1   4   1   15.45    0.56
   1   4   1   14.87    0.55
  -2  -4  -1  142.72    4.65
  -2  -4  -1  127.75    4.64
   2   4   1  139.76    4.65
   2   4   1  132.55    4.63
  -3  -4  -1   15.23    0.56
  -3  -4  -1   15.56    0.56
   3   4   1   15.38    0.55
   3   4   1   15.35    0.57
   3   4   1   14.86    0.56
  -4  -4  -1   58.82    2.05
  -4  -4  -1   61.08    2.04
   4   4   1   57.29    2.05
   4   4   1   60.71    2.04
   4   4   1   59.38    2.05
  -5  -4  -1   22.07    0.82
  -5  -4  -1   21.99    0.80
   5   4   1   22.69    0.81
   5   4   1   22.79    0.82
   5   4   1   22.08    0.81
   5   4   1   23.44    0.83
  -6  -4  -1    0.26    0.05
  -6  -4  -1    0.29    0.04
   6   4   1    0.30    0.03
   6   4   1    0.26    0.11
   6   4   1    0.30    0.09
   6   4   1    0.25    0.06
   6   4   1    0.25    0.09
   6   4   1    0.29    0.03
  -7  -4  -1    5.29    0.21
  -7  -4  -1    4.97    0.19
   7   4   1    5.12    0.18
   7   4   1    5.40    0.18
   7   4   1    5.18    0.23
  -8  -4  -1    0.30    0.09
  -8  -4  -1    0.35    0.07
   8   4   1    0.31    0.02
   8   4   1    0.11    0.10
  -9  -4  -1    1.06    0.17
  -9  -4  -1    0.70    0.09
   9   4   1    0.59    0.13
   9   4   1    0.73    0.04
   7  -5  -1    0.13    0.09
   7  -5  -1    0.04    0.06
  -7   5   1    0.08    0.07
  -7   5   1   -0.36    0.16
   6  -5  -1    0.60    0.09
   6  -5  -1    0.65    0.06
  -6   5   1    0.37    0.16
  -6   5   1    0.89    0.10
   5  -5  -1    0.47    0.05
   5  -5  -1    0.42    0.08
  -5   5   1    0.39    0.06
  -5   5   1    0.32    0.13
   4  -5  -1    2.05    0.12
   4  -5  -1    2.12    0.10
  -4   5   1    2.27    0.11
  -4   5   1    1.80    0.20
   3  -5  -1    4.54    0.18
   3  -5  -1    4.57    0.17
  -3   5   1    4.56    0.17
  -3   5   1    4.75    0.22
   2  -5  -1    0.55    0.05
   2  -5  -1    0.47    0.04
   2  -5  -1    0.51    0.11
   2  -5  -1    0.70    0.05
   2  -5  -1    0.55    0.07
  -2   5   1    0.47    0.12
  -2   5   1    0.51    0.07
  -2   5   1    0.58    0.06
  -2   5   1    0.57    0.06
  -2   5   1    0.62    0.06
  -2   5   1    0.59    0.05
   1  -5  -1    5.18    0.19
   1  -5  -1    5.25    0.19
   1  -5  -1    5.18    0.18
   1  -5  -1    5.27    0.18
   1  -5  -1    5.00    0.26
  -1   5   1    5.26    0.21
  -1   5   1    4.98    0.21
  -1   5   1    4.96    0.20
  -1   5   1    5.84    0.28
  -1   5   1    5.05    0.18
  -1   5   1    5.18    0.19
   0  -5  -1   33.13    1.14
   0  -5  -1   31.99    1.16
   0   5   1   31.70    1.14
   0   5   1   34.20    1.16
   0   5   1   33.02    1.14
  -1  -5  -1   36.61    1.23
  -1  -5  -1   34.26    1.25
   1   5   1   35.10    1.23
   1   5   1   35.75    1.24
   1   5   1   35.02    1.23
  -2  -5  -1   23.76    0.84
  -2  -5  -1   23.19    0.86
   2   5   1   23.58    0.84
   2   5   1   23.18    0.84
   2   5   1   24.22    0.84
  -3  -5  -1    6.36    0.23
  -3  -5  -1    6.25    0.22
  -3  -5  -1    5.97    0.28
  -3  -5  -1    6.40    0.29
  -3  -5  -1    6.22    0.22
   3   5   1    6.92    0.22
   3   5   1    6.40    0.22
   3   5   1    6.22    0.23
   3   5   1    6.64    0.29
   3   5   1    6.76    0.28
   3   5   1    6.15    0.29
  -4  -5  -1   24.24    0.85
  -4  -5  -1   23.14    0.85
   4   5   1   23.39    0.84
   4   5   1   23.08    0.85
   4   5   1   22.59    0.85
  -5  -5  -1   10.22    0.41
  -5  -5  -1   10.04    0.42
  -5  -5  -1    9.82    0.35
  -5  -5  -1    9.92    0.36
   5   5   1   10.08    0.43
   5   5   1   10.52    0.41
   5   5   1   10.21    0.36
  -6  -5  -1   30.99    1.14
   6   5   1   33.39    1.16
   6   5   1   32.55    1.15
  -7  -5  -1    1.70    0.13
   7   5   1    1.62    0.07
   7   5   1    1.62    0.14
  -8  -5  -1    0.05    0.08
   8   5   1   -0.03    0.02
   8   5   1   -0.02    0.09
  -9  -5  -1    0.27    0.09
   9   5   1    0.18    0.11
   9   5   1    0.18    0.02
   6  -6  -1    2.82    0.15
   6  -6  -1    2.78    0.19
  -6   6   1    3.06    0.15
  -6   6   1    2.20    0.29
   5  -6  -1    0.83    0.09
   5  -6  -1    0.85    0.06
  -5   6   1    0.65    0.15
  -5   6   1    1.05    0.11
   4  -6  -1    0.10    0.05
   4  -6  -1    0.02    0.07
  -4   6   1    0.08    0.05
  -4   6   1   -0.25    0.11
   3  -6  -1    2.11    0.13
   3  -6  -1    2.10    0.10
  -3   6   1    2.35    0.18
  -3   6   1    2.07    0.11
   2  -6  -1    0.55    0.06
   2  -6  -1    0.50    0.04
  -2   6   1    0.58    0.06
  -2   6   1    0.43    0.08
   1  -6  -1   16.07    0.64
  -1   6   1   16.58    0.59
  -1   6   1   16.52    0.56
  -1   6   1   16.22    0.59
   0  -6  -1   15.60    0.61
   0   6   1   15.92    0.61
   0   6   1   15.49    0.57
   0   6   1   15.01    0.57
  -1  -6  -1    0.82    0.06
  -1  -6  -1    0.87    0.05
  -1  -6  -1    0.84    0.06
  -1  -6  -1    0.82    0.14
  -1  -6  -1    0.70    0.07
   1   6   1    0.86    0.05
   1   6   1    0.96    0.12
   1   6   1    0.82    0.05
   1   6   1    0.75    0.10
   1   6   1    0.69    0.10
   1   6   1    0.81    0.08
  -2  -6  -1    7.62    0.32
  -2  -6  -1    9.37    0.31
  -2  -6  -1    9.05    0.32
  -2  -6  -1    8.68    0.41
  -2  -6  -1    9.11    0.37
   2   6   1    9.32    0.37
   2   6   1    9.67    0.31
   2   6   1    9.18    0.38
   2   6   1    9.64    0.38
   2   6   1    9.26    0.31
   2   6   1    8.72    0.32
  -3  -6  -1   13.15    0.53
  -3  -6  -1   12.05    0.45
  -3  -6  -1   13.37    0.51
   3   6   1   13.32    0.51
   3   6   1   13.16    0.52
   3   6   1   13.63    0.51
  -4  -6  -1    0.06    0.09
  -4  -6  -1   -0.02    0.03
  -4  -6  -1    0.07    0.03
  -4  -6  -1    0.00    0.05
  -4  -6  -1    0.16    0.10
   4   6   1    0.10    0.05
   4   6   1    0.00    0.10
   4   6   1    0.03    0.09
  -5  -6  -1    3.03    0.11
  -5  -6  -1    2.93    0.12
  -5  -6  -1    3.06    0.15
  -5  -6  -1    3.14    0.12
  -5  -6  -1    2.85    0.22
   5   6   1    3.16    0.11
   5   6   1    3.06    0.21
   5   6   1    3.13    0.15
  -6  -6  -1    8.24    0.29
  -6  -6  -1    8.28    0.32
  -6  -6  -1    8.43    0.29
  -6  -6  -1    8.50    0.38
   6   6   1    8.31    0.38
   6   6   1    8.85    0.32
   6   6   1    8.64    0.29
  -7  -6  -1    0.32    0.08
   7   6   1    0.32    0.03
   7   6   1    0.33    0.08
  -8  -6  -1    0.63    0.09
   8   6   1    0.58    0.10
   8   6   1    0.58    0.05
  -9  -6  -1    0.30    0.10
   9   6   1    0.22    0.11
   9   6   1    0.25    0.03
   5  -7  -1    0.25    0.06
   5  -7  -1    0.28    0.10
  -5   7   1    0.27    0.07
  -5   7   1    0.07    0.14
   4  -7  -1    3.07    0.14
   4  -7  -1    3.17    0.18
  -4   7   1    3.26    0.15
  -4   7   1    3.07    0.25
   3  -7  -1    0.04    0.05
   3  -7  -1    0.01    0.07
  -3   7   1    0.07    0.05
  -3   7   1   -0.05    0.10
   2  -7  -1   13.13    0.47
   2  -7  -1   14.03    0.49
  -2   7   1   13.77    0.48
  -2   7   1   14.19    0.50
   0  -7  -1    2.52    0.11
   0  -7  -1    2.34    0.13
   0  -7  -1    2.53    0.11
   0   7   1    2.51    0.18
   0   7   1    2.51    0.14
   0   7   1    2.54    0.11
   0   7   1    2.50    0.10
   0   7   1    2.48    0.19
   1   7   1   21.08    0.78
   1   7   1   21.49    0.78
  -2  -7  -1    2.98    0.27
  -2  -7  -1    2.97    0.13
  -2  -7  -1    3.14    0.12
   2   7   1    3.00    0.11
   2   7   1    2.90    0.21
   2   7   1    2.98    0.15
   2   7   1    2.76    0.20
  -3  -7  -1   17.29    0.69
  -3  -7  -1   15.63    0.58
   3   7   1   18.01    0.66
  -4  -7  -1   57.29    2.02
  -5  -7  -1   14.03    0.49
  -5  -7  -1   13.85    0.58
   5   7   1   13.75    0.49
  -6  -7  -1    0.06    0.07
  -6  -7  -1    0.00    0.03
   6   7   1    0.03    0.07
   6   7   1    0.06    0.03
  -7  -7  -1    0.44    0.03
  -7  -7  -1    0.45    0.03
  -7  -7  -1    0.51    0.09
   7   7   1    0.54    0.05
   7   7   1    0.45    0.09
  -8  -7  -1    0.11    0.09
   8   7   1    0.10    0.09
   8   7   1    0.10    0.03
  -9  -7  -1    1.08    0.12
   9   7   1    1.18    0.19
   9   7   1    1.07    0.07
   4  -8  -1    0.74    0.10
  -4   8   1    0.61    0.07
  -4   8   1    0.55    0.14
   3  -8  -1    1.13    0.15
  -3   8   1    1.13    0.11
  -3   8   1    1.23    0.14
   2  -8  -1    2.77    0.17
  -2   8   1    2.97    0.14
  -2   8   1    3.07    0.20
   1  -8  -1    0.11    0.07
  -1   8   1    0.15    0.05
  -1   8   1    0.22    0.08
   0  -8  -1   12.55    0.44
   0  -8  -1   12.26    0.44
   0  -8  -1   13.06    0.45
   0   8   1   12.58    0.46
  -1  -8  -1    6.23    0.23
  -1  -8  -1    5.64    0.22
  -1  -8  -1    5.66    0.21
   1   8   1    5.71    0.24
   1   8   1    5.54    0.21
   1   8   1    5.67    0.30
  -2  -8  -1    0.75    0.08
  -2  -8  -1    0.74    0.08
  -2  -8  -1    0.77    0.07
   2   8   1    0.77    0.11
   2   8   1    0.82    0.07
  -3  -8  -1   21.43    0.74
  -4  -8  -1    3.02    0.15
  -4  -8  -1    3.04    0.13
   4   8   1    2.79    0.16
   4   8   1    2.94    0.12
  -5  -8  -1    5.47    0.22
  -5  -8  -1    5.46    0.20
   5   8   1    5.28    0.19
   5   8   1    5.11    0.22
  -6  -8  -1    2.79    0.17
  -6  -8  -1    2.62    0.12
   6   8   1    2.73    0.11
   6   8   1    2.78    0.17
  -7  -8  -1    0.52    0.10
  -7  -8  -1    0.43    0.04
   7   8   1    0.49    0.09
   7   8   1    0.43    0.04
  -8  -8  -1    1.66    0.18
   8   8   1    1.66    0.18
   8   8   1    1.44    0.08
   3  -9  -1    0.30    0.10
  -3   9   1    0.30    0.07
  -3   9   1    0.17    0.13
   2  -9  -1    0.06    0.09
  -2   9   1    0.25    0.11
   1  -9  -1    1.44    0.15
  -1   9   1    1.39    0.17
   0  -9  -1    4.34    0.19
   0  -9  -1    4.72    0.21
   0   9   1    4.63    0.23
  -1  -9  -1    1.77    0.11
  -1  -9  -1    1.79    0.11
  -1  -9  -1    2.10    0.15
   1   9   1    1.78    0.10
   1   9   1    1.77    0.15
  -2  -9  -1    0.05    0.09
  -2  -9  -1    0.09    0.06
  -2  -9  -1    0.08    0.05
   2   9   1    0.12    0.04
   2   9   1    0.17    0.08
  -3  -9  -1    0.83    0.11
  -3  -9  -1    0.85    0.07
   3   9   1    0.93    0.13
   3   9   1    0.84    0.08
  -4  -9  -1    0.10    0.07
  -4  -9  -1    0.08    0.05
   4   9   1    0.11    0.08
   4   9   1    0.04    0.04
  -5  -9  -1    2.24    0.11
  -5  -9  -1    2.23    0.15
   5   9   1    2.24    0.16
   5   9   1    2.21    0.11
  -6  -9  -1    0.09    0.05
  -6  -9  -1    0.01    0.09
   6   9   1    0.06    0.08
   6   9   1    0.05    0.04
  -7  -9  -1    0.03    0.04
  -7  -9  -1    0.09    0.10
   7   9   1    0.03    0.05
  -8  -9  -1    0.15    0.11
   8   9   1    0.15    0.05
   2 -10  -1    1.41    0.18
   1 -10  -1    0.78    0.11
  -1  10   1    0.85    0.12
   0 -10  -1    0.81    0.11
   0  10   1    0.78    0.11
  -1 -10  -1    0.41    0.07
  -1 -10  -1    0.60    0.12
   1  10   1    0.41    0.10
  -2 -10  -1    1.30    0.11
  -2 -10  -1    1.19    0.12
   2  10   1    1.38    0.16
   2  10   1    1.34    0.10
  -3 -10  -1    0.74    0.09
  -3 -10  -1    0.89    0.10
   3  10   1    1.03    0.14
   3  10   1    0.80    0.06
  -4 -10  -1    0.29    0.06
  -4 -10  -1    0.27    0.08
   4  10   1    0.24    0.05
   4  10   1    0.30    0.09
  -5 -10  -1    0.67    0.07
  -5 -10  -1    0.68    0.10
   5  10   1    0.73    0.10
   5  10   1    0.86    0.06
  -6 -10  -1    2.37    0.18
  -6 -10  -1    2.10    0.12
   6  10   1    2.11    0.12
  -7 -10  -1    0.74    0.06
   7  10   1    0.80    0.06
   1  11   1    2.42    0.20
  -2 -11  -1    2.93    0.16
   2  11   1    3.22    0.21
  -3 -11  -1    1.09    0.12
  -3 -11  -1    1.14    0.14
   3  11   1    1.33    0.17
   3  11   1    1.35    0.11
  -4 -11  -1    0.21    0.07
  -4 -11  -1    0.32    0.09
   4  11   1    0.27    0.06
  -5 -11  -1    0.21    0.07
   6   9  -2    1.36    0.19
   6   9  -2    1.45    0.11
  -6  -9   2    1.61    0.11
   5   9  -2    0.32    0.11
   5   9  -2    0.52    0.06
  -5  -9   2    0.47    0.07
   4   9  -2    0.69    0.11
   4   9  -2    0.76    0.06
  -4  -9   2    0.88    0.08
   3   9  -2    1.55    0.11
   3   9  -2    1.47    0.15
  -3  -9   2    1.23    0.14
  -3  -9   2    1.61    0.12
   2   9  -2    0.01    0.06
   2   9  -2    0.08    0.08
  -2  -9   2   -0.12    0.11
  -2  -9   2    0.08    0.06
  -1  -9   2    4.11    0.19
  -1  -9   2    5.01    0.25
   0  -9   2    4.58    0.25
  -1   9  -2   -0.05    0.10
   1  -9   2    0.05    0.11
   7   8  -2    0.19    0.11
   7   8  -2    0.43    0.05
  -7  -8   2    0.37    0.05
   6   8  -2   -0.10    0.10
   6   8  -2    0.07    0.05
  -6  -8   2    0.08    0.05
   5   8  -2    0.31    0.05
   5   8  -2    0.28    0.10
  -5  -8   2    0.38    0.06
  -5  -8   2    0.22    0.09
   4   8  -2    0.10    0.05
   4   8  -2    0.03    0.08
  -4  -8   2    0.09    0.05
  -4  -8   2    0.02    0.09
   3   8  -2    0.35    0.05
   3   8  -2    0.32    0.08
  -3  -8   2    0.05    0.10
  -3  -8   2    0.25    0.06
   2   8  -2    4.53    0.20
   2   8  -2    4.54    0.18
  -2  -8   2    4.99    0.23
  -2  -8   2    4.47    0.19
   1   8  -2    1.51    0.13
   1   8  -2    1.40    0.13
   1   8  -2    1.30    0.10
  -1  -8   2    1.54    0.17
  -1  -8   2    1.33    0.11
   0   8  -2    0.09    0.08
   0  -8   2    0.10    0.09
   0  -8   2   -0.02    0.06
  -1   8  -2    0.95    0.16
   1  -8   2    0.98    0.11
  -2   8  -2    0.49    0.11
   2  -8   2    0.70    0.11
  -3   8  -2   -0.11    0.11
   3  -8   2    0.17    0.11
   8   7  -2    0.96    0.08
   8   7  -2    0.78    0.13
   7   7  -2    1.13    0.13
   7   7  -2    1.32    0.08
  -7  -7   2    1.35    0.07
  -7  -7   2    1.49    0.16
   6   7  -2    0.05    0.04
  -6  -7   2    0.03    0.04
  -6  -7   2    0.13    0.07
  -6  -7   2    0.06    0.08
   5   7  -2    0.01    0.04
  -5  -7   2    0.03    0.04
  -5  -7   2    0.03    0.07
  -5  -7   2    0.16    0.08
   4   7  -2    1.43    0.08
  -4  -7   2    1.18    0.13
  -4  -7   2    1.31    0.12
  -4  -7   2    1.48    0.09
   3   7  -2    6.32    0.25
   3   7  -2    6.16    0.22
  -3  -7   2    5.95    0.26
  -3  -7   2    6.14    0.23
   2   7  -2    3.35    0.16
   2   7  -2    3.31    0.13
   2   7  -2    3.23    0.15
  -2  -7   2    2.83    0.18
  -2  -7   2    3.26    0.14
   1   7  -2    0.12    0.06
   1   7  -2    0.13    0.04
   1   7  -2    0.04    0.06
  -1  -7   2    0.09    0.05
  -1  -7   2    0.09    0.08
   0   7  -2    1.89    0.10
   0   7  -2    1.74    0.12
   0   7  -2    1.80    0.13
   0  -7   2    1.74    0.10
   0  -7   2    1.96    0.14
  -1   7  -2    0.76    0.09
   1  -7   2    0.81    0.10
  -2   7  -2    2.15    0.18
   2  -7   2    2.31    0.16
  -3   7  -2    0.28    0.06
  -3   7  -2    0.13    0.11
   3  -7   2    0.39    0.10
  -4   7  -2   -0.15    0.11
  -4   7  -2    0.00    0.07
   4  -7   2    0.13    0.10
   8   6  -2   -0.16    0.10
   8   6  -2    0.07    0.04
   7   6  -2    3.80    0.14
  -7  -6   2    3.92    0.20
  -7  -6   2    3.75    0.18
   6   6  -2    4.56    0.17
  -6  -6   2    4.61    0.17
  -6  -6   2    4.53    0.21
  -6  -6   2    4.62    0.20
   5   6  -2    1.07    0.07
  -5  -6   2    1.04    0.07
  -5  -6   2    1.28    0.11
  -5  -6   2    1.03    0.11
  -4  -6   2   13.18    0.48
  -4  -6   2   14.18    0.48
   3   6  -2    2.44    0.10
   3   6  -2    2.35    0.11
  -3  -6   2    2.38    0.13
  -3  -6   2    2.36    0.13
  -3  -6   2    2.50    0.11
   2   6  -2    6.40    0.23
   2   6  -2    6.40    0.24
   2   6  -2    6.36    0.32
   2   6  -2    6.40    0.23
  -2  -6   2    6.52    0.23
  -2  -6   2    6.06    0.25
   1   6  -2   11.17    0.47
   1   6  -2   11.85    0.41
   1   6  -2   11.75    0.40
   1   6  -2   11.03    0.48
   1   6  -2   11.96    0.41
  -1  -6   2   11.93    0.42
  -1  -6   2   12.05    0.41
  -1  -6   2   11.57    0.48
   0   6  -2    0.21    0.05
   0   6  -2    0.15    0.10
   0   6  -2    0.24    0.04
   0   6  -2    0.25    0.11
   0  -6   2    0.19    0.07
   0  -6   2    0.24    0.04
  -1   6  -2   25.73    0.88
   1  -6   2   25.71    0.89
  -2   6  -2    2.84    0.13
  -2   6  -2    2.84    0.18
   2  -6   2    2.73    0.16
  -3   6  -2    0.88    0.10
  -3   6  -2    0.77    0.11
   3  -6   2    0.74    0.06
   3  -6   2    0.72    0.09
  -4   6  -2    2.35    0.14
  -4   6  -2    2.00    0.20
   4  -6   2    2.08    0.12
   4  -6   2    2.21    0.16
  -5   6  -2    0.00    0.12
  -5   6  -2    0.20    0.07
   5  -6   2    0.17    0.06
   5  -6   2    0.18    0.10
   9   5  -2    0.66    0.05
   9   5  -2    0.50    0.11
   8   5  -2    3.79    0.21
   8   5  -2    3.73    0.14
  -8  -5   2    4.00    0.18
   7   5  -2    2.67    0.10
  -7  -5   2    2.68    0.15
  -7  -5   2    2.86    0.16
   6   5  -2    0.51    0.05
  -6  -5   2    0.46    0.03
  -6  -5   2    0.45    0.03
  -6  -5   2    0.41    0.07
  -6  -5   2    0.48    0.06
   5   5  -2    7.02    0.24
  -5  -5   2    6.83    0.26
  -5  -5   2    6.88    0.26
  -5  -5   2    6.72    0.24
   4   5  -2    0.08    0.03
   4   5  -2    0.09    0.04
  -4  -5   2    0.08    0.03
  -4  -5   2    0.07    0.05
  -4  -5   2    0.13    0.05
   3   5  -2   52.16    1.86
  -3  -5   2   54.84    1.88
   2   5  -2   33.17    1.18
   2   5  -2   32.55    1.19
  -2  -5   2   33.59    1.19
  -2  -5   2   33.77    1.21
   1   5  -2    0.39    0.05
   1   5  -2    0.52    0.05
   1   5  -2    0.26    0.10
   1   5  -2    0.36    0.03
   1   5  -2    0.34    0.09
   1   5  -2    0.34    0.05
  -1  -5   2    0.33    0.04
  -1  -5   2    0.66    0.08
  -1  -5   2    0.32    0.13
  -1  -5   2    0.24    0.09
   0   5  -2   21.93    0.82
   0   5  -2   22.83    0.82
   0  -5   2   22.83    0.77
   0  -5   2   22.98    0.86
   0  -5   2   22.76    0.82
  -1   5  -2    1.98    0.09
  -1   5  -2    2.20    0.10
  -1   5  -2    2.22    0.12
  -1   5  -2    2.04    0.18
  -1   5  -2    1.98    0.11
  -1   5  -2    2.06    0.17
   1  -5   2    2.01    0.16
   1  -5   2    1.99    0.12
   1  -5   2    2.02    0.09
   1  -5   2    2.24    0.10
  -2   5  -2   13.34    0.46
  -2   5  -2   14.30    0.48
   2  -5   2   12.59    0.45
   2  -5   2   13.18    0.46
   2  -5   2   12.85    0.47
  -4   5  -2    1.19    0.10
  -4   5  -2    0.91    0.12
   4  -5   2    1.08    0.13
   4  -5   2    1.15    0.09
  -5   5  -2    1.68    0.12
  -5   5  -2    1.39    0.19
   5  -5   2    1.62    0.11
   5  -5   2    1.72    0.15
  -6   5  -2    0.94    0.09
  -6   5  -2    0.57    0.14
   6  -5   2    0.86    0.07
   6  -5   2    0.81    0.11
   9   4  -2   -0.08    0.09
   9   4  -2    0.02    0.02
  -9  -4   2    0.02    0.08
   8   4  -2    0.21    0.02
   8   4  -2    0.06    0.09
  -8  -4   2    0.19    0.07
   7   4  -2    1.70    0.15
   7   4  -2    1.80    0.07
  -7  -4   2    1.87    0.13
   6   4  -2    0.22    0.05
   6   4  -2    0.22    0.02
  -6  -4   2    0.20    0.06
  -6  -4   2    0.28    0.06
   5   4  -2    3.15    0.10
   5   4  -2    2.85    0.12
   5   4  -2    2.79    0.10
  -5  -4   2    2.83    0.10
  -5  -4   2    2.72    0.23
  -5  -4   2    2.70    0.10
  -5  -4   2    2.94    0.13
  -5  -4   2    2.75    0.14
   4   4  -2   17.66    0.66
   4   4  -2   16.56    0.66
  -4  -4   2   17.82    0.67
   3   4  -2    1.91    0.07
   3   4  -2    1.71    0.16
   3   4  -2    1.52    0.15
   3   4  -2    1.72    0.07
   3   4  -2    1.72    0.08
   3   4  -2    1.83    0.16
  -3  -4   2    1.55    0.15
  -3  -4   2    1.77    0.19
  -3  -4   2    1.55    0.07
  -3  -4   2    1.66    0.09
  -3  -4   2    1.69    0.09
  -3  -4   2    1.75    0.07
   2   4  -2   10.46    0.42
   2   4  -2   10.59    0.43
  -2  -4   2   10.37    0.37
  -2  -4   2    9.87    0.36
  -2  -4   2   10.64    0.43
  -2  -4   2   11.05    0.43
   1   4  -2   13.43    0.50
   1   4  -2   12.31    0.48
  -1  -4   2   12.96    0.50
  -1  -4   2   11.76    0.44
  -1  -4   2   12.63    0.49
   0   4  -2    2.12    0.09
   0   4  -2    2.00    0.10
   0   4  -2    1.95    0.15
   0   4  -2    2.21    0.10
   0   4  -2    2.05    0.08
   0  -4   2    2.02    0.15
   0  -4   2    1.78    0.19
   0  -4   2    1.73    0.10
   0  -4   2    2.05    0.09
   0  -4   2    2.05    0.08
  -1   4  -2   31.55    1.07
  -1   4  -2   28.00    1.05
   1  -4   2   29.13    1.03
   1  -4   2   29.91    1.07
  -2   4  -2   15.79    0.53
  -2   4  -2   15.16    0.54
  -2   4  -2   17.12    0.63
  -2   4  -2   16.43    0.60
   2  -4   2   16.01    0.61
   2  -4   2   15.35    0.56
   2  -4   2   14.42    0.53
   2  -4   2   14.88    0.54
  -3   4  -2    0.13    0.07
  -3   4  -2    0.08    0.04
   3  -4   2    0.17    0.11
   3  -4   2    0.07    0.05
   3  -4   2    0.04    0.03
  -4   4  -2    3.01    0.19
  -4   4  -2    3.17    0.13
   4  -4   2    2.84    0.15
   4  -4   2    2.79    0.12
  -5   4  -2    1.91    0.11
  -5   4  -2    1.61    0.18
   5  -4   2    1.76    0.10
   5  -4   2    1.77    0.14
  -6   4  -2    0.36    0.07
  -6   4  -2    0.35    0.12
   6  -4   2    0.40    0.09
   6  -4   2    0.34    0.06
  -7   4  -2    0.33    0.14
  -7   4  -2    0.56    0.08
   7  -4   2    0.51    0.07
   7  -4   2    0.56    0.10
  -9  -3   2    0.38    0.08
   8   3  -2   -0.10    0.08
   8   3  -2    0.05    0.02
   8   3  -2    0.02    0.02
  -8  -3   2    0.04    0.07
   7   3  -2    0.17    0.02
   7   3  -2    0.08    0.07
   7   3  -2    0.14    0.02
  -7  -3   2    0.11    0.06
  -7  -3   2    0.21    0.06
   6   3  -2    0.11    0.05
  -6  -3   2    0.17    0.05
  -6  -3   2    0.14    0.05
   5   3  -2   14.99    0.59
   5   3  -2   15.20    0.60
   5   3  -2   14.02    0.62
   5   3  -2   15.23    0.59
  -5  -3   2   15.92    0.58
  -5  -3   2   15.00    0.61
  -5  -3   2   14.94    0.52
   4   3  -2   42.32    1.42
   4   3  -2   40.36    1.42
   4   3  -2   38.98    1.43
  -4  -3   2   41.50    1.42
  -4  -3   2   39.57    1.43
   3   3  -2   11.82    0.47
   3   3  -2   12.18    0.47
  -3  -3   2   11.80    0.48
  -3  -3   2   12.81    0.48
   2   3  -2    3.48    0.11
   2   3  -2    3.03    0.13
   2   3  -2    3.04    0.11
   2   3  -2    2.97    0.11
   2   3  -2    3.28    0.19
  -2  -3   2    3.18    0.12
  -2  -3   2    3.34    0.19
  -2  -3   2    2.79    0.11
  -2  -3   2    3.29    0.19
  -2  -3   2    3.17    0.11
   1   3  -2    5.45    0.24
   1   3  -2    5.58    0.20
   1   3  -2    5.66    0.26
   1   3  -2    5.35    0.20
   1   3  -2    5.57    0.19
  -1  -3   2    5.37    0.26
  -1  -3   2    5.82    0.25
  -1  -3   2    5.80    0.19
  -1  -3   2    5.67    0.20
   0   3  -2   51.99    1.76
   0   3  -2   48.64    1.75
   0  -3   2   51.47    1.76
   0  -3   2   51.22    1.74
  -1   3  -2   43.63    1.47
  -1   3  -2   40.91    1.45
   1  -3   2   42.50    1.44
   1  -3   2   40.52    1.46
  -2   3  -2    4.43    0.19
  -2   3  -2    4.87    0.27
  -2   3  -2    5.18    0.27
  -2   3  -2    4.91    0.17
  -2   3  -2    5.17    0.20
  -2   3  -2    4.92    0.18
   2  -3   2    4.58    0.18
   2  -3   2    5.04    0.20
   2  -3   2    4.94    0.17
   2  -3   2    5.11    0.18
   2  -3   2    5.04    0.25
  -3   3  -2    0.49    0.13
  -3   3  -2    0.35    0.04
  -3   3  -2    0.35    0.08
  -3   3  -2    0.43    0.07
   3  -3   2    0.41    0.10
   3  -3   2    0.32    0.03
   3  -3   2    0.39    0.04
   3  -3   2    0.35    0.05
   3  -3   2    0.40    0.05
  -4   3  -2    1.11    0.08
  -4   3  -2    1.21    0.13
  -4   3  -2    1.09    0.18
   4  -3   2    1.07    0.10
   4  -3   2    0.97    0.07
   4  -3   2    0.89    0.13
  -5   3  -2    0.01    0.05
  -5   3  -2    0.01    0.09
   5  -3   2   -0.02    0.06
   5  -3   2    0.00    0.04
  -6   3  -2    0.03    0.06
  -6   3  -2   -0.04    0.10
   6  -3   2    0.00    0.07
   6  -3   2    0.03    0.05
  -7   3  -2   -0.02    0.06
  -7   3  -2   -0.05    0.12
   7  -3   2    0.05    0.08
   7  -3   2    0.01    0.05
  -8   3  -2   -0.09    0.14
  -8   3  -2    0.04    0.07
   8  -3   2    0.04    0.10
   8  -3   2   -0.01    0.06
   9   2  -2    0.32    0.10
   9   2  -2    0.42    0.04
   8   2  -2    1.32    0.13
   8   2  -2    1.36    0.06
  -8  -2   2    1.63    0.13
  -8  -2   2    1.50    0.15
   7   2  -2    2.22    0.08
   7   2  -2    2.11    0.13
   7   2  -2    2.16    0.08
  -7  -2   2    2.16    0.13
  -7  -2   2    2.33    0.14
   6   2  -2   58.22    2.06
   6   2  -2   60.40    2.08
   5   2  -2    4.60    0.26
   5   2  -2    5.09    0.27
   5   2  -2    5.12    0.19
   5   2  -2    4.71    0.26
   5   2  -2    4.93    0.17
   5   2  -2    4.83    0.27
  -5  -2   2    5.26    0.28
  -5  -2   2    4.79    0.19
  -5  -2   2    4.86    0.19
   4   2  -2    0.24    0.02
   4   2  -2    0.30    0.09
   4   2  -2    0.22    0.02
   4   2  -2    0.24    0.09
   4   2  -2    0.23    0.04
   4   2  -2    0.27    0.08
  -4  -2   2    0.30    0.05
  -4  -2   2    0.22    0.02
  -4  -2   2    0.25    0.08
  -4  -2   2    0.18    0.02
  -4  -2   2    0.26    0.04
  -4  -2   2    0.31    0.10
  -4  -2   2    0.28    0.04
   3   2  -2   59.72    2.00
   3   2  -2   57.88    2.00
  -3  -2   2   58.04    2.00
  -3  -2   2   56.93    2.00
   2   2  -2    0.91    0.04
   2   2  -2    0.94    0.06
   2   2  -2    0.88    0.04
   2   2  -2    0.91    0.09
   2   2  -2    1.01    0.04
   2   2  -2    0.99    0.09
  -2  -2   2    0.89    0.09
  -2  -2   2    0.92    0.04
  -2  -2   2    0.93    0.04
  -2  -2   2    0.70    0.08
   1   2  -2  137.82    4.63
   1   2  -2  132.50    4.62
  -1  -2   2  131.12    4.64
  -1  -2   2  140.47    4.61
   0   2  -2  122.39    4.43
   0   2  -2  136.91    4.41
   0  -2   2  128.87    4.43
   0  -2   2  129.87    4.44
  -1   2  -2    0.60    0.05
  -1   2  -2    0.54    0.03
  -1   2  -2    0.44    0.05
  -1   2  -2    0.42    0.08
  -1   2  -2    0.80    0.09
   1  -2   2    0.48    0.07
   1  -2   2    0.56    0.03
   1  -2   2    0.40    0.05
   1  -2   2    0.61    0.04
   1  -2   2    0.59    0.06
  -2   2  -2   36.73    1.26
  -2   2  -2   34.69    1.25
   2  -2   2   35.29    1.24
   2  -2   2   36.19    1.22
  -3   2  -2    6.11    0.22
  -3   2  -2    5.51    0.24
  -3   2  -2    5.59    0.21
  -3   2  -2    5.81    0.29
  -3   2  -2    5.84    0.20
  -3   2  -2    6.03    0.21
   3  -2   2    6.07    0.26
   3  -2   2    5.73    0.20
   3  -2   2    5.72    0.21
   3  -2   2    6.21    0.21
   3  -2   2    5.91    0.23
  -4   2  -2   13.55    0.57
  -4   2  -2   13.95    0.50
   4  -2   2   14.45    0.49
   4  -2   2   14.61    0.54
  -5   2  -2   26.83    1.00
   5  -2   2   26.65    0.96
  -6   2  -2   10.00    0.39
  -6   2  -2   10.16    0.35
   6  -2   2   10.25    0.37
   6  -2   2    9.88    0.35
  -7   2  -2    1.17    0.19
  -7   2  -2    1.11    0.10
   7  -2   2    1.14    0.09
   7  -2   2    1.15    0.13
  -8   2  -2    0.10    0.13
  -8   2  -2    0.01    0.06
   8  -2   2    0.06    0.06
   8  -2   2    0.09    0.09
   9   1  -2    0.60    0.10
   9   1  -2    0.63    0.05
  -9  -1   2    0.77    0.12
   8   1  -2    0.04    0.02
   8   1  -2   -0.08    0.08
  -8  -1   2   -0.01    0.07
  -8  -1   2    0.06    0.09
   7   1  -2    0.54    0.03
   7   1  -2    0.46    0.04
   7   1  -2    0.47    0.06
  -7  -1   2    0.50    0.08
  -7  -1   2    0.44    0.06
   6   1  -2   13.63    0.55
   6   1  -2   14.56    0.50
   6   1  -2   13.91    0.56
  -6  -1   2   14.34    0.50
  -6  -1   2   14.58    0.49
   5   1  -2   30.97    1.10
   5   1  -2   31.71    1.11
   5   1  -2   30.54    1.11
   5   1  -2   31.21    1.11
  -5  -1   2   31.07    1.11
   4   1  -2  395.42   14.04
   4   1  -2  412.30   13.93
   4   1  -2  413.58   13.93
  -4  -1   2  420.91   14.56
   3   1  -2    3.99    0.19
   3   1  -2    4.23    0.20
   3   1  -2    4.22    0.14
   3   1  -2    4.14    0.15
   3   1  -2    4.05    0.19
  -3  -1   2    4.07    0.15
  -3  -1   2    4.01    0.20
  -3  -1   2    3.93    0.14
  -3  -1   2    4.10    0.15
  -3  -1   2    4.03    0.19
   2   1  -2   48.12    1.59
   2   1  -2   44.53    1.59
  -2  -1   2   45.98    1.59
  -2  -1   2   46.57    1.59
   1   1  -2    4.89    0.21
   1   1  -2    5.52    0.21
   1   1  -2    5.19    0.18
  -1  -1   2    5.19    0.18
  -1  -1   2    5.24    0.22
  -1  -1   2    5.34    0.21
  -1  -1   2    5.12    0.18
   0   1  -2  166.56    6.08
   0   1  -2  183.73    6.78
   0  -1   2  181.65    6.09
   0  -1   2  184.45    6.09
  -1   1  -2  254.35    8.72
  -1   1  -2  231.70    8.08
   1  -1   2  248.74    8.88
   1  -1   2  216.76    8.68
  -2   1  -2   23.84    0.86
  -2   1  -2   24.64    0.85
   2  -1   2   24.70    0.85
   2  -1   2   24.20    0.84
  -3   1  -2   46.52    1.61
  -3   1  -2   46.28    1.59
   3  -1   2   46.93    1.59
   3  -1   2   47.07    1.60
  -4   1  -2   22.76    0.77
  -4   1  -2   20.95    0.80
   4  -1   2   22.71    0.77
   4  -1   2   22.22    0.79
  -5   1  -2    2.70    0.11
  -5   1  -2    2.79    0.15
  -5   1  -2    2.66    0.21
   5  -1   2    2.59    0.14
   5  -1   2    2.78    0.11
   5  -1   2    2.71    0.18
   5  -1   2    2.77    0.12
  -6   1  -2   18.92    0.75
  -6   1  -2   19.84    0.69
   6  -1   2   19.81    0.73
  -7   1  -2    1.23    0.09
  -7   1  -2    1.29    0.18
   7  -1   2    1.25    0.08
   7  -1   2    1.45    0.12
  -8   1  -2    1.73    0.21
  -8   1  -2    1.62    0.10
   8  -1   2    1.71    0.10
   8  -1   2    1.62    0.15
  -9   1  -2    0.82    0.15
  -9   1  -2    0.74    0.06
   9  -1   2    0.77    0.10
   9  -1   2    0.77    0.07
   9   0  -2    0.12    0.09
   9   0  -2    0.19    0.04
  -9   0   2    0.18    0.12
   8   0  -2    0.00    0.03
   8   0  -2    0.00    0.08
  -8   0   2    0.15    0.09
   7   0  -2    0.16    0.07
   7   0  -2    0.28    0.03
  -7   0   2    0.38    0.08
   6   0  -2    2.94    0.12
   6   0  -2    2.47    0.19
   6   0  -2    3.12    0.20
   6   0  -2    2.78    0.10
   6   0  -2    2.79    0.10
  -6   0   2    2.62    0.15
  -6   0   2    2.61    0.13
   5   0  -2    3.34    0.11
   5   0  -2    3.40    0.13
   5   0  -2    3.25    0.18
   5   0  -2    3.37    0.11
   5   0  -2    3.18    0.22
   5   0  -2    3.06    0.19
   5   0  -2    2.91    0.20
  -5   0   2    3.19    0.13
  -5   0   2    3.21    0.20
  -5   0   2    3.00    0.11
  -5   0   2    3.21    0.11
  -5   0   2    3.49    0.20
  -5   0   2    3.25    0.15
   4   0  -2   36.70    1.25
   4   0  -2   34.88    1.23
   4   0  -2   34.65    1.24
  -4   0   2   35.64    1.24
  -4   0   2   35.28    1.24
   2   0  -2   10.79    0.41
   2   0  -2   11.24    0.41
  -2   0   2   11.50    0.41
  -2   0   2   11.11    0.42
   1   0  -2    6.95    0.27
   1   0  -2    7.01    0.27
   1   0  -2    7.51    0.27
  -1   0   2    6.91    0.28
  -1   0   2    7.52    0.27
   0   0  -2  144.08    5.03
   0   0  -2  145.81    5.00
   0   0   2  158.12    5.51
   0   0   2  143.58    5.01
  -1   0  -2   15.76    0.56
  -1   0  -2   15.37    0.55
   1   0   2   15.80    0.55
   1   0   2   16.21    0.55
  -2   0  -2   13.98    0.50
  -2   0  -2   13.86    0.51
   2   0   2   14.89    0.50
   2   0   2   14.36    0.50
  -3   0  -2    0.16    0.05
  -3   0  -2    0.25    0.05
  -3   0  -2    0.17    0.02
  -3   0  -2    0.26    0.03
  -3   0  -2    0.22    0.04
   3   0   2    0.20    0.05
   3   0   2    0.22    0.02
   3   0   2    0.14    0.03
   3   0   2    0.22    0.02
   3   0   2    0.14    0.05
  -4   0  -2   48.35    1.57
  -4   0  -2   43.62    1.58
   4   0   2   44.43    1.57
   4   0   2   47.09    1.57
  -5   0  -2   35.18    1.22
  -5   0  -2   34.52    1.23
   5   0   2   36.25    1.22
   5   0   2   35.16    1.23
  -6   0  -2    2.41    0.20
  -6   0  -2    2.19    0.10
  -6   0  -2    2.41    0.15
   6   0   2    2.41    0.12
   6   0   2    2.28    0.18
   6   0   2    2.26    0.09
  -7   0  -2    0.42    0.04
  -7   0  -2    0.49    0.10
   7   0   2    0.49    0.04
   7   0   2    0.41    0.06
  -8   0  -2    1.49    0.08
  -8   0  -2    1.67    0.20
   8   0   2    1.51    0.09
   8   0   2    1.64    0.13
  -9   0  -2    0.64    0.05
  -9   0  -2    0.76    0.14
   9   0   2    0.60    0.06
   9   0   2    0.72    0.09
   9  -1  -2   -0.04    0.09
   9  -1  -2    0.06    0.04
  -9   1   2    0.18    0.13
   8  -1  -2    1.62    0.14
   8  -1  -2    1.65    0.09
  -8   1   2    2.00    0.19
   7  -1  -2    1.97    0.13
   7  -1  -2    1.99    0.08
  -7   1   2    1.81    0.07
  -7   1   2    1.64    0.07
  -7   1   2    2.01    0.17
   6  -1  -2   14.46    0.50
  -6   1   2   13.76    0.51
   5  -1  -2    3.27    0.11
   5  -1  -2    3.18    0.18
   5  -1  -2    3.36    0.12
   5  -1  -2    3.37    0.18
   5  -1  -2    3.21    0.22
   5  -1  -2    3.45    0.13
  -5   1   2    3.22    0.16
  -5   1   2    3.29    0.18
  -5   1   2    3.26    0.21
  -5   1   2    3.29    0.13
  -5   1   2    3.06    0.12
  -5   1   2    3.09    0.12
   4  -1  -2    0.94    0.04
   4  -1  -2    0.88    0.08
   4  -1  -2    0.91    0.04
   4  -1  -2    0.97    0.06
   4  -1  -2    0.87    0.11
  -4   1   2    0.87    0.04
  -4   1   2    1.04    0.09
  -4   1   2    0.94    0.05
  -4   1   2    0.95    0.09
  -4   1   2    0.89    0.06
  -4   1   2    0.89    0.11
   3  -1  -2    0.05    0.06
   3  -1  -2    0.03    0.01
   3  -1  -2    0.04    0.01
  -3   1   2    0.13    0.06
  -3   1   2    0.10    0.06
   2  -1  -2   61.99    2.14
   2  -1  -2   64.80    2.16
  -2   1   2   61.59    2.14
   1  -1  -2  112.44    4.05
   1  -1  -2  124.35    4.15
  -1   1   2  114.38    4.06
  -1   1   2  125.97    4.07
   0  -1  -2  102.71    3.58
   0  -1  -2  108.97    3.92
   0   1   2  102.61    3.59
   0   1   2  107.09    3.88
  -1  -1  -2    0.20    0.04
  -1  -1  -2    0.18    0.02
  -1  -1  -2    0.20    0.02
  -1  -1  -2    0.18    0.01
   1   1   2    0.21    0.02
   1   1   2    0.20    0.02
   1   1   2    0.20    0.01
   1   1   2    0.20    0.04
  -2  -1  -2   16.46    0.57
   2   1   2   16.07    0.55
   2   1   2   16.10    0.57
  -3  -1  -2    1.32    0.08
  -3  -1  -2    1.29    0.10
  -3  -1  -2    1.41    0.06
  -3  -1  -2    1.33    0.05
  -3  -1  -2    1.59    0.06
  -3  -1  -2    1.36    0.07
   3   1   2    1.34    0.06
   3   1   2    1.50    0.08
   3   1   2    1.50    0.05
   3   1   2    1.39    0.05
   3   1   2    1.29    0.10
  -4  -1  -2   55.56    1.88
  -4  -1  -2   57.25    1.89
   4   1   2   53.50    1.88
   4   1   2   54.67    1.89
  -5  -1  -2    8.53    0.34
  -5  -1  -2    8.47    0.32
  -5  -1  -2    8.48    0.30
  -5  -1  -2    8.43    0.29
  -5  -1  -2    8.66    0.34
   5   1   2    8.10    0.34
   5   1   2    8.89    0.30
   5   1   2    9.22    0.29
   5   1   2    8.85    0.29
   5   1   2    8.23    0.33
  -6  -1  -2    6.80    0.30
  -6  -1  -2    6.98    0.27
  -6  -1  -2    6.76    0.30
  -6  -1  -2    6.63    0.24
  -6  -1  -2    6.66    0.23
  -6  -1  -2    6.86    0.23
   6   1   2    6.93    0.29
   6   1   2    6.58    0.29
   6   1   2    6.33    0.30
   6   1   2    7.04    0.25
   6   1   2    6.80    0.23
  -7  -1  -2    0.19    0.09
  -7  -1  -2    0.16    0.03
  -7  -1  -2    0.17    0.03
   7   1   2    0.24    0.06
   7   1   2    0.20    0.03
  -8  -1  -2    0.20    0.10
  -8  -1  -2    0.23    0.03
  -8  -1  -2    0.22    0.02
   8   1   2    0.20    0.04
   8   1   2    0.28    0.07
  -9  -1  -2    0.07    0.12
   9   1   2   -0.01    0.04
   9   1   2    0.05    0.07
   8  -2  -2    0.20    0.09
   8  -2  -2    0.20    0.04
  -8   2   2    0.25    0.13
  -8   2   2    0.09    0.03
   7  -2  -2    1.85    0.09
   7  -2  -2    1.95    0.14
  -7   2   2    2.10    0.19
  -7   2   2    1.80    0.09
   6  -2  -2   10.37    0.35
   6  -2  -2   10.55    0.37
  -6   2   2   10.07    0.36
  -6   2   2   10.23    0.40
   5  -2  -2   14.69    0.50
   5  -2  -2   14.01    0.56
   5  -2  -2   14.39    0.52
  -5   2   2   14.13    0.52
   4  -2  -2    0.21    0.02
   4  -2  -2    0.24    0.02
   4  -2  -2    0.30    0.04
   4  -2  -2    0.18    0.09
   4  -2  -2    0.42    0.06
  -4   2   2    0.23    0.02
  -4   2   2    0.21    0.06
  -4   2   2    0.30    0.07
  -4   2   2    0.20    0.03
  -4   2   2    0.23    0.09
   3  -2  -2   95.04    3.28
   3  -2  -2   99.44    3.30
  -3   2   2   93.29    3.28
  -3   2   2   98.62    3.44
   2  -2  -2  137.46    4.68
   2  -2  -2  141.79    4.73
  -2   2   2  136.27    4.70
  -2   2   2  136.62    4.69
   1  -2  -2   11.18    0.39
   1  -2  -2   11.10    0.38
  -1   2   2   10.10    0.39
  -1   2   2   10.83    0.39
   0  -2  -2   90.12    3.05
   0  -2  -2   90.13    3.06
   0   2   2   85.16    3.05
   0   2   2   92.15    3.06
  -1  -2  -2   59.37    2.25
  -1  -2  -2   55.14    2.01
   1   2   2   58.46    1.98
   1   2   2   57.95    1.96
  -2  -2  -2  128.62    4.28
  -2  -2  -2  120.25    4.18
   2   2   2  119.49    4.27
  -3  -2  -2  180.67    6.18
   3   2   2  181.00    6.18
   3   2   2  187.86    6.34
   3   2   2  177.37    6.45
  -4  -2  -2   28.69    1.01
   4   2   2   28.79    1.01
   4   2   2   28.91    0.99
   4   2   2   29.04    0.99
  -5  -2  -2    0.08    0.08
  -5  -2  -2    0.05    0.04
  -5  -2  -2    0.05    0.05
  -5  -2  -2    0.01    0.02
  -5  -2  -2    0.04    0.02
   5   2   2    0.09    0.06
   5   2   2    0.00    0.07
   5   2   2    0.04    0.03
   5   2   2    0.00    0.06
   5   2   2    0.02    0.01
   5   2   2    0.02    0.02
  -6  -2  -2   26.69    0.96
   6   2   2   25.34    0.95
   6   2   2   27.49    0.95
   6   2   2   27.45    0.94
   6   2   2   26.73    0.96
  -7  -2  -2    0.53    0.09
  -7  -2  -2    0.47    0.06
   7   2   2    0.45    0.03
   7   2   2    0.47    0.05
  -8  -2  -2    3.23    0.20
   8   2   2    3.05    0.12
   8   2   2    3.22    0.15
  -9  -2  -2    1.65    0.20
   9   2   2    1.34    0.08
   8  -3  -2   -0.01    0.05
   8  -3  -2    0.06    0.09
  -8   3   2   -0.03    0.06
  -8   3   2   -0.08    0.15
   7  -3  -2    3.01    0.17
   7  -3  -2    2.98    0.13
  -7   3   2    3.04    0.25
  -7   3   2    2.95    0.14
   6  -3  -2    5.41    0.20
   6  -3  -2    5.67    0.22
  -6   3   2    5.39    0.28
  -6   3   2    5.29    0.20
   5  -3  -2    1.62    0.07
   5  -3  -2    1.60    0.11
  -5   3   2    1.66    0.08
  -5   3   2    1.80    0.18
   4  -3  -2   13.31    0.52
   4  -3  -2   13.68    0.46
   4  -3  -2   13.09    0.46
   4  -3  -2   13.98    0.46
  -4   3   2   13.40    0.49
  -4   3   2   11.77    0.46
  -4   3   2   13.18    0.53
   3  -3  -2   13.46    0.44
   3  -3  -2   12.90    0.49
  -3   3   2   13.09    0.50
  -3   3   2   11.76    0.45
  -3   3   2   12.47    0.46
   2  -3  -2   86.29    2.84
   2  -3  -2   82.83    2.84
  -2   3   2   80.09    2.84
  -2   3   2   84.54    2.85
   1  -3  -2  236.66    7.95
   1  -3  -2  236.24    8.41
  -1   3   2  240.32    7.94
  -1   3   2  220.82    7.90
   0  -3  -2  119.00    3.88
   0  -3  -2  110.99    3.89
   0   3   2  112.60    3.88
   0   3   2  112.33    3.87
  -1  -3  -2   26.97    0.97
   1   3   2   28.87    0.96
   1   3   2   28.15    0.97
  -2  -3  -2   91.78    3.07
  -2  -3  -2   90.90    3.10
   2   3   2   88.94    3.10
   2   3   2   89.22    3.07
  -3  -3  -2    4.94    0.22
  -3  -3  -2    4.94    0.18
  -3  -3  -2    5.21    0.20
   3   3   2    5.18    0.20
   3   3   2    4.90    0.22
   3   3   2    5.44    0.19
  -4  -3  -2   93.28    3.15
   4   3   2   92.33    3.15
   4   3   2   91.93    3.15
   4   3   2   92.76    3.17
  -5  -3  -2   34.43    1.21
   5   3   2   34.21    1.18
   5   3   2   33.84    1.18
   5   3   2   34.53    1.20
  -6  -3  -2    5.33    0.22
  -6  -3  -2    5.74    0.28
  -6  -3  -2    5.28    0.21
   6   3   2    5.36    0.29
   6   3   2    5.46    0.25
   6   3   2    5.52    0.24
   6   3   2    5.52    0.19
   6   3   2    5.66    0.20
   6   3   2    5.07    0.27
   6   3   2    5.60    0.19
  -7  -3  -2    6.93    0.27
  -7  -3  -2    7.01    0.35
  -7  -3  -2    7.20    0.29
   7   3   2    7.08    0.24
   7   3   2    6.89    0.34
   7   3   2    7.30    0.26
  -8  -3  -2    1.65    0.17
  -8  -3  -2    1.53    0.12
   8   3   2    1.43    0.07
   8   3   2    1.53    0.10
  -9  -3  -2    0.52    0.11
   9   3   2    0.41    0.04
   8  -4  -2    0.12    0.10
   8  -4  -2    0.21    0.06
  -8   4   2    0.15    0.07
  -8   4   2   -0.20    0.19
   7  -4  -2    0.18    0.05
   7  -4  -2    0.26    0.09
  -7   4   2    0.23    0.06
  -7   4   2   -0.07    0.16
   6  -4  -2    0.07    0.07
   6  -4  -2    0.01    0.04
  -6   4   2   -0.08    0.14
  -6   4   2    0.07    0.05
   5  -4  -2    0.15    0.06
   5  -4  -2    0.07    0.04
  -5   4   2   -0.10    0.12
  -5   4   2    0.15    0.04
   4  -4  -2   -0.03    0.03
   4  -4  -2    0.04    0.05
  -4   4   2   -0.20    0.09
  -4   4   2   -0.03    0.03
   3  -4  -2    8.64    0.37
   3  -4  -2    8.79    0.31
   3  -4  -2    8.58    0.30
   3  -4  -2    8.93    0.30
  -3   4   2    8.29    0.34
  -3   4   2    8.97    0.39
  -3   4   2    8.95    0.30
   2  -4  -2   38.58    1.36
   2  -4  -2   40.11    1.32
  -2   4   2   36.12    1.34
  -2   4   2   40.52    1.37
   1  -4  -2   24.12    0.88
   1  -4  -2   25.51    0.86
  -1   4   2   23.93    0.86
  -1   4   2   25.52    0.89
   0  -4  -2    0.11    0.02
   0  -4  -2    0.10    0.02
   0  -4  -2    0.07    0.07
   0  -4  -2    0.08    0.02
   0  -4  -2    0.09    0.05
   0   4   2    0.06    0.03
   0   4   2    0.16    0.06
   0   4   2    0.11    0.02
   0   4   2    0.14    0.05
   0   4   2    0.09    0.02
  -1  -4  -2    0.66    0.04
  -1  -4  -2    0.58    0.08
  -1  -4  -2    0.67    0.04
  -1  -4  -2    0.82    0.08
  -1  -4  -2    0.68    0.03
  -1  -4  -2    0.67    0.04
   1   4   2    0.78    0.03
   1   4   2    0.60    0.06
   1   4   2    0.59    0.07
  -2  -4  -2  127.77    4.49
  -2  -4  -2  133.32    4.49
   2   4   2  131.78    4.51
   2   4   2  133.74    4.48
  -3  -4  -2   52.44    1.77
  -3  -4  -2   51.65    1.79
   3   4   2   51.76    1.79
   3   4   2   51.64    1.77
  -4  -4  -2   45.87    1.55
  -4  -4  -2   44.88    1.57
   4   4   2   45.13    1.55
   4   4   2   45.07    1.57
  -5  -4  -2    0.10    0.09
  -5  -4  -2    0.07    0.04
  -5  -4  -2    0.15    0.02
   5   4   2    0.14    0.03
   5   4   2    0.30    0.07
   5   4   2    0.02    0.09
   5   4   2    0.07    0.02
   5   4   2    0.01    0.06
  -6  -4  -2    0.21    0.11
  -6  -4  -2    0.09    0.05
   6   4   2    0.14    0.02
   6   4   2    0.13    0.02
   6   4   2    0.14    0.08
   6   4   2    0.13    0.04
   6   4   2    0.03    0.11
   6   4   2    0.03    0.06
   6   4   2    0.17    0.08
  -7  -4  -2    5.11    0.21
  -7  -4  -2    5.12    0.22
   7   4   2    5.13    0.18
   7   4   2    4.99    0.23
  -8  -4  -2    6.29    0.28
  -8  -4  -2    6.18    0.25
   8   4   2    6.36    0.22
  -9  -4  -2    1.35    0.19
   9   4   2    0.96    0.06
   7  -5  -2    0.04    0.09
   7  -5  -2   -0.04    0.06
  -7   5   2    0.02    0.07
   6  -5  -2    0.00    0.05
   6  -5  -2    0.04    0.08
  -6   5   2    0.06    0.06
   5  -5  -2    0.92    0.12
   5  -5  -2    0.97    0.08
  -5   5   2    1.03    0.09
  -5   5   2    0.70    0.15
   4  -5  -2    7.18    0.26
   4  -5  -2    7.20    0.27
  -4   5   2    7.46    0.26
  -4   5   2    7.14    0.33
   3  -5  -2   15.09    0.53
   3  -5  -2   15.43    0.54
  -3   5   2   16.04    0.57
   2  -5  -2    5.25    0.20
   2  -5  -2    5.33    0.19
   2  -5  -2    4.98    0.18
   2  -5  -2    5.15    0.19
   2  -5  -2    5.29    0.27
   2  -5  -2    5.09    0.18
  -2   5   2    4.98    0.21
  -2   5   2    5.16    0.23
  -2   5   2    5.30    0.18
  -2   5   2    5.35    0.29
  -2   5   2    5.30    0.19
   1  -5  -2    1.13    0.12
   1  -5  -2    1.44    0.07
   1  -5  -2    1.55    0.07
   1  -5  -2    1.40    0.06
   1  -5  -2    1.40    0.06
   1  -5  -2    1.39    0.10
  -1   5   2    1.24    0.09
  -1   5   2    1.54    0.06
  -1   5   2    1.38    0.12
  -1   5   2    1.44    0.07
  -1   5   2    1.29    0.13
   0  -5  -2    1.24    0.06
   0  -5  -2    1.18    0.06
   0  -5  -2    1.26    0.05
   0  -5  -2    1.15    0.11
   0  -5  -2    1.20    0.06
   0  -5  -2    1.24    0.12
   0   5   2    1.32    0.12
   0   5   2    1.24    0.06
   0   5   2    1.22    0.08
   0   5   2    1.19    0.05
   0   5   2    1.16    0.11
  -1  -5  -2   13.99    0.52
  -1  -5  -2   13.82    0.54
   1   5   2   14.74    0.53
   1   5   2   14.19    0.52
  -2  -5  -2   56.94    2.06
  -2  -5  -2   62.33    2.05
   2   5   2   59.63    2.05
   2   5   2   59.81    2.04
  -3  -5  -2   12.76    0.48
  -3  -5  -2   12.54    0.48
   3   5   2   12.56    0.47
   3   5   2   12.41    0.48
  -4  -5  -2   34.19    1.23
  -4  -5  -2   35.94    1.21
   4   5   2   34.11    1.23
   4   5   2   34.60    1.21
  -5  -5  -2    0.48    0.04
  -5  -5  -2    0.39    0.11
  -5  -5  -2    0.43    0.06
  -5  -5  -2    0.50    0.08
  -5  -5  -2    0.53    0.04
   5   5   2    0.35    0.12
   5   5   2    0.56    0.09
   5   5   2    0.56    0.04
   5   5   2    0.55    0.03
   5   5   2    0.51    0.09
  -6  -5  -2    0.55    0.04
  -6  -5  -2    0.52    0.03
  -6  -5  -2    0.57    0.07
   6   5   2    0.60    0.07
   6   5   2    0.69    0.04
   6   5   2    0.67    0.10
   6   5   2    0.52    0.10
  -7  -5  -2    0.68    0.08
   7   5   2    0.66    0.04
   7   5   2    0.60    0.09
  -8  -5  -2    1.21    0.14
   8   5   2    1.05    0.17
   8   5   2    1.16    0.06
  -9  -5  -2    0.31    0.09
   9   5   2    0.19    0.12
   9   5   2    0.26    0.03
   6  -6  -2    0.12    0.09
   6  -6  -2    0.13    0.06
  -6   6   2   -0.17    0.17
  -6   6   2    0.26    0.07
   5  -6  -2    2.83    0.13
   5  -6  -2    2.79    0.17
  -5   6   2    2.94    0.14
  -5   6   2    2.19    0.27
   4  -6  -2    4.71    0.21
   4  -6  -2    4.78    0.18
  -4   6   2    4.94    0.19
  -4   6   2    4.95    0.28
   3  -6  -2    0.04    0.04
   3  -6  -2   -0.03    0.06
  -3   6   2   -0.01    0.09
  -3   6   2    0.00    0.04
   2  -6  -2    6.65    0.24
   2  -6  -2    6.78    0.25
  -2   6   2    6.98    0.27
  -2   6   2    6.87    0.24
   1  -6  -2    8.19    0.28
   1  -6  -2    7.89    0.27
   1  -6  -2    8.10    0.31
   1  -6  -2    7.71    0.28
   1  -6  -2    7.71    0.27
   1  -6  -2    7.53    0.36
  -1   6   2    7.79    0.27
  -1   6   2    7.59    0.32
  -1   6   2    7.71    0.30
  -1   6   2    8.27    0.28
  -1   6   2    8.07    0.31
   0  -6  -2   52.24    1.81
   0  -6  -2   52.41    1.85
   0   6   2   55.66    1.84
   0   6   2   51.08    1.82
  -1  -6  -2  117.86    4.00
  -1  -6  -2  116.95    4.02
   1   6   2  121.23    4.00
   1   6   2  113.73    4.00
  -2  -6  -2   44.92    1.54
  -2  -6  -2   43.81    1.56
   2   6   2   44.99    1.54
   2   6   2   43.58    1.54
  -3  -6  -2    1.03    0.11
  -3  -6  -2    1.19    0.06
  -3  -6  -2    1.13    0.13
  -3  -6  -2    1.09    0.08
  -3  -6  -2    1.22    0.06
   3   6   2    1.43    0.12
   3   6   2    1.11    0.05
   3   6   2    1.04    0.09
   3   6   2    0.95    0.12
  -4  -6  -2   10.14    0.42
  -4  -6  -2   10.03    0.42
  -4  -6  -2   10.06    0.34
  -4  -6  -2    9.87    0.36
   4   6   2    9.90    0.43
   4   6   2   10.04    0.40
   4   6   2    9.92    0.36
  -5  -6  -2    3.88    0.23
  -5  -6  -2    3.79    0.14
  -5  -6  -2    3.79    0.17
   5   6   2    3.86    0.22
   5   6   2    4.10    0.14
   5   6   2    3.91    0.18
  -6  -6  -2   14.97    0.53
   6   6   2   15.02    0.53
  -7  -6  -2    7.55    0.30
   7   6   2    7.61    0.31
   7   6   2    7.68    0.26
  -8  -6  -2    0.38    0.09
   8   6   2    0.28    0.03
   8   6   2    0.29    0.10
  -9  -6  -2    0.19    0.10
   9   6   2    0.14    0.12
   9   6   2    0.10    0.03
  -6   7   2    0.15    0.07
   5  -7  -2    0.45    0.10
   5  -7  -2    0.68    0.07
  -5   7   2    0.68    0.07
  -5   7   2    0.37    0.16
   4  -7  -2    0.62    0.06
   4  -7  -2    0.77    0.09
  -4   7   2    0.66    0.07
  -4   7   2    0.71    0.14
   3  -7  -2   13.38    0.47
   3  -7  -2   13.36    0.49
  -3   7   2   13.38    0.48
  -3   7   2   14.63    0.52
   2  -7  -2   14.02    0.50
   2  -7  -2   14.31    0.51
  -2   7   2   14.99    0.52
  -2   7   2   14.39    0.50
   1  -7  -2    3.82    0.15
   1  -7  -2    3.70    0.14
   1  -7  -2    3.88    0.15
   1  -7  -2    3.78    0.16
  -1   7   2    4.05    0.19
  -1   7   2    3.65    0.15
   0  -7  -2    0.44    0.04
   0  -7  -2    0.45    0.04
   0  -7  -2    0.45    0.06
   0  -7  -2    0.35    0.04
   0  -7  -2    0.35    0.09
   0   7   2    0.43    0.09
   0   7   2    0.69    0.10
   0   7   2    0.42    0.04
   0   7   2    0.47    0.07
   0   7   2    0.40    0.04
  -1  -7  -2    1.14    0.08
  -1  -7  -2    1.39    0.13
  -1  -7  -2    1.09    0.09
  -1  -7  -2    1.77    0.19
  -1  -7  -2    1.28    0.07
   1   7   2    1.05    0.10
   1   7   2    1.34    0.07
   1   7   2    1.27    0.13
   1   7   2    1.39    0.12
  -2  -7  -2   65.74    2.27
  -2  -7  -2   67.37    2.31
   2   7   2   67.31    2.28
   2   7   2   66.06    2.27
   2   7   2   62.68    2.27
  -3  -7  -2   36.96    1.40
  -3  -7  -2   38.66    1.38
   3   7   2   40.69    1.37
   3   7   2   39.50    1.38
  -4  -7  -2    0.85    0.09
  -4  -7  -2    0.77    0.06
  -4  -7  -2    0.96    0.15
   4   7   2    0.83    0.12
   4   7   2    0.72    0.05
   4   7   2    0.82    0.11
  -5  -7  -2    9.79    0.34
  -5  -7  -2    9.39    0.43
  -5  -7  -2    9.75    0.36
   5   7   2   10.20    0.41
   5   7   2    9.54    0.36
   5   7   2    9.68    0.33
  -6  -7  -2    1.43    0.13
  -6  -7  -2    1.28    0.07
   6   7   2    1.29    0.13
   6   7   2    1.30    0.07
  -7  -7  -2    1.74    0.15
  -7  -7  -2    1.52    0.07
   7   7   2    1.75    0.16
   7   7   2    1.64    0.08
  -8  -7  -2    2.01    0.18
   8   7   2    1.98    0.09
   8   7   2    2.12    0.19
  -9  -7  -2    0.01    0.10
   9   7   2    0.04    0.11
   9   7   2   -0.03    0.03
   5  -8  -2    0.02    0.10
   5  -8  -2    0.02    0.07
  -5   8   2    0.08    0.07
  -5   8   2   -0.24    0.15
   4  -8  -2    0.64    0.07
   4  -8  -2    0.69    0.10
  -4   8   2    0.60    0.14
  -4   8   2    0.72    0.08
   3  -8  -2    2.78    0.17
   3  -8  -2    2.65    0.13
  -3   8   2    2.75    0.23
  -3   8   2    2.85    0.14
   2  -8  -2    0.34    0.08
  -2   8   2    0.31    0.10
  -2   8   2    0.30    0.05
   1  -8  -2    0.54    0.07
  -1   8   2    0.47    0.09
  -1   8   2    0.43    0.05
   0  -8  -2    1.53    0.09
   0  -8  -2    1.38    0.09
   0  -8  -2    1.66    0.11
   0   8   2    1.63    0.14
  -1  -8  -2   17.10    0.59
  -1  -8  -2   18.01    0.60
   1   8   2   17.23    0.59
   1   8   2   17.27    0.65
   1   8   2   16.91    0.66
  -2  -8  -2    0.25    0.04
  -2  -8  -2    0.22    0.05
  -2  -8  -2    0.16    0.06
   2   8   2    0.28    0.07
   2   8   2    0.22    0.04
  -3  -8  -2    1.17    0.10
  -3  -8  -2    1.13    0.08
   3   8   2    1.14    0.07
   3   8   2    1.16    0.12
  -4  -8  -2    0.07    0.06
  -4  -8  -2    0.15    0.04
  -4  -8  -2   -0.06    0.16
   4   8   2    0.05    0.03
   4   8   2    0.10    0.07
  -5  -8  -2    1.10    0.12
  -5  -8  -2    1.09    0.08
   5   8   2    1.07    0.13
   5   8   2    0.96    0.07
  -6  -8  -2    5.05    0.22
  -6  -8  -2    5.03    0.19
   6   8   2    4.95    0.18
   6   8   2    5.02    0.23
  -7  -8  -2    3.31    0.19
  -7  -8  -2    3.08    0.13
   7   8   2    3.25    0.13
   7   8   2    3.27    0.20
  -8  -8  -2    0.25    0.10
   8   8   2    0.19    0.04
   8   8   2    0.28    0.10
   3  -9  -2    0.69    0.10
  -3   9   2    0.71    0.14
  -3   9   2    0.78    0.08
   2  -9  -2    0.40    0.09
  -2   9   2    0.53    0.12
   1  -9  -2    3.60    0.18
  -1   9   2    3.62    0.22
   0  -9  -2    7.03    0.27
   0  -9  -2    6.62    0.25
   0   9   2    6.72    0.29
  -1  -9  -2    0.19    0.08
  -1  -9  -2    0.24    0.05
  -1  -9  -2    0.36    0.06
   1   9   2    0.21    0.04
   1   9   2    0.36    0.08
  -2  -9  -2    1.08    0.09
  -2  -9  -2    1.17    0.10
   2   9   2    1.33    0.14
   2   9   2    1.14    0.08
  -3  -9  -2    0.31    0.07
  -3  -9  -2    0.27    0.05
   3   9   2    0.37    0.04
  -4  -9  -2    0.77    0.11
  -4  -9  -2    0.77    0.08
   4   9   2    0.77    0.07
   4   9   2    0.98    0.14
  -5  -9  -2    0.07    0.05
  -5  -9  -2    0.04    0.08
   5   9   2    0.11    0.08
   5   9   2    0.04    0.04
  -6  -9  -2    0.15    0.05
  -6  -9  -2    0.14    0.09
   6   9   2    0.13    0.04
   6   9   2    0.16    0.09
  -7  -9  -2    0.06    0.10
  -7  -9  -2   -0.02    0.04
   7   9   2    0.03    0.09
   7   9   2   -0.03    0.04
  -8  -9  -2    0.01    0.03
  -8  -9  -2   -0.02    0.11
   8   9   2   -0.02    0.05
   8   9   2    0.08    0.11
   2 -10  -2    0.47    0.11
  -2  10   2    0.27    0.13
   1 -10  -2    7.16    0.30
  -1  10   2    7.12    0.33
   0 -10  -2    0.97    0.10
   0  10   2    0.82    0.12
  -1 -10  -2    0.53    0.06
   1  10   2    0.64    0.10
  -2 -10  -2    3.11    0.14
  -2 -10  -2    2.87    0.15
   2  10   2    2.90    0.13
   2  10   2    2.91    0.19
  -3 -10  -2    1.75    0.11
  -3 -10  -2    1.74    0.13
   3  10   2    1.83    0.10
   3  10   2    1.80    0.17
  -4 -10  -2    7.73    0.30
  -4 -10  -2    8.04    0.29
   4  10   2    7.78    0.28
   4  10   2    7.67    0.32
  -5 -10  -2    6.09    0.23
  -5 -10  -2    6.20    0.26
   5  10   2    5.88    0.27
   5  10   2    6.14    0.23
  -6 -10  -2    1.36    0.17
  -6 -10  -2    1.42    0.10
   6  10   2    1.29    0.10
   6  10   2    1.39    0.17
  -7 -10  -2    0.09    0.10
  -7 -10  -2    0.07    0.05
   7  10   2    0.00    0.05
   7  10   2    0.14    0.10
   0  11   2    0.57    0.12
   1  11   2    3.53    0.23
  -2 -11  -2    0.37    0.07
   2  11   2    0.37    0.11
  -3 -11  -2    1.39    0.14
  -3 -11  -2    1.35    0.12
   3  11   2    1.38    0.18
   3  11   2    1.61    0.11
  -4 -11  -2    1.40    0.15
  -4 -11  -2    1.41    0.12
   4  11   2    1.50    0.11
   4  11   2    1.38    0.17
  -5 -11  -2    0.30    0.10
  -5 -11  -2    0.33    0.07
   5  11   2    0.35    0.10
   5  11   2    0.28    0.06
   4   9  -3    0.71    0.07
   4   9  -3    0.56    0.11
  -4  -9   3    0.65    0.08
  -4  -9   3    0.26    0.14
   3   9  -3    0.13    0.10
   3   9  -3    0.20    0.06
  -3  -9   3    0.16    0.07
  -3  -9   3   -0.19    0.13
   2   9  -3    1.75    0.13
   2   9  -3    1.93    0.17
  -2  -9   3    1.86    0.22
  -2  -9   3    1.85    0.13
  -1  -9   3    0.59    0.08
  -1  -9   3    0.81    0.13
   0  -9   3    0.23    0.13
   6   8  -3    0.40    0.11
   6   8  -3    0.44    0.06
  -6  -8   3    0.47    0.06
   5   8  -3    0.54    0.11
   5   8  -3    0.62    0.06
  -5  -8   3    0.45    0.12
  -5  -8   3    0.60    0.06
   4   8  -3    0.67    0.06
   4   8  -3    0.67    0.10
  -4  -8   3    0.67    0.07
  -4  -8   3    0.48    0.12
   3   8  -3   -0.02    0.05
   3   8  -3    0.02    0.09
  -3  -8   3   -0.29    0.10
  -3  -8   3    0.00    0.06
   2   8  -3    1.97    0.12
   2   8  -3    2.03    0.16
  -2  -8   3    2.01    0.13
  -2  -8   3    1.96    0.19
   1   8  -3    1.02    0.13
  -1  -8   3    1.07    0.12
  -1  -8   3    0.78    0.07
   0  -8   3    0.07    0.07
   0  -8   3    0.04    0.11
   1  -8   3    0.26    0.11
  -2   8  -3   -0.01    0.10
   2  -8   3    0.14    0.11
   7   7  -3    0.35    0.05
   7   7  -3    0.27    0.11
  -7  -7   3    0.41    0.04
  -7  -7   3    0.44    0.10
   6   7  -3    0.08    0.10
   6   7  -3    0.10    0.05
  -6  -7   3    0.10    0.09
  -6  -7   3    0.13    0.05
   5   7  -3    2.55    0.11
   5   7  -3    2.23    0.17
  -5  -7   3    2.17    0.17
  -5  -7   3    2.36    0.12
   4   7  -3    4.30    0.21
   4   7  -3    4.26    0.17
  -4  -7   3    3.93    0.21
  -4  -7   3    4.39    0.17
   3   7  -3    0.01    0.08
   3   7  -3    0.04    0.04
  -3  -7   3    0.03    0.05
  -3  -7   3   -0.08    0.09
   2   7  -3    1.65    0.14
   2   7  -3    1.66    0.10
  -2  -7   3    1.56    0.16
  -2  -7   3    1.68    0.11
   1   7  -3    4.04    0.19
   1   7  -3    4.09    0.17
  -1  -7   3    4.40    0.21
  -1  -7   3    3.93    0.17
   0   7  -3    3.08    0.17
   0  -7   3    2.88    0.14
   0  -7   3    3.43    0.19
  -1   7  -3    6.88    0.28
   1  -7   3    6.71    0.28
  -2   7  -3    0.20    0.09
   2  -7   3    0.38    0.10
  -3   7  -3    1.13    0.17
   3  -7   3    1.42    0.16
  -4   7  -3    0.42    0.11
  -4   7  -3    0.64    0.09
   4  -7   3    0.67    0.11
   8   6  -3    0.58    0.12
   8   6  -3    0.76    0.07
  -8  -6   3    0.73    0.11
   7   6  -3    0.02    0.10
   7   6  -3    0.05    0.04
  -7  -6   3    0.11    0.08
   6   6  -3    3.13    0.12
   6   6  -3    2.87    0.19
  -6  -6   3    2.98    0.12
  -6  -6   3    3.03    0.17
   5   6  -3    8.37    0.33
   5   6  -3    8.36    0.29
  -5  -6   3    8.52    0.30
  -5  -6   3    8.39    0.32
   4   6  -3   -0.03    0.07
   4   6  -3    0.00    0.04
  -4  -6   3    0.03    0.04
  -4  -6   3    0.02    0.07
   3   6  -3    8.64    0.30
   3   6  -3    8.53    0.32
  -3  -6   3    8.52    0.33
  -3  -6   3    8.55    0.30
   2   6  -3    1.54    0.12
   2   6  -3    1.54    0.08
  -2  -6   3    1.43    0.09
  -2  -6   3    1.50    0.14
   1   6  -3   17.99    0.62
   1   6  -3   18.05    0.63
  -1  -6   3   17.76    0.64
  -1  -6   3   18.42    0.62
   0   6  -3   19.39    0.77
   0   6  -3   20.16    0.70
   0   6  -3   20.18    0.69
   0  -6   3   21.42    0.71
   0  -6   3   20.50    0.70
  -1   6  -3    4.09    0.19
   1  -6   3    3.82    0.17
   1  -6   3    4.02    0.19
  -2   6  -3    3.39    0.15
  -2   6  -3    3.57    0.19
   2  -6   3    3.56    0.18
  -3   6  -3    5.03    0.21
  -3   6  -3    5.00    0.24
   3  -6   3    5.10    0.23
  -4   6  -3    0.06    0.07
  -4   6  -3   -0.05    0.10
   4  -6   3    0.08    0.10
  -5   6  -3    1.55    0.21
  -5   6  -3    1.84    0.14
   5  -6   3    1.93    0.18
   8   5  -3    0.01    0.03
   8   5  -3   -0.01    0.10
  -8  -5   3    0.07    0.08
   7   5  -3    0.90    0.06
   7   5  -3    0.71    0.10
  -7  -5   3    1.03    0.13
   6   5  -3    1.22    0.14
   6   5  -3    1.46    0.07
  -6  -5   3    1.33    0.07
  -6  -5   3    1.48    0.12
   5   5  -3    4.69    0.17
   5   5  -3    4.58    0.21
  -5  -5   3    4.39    0.17
  -5  -5   3    4.54    0.20
   4   5  -3    1.65    0.08
   4   5  -3    1.48    0.13
  -4  -5   3    1.57    0.08
  -4  -5   3    1.62    0.12
   3   5  -3    0.33    0.07
   3   5  -3    0.35    0.04
  -3  -5   3    0.32    0.04
  -3  -5   3    0.37    0.07
   2   5  -3    7.85    0.28
   2   5  -3    7.78    0.30
   2   5  -3    7.91    0.28
  -2  -5   3    8.17    0.30
  -2  -5   3    8.20    0.28
   1   5  -3   11.00    0.39
   1   5  -3   10.88    0.38
   1   5  -3   10.85    0.46
  -1  -5   3   11.07    0.46
  -1  -5   3   11.05    0.40
  -1  -5   3   11.30    0.38
   0   5  -3    0.16    0.11
   0   5  -3    0.27    0.06
   0   5  -3    0.22    0.04
   0   5  -3    0.27    0.04
   0   5  -3    0.29    0.05
   0  -5   3    0.15    0.10
   0  -5   3    0.35    0.06
   0  -5   3    0.26    0.04
  -1   5  -3   14.85    0.50
  -1   5  -3   14.69    0.58
  -1   5  -3   14.53    0.51
  -1   5  -3   14.25    0.50
   1  -5   3   14.59    0.50
   1  -5   3   14.34    0.55
   1  -5   3   14.68    0.52
  -2   5  -3    4.60    0.18
  -2   5  -3    4.62    0.21
   2  -5   3    4.44    0.20
   2  -5   3    4.22    0.17
  -3   5  -3    0.05    0.05
  -3   5  -3    0.03    0.08
   3  -5   3    0.05    0.05
   3  -5   3    0.03    0.08
  -4   5  -3    2.48    0.18
  -4   5  -3    2.61    0.14
   4  -5   3    2.60    0.17
   4  -5   3    2.51    0.13
  -5   5  -3    0.97    0.08
  -5   5  -3    0.76    0.12
   5  -5   3    0.84    0.07
   5  -5   3    0.86    0.11
  -6   5  -3   -0.15    0.12
  -6   5  -3   -0.01    0.08
   6  -5   3    0.04    0.07
   6  -5   3    0.10    0.10
   9   4  -3   -0.03    0.10
   9   4  -3    0.00    0.03
  -9  -4   3    0.06    0.09
   8   4  -3    0.30    0.03
   8   4  -3    0.28    0.09
  -8  -4   3    0.37    0.08
   7   4  -3    2.38    0.10
   7   4  -3    2.54    0.16
  -7  -4   3    2.64    0.15
   6   4  -3    3.74    0.13
   6   4  -3    3.87    0.18
  -6  -4   3    2.98    0.12
  -6  -4   3    3.34    0.12
  -6  -4   3    3.85    0.16
   5   4  -3    0.17    0.03
   5   4  -3    0.10    0.06
  -5  -4   3    0.10    0.03
  -5  -4   3    0.30    0.06
  -5  -4   3    0.13    0.03
   4   4  -3    7.53    0.28
   4   4  -3    7.76    0.26
  -4  -4   3    7.51    0.28
  -4  -4   3    7.36    0.26
   3   4  -3    0.69    0.05
   3   4  -3    0.63    0.12
   3   4  -3    0.64    0.08
   3   4  -3    0.64    0.05
  -3  -4   3    0.62    0.05
  -3  -4   3    0.65    0.09
  -3  -4   3    0.51    0.13
   2   4  -3   17.35    0.66
   2   4  -3   17.27    0.60
   2   4  -3   17.03    0.65
  -2  -4   3   17.70    0.66
  -2  -4   3   16.88    0.67
   1   4  -3   15.11    0.61
   1   4  -3   16.25    0.62
  -1  -4   3   15.99    0.63
  -1  -4   3   17.06    0.62
   0   4  -3    2.32    0.10
   0   4  -3    2.63    0.21
   0   4  -3    2.26    0.20
   0   4  -3    2.71    0.11
   0   4  -3    2.43    0.10
   0   4  -3    2.33    0.12
   0  -4   3    2.58    0.18
   0  -4   3    2.41    0.10
   0  -4   3    2.30    0.10
   0  -4   3    2.35    0.21
   0  -4   3    2.23    0.12
  -1   4  -3    0.08    0.05
  -1   4  -3    0.02    0.03
  -1   4  -3    0.06    0.11
  -1   4  -3    0.20    0.11
  -1   4  -3    0.02    0.05
  -1   4  -3    0.02    0.03
   1  -4   3   -0.02    0.08
   1  -4   3    0.05    0.03
   1  -4   3   -0.01    0.04
   1  -4   3    0.05    0.05
   1  -4   3   -0.03    0.11
  -2   4  -3    0.25    0.04
  -2   4  -3    0.07    0.06
  -2   4  -3    0.20    0.06
  -2   4  -3   -0.02    0.14
   2  -4   3    0.12    0.06
   2  -4   3    0.11    0.12
   2  -4   3    0.16    0.04
   2  -4   3    0.24    0.08
   2  -4   3    0.21    0.04
  -3   4  -3    0.07    0.07
  -3   4  -3    0.07    0.04
   3  -4   3    0.00    0.06
   3  -4   3    0.12    0.04
  -4   4  -3    0.84    0.10
  -4   4  -3    0.87    0.09
   4  -4   3    0.79    0.06
   4  -4   3    0.78    0.08
  -5   4  -3    0.01    0.09
  -5   4  -3    0.02    0.06
   5  -4   3    0.04    0.05
   5  -4   3    0.06    0.08
  -6   4  -3    0.15    0.07
  -6   4  -3    0.00    0.11
   6  -4   3    0.04    0.06
   6  -4   3    0.16    0.09
  -7   4  -3    0.04    0.08
  -7   4  -3   -0.13    0.13
   7  -4   3    0.01    0.07
   7  -4   3    0.00    0.10
   9   3  -3    0.49    0.04
   9   3  -3    0.43    0.10
  -9  -3   3    0.38    0.09
   8   3  -3    3.35    0.19
   8   3  -3    3.00    0.12
  -8  -3   3    3.42    0.17
   7   3  -3    2.40    0.15
   7   3  -3    2.28    0.09
  -7  -3   3    2.56    0.14
   6   3  -3    9.20    0.32
   6   3  -3    9.60    0.35
  -6  -3   3    9.54    0.34
   5   3  -3    3.24    0.12
   5   3  -3    3.24    0.15
  -5  -3   3    3.41    0.12
  -5  -3   3    2.97    0.12
  -5  -3   3    3.41    0.15
   4   3  -3   10.68    0.33
   4   3  -3    9.50    0.41
   4   3  -3    9.95    0.35
   4   3  -3    9.80    0.33
  -4  -3   3    8.79    0.34
  -4  -3   3    9.97    0.35
  -4  -3   3   10.05    0.42
   3   3  -3   34.26    1.26
   3   3  -3   38.33    1.26
  -3  -3   3   35.85    1.27
  -3  -3   3   33.63    1.26
   2   3  -3    6.37    0.30
   2   3  -3    6.65    0.22
   2   3  -3    6.35    0.30
   2   3  -3    6.48    0.24
  -2  -3   3    6.26    0.23
  -2  -3   3    6.66    0.23
  -2  -3   3    6.54    0.31
  -2  -3   3    6.76    0.31
  -2  -3   3    6.42    0.24
   1   3  -3   49.82    1.77
   1   3  -3   50.68    1.77
  -1  -3   3   54.28    1.78
  -1  -3   3   49.70    1.78
   0   3  -3    8.81    0.32
   0   3  -3    9.24    0.31
   0   3  -3    9.76    0.32
   0   3  -3    8.83    0.38
   0   3  -3    8.66    0.38
   0  -3   3    9.03    0.31
   0  -3   3    9.50    0.37
   0  -3   3    9.25    0.38
   0  -3   3    9.22    0.32
  -1   3  -3   22.02    0.79
  -1   3  -3   21.10    0.79
   1  -3   3   21.39    0.76
   1  -3   3   20.52    0.78
  -2   3  -3   39.26    1.41
  -2   3  -3   41.77    1.43
   2  -3   3   39.34    1.40
   2  -3   3   38.63    1.37
  -3   3  -3    4.47    0.30
  -3   3  -3    5.02    0.30
  -3   3  -3    4.22    0.18
  -3   3  -3    4.66    0.19
  -3   3  -3    4.53    0.17
   3  -3   3    4.83    0.21
   3  -3   3    4.02    0.18
   3  -3   3    4.32    0.16
   3  -3   3    4.02    0.25
  -4   3  -3    0.11    0.05
   4  -3   3    0.15    0.11
   4  -3   3    0.15    0.04
   4  -3   3    0.10    0.06
  -5   3  -3    2.28    0.17
  -5   3  -3    2.50    0.12
   5  -3   3    2.45    0.14
   5  -3   3    2.46    0.12
  -6   3  -3    0.03    0.10
  -6   3  -3    0.08    0.06
   6  -3   3    0.08    0.08
   6  -3   3    0.06    0.05
  -7   3  -3    0.84    0.14
  -7   3  -3    1.03    0.12
   7  -3   3    1.17    0.15
   7  -3   3    0.89    0.07
  -9  -2   3    0.34    0.09
   8   2  -3   13.21    0.48
   8   2  -3   13.31    0.46
  -8  -2   3   13.89    0.49
   7   2  -3    5.31    0.19
   7   2  -3    5.39    0.22
  -7  -2   3    5.41    0.22
   5   2  -3    5.77    0.31
   5   2  -3    6.46    0.21
   5   2  -3    6.55    0.21
   5   2  -3    5.91    0.31
   5   2  -3    6.26    0.23
  -5  -2   3    6.19    0.23
  -5  -2   3    5.96    0.22
  -5  -2   3    5.55    0.21
  -5  -2   3    6.08    0.34
   4   2  -3    1.72    0.18
   4   2  -3    1.82    0.19
   4   2  -3    2.27    0.18
   4   2  -3    2.21    0.09
   4   2  -3    2.09    0.11
   4   2  -3    2.28    0.08
   4   2  -3    2.09    0.08
  -4  -2   3    1.98    0.16
  -4  -2   3    2.11    0.08
  -4  -2   3    2.10    0.10
  -4  -2   3    1.83    0.08
  -4  -2   3    2.03    0.21
   3   2  -3   45.39    1.55
   3   2  -3   43.23    1.55
  -3  -2   3   44.41    1.56
  -3  -2   3   44.94    1.55
   2   2  -3  178.87    6.09
   2   2  -3  172.21    6.08
  -2  -2   3  185.17    6.08
  -2  -2   3  176.38    6.09
   1   2  -3   45.07    1.55
   1   2  -3   43.37    1.54
  -1  -2   3   46.71    1.55
  -1  -2   3   42.67    1.54
   0   2  -3   27.70    0.99
   0   2  -3   27.43    0.98
   0  -2   3   27.59    0.99
   0  -2   3   28.75    0.98
  -1   2  -3   55.47    1.97
  -1   2  -3   58.05    1.97
   1  -2   3   56.20    1.95
   1  -2   3   58.27    1.96
  -2   2  -3    7.76    0.32
  -2   2  -3    6.85    0.25
  -2   2  -3    7.01    0.25
  -2   2  -3    6.89    0.24
  -2   2  -3    6.27    0.34
   2  -2   3    7.18    0.30
   2  -2   3    6.92    0.24
   2  -2   3    6.78    0.25
   2  -2   3    7.50    0.29
   2  -2   3    7.13    0.25
  -3   2  -3   88.11    3.16
  -3   2  -3   96.81    3.18
   3  -2   3   91.97    3.15
   3  -2   3   92.70    3.15
  -4   2  -3   55.55    1.93
   4  -2   3   54.36    1.87
   4  -2   3   54.43    1.90
  -5   2  -3    3.29    0.18
  -5   2  -3    2.90    0.29
  -5   2  -3    3.37    0.14
   5  -2   3    3.37    0.13
   5  -2   3    3.27    0.16
   5  -2   3    3.07    0.22
  -6   2  -3    0.08    0.09
  -6   2  -3   -0.02    0.05
   6  -2   3    0.12    0.05
   6  -2   3    0.06    0.07
  -7   2  -3    0.12    0.11
  -7   2  -3    0.11    0.06
   7  -2   3    0.15    0.05
   7  -2   3    0.16    0.08
  -8   2  -3    0.74    0.08
  -8   2  -3    0.58    0.14
   8  -2   3    0.71    0.07
   8  -2   3    0.74    0.10
   9   1  -3   -0.23    0.10
   9   1  -3    0.02    0.03
   8   1  -3    0.51    0.05
  -8  -1   3    0.54    0.08
   7   1  -3    0.40    0.07
   7   1  -3    0.45    0.04
  -7  -1   3    0.44    0.07
  -7  -1   3    0.44    0.07
   6   1  -3   42.44    1.43
   6   1  -3   38.24    1.45
  -6  -1   3   40.71    1.45
   4   1  -3    3.68    0.12
   4   1  -3    3.82    0.12
   4   1  -3    3.51    0.14
   4   1  -3    3.56    0.22
   4   1  -3    3.67    0.21
   4   1  -3    3.57    0.21
  -4  -1   3    3.31    0.12
  -4  -1   3    3.42    0.13
  -4  -1   3    3.60    0.12
  -4  -1   3    3.46    0.14
  -4  -1   3    3.24    0.23
   3   1  -3    5.95    0.26
   3   1  -3    5.50    0.26
   3   1  -3    5.61    0.21
   3   1  -3    5.57    0.26
  -3  -1   3    5.85    0.28
  -3  -1   3    5.80    0.20
  -3  -1   3    5.53    0.26
  -3  -1   3    5.49    0.19
   2   1  -3    1.32    0.14
   2   1  -3    1.60    0.06
   2   1  -3    1.47    0.13
   2   1  -3    1.57    0.06
   2   1  -3    1.49    0.08
  -2  -1   3    1.61    0.13
  -2  -1   3    1.45    0.06
  -2  -1   3    1.47    0.14
  -2  -1   3    1.58    0.06
   1   1  -3   36.52    1.24
   1   1  -3   33.20    1.24
  -1  -1   3   36.92    1.25
  -1  -1   3   36.48    1.24
   0   1  -3   10.36    0.39
   0   1  -3   10.25    0.41
   0  -1   3   10.85    0.40
   0  -1   3   10.62    0.39
  -1   1  -3   50.91    1.70
  -1   1  -3   49.73    1.72
   1  -1   3   49.00    1.70
   1  -1   3   48.05    1.69
  -2   1  -3   78.13    2.59
  -2   1  -3   77.20    2.61
   2  -1   3   77.43    2.58
   2  -1   3   70.47    2.58
  -3   1  -3   10.48    0.37
  -3   1  -3    9.82    0.41
  -3   1  -3   10.28    0.35
  -3   1  -3    9.66    0.41
  -3   1  -3   10.71    0.35
  -3   1  -3   10.03    0.36
   3  -1   3   10.48    0.35
   3  -1   3   10.28    0.39
   3  -1   3   11.04    0.36
   3  -1   3    9.74    0.39
   3  -1   3   10.61    0.36
  -4   1  -3    9.70    0.34
  -4   1  -3    9.73    0.37
  -4   1  -3    9.14    0.33
  -4   1  -3    9.64    0.33
  -4   1  -3    9.24    0.41
   4  -1   3    9.51    0.36
   4  -1   3    9.41    0.33
   4  -1   3    9.19    0.37
   4  -1   3    9.50    0.33
  -5   1  -3    4.71    0.17
  -5   1  -3    4.27    0.28
  -5   1  -3    4.61    0.21
   5  -1   3    4.73    0.17
   5  -1   3    4.62    0.24
   5  -1   3    4.75    0.19
  -6   1  -3    4.23    0.21
  -6   1  -3    4.15    0.16
   6  -1   3    4.22    0.18
   6  -1   3    4.18    0.16
  -7   1  -3    6.15    0.28
  -7   1  -3    5.81    0.23
   7  -1   3    6.10    0.24
   7  -1   3    6.01    0.22
  -8   1  -3    0.08    0.06
  -8   1  -3    0.16    0.12
   8  -1   3    0.10    0.05
   8  -1   3    0.09    0.08
   9   0  -3    0.14    0.10
   9   0  -3    0.18    0.04
   8   0  -3    0.61    0.10
   8   0  -3    0.78    0.06
  -8   0   3    0.89    0.09
  -8   0   3    1.05    0.17
   7   0  -3    0.29    0.03
  -7   0   3    0.27    0.06
  -7   0   3    0.26    0.08
   6   0  -3    0.07    0.02
   6   0  -3    0.00    0.10
   6   0  -3    0.03    0.05
   6   0  -3    0.15    0.10
  -6   0   3    0.06    0.06
  -6   0   3    0.01    0.05
  -6   0   3    0.16    0.12
   5   0  -3    7.52    0.35
   5   0  -3    7.51    0.34
   5   0  -3    7.75    0.27
  -5   0   3    7.59    0.28
  -5   0   3    7.55    0.35
  -5   0   3    7.85    0.28
   4   0  -3   14.74    0.57
   4   0  -3   14.73    0.56
   4   0  -3   15.51    0.57
  -4   0   3   14.69    0.57
   3   0  -3   13.37    0.52
   3   0  -3   14.36    0.53
   3   0  -3   14.47    0.53
  -3   0   3   14.58    0.54
   2   0  -3   31.59    1.12
   2   0  -3   33.58    1.12
   2   0  -3   30.73    1.12
  -2   0   3   32.78    1.14
   1   0  -3    6.75    0.28
   1   0  -3    7.03    0.27
   1   0  -3    6.92    0.27
   1   0  -3    6.69    0.24
  -1   0   3    6.90    0.29
  -1   0   3    7.40    0.24
  -1   0   3    7.05    0.27
   0   0  -3    2.00    0.09
   0   0  -3    2.22    0.08
   0   0  -3    2.21    0.08
   0   0  -3    2.11    0.11
   0   0  -3    2.03    0.14
   0   0   3    2.35    0.13
   0   0   3    2.20    0.08
   0   0   3    2.18    0.08
   0   0   3    2.10    0.11
   0   0   3    2.15    0.08
   0   0   3    2.27    0.08
  -1   0  -3   25.40    0.86
  -1   0  -3   24.30    0.89
   1   0   3   25.16    0.86
   1   0   3   24.76    0.87
  -2   0  -3  127.15    4.38
  -2   0  -3  126.96    4.37
   2   0   3  136.44    4.37
   2   0   3  122.93    4.36
  -3   0  -3   32.61    1.16
  -3   0  -3   34.33    1.16
   3   0   3   32.62    1.15
   3   0   3   33.72    1.15
  -4   0  -3    2.39    0.10
  -4   0  -3    2.38    0.16
  -4   0  -3    2.27    0.16
  -4   0  -3    2.41    0.09
  -4   0  -3    2.29    0.09
  -4   0  -3    2.41    0.12
   4   0   3    2.33    0.09
   4   0   3    2.29    0.10
   4   0   3    2.29    0.14
   4   0   3    2.24    0.14
  -5   0  -3    0.68    0.06
  -5   0  -3    0.67    0.10
  -5   0  -3    0.77    0.06
  -5   0  -3    0.78    0.11
  -5   0  -3    0.91    0.10
   5   0   3    0.70    0.05
   5   0   3    0.57    0.08
   5   0   3    0.97    0.07
   5   0   3    0.68    0.09
  -6   0  -3    0.05    0.04
  -6   0  -3   -0.02    0.08
   6   0   3    0.01    0.05
   6   0   3    0.03    0.04
  -7   0  -3    1.99    0.10
  -7   0  -3    2.15    0.18
   7   0   3    2.18    0.13
   7   0   3    2.10    0.10
  -8   0  -3    0.13    0.11
  -8   0  -3    0.04    0.05
   8   0   3    0.14    0.05
   8   0   3    0.10    0.07
  -9   0  -3    0.15    0.13
  -9   0  -3    0.00    0.04
   9   0   3    0.02    0.06
   9   0   3    0.13    0.09
   9  -1  -3    0.12    0.10
   9  -1  -3    0.07    0.04
  -9   1   3    0.29    0.13
   8  -1  -3    4.17    0.21
   8  -1  -3    3.87    0.15
  -8   1   3    4.30    0.24
   7  -1  -3    0.72    0.06
   7  -1  -3    0.48    0.08
  -7   1   3    0.92    0.15
   6  -1  -3    1.77    0.08
   6  -1  -3    1.86    0.10
  -6   1   3    2.11    0.15
  -6   1   3    1.78    0.07
  -6   1   3    1.65    0.08
  -6   1   3    1.85    0.11
   5  -1  -3   14.13    0.54
   5  -1  -3   14.95    0.57
  -5   1   3   14.47    0.51
  -5   1   3   14.05    0.55
   4  -1  -3    2.06    0.08
   4  -1  -3    2.12    0.07
   4  -1  -3    1.97    0.15
   4  -1  -3    1.98    0.17
   4  -1  -3    2.05    0.09
  -4   1   3    1.95    0.08
  -4   1   3    2.10    0.17
  -4   1   3    1.73    0.17
  -4   1   3    2.11    0.11
  -4   1   3    1.93    0.09
  -4   1   3    2.03    0.08
   3  -1  -3   53.85    1.91
   3  -1  -3   56.31    1.92
  -3   1   3   57.08    1.92
  -3   1   3   55.93    1.93
   2  -1  -3   43.57    1.55
   2  -1  -3   45.67    1.55
   2  -1  -3   45.15    1.55
  -2   1   3   44.76    1.56
  -2   1   3   45.71    1.55
   1  -1  -3   18.73    0.65
   1  -1  -3   18.84    0.65
   1  -1  -3   18.07    0.66
  -1   1   3   18.89    0.67
  -1   1   3   18.30    0.65
   0  -1  -3  195.65    6.60
   0  -1  -3  193.42    7.05
   0  -1  -3  186.42    7.01
   0   1   3  198.47    7.41
  -1  -1  -3   38.60    1.31
  -1  -1  -3   38.53    1.32
   1   1   3   37.50    1.31
   1   1   3   37.98    1.30
  -2  -1  -3   89.77    3.12
  -2  -1  -3   85.31    3.10
   2   1   3   97.35    3.10
   2   1   3   94.09    3.14
  -3  -1  -3   11.64    0.41
  -3  -1  -3   11.91    0.44
   3   1   3   11.54    0.41
   3   1   3   12.14    0.44
  -4  -1  -3   15.62    0.56
  -4  -1  -3   15.15    0.53
   4   1   3   14.61    0.53
   4   1   3   14.96    0.55
  -5  -1  -3   16.64    0.61
  -5  -1  -3   17.12    0.63
   5   1   3   16.65    0.60
   5   1   3   17.50    0.62
  -6  -1  -3   11.25    0.40
  -6  -1  -3   11.03    0.45
  -6  -1  -3   11.45    0.42
   6   1   3   11.27    0.39
   6   1   3   11.30    0.44
   6   1   3   11.41    0.39
  -7  -1  -3    0.55    0.09
  -7  -1  -3    0.54    0.06
   7   1   3    0.60    0.04
   7   1   3    0.63    0.06
  -8  -1  -3    0.59    0.11
  -8  -1  -3    0.70    0.06
   8   1   3    0.79    0.08
   8   1   3    0.69    0.05
  -9  -1  -3    0.21    0.03
  -9  -1  -3    0.28    0.13
   9   1   3    0.30    0.08
   9   1   3    0.25    0.05
   8  -2  -3    0.10    0.04
   8  -2  -3    0.03    0.09
  -8   2   3    0.22    0.12
   7  -2  -3    0.62    0.08
   7  -2  -3    0.69    0.06
  -7   2   3    0.59    0.05
  -7   2   3    1.10    0.18
   6  -2  -3    0.90    0.11
   6  -2  -3    0.92    0.06
  -6   2   3    1.31    0.15
  -6   2   3    1.01    0.07
   5  -2  -3   10.35    0.36
   5  -2  -3   11.15    0.36
   5  -2  -3    9.84    0.40
  -5   2   3   10.71    0.37
  -5   2   3   10.52    0.36
  -5   2   3   10.28    0.40
   4  -2  -3   87.55    2.93
   4  -2  -3   84.22    2.90
  -4   2   3   80.31    2.91
  -4   2   3   89.46    2.93
   3  -2  -3   55.85    1.92
   3  -2  -3   57.58    1.94
  -3   2   3   56.88    1.93
  -3   2   3   54.05    1.94
   2  -2  -3    5.21    0.23
   2  -2  -3    5.21    0.22
   2  -2  -3    4.78    0.18
   2  -2  -3    5.31    0.18
  -2   2   3    5.17    0.25
  -2   2   3    5.16    0.18
  -2   2   3    5.21    0.23
  -2   2   3    5.42    0.18
   1  -2  -3   67.73    2.34
   1  -2  -3   69.59    2.33
  -1   2   3   70.85    2.35
  -1   2   3   66.29    2.34
   0  -2  -3   34.84    1.19
   0  -2  -3   35.49    1.18
   0   2   3   34.83    1.18
   0   2   3   32.87    1.19
  -1  -2  -3  251.34    9.15
  -1  -2  -3  269.99    9.87
   1   2   3  268.65    8.85
   1   2   3  253.79    9.13
  -2  -2  -3  158.36    5.71
   2   2   3  177.42    5.72
  -3  -2  -3    2.39    0.10
  -3  -2  -3    2.26    0.15
  -3  -2  -3    2.26    0.09
  -3  -2  -3    2.30    0.10
  -3  -2  -3    2.39    0.09
   3   2   3    2.36    0.14
   3   2   3    2.71    0.09
   3   2   3    2.46    0.09
   3   2   3    2.42    0.09
  -4  -2  -3  100.06    3.42
   4   2   3  102.15    3.40
   4   2   3  100.90    3.40
   4   2   3   98.62    3.43
  -5  -2  -3    1.42    0.06
  -5  -2  -3    1.45    0.08
  -5  -2  -3    1.27    0.06
  -5  -2  -3    1.31    0.10
  -5  -2  -3    1.37    0.13
   5   2   3    1.40    0.07
   5   2   3    1.53    0.06
   5   2   3    1.60    0.11
   5   2   3    1.37    0.15
   5   2   3    1.36    0.10
   5   2   3    1.39    0.06
  -6  -2  -3   10.07    0.35
  -6  -2  -3    9.90    0.37
  -6  -2  -3   10.04    0.42
  -6  -2  -3    9.43    0.34
   6   2   3   10.08    0.40
   6   2   3   10.08    0.34
   6   2   3   10.26    0.35
  -7  -2  -3   10.10    0.36
  -7  -2  -3   10.00    0.38
  -7  -2  -3   10.07    0.34
   7   2   3   10.04    0.36
   7   2   3   10.10    0.35
  -8  -2  -3    0.57    0.04
  -8  -2  -3    0.59    0.11
   8   2   3    0.69    0.07
   8   2   3    0.57    0.05
  -9  -2  -3    0.62    0.12
   9   2   3    0.52    0.05
   8  -3  -3    0.17    0.05
   8  -3  -3    0.21    0.09
  -8   3   3    0.24    0.16
  -8   3   3    0.14    0.06
   7  -3  -3    0.29    0.05
   7  -3  -3    0.27    0.08
  -7   3   3    0.40    0.14
  -7   3   3    0.31    0.05
   6  -3  -3    0.43    0.04
   6  -3  -3    0.41    0.07
  -6   3   3    0.46    0.05
  -6   3   3    0.48    0.12
   5  -3  -3    5.19    0.18
   5  -3  -3    4.99    0.20
  -5   3   3    5.14    0.19
  -5   3   3    5.16    0.26
   4  -3  -3    0.15    0.03
   4  -3  -3    0.06    0.05
   4  -3  -3    0.07    0.06
   4  -3  -3    0.16    0.03
   4  -3  -3    0.12    0.10
  -4   3   3    0.05    0.07
  -4   3   3    0.04    0.09
   3  -3  -3    5.56    0.27
   3  -3  -3    5.91    0.23
   3  -3  -3    5.53    0.20
   3  -3  -3    5.68    0.19
   3  -3  -3    5.66    0.19
  -3   3   3    5.30    0.19
  -3   3   3    4.55    0.23
  -3   3   3    5.63    0.20
  -3   3   3    5.63    0.19
  -3   3   3    4.95    0.27
  -3   3   3    5.64    0.27
   2  -3  -3   14.67    0.56
   2  -3  -3   15.49    0.54
  -2   3   3   15.05    0.57
  -2   3   3   14.90    0.56
   1  -3  -3    6.05    0.21
   1  -3  -3    6.03    0.21
   1  -3  -3    6.02    0.25
   1  -3  -3    5.99    0.24
  -1   3   3    5.73    0.25
  -1   3   3    6.29    0.21
  -1   3   3    5.99    0.25
  -1   3   3    5.99    0.21
   0  -3  -3  188.73    6.51
   0  -3  -3  189.66    6.49
   0   3   3  188.87    6.50
   0   3   3  195.92    6.49
  -1  -3  -3   27.36    0.97
  -1  -3  -3   28.54    0.98
   1   3   3   28.30    0.98
   1   3   3   28.15    0.96
  -2  -3  -3    4.86    0.20
  -2  -3  -3    5.34    0.23
  -2  -3  -3    5.70    0.18
  -2  -3  -3    5.13    0.19
   2   3   3    5.45    0.18
   2   3   3    5.11    0.19
   2   3   3    5.37    0.18
   2   3   3    5.09    0.22
   2   3   3    5.34    0.19
  -3  -3  -3   16.30    0.58
   3   3   3   15.69    0.53
   3   3   3   15.25    0.53
  -4  -3  -3    5.67    0.20
  -4  -3  -3    5.56    0.20
  -4  -3  -3    5.48    0.21
  -4  -3  -3    5.91    0.27
   4   3   3    5.67    0.21
   4   3   3    5.63    0.20
   4   3   3    5.65    0.19
   4   3   3    5.31    0.25
   4   3   3    5.80    0.20
   4   3   3    5.87    0.19
  -5  -3  -3   39.11    1.35
   5   3   3   38.51    1.31
   5   3   3   37.80    1.34
   5   3   3   38.38    1.31
  -6  -3  -3   16.07    0.56
  -6  -3  -3   16.71    0.63
  -6  -3  -3   16.20    0.57
   6   3   3   15.58    0.61
  -7  -3  -3    0.01    0.02
  -7  -3  -3    0.05    0.06
  -7  -3  -3    0.03    0.02
  -7  -3  -3    0.02    0.08
  -7  -3  -3    0.10    0.11
   7   3   3    0.00    0.03
   7   3   3    0.02    0.04
  -8  -3  -3    1.38    0.17
   8   3   3    1.30    0.07
  -9  -3  -3    0.13    0.11
   9   3   3   -0.02    0.04
   7  -4  -3    0.79    0.06
   7  -4  -3    0.71    0.09
  -7   4   3    1.07    0.10
  -7   4   3    0.53    0.17
   6  -4  -3    1.39    0.09
   6  -4  -3    1.49    0.13
  -6   4   3    1.66    0.10
  -6   4   3    1.20    0.17
   5  -4  -3    1.67    0.08
   5  -4  -3    1.78    0.12
  -5   4   3    1.65    0.09
   4  -4  -3    2.65    0.13
   4  -4  -3    2.71    0.11
  -4   4   3    2.72    0.11
   3  -4  -3    3.35    0.11
   3  -4  -3    2.89    0.21
   3  -4  -3    3.07    0.12
   3  -4  -3    3.27    0.15
   3  -4  -3    3.02    0.13
  -3   4   3    2.72    0.21
  -3   4   3    2.63    0.18
  -3   4   3    3.48    0.12
  -3   4   3    3.14    0.22
   2  -4  -3   23.65    0.81
   2  -4  -3   22.27    0.84
  -2   4   3   23.68    0.84
  -2   4   3   23.14    0.84
   1  -4  -3   47.58    1.58
   1  -4  -3   45.55    1.60
  -1   4   3   44.13    1.59
  -1   4   3   47.27    1.60
   0  -4  -3  149.15    5.19
   0  -4  -3  157.16    5.17
   0   4   3  147.63    5.17
   0   4   3  153.13    5.19
  -1  -4  -3    8.81    0.34
  -1  -4  -3    8.20    0.33
   1   4   3    8.81    0.34
   1   4   3    9.24    0.30
   1   4   3    8.73    0.32
   1   4   3    7.83    0.30
  -2  -4  -3   67.14    2.16
  -2  -4  -3   59.59    2.14
   2   4   3   60.92    2.15
   2   4   3   64.13    2.15
  -3  -4  -3    4.12    0.22
  -3  -4  -3    4.60    0.16
  -3  -4  -3    4.84    0.18
  -3  -4  -3    4.48    0.16
   3   4   3    4.59    0.17
   3   4   3    4.30    0.22
   3   4   3    4.55    0.16
   3   4   3    4.36    0.18
   3   4   3    4.56    0.16
  -4  -4  -3    2.98    0.13
  -4  -4  -3    2.94    0.19
  -4  -4  -3    2.87    0.13
  -4  -4  -3    2.99    0.11
  -4  -4  -3    3.22    0.11
   4   4   3    3.12    0.19
   4   4   3    3.04    0.13
   4   4   3    2.93    0.11
   4   4   3    3.25    0.11
   4   4   3    3.04    0.11
   4   4   3    2.94    0.13
   4   4   3    3.00    0.13
  -5  -4  -3   18.04    0.68
   5   4   3   18.31    0.63
   5   4   3   17.96    0.63
   5   4   3   17.34    0.67
  -6  -4  -3    9.27    0.34
  -6  -4  -3    9.39    0.42
  -6  -4  -3    8.84    0.32
   6   4   3    9.99    0.36
   6   4   3    9.81    0.33
  -7  -4  -3    1.01    0.13
  -7  -4  -3    0.83    0.04
  -7  -4  -3    0.92    0.11
  -7  -4  -3    0.92    0.04
   7   4   3    0.93    0.05
   7   4   3    0.92    0.11
  -8  -4  -3    0.37    0.10
  -8  -4  -3    0.34    0.08
   8   4   3    0.21    0.03
  -9  -4  -3    0.47    0.11
   9   4   3    0.28    0.04
   7  -5  -3    0.16    0.06
   7  -5  -3    0.23    0.09
  -7   5   3    0.26    0.06
  -7   5   3   -0.32    0.18
   6  -5  -3    0.28    0.05
   6  -5  -3    0.31    0.08
  -6   5   3    0.41    0.06
   5  -5  -3    4.77    0.18
   5  -5  -3    4.71    0.21
  -5   5   3    4.13    0.31
  -5   5   3    4.97    0.18
   4  -5  -3    1.75    0.11
   4  -5  -3    1.81    0.09
  -4   5   3    1.83    0.10
  -4   5   3    1.42    0.21
   3  -5  -3    6.50    0.23
   3  -5  -3    6.48    0.25
  -3   5   3    6.62    0.29
  -3   5   3    6.91    0.24
   2  -5  -3   38.92    1.30
   2  -5  -3   36.52    1.34
  -2   5   3   39.08    1.35
  -2   5   3   36.79    1.32
   1  -5  -3   15.52    0.59
   1  -5  -3   15.81    0.56
  -1   5   3   16.01    0.59
  -1   5   3   15.03    0.57
   0  -5  -3   16.22    0.61
   0  -5  -3   16.66    0.59
   0   5   3   16.57    0.61
   0   5   3   16.30    0.60
  -1  -5  -3   19.92    0.75
  -1  -5  -3   21.01    0.74
   1   5   3   20.31    0.74
   1   5   3   21.34    0.74
  -2  -5  -3    8.98    0.29
  -2  -5  -3    7.47    0.29
  -2  -5  -3    8.24    0.35
  -2  -5  -3    8.65    0.30
  -2  -5  -3    8.83    0.29
  -2  -5  -3    8.04    0.34
   2   5   3    8.34    0.31
   2   5   3    8.32    0.35
   2   5   3    9.38    0.29
   2   5   3    8.81    0.33
  -3  -5  -3   55.59    1.90
  -3  -5  -3   54.45    1.89
   3   5   3   55.65    1.88
   3   5   3   54.28    1.90
  -4  -5  -3   38.42    1.35
  -4  -5  -3   38.62    1.31
   4   5   3   37.87    1.34
   4   5   3   37.63    1.31
  -5  -5  -3    0.31    0.11
  -5  -5  -3    0.40    0.06
  -5  -5  -3    0.36    0.04
  -5  -5  -3    0.38    0.04
  -5  -5  -3    0.38    0.07
   5   5   3    0.37    0.06
   5   5   3    0.38    0.04
   5   5   3    0.40    0.07
   5   5   3    0.39    0.07
  -6  -5  -3    3.82    0.17
  -6  -5  -3    3.68    0.14
  -6  -5  -3    3.73    0.14
   6   5   3    3.85    0.14
   6   5   3    3.88    0.18
  -7  -5  -3    0.24    0.03
  -7  -5  -3    0.26    0.07
   7   5   3    0.32    0.09
   7   5   3    0.27    0.03
  -8  -5  -3    2.15    0.15
   8   5   3    1.98    0.19
   8   5   3    1.99    0.09
  -9  -5  -3    3.01    0.19
   9   5   3    2.74    0.24
   9   5   3    2.67    0.11
   6  -6  -3    2.15    0.17
   6  -6  -3    1.92    0.13
  -6   6   3    1.87    0.22
  -6   6   3    2.29    0.13
   5  -6  -3    3.15    0.14
   5  -6  -3    3.29    0.18
  -5   6   3    3.45    0.15
  -5   6   3    2.75    0.30
   4  -6  -3    0.45    0.07
   4  -6  -3    0.42    0.05
  -4   6   3    0.29    0.13
  -4   6   3    0.39    0.05
   3  -6  -3    8.88    0.32
   3  -6  -3    8.76    0.33
  -3   6   3    9.19    0.32
  -3   6   3    9.69    0.37
   2  -6  -3   17.75    0.63
  -2   6   3   19.08    0.65
   1  -6  -3   59.38    2.11
   1  -6  -3   61.00    2.07
  -1   6   3   62.84    2.11
  -1   6   3   59.52    2.08
   0  -6  -3  114.17    3.85
   0  -6  -3  110.10    3.87
   0   6   3  116.99    3.87
   0   6   3  111.99    3.85
  -1  -6  -3    5.87    0.21
  -1  -6  -3    6.24    0.26
  -1  -6  -3    5.80    0.20
  -1  -6  -3    5.70    0.29
  -1  -6  -3    6.01    0.21
  -1  -6  -3    5.73    0.21
   1   6   3    5.63    0.26
   1   6   3    5.55    0.23
   1   6   3    5.91    0.21
   1   6   3    6.24    0.28
   1   6   3    5.99    0.21
  -2  -6  -3    8.91    0.31
  -2  -6  -3    8.61    0.32
  -2  -6  -3    9.26    0.31
  -2  -6  -3    8.80    0.39
  -2  -6  -3    9.11    0.37
   2   6   3    9.37    0.31
   2   6   3    8.83    0.31
   2   6   3    8.93    0.36
   2   6   3    8.57    0.33
   2   6   3    9.06    0.37
  -3  -6  -3    0.74    0.11
  -3  -6  -3    0.89    0.05
  -3  -6  -3    0.78    0.12
  -3  -6  -3    0.81    0.08
   3   6   3    0.85    0.05
   3   6   3    0.78    0.09
   3   6   3    0.71    0.11
   3   6   3    0.86    0.09
  -4  -6  -3   26.13    0.95
  -4  -6  -3   25.60    0.93
   4   6   3   26.53    0.92
  -5  -6  -3   34.04    1.16
   5   6   3   32.32    1.16
  -6  -6  -3    3.58    0.14
  -6  -6  -3    3.79    0.18
   6   6   3    3.73    0.14
   6   6   3    3.79    0.19
  -7  -6  -3    1.28    0.06
  -7  -6  -3    1.25    0.06
  -7  -6  -3    1.54    0.14
   7   6   3    1.43    0.15
   7   6   3    1.33    0.07
  -8  -6  -3    1.06    0.15
   8   6   3    1.13    0.18
   8   6   3    1.10    0.07
  -9  -6  -3    0.16    0.10
   9   6   3    0.05    0.12
   9   6   3    0.03    0.04
   6  -7  -3    0.13    0.07
   6  -7  -3    0.19    0.10
  -6   7   3    0.28    0.07
  -6   7   3   -0.23    0.18
   5  -7  -3    0.07    0.09
   5  -7  -3    0.09    0.06
  -5   7   3    0.05    0.06
  -5   7   3   -0.28    0.16
   4  -7  -3    2.50    0.12
   4  -7  -3    2.49    0.16
  -4   7   3    2.38    0.25
  -4   7   3    2.41    0.13
   3  -7  -3   -0.02    0.04
   3  -7  -3    0.02    0.06
  -3   7   3   -0.12    0.10
  -3   7   3   -0.03    0.05
   2  -7  -3    1.26    0.08
   2  -7  -3    1.43    0.10
  -2   7   3    1.25    0.09
  -2   7   3    1.50    0.16
   1  -7  -3   22.11    0.79
   1  -7  -3   21.34    0.75
  -1   7   3   21.94    0.76
   0  -7  -3    5.96    0.23
   0  -7  -3    6.05    0.22
   0  -7  -3    6.25    0.33
   0  -7  -3    6.33    0.22
   0  -7  -3    6.29    0.22
   0  -7  -3    6.23    0.28
   0   7   3    5.87    0.24
   0   7   3    6.23    0.22
   0   7   3    6.24    0.22
   0   7   3    6.18    0.29
  -1  -7  -3    7.30    0.26
  -1  -7  -3    7.42    0.32
  -1  -7  -3    7.75    0.37
  -1  -7  -3    7.04    0.26
  -1  -7  -3    6.98    0.26
   1   7   3    7.66    0.34
   1   7   3    7.08    0.25
   1   7   3    7.07    0.28
   1   7   3    7.16    0.25
   1   7   3    6.62    0.32
  -2  -7  -3    0.21    0.14
  -2  -7  -3    0.08    0.04
  -2  -7  -3    0.17    0.10
  -2  -7  -3    0.15    0.04
  -2  -7  -3    0.24    0.05
   2   7   3    0.18    0.09
   2   7   3    0.24    0.10
   2   7   3    0.12    0.03
   2   7   3    0.13    0.06
  -3  -7  -3   19.36    0.80
  -3  -7  -3   21.58    0.78
   3   7   3   22.08    0.77
  -4  -7  -3   15.53    0.64
   4   7   3   16.38    0.58
   4   7   3   17.09    0.61
  -5  -7  -3    1.39    0.07
  -5  -7  -3    1.43    0.12
   5   7   3    1.34    0.07
   5   7   3    1.39    0.13
  -6  -7  -3    0.64    0.06
  -6  -7  -3    0.66    0.08
   6   7   3    0.69    0.09
   6   7   3    0.71    0.06
  -7  -7  -3    0.20    0.08
  -7  -7  -3    0.17    0.03
   7   7   3    0.23    0.09
   7   7   3    0.15    0.04
  -8  -7  -3    2.91    0.19
   8   7   3    2.91    0.21
   8   7   3    2.78    0.12
  -9  -7  -3    2.40    0.20
   9   7   3    2.33    0.22
   9   7   3    2.23    0.10
   5  -8  -3    0.21    0.07
   5  -8  -3    0.23    0.10
  -5   8   3    0.22    0.08
  -5   8   3   -0.01    0.16
   4  -8  -3    2.37    0.13
   4  -8  -3    2.30    0.17
  -4   8   3    2.41    0.25
  -4   8   3    2.49    0.14
   3  -8  -3    2.86    0.17
   3  -8  -3    2.79    0.13
  -3   8   3    2.80    0.14
  -3   8   3    2.82    0.23
   2  -8  -3    0.22    0.07
   2  -8  -3    0.18    0.05
  -2   8   3    0.18    0.05
  -2   8   3    0.19    0.10
   1  -8  -3    0.47    0.07
  -1   8   3    0.46    0.05
  -1   8   3    0.46    0.09
   0  -8  -3    1.34    0.09
   0  -8  -3    1.36    0.08
   0  -8  -3    1.48    0.10
   0   8   3    1.29    0.13
   0   8   3    1.34    0.09
  -1  -8  -3    3.64    0.15
  -1  -8  -3    3.59    0.15
  -1  -8  -3    3.87    0.16
  -1  -8  -3    3.46    0.23
   1   8   3    3.62    0.14
   1   8   3    3.54    0.24
   1   8   3    3.65    0.18
  -2  -8  -3    3.28    0.14
  -2  -8  -3    3.61    0.32
  -2  -8  -3    3.17    0.15
  -2  -8  -3    3.38    0.14
   2   8   3    3.91    0.13
   2   8   3    3.19    0.17
  -3  -8  -3    1.83    0.11
  -3  -8  -3    1.83    0.22
  -3  -8  -3    1.92    0.10
   3   8   3    1.86    0.14
   3   8   3    1.95    0.09
  -4  -8  -3    3.21    0.15
  -4  -8  -3    3.21    0.13
  -4  -8  -3    2.68    0.28
   4   8   3    3.37    0.22
   4   8   3    3.22    0.12
   4   8   3    3.19    0.17
  -5  -8  -3    1.73    0.13
  -5  -8  -3    1.74    0.09
   5   8   3    1.63    0.08
   5   8   3    1.71    0.15
  -6  -8  -3    0.37    0.04
  -6  -8  -3    0.31    0.08
   6   8   3    0.28    0.04
   6   8   3    0.37    0.09
  -7  -8  -3    0.00    0.04
  -7  -8  -3    0.03    0.09
   7   8   3    0.12    0.09
   7   8   3   -0.03    0.04
  -8  -8  -3    0.23    0.03
  -8  -8  -3    0.41    0.10
   8   8   3    0.33    0.04
   8   8   3    0.34    0.11
  -9  -8  -3    0.52    0.12
   9   8   3    0.41    0.05
   9   8   3    0.39    0.13
   4  -9  -3    0.54    0.11
  -4   9   3    0.33    0.15
  -4   9   3    0.42    0.08
   3  -9  -3    0.26    0.09
  -3   9   3    0.20    0.07
  -3   9   3    0.15    0.13
   2  -9  -3    3.35    0.18
  -2   9   3    3.41    0.16
  -2   9   3    3.63    0.23
   1  -9  -3    1.53    0.13
  -1   9   3    1.50    0.18
   0  -9  -3    0.31    0.07
   0  -9  -3    0.15    0.06
   0   9   3    0.22    0.09
  -1  -9  -3   14.05    0.50
  -1  -9  -3   14.54    0.50
   1   9   3   13.76    0.49
   1   9   3   14.53    0.52
  -2  -9  -3   15.06    0.52
  -2  -9  -3   15.06    0.53
   2   9   3   15.16    0.52
   2   9   3   15.21    0.54
  -3  -9  -3    2.21    0.13
  -3  -9  -3    2.22    0.11
   3   9   3    2.19    0.10
   3   9   3    2.33    0.16
  -4  -9  -3   -0.02    0.07
  -4  -9  -3   -0.01    0.04
   4   9   3    0.05    0.04
   4   9   3    0.10    0.08
  -5  -9  -3    0.51    0.05
  -5  -9  -3    0.42    0.08
   5   9   3    0.52    0.09
   5   9   3    0.46    0.05
  -6  -9  -3    2.47    0.12
  -6  -9  -3    2.43    0.17
   6   9   3    2.40    0.11
   6   9   3    2.45    0.18
  -7  -9  -3    5.15    0.20
  -7  -9  -3    5.34    0.25
   7   9   3    5.36    0.26
   7   9   3    5.40    0.20
  -8  -9  -3    0.30    0.11
  -8  -9  -3    0.25    0.04
   8   9   3    0.29    0.11
   8   9   3    0.30    0.05
   2 -10  -3    3.27    0.20
  -2  10   3    3.11    0.26
   1 -10  -3    0.71    0.10
  -1  10   3    0.67    0.12
   0  10   3    1.99    0.20
  -1 -10  -3    0.19    0.06
   1  10   3    0.33    0.10
  -2 -10  -3    1.97    0.11
  -2 -10  -3    1.89    0.13
   2  10   3    1.93    0.10
   2  10   3    2.09    0.18
  -3 -10  -3    9.95    0.38
  -3 -10  -3   10.10    0.36
   3  10   3   10.43    0.40
   3  10   3   10.41    0.36
  -4 -10  -3    3.91    0.16
  -4 -10  -3    3.87    0.19
   4  10   3    3.84    0.22
   4  10   3    3.94    0.16
  -5 -10  -3    0.16    0.09
  -5 -10  -3    0.06    0.06
   5  10   3   -0.01    0.05
   5  10   3    0.08    0.09
  -6 -10  -3    0.29    0.10
  -6 -10  -3    0.20    0.06
   6  10   3    0.27    0.10
   6  10   3    0.26    0.05
  -7 -10  -3    0.48    0.06
  -7 -10  -3    0.56    0.11
   7  10   3    0.54    0.12
   7  10   3    0.46    0.06
   0  11   3    0.69    0.13
   1  11   3    0.43    0.12
  -2 -11  -3    2.54    0.16
  -2 -11  -3    2.58    0.15
   2  11   3    2.82    0.21
  -3 -11  -3    1.17    0.14
  -3 -11  -3    1.31    0.12
   3  11   3    1.39    0.18
   3  11   3    1.43    0.11
  -4 -11  -3    0.39    0.09
  -4 -11  -3    0.45    0.07
   4  11   3    0.49    0.11
   4  11   3    0.44    0.06
  -5 -11  -3    0.03    0.09
  -5 -11  -3    0.04    0.07
   5  11   3    0.09    0.11
   5  11   3   -0.01    0.05
  -6 -11  -3    1.25    0.18
  -6 -11  -3    1.02    0.11
   6  11   3    0.86    0.07
   6  11   3    1.20    0.19
   5   8  -4    0.54    0.12
   5   8  -4    0.58    0.07
  -5  -8   4    0.31    0.13
  -5  -8   4    0.55    0.07
   4   8  -4    0.11    0.06
   4   8  -4    0.10    0.10
  -4  -8   4   -0.18    0.12
  -4  -8   4    0.13    0.07
   3   8  -4    0.63    0.07
   3   8  -4    0.57    0.11
  -3  -8   4    0.26    0.13
  -3  -8   4    0.62    0.07
   2   8  -4    2.12    0.17
   2   8  -4    2.04    0.13
  -2  -8   4    1.99    0.14
  -2  -8   4    2.01    0.21
  -1  -8   4    0.18    0.12
  -1  -8   4    0.24    0.07
   0  -8   4    0.43    0.12
   1  -8   4    0.58    0.13
   6   7  -4    1.12    0.10
   6   7  -4    0.77    0.12
  -6  -7   4    0.73    0.12
  -6  -7   4    1.00    0.10
   5   7  -4    0.28    0.06
   5   7  -4    0.23    0.10
  -5  -7   4    0.30    0.11
  -5  -7   4    0.27    0.06
   4   7  -4    1.33    0.10
   4   7  -4    1.22    0.16
  -4  -7   4    1.03    0.12
  -4  -7   4    1.30    0.11
   3   7  -4   10.76    0.42
   3   7  -4   11.14    0.39
  -3  -7   4   11.51    0.43
  -3  -7   4   11.12    0.40
   2   7  -4    0.18    0.09
   2   7  -4    0.12    0.05
  -2  -7   4   -0.02    0.10
  -2  -7   4    0.18    0.06
   1   7  -4    3.85    0.17
   1   7  -4    3.96    0.20
  -1  -7   4    3.84    0.18
  -1  -7   4    4.17    0.22
   0  -7   4    3.44    0.20
   0  -7   4    2.78    0.15
   1  -7   4    0.16    0.10
   2  -7   4    2.37    0.20
   3  -7   4    1.53    0.20
   7   6  -4    1.76    0.10
   7   6  -4    1.71    0.19
  -7  -6   4    1.87    0.17
  -7  -6   4    1.66    0.08
   6   6  -4    0.01    0.10
   6   6  -4    0.14    0.05
  -6  -6   4    0.17    0.05
  -6  -6   4    0.14    0.09
   5   6  -4    1.12    0.08
   5   6  -4    1.01    0.15
  -5  -6   4    1.07    0.09
  -5  -6   4    0.87    0.11
   4   6  -4    1.77    0.10
   4   6  -4    1.59    0.15
  -4  -6   4    1.72    0.10
  -4  -6   4    1.72    0.16
   3   6  -4    1.05    0.13
   3   6  -4    1.08    0.08
  -3  -6   4    1.04    0.11
  -3  -6   4    1.16    0.09
   2   6  -4    9.22    0.33
   2   6  -4    9.24    0.35
  -2  -6   4    9.77    0.36
  -2  -6   4    9.47    0.34
   1   6  -4   10.14    0.36
   1   6  -4   10.20    0.38
  -1  -6   4   10.22    0.36
  -1  -6   4   10.19    0.39
   0   6  -4    0.29    0.05
   0   6  -4    0.31    0.07
   0  -6   4    0.29    0.06
   0  -6   4    0.39    0.09
   1  -6   4    6.01    0.26
  -2   6  -4    0.62    0.09
   2  -6   4    0.70    0.10
  -3   6  -4    0.68    0.10
   3  -6   4    0.69    0.11
  -4   6  -4    0.48    0.08
  -4   6  -4    0.32    0.11
   4  -6   4    0.60    0.11
   8   5  -4    0.36    0.11
   8   5  -4    0.47    0.05
  -8  -5   4    0.40    0.10
   7   5  -4    0.08    0.10
   7   5  -4    0.11    0.04
  -7  -5   4    0.17    0.09
   6   5  -4    1.27    0.08
   6   5  -4    1.15    0.15
  -6  -5   4    1.26    0.08
  -6  -5   4    1.46    0.14
   5   5  -4    0.43    0.09
   5   5  -4    0.37    0.04
  -5  -5   4    0.36    0.05
  -5  -5   4    0.35    0.08
   4   5  -4    2.25    0.15
   4   5  -4    2.40    0.10
  -4  -5   4    2.36    0.11
  -4  -5   4    2.34    0.15
   3   5  -4    2.49    0.15
   3   5  -4    2.40    0.11
  -3  -5   4    2.46    0.11
  -3  -5   4    2.64    0.16
   2   5  -4    0.17    0.07
   2   5  -4    0.18    0.04
  -2  -5   4    0.21    0.05
  -2  -5   4    0.11    0.08
   1   5  -4    0.35    0.07
   1   5  -4    0.28    0.04
  -1  -5   4    0.24    0.05
  -1  -5   4    0.14    0.08
   0   5  -4    0.35    0.06
   0   5  -4    0.33    0.07
   0   5  -4    0.47    0.04
   0   5  -4    0.37    0.14
   0  -5   4    0.18    0.08
   0  -5   4    0.31    0.05
  -1   5  -4    0.07    0.06
  -1   5  -4    0.15    0.07
   1  -5   4    0.05    0.07
   1  -5   4    0.15    0.05
  -2   5  -4    1.32    0.10
  -2   5  -4    1.19    0.12
   2  -5   4    1.50    0.14
  -3   5  -4    0.69    0.07
  -3   5  -4    0.83    0.14
   3  -5   4    0.87    0.10
  -4   5  -4    0.01    0.09
  -4   5  -4    0.12    0.07
   4  -5   4    0.35    0.09
  -5   5  -4   -0.01    0.10
  -5   5  -4    0.10    0.07
   5  -5   4    0.10    0.06
   5  -5   4    0.20    0.10
   8   4  -4    0.92    0.07
   8   4  -4    0.88    0.11
  -8  -4   4    0.86    0.10
   7   4  -4    0.14    0.09
   7   4  -4    0.10    0.04
  -7  -4   4    0.04    0.08
   6   4  -4    0.06    0.03
   6   4  -4   -0.01    0.08
  -6  -4   4    0.10    0.07
  -6  -4   4    0.02    0.03
   5   4  -4    0.03    0.03
   5   4  -4    0.05    0.07
  -5  -4   4    0.03    0.07
  -5  -4   4    0.01    0.03
   4   4  -4   16.28    0.57
  -4  -4   4   15.87    0.57
  -4  -4   4   16.23    0.55
   3   4  -4   12.17    0.43
   3   4  -4   12.69    0.45
  -3  -4   4   12.91    0.43
  -3  -4   4   12.47    0.45
   2   4  -4    1.18    0.07
   2   4  -4    1.16    0.11
  -2  -4   4    1.26    0.11
  -2  -4   4    1.25    0.08
   1   4  -4   16.48    0.66
  -1  -4   4   17.54    0.60
   0   4  -4    3.85    0.17
   0   4  -4    3.77    0.26
   0   4  -4    4.24    0.16
   0   4  -4    4.04    0.15
   0   4  -4    3.86    0.15
   0  -4   4    4.26    0.25
   0  -4   4    4.00    0.16
   0  -4   4    3.97    0.18
  -1   4  -4    6.84    0.36
  -1   4  -4    6.27    0.23
  -1   4  -4    6.79    0.24
  -1   4  -4    6.18    0.25
  -1   4  -4    6.63    0.23
   1  -4   4    6.79    0.31
   1  -4   4    6.34    0.24
   1  -4   4    6.09    0.25
  -2   4  -4    3.88    0.16
  -2   4  -4    3.95    0.18
  -2   4  -4    3.79    0.17
   2  -4   4    3.83    0.15
   2  -4   4    3.80    0.18
  -3   4  -4    0.23    0.05
  -3   4  -4    0.15    0.07
   3  -4   4    0.21    0.07
   3  -4   4    0.30    0.05
  -4   4  -4    1.61    0.11
  -4   4  -4    1.35    0.15
   4  -4   4    1.37    0.10
  -5   4  -4    0.39    0.10
  -5   4  -4    0.58    0.07
   5  -4   4    0.43    0.09
   5  -4   4    0.53    0.07
  -6   4  -4    0.22    0.08
  -6   4  -4    0.03    0.11
   6  -4   4    0.13    0.10
   6  -4   4    0.16    0.06
   8   3  -4   -0.01    0.03
   8   3  -4    0.10    0.09
  -8  -3   4    0.23    0.09
   7   3  -4    0.71    0.06
   7   3  -4    0.76    0.09
  -7  -3   4    0.76    0.09
   6   3  -4    2.63    0.10
   6   3  -4    2.72    0.16
  -6  -3   4    2.69    0.09
  -6  -3   4    2.86    0.15
  -6  -3   4    2.24    0.09
   4   3  -4    6.53    0.23
   4   3  -4    6.65    0.26
  -4  -3   4    6.57    0.23
  -4  -3   4    6.81    0.25
   3   3  -4    9.16    0.33
   3   3  -4   10.02    0.35
   3   3  -4   10.35    0.42
  -3  -3   4    9.68    0.33
  -3  -3   4    9.23    0.34
  -3  -3   4    8.91    0.42
   2   3  -4   16.24    0.64
   2   3  -4   16.46    0.64
  -2  -3   4   15.84    0.64
  -2  -3   4   17.71    0.65
   1   3  -4    5.90    0.30
   1   3  -4    6.16    0.21
   1   3  -4    5.86    0.21
   1   3  -4    5.91    0.29
   1   3  -4    5.70    0.22
  -1  -3   4    5.95    0.21
  -1  -3   4    5.76    0.30
  -1  -3   4    6.33    0.31
  -1  -3   4    5.77    0.23
   0   3  -4   71.13    2.55
   0   3  -4   74.32    2.56
   0  -3   4   76.57    2.55
   0  -3   4   74.11    2.55
  -1   3  -4   55.27    1.94
  -1   3  -4   55.84    1.93
   1  -3   4   54.92    1.91
   1  -3   4   54.60    1.92
  -2   3  -4    8.99    0.31
  -2   3  -4    8.70    0.33
  -2   3  -4    9.84    0.42
  -2   3  -4    8.84    0.32
  -2   3  -4   10.38    0.47
   2  -3   4    8.58    0.40
   2  -3   4    8.44    0.32
   2  -3   4    8.36    0.31
   2  -3   4    9.14    0.37
   2  -3   4    9.10    0.31
   3  -3   4   20.37    0.71
   3  -3   4   21.36    0.78
  -4   3  -4    0.03    0.07
  -4   3  -4    0.14    0.05
   4  -3   4    0.11    0.07
   4  -3   4    0.15    0.05
  -5   3  -4    4.73    0.19
  -5   3  -4    4.57    0.23
   5  -3   4    4.78    0.19
   5  -3   4    4.65    0.21
  -6   3  -4    3.92    0.18
  -6   3  -4    3.70    0.23
   6  -3   4    3.77    0.17
   6  -3   4    3.92    0.20
  -7   3  -4    0.02    0.12
  -7   3  -4    0.12    0.08
   7  -3   4    0.14    0.06
   7  -3   4    0.09    0.10
   9   2  -4    0.31    0.04
  -9  -2   4    0.34    0.10
   8   2  -4    7.39    0.30
   8   2  -4    7.27    0.26
  -8  -2   4    7.64    0.30
   7   2  -4    0.11    0.08
   7   2  -4    0.15    0.03
  -7  -2   4    0.10    0.07
   6   2  -4    0.62    0.05
   6   2  -4    0.62    0.08
  -6  -2   4    0.67    0.07
   5   2  -4    2.02    0.12
   5   2  -4    2.15    0.08
  -5  -2   4    2.05    0.12
  -5  -2   4    2.07    0.08
  -5  -2   4    1.72    0.08
   4   2  -4   28.19    1.03
   4   2  -4   28.86    1.05
  -4  -2   4   28.33    1.04
   3   2  -4   20.54    0.75
   3   2  -4   19.87    0.76
  -3  -2   4   20.97    0.77
  -3  -2   4   19.55    0.75
   2   2  -4    4.65    0.16
   2   2  -4    4.44    0.18
   2   2  -4    4.42    0.24
   2   2  -4    4.67    0.26
  -2  -2   4    5.01    0.26
  -2  -2   4    5.19    0.25
  -2  -2   4    4.70    0.17
  -2  -2   4    4.73    0.18
  -2  -2   4    4.49    0.17
   1   2  -4   60.23    2.12
   1   2  -4   60.46    2.11
  -1  -2   4   64.31    2.13
  -1  -2   4   60.40    2.12
   0   2  -4    4.50    0.26
   0   2  -4    4.41    0.18
   0   2  -4    4.38    0.16
   0   2  -4    4.66    0.16
   0   2  -4    4.35    0.24
   0   2  -4    4.52    0.16
   0  -2   4    4.45    0.16
   0  -2   4    4.48    0.23
   0  -2   4    4.95    0.24
   0  -2   4    4.72    0.16
   0  -2   4    4.26    0.17
  -1   2  -4   46.86    1.62
  -1   2  -4   48.40    1.65
   1  -2   4   44.59    1.62
   1  -2   4   46.38    1.61
  -2   2  -4   69.05    2.37
  -2   2  -4   71.42    2.41
   2  -2   4   64.84    2.34
   2  -2   4   68.64    2.35
  -3   2  -4    1.52    0.10
  -3   2  -4    1.28    0.20
  -3   2  -4    1.39    0.17
  -3   2  -4    1.11    0.12
   3  -2   4    1.46    0.14
   3  -2   4    1.29    0.14
   3  -2   4    1.37    0.07
   3  -2   4    1.24    0.10
  -4   2  -4    0.48    0.17
  -4   2  -4    0.45    0.07
  -4   2  -4    0.55    0.05
   4  -2   4    0.45    0.04
   4  -2   4    0.48    0.07
   4  -2   4    0.50    0.12
  -5   2  -4    5.51    0.25
  -5   2  -4    5.77    0.21
   5  -2   4    5.74    0.23
   5  -2   4    5.43    0.21
  -6   2  -4    0.26    0.10
  -6   2  -4    0.34    0.06
   6  -2   4    0.30    0.08
   6  -2   4    0.30    0.05
  -7   2  -4    1.92    0.21
  -7   2  -4    1.97    0.13
   7  -2   4    2.14    0.16
   7  -2   4    1.95    0.12
   9   1  -4    0.06    0.04
  -9  -1   4    0.03    0.09
   8   1  -4    1.34    0.07
  -8  -1   4    1.39    0.15
   7   1  -4    1.10    0.13
   7   1  -4    1.09    0.06
  -7  -1   4    1.26    0.13
   6   1  -4    1.36    0.06
   6   1  -4    1.31    0.11
  -6  -1   4    1.40    0.11
   5   1  -4    0.76    0.09
   5   1  -4    0.87    0.05
   5   1  -4    0.67    0.13
  -5  -1   4    0.79    0.09
  -5  -1   4    0.84    0.05
  -5  -1   4    0.62    0.04
   4   1  -4    1.41    0.10
   4   1  -4    1.37    0.14
   4   1  -4    1.19    0.14
   4   1  -4    1.65    0.06
   4   1  -4    1.49    0.06
  -4  -1   4    1.49    0.09
  -4  -1   4    1.35    0.06
  -4  -1   4    1.52    0.06
  -4  -1   4    1.47    0.18
  -4  -1   4    1.41    0.07
   3   1  -4    1.60    0.16
   3   1  -4    1.70    0.07
   3   1  -4    1.52    0.16
   3   1  -4    1.80    0.06
   3   1  -4    1.72    0.10
   3   1  -4    1.30    0.13
  -3  -1   4    1.63    0.16
  -3  -1   4    1.64    0.07
  -3  -1   4    1.70    0.07
  -3  -1   4    1.81    0.17
  -3  -1   4    1.79    0.09
   2   1  -4    6.93    0.30
   2   1  -4    7.06    0.24
   2   1  -4    6.77    0.25
   2   1  -4    6.79    0.31
  -2  -1   4    6.73    0.24
  -2  -1   4    7.18    0.24
  -2  -1   4    7.47    0.33
  -2  -1   4    6.94    0.25
  -2  -1   4    6.91    0.30
   1   1  -4   28.92    1.05
   1   1  -4   28.74    1.03
  -1  -1   4   30.73    1.05
  -1  -1   4   29.34    1.04
   0   1  -4   60.91    2.09
   0   1  -4   59.00    2.06
   0  -1   4   61.12    2.07
   0  -1   4   59.78    2.07
  -1   1  -4   22.62    0.81
  -1   1  -4   23.12    0.84
   1  -1   4   22.41    0.81
   1  -1   4   22.28    0.80
  -2   1  -4   -0.12    0.12
  -2   1  -4    0.03    0.02
  -2   1  -4   -0.06    0.05
  -2   1  -4    0.03    0.04
  -2   1  -4    0.10    0.08
  -2   1  -4    0.05    0.03
   2  -1   4    0.09    0.07
   2  -1   4    0.03    0.03
   2  -1   4    0.04    0.07
   2  -1   4    0.04    0.04
  -3   1  -4    1.25    0.13
  -3   1  -4    0.97    0.09
  -3   1  -4    1.11    0.07
  -3   1  -4    1.07    0.10
  -3   1  -4    0.77    0.15
   3  -1   4    1.01    0.10
   3  -1   4    1.15    0.07
   3  -1   4    1.03    0.08
   3  -1   4    1.09    0.11
   3  -1   4    1.13    0.06
  -4   1  -4    0.14    0.06
  -4   1  -4    0.17    0.04
  -4   1  -4    0.11    0.12
  -4   1  -4    0.28    0.11
  -4   1  -4    0.31    0.05
   4  -1   4    0.27    0.08
   4  -1   4    0.21    0.03
   4  -1   4    0.21    0.09
   4  -1   4    0.18    0.05
  -5   1  -4   14.97    0.52
  -5   1  -4   15.22    0.54
   5  -1   4   14.88    0.52
   5  -1   4   14.76    0.51
  -6   1  -4    0.23    0.09
  -6   1  -4    0.24    0.05
   6  -1   4    0.21    0.07
   6  -1   4    0.27    0.05
  -7   1  -4    0.22    0.06
  -7   1  -4    0.14    0.11
   7  -1   4    0.22    0.05
   7  -1   4    0.28    0.08
  -8   1  -4    0.08    0.07
  -8   1  -4    0.04    0.12
   8  -1   4    0.09    0.06
   8  -1   4    0.12    0.08
   8   0  -4    0.17    0.04
  -8   0   4    0.26    0.08
   7   0  -4    0.36    0.04
   7   0  -4    0.35    0.07
  -7   0   4    0.41    0.07
   6   0  -4    7.76    0.28
   6   0  -4    7.79    0.26
   6   0  -4    7.85    0.36
  -6   0   4    7.27    0.26
  -6   0   4    7.08    0.26
  -6   0   4    7.73    0.28
  -6   0   4    7.64    0.29
   5   0  -4   10.63    0.38
   5   0  -4   10.79    0.45
  -5   0   4   11.19    0.38
  -5   0   4   10.75    0.38
  -5   0   4   10.47    0.48
   4   0  -4    0.73    0.04
   4   0  -4    0.59    0.08
   4   0  -4    0.55    0.11
   4   0  -4    0.48    0.11
   4   0  -4    0.62    0.03
  -4   0   4    0.54    0.04
  -4   0   4    0.56    0.04
  -4   0   4    0.54    0.14
  -4   0   4    0.57    0.07
  -4   0   4    0.58    0.06
   3   0  -4   10.97    0.45
   3   0  -4   11.22    0.44
   3   0  -4   11.41    0.45
   3   0  -4   11.10    0.39
  -3   0   4   11.94    0.48
   2   0  -4    7.10    0.29
   2   0  -4    7.11    0.24
   2   0  -4    6.67    0.29
   2   0  -4    6.75    0.25
   2   0  -4    6.64    0.31
  -2   0   4    6.66    0.24
  -2   0   4    6.97    0.29
  -2   0   4    7.86    0.34
  -2   0   4    7.09    0.25
   1   0  -4   26.68    0.94
   1   0  -4   26.60    0.94
   1   0  -4   25.88    0.96
  -1   0   4   27.13    0.94
  -1   0   4   27.57    0.96
   0   0  -4  189.64    6.45
   0   0  -4  190.51    6.48
   0   0   4  181.65    6.43
   0   0   4  196.01    6.46
  -1   0  -4    2.75    0.20
  -1   0  -4    3.01    0.11
  -1   0  -4    3.01    0.11
  -1   0  -4    3.09    0.16
  -1   0  -4    2.44    0.12
  -1   0  -4    3.01    0.11
   1   0   4    3.09    0.11
   1   0   4    3.00    0.11
   1   0   4    3.20    0.15
   1   0   4    2.87    0.17
   1   0   4    2.66    0.11
  -2   0  -4    6.82    0.33
  -2   0  -4    6.84    0.25
  -2   0  -4    6.97    0.24
  -2   0  -4    6.95    0.28
  -2   0  -4    7.22    0.24
  -2   0  -4    6.64    0.25
   2   0   4    6.29    0.24
   2   0   4    7.29    0.24
   2   0   4    6.84    0.27
   2   0   4    6.92    0.29
   2   0   4    6.86    0.24
  -3   0  -4   19.97    0.76
  -3   0  -4   19.92    0.74
   3   0   4   21.20    0.73
   3   0   4   20.79    0.74
  -4   0  -4   -0.04    0.09
  -4   0  -4    0.06    0.03
  -4   0  -4    0.12    0.10
  -4   0  -4    0.05    0.05
   4   0   4    0.01    0.04
   4   0   4    0.02    0.07
   4   0   4    0.11    0.08
   4   0   4    0.02    0.03
  -5   0  -4    5.74    0.21
  -5   0  -4    5.63    0.24
  -5   0  -4    5.61    0.21
  -5   0  -4    5.84    0.28
   5   0   4    5.63    0.20
   5   0   4    5.47    0.26
   5   0   4    5.70    0.21
   5   0   4    5.44    0.26
  -6   0  -4    2.25    0.16
  -6   0  -4    2.15    0.11
   6   0   4    2.18    0.12
   6   0   4    2.12    0.10
  -7   0  -4    0.01    0.05
  -7   0  -4    0.06    0.09
   7   0   4   -0.02    0.05
   7   0   4    0.08    0.06
  -8   0  -4    0.42    0.06
  -8   0  -4    0.42    0.12
   8   0   4    0.64    0.08
   8   0   4    0.55    0.06
   8  -1  -4    0.05    0.09
   8  -1  -4    0.20    0.04
   7  -1  -4    5.81    0.20
  -7   1   4    5.91    0.23
  -7   1   4    5.79    0.25
  -7   1   4    4.71    0.19
  -7   1   4    5.24    0.19
   6  -1  -4    5.08    0.20
   6  -1  -4    5.13    0.18
  -6   1   4    4.93    0.18
  -6   1   4    5.02    0.20
  -6   1   4    4.87    0.18
  -6   1   4    5.16    0.22
   5  -1  -4    1.16    0.14
   5  -1  -4    1.29    0.06
   5  -1  -4    1.29    0.09
  -5   1   4    1.26    0.06
  -5   1   4    1.41    0.11
  -5   1   4    1.32    0.06
  -5   1   4    1.24    0.16
  -5   1   4    1.21    0.09
   4  -1  -4   12.73    0.51
   4  -1  -4   11.64    0.47
   4  -1  -4   12.31    0.49
   4  -1  -4   13.00    0.41
   4  -1  -4   11.79    0.42
  -4   1   4   11.53    0.42
  -4   1   4   11.89    0.42
  -4   1   4   11.83    0.51
  -4   1   4   12.01    0.49
   3  -1  -4    1.82    0.17
   3  -1  -4    1.56    0.16
   3  -1  -4    1.66    0.07
   3  -1  -4    1.80    0.07
   3  -1  -4    1.51    0.09
  -3   1   4    2.06    0.07
  -3   1   4    2.07    0.08
  -3   1   4    1.61    0.17
  -3   1   4    1.79    0.15
  -3   1   4    1.80    0.09
  -3   1   4    1.64    0.07
   2  -1  -4  161.93    6.04
   2  -1  -4  156.60    5.65
   2  -1  -4  166.74    5.63
  -2   1   4  172.32    5.62
  -2   1   4  168.80    6.39
   1  -1  -4  149.46    5.69
   1  -1  -4  152.83    5.06
   1  -1  -4  141.76    5.09
  -1   1   4  151.09    5.06
   0  -1  -4    6.58    0.23
   0  -1  -4    6.27    0.25
   0  -1  -4    6.81    0.23
   0  -1  -4    6.81    0.26
   0   1   4    6.58    0.23
   0   1   4    6.34    0.26
   0   1   4    6.80    0.23
   0   1   4    6.50    0.29
  -1  -1  -4   23.79    0.85
  -1  -1  -4   23.34    0.81
   1   1   4   23.71    0.81
   1   1   4   22.96    0.83
  -2  -1  -4   78.74    2.66
  -2  -1  -4   75.98    2.73
   2   1   4   79.87    2.89
   2   1   4   75.52    2.64
  -3  -1  -4   49.61    1.69
  -3  -1  -4   45.19    1.65
   3   1   4   48.83    1.67
   3   1   4   50.48    1.65
  -4  -1  -4   77.12    2.72
  -4  -1  -4   80.49    2.75
   4   1   4   78.84    2.74
   4   1   4   84.56    2.72
  -5  -1  -4    9.16    0.33
  -5  -1  -4    9.55    0.40
  -5  -1  -4    9.34    0.34
  -5  -1  -4    9.16    0.32
   5   1   4    9.33    0.33
   5   1   4    9.30    0.32
   5   1   4    9.30    0.38
   5   1   4    9.29    0.35
  -6  -1  -4    3.90    0.19
  -6  -1  -4    3.89    0.16
  -6  -1  -4    3.81    0.15
   6   1   4    3.87    0.15
   6   1   4    3.88    0.16
  -7  -1  -4    2.80    0.12
  -7  -1  -4    2.98    0.18
   7   1   4    3.05    0.14
   7   1   4    2.84    0.12
  -8  -1  -4    0.02    0.04
  -8  -1  -4    0.11    0.11
   8   1   4    0.02    0.05
   8   1   4    0.15    0.07
  -9  -1  -4    0.64    0.05
  -9  -1  -4    0.73    0.13
   9   1   4    0.74    0.06
   8  -2  -4    0.23    0.05
   8  -2  -4    0.16    0.09
  -8   2   4    0.22    0.12
   7  -2  -4    0.01    0.04
   7  -2  -4    0.00    0.08
  -7   2   4    0.04    0.04
   6  -2  -4    5.98    0.21
  -6   2   4    5.73    0.26
  -6   2   4    6.00    0.23
  -6   2   4    5.93    0.21
   5  -2  -4    9.26    0.32
   5  -2  -4    9.16    0.32
   5  -2  -4    9.06    0.38
  -5   2   4    9.54    0.33
  -5   2   4    9.20    0.35
  -5   2   4    8.30    0.41
  -5   2   4    9.30    0.32
   4  -2  -4    0.01    0.10
   4  -2  -4    0.05    0.08
   4  -2  -4    0.11    0.04
   4  -2  -4    0.07    0.02
  -4   2   4    0.06    0.12
  -4   2   4    0.08    0.04
  -4   2   4    0.09    0.02
  -4   2   4    0.26    0.07
  -4   2   4    0.08    0.03
   3  -2  -4   15.65    0.60
   3  -2  -4   15.64    0.59
  -3   2   4   16.03    0.59
  -3   2   4   17.38    0.64
  -3   2   4   14.88    0.56
   2  -2  -4   12.27    0.48
   2  -2  -4   12.47    0.48
  -2   2   4   13.84    0.52
  -2   2   4   12.42    0.48
   1  -2  -4   39.94    1.37
   1  -2  -4   38.40    1.38
  -1   2   4   41.04    1.40
  -1   2   4   39.57    1.37
   0  -2  -4   95.51    3.36
   0  -2  -4   91.21    3.13
   0   2   4   86.96    3.12
   0   2   4   93.46    3.12
  -1  -2  -4    2.72    0.12
  -1  -2  -4    2.85    0.11
  -1  -2  -4    2.93    0.10
  -1  -2  -4    2.86    0.17
  -1  -2  -4    2.85    0.13
  -1  -2  -4    2.89    0.10
   1   2   4    3.08    0.10
   1   2   4    2.84    0.10
   1   2   4    2.90    0.10
   1   2   4    2.91    0.17
   1   2   4    2.67    0.11
  -2  -2  -4  112.23    3.87
  -2  -2  -4  110.07    3.82
   2   2   4  113.37    3.84
  -3  -2  -4   40.15    1.38
   3   2   4   38.71    1.37
  -4  -2  -4    0.51    0.07
  -4  -2  -4    0.54    0.05
  -4  -2  -4    0.48    0.04
  -4  -2  -4    0.63    0.11
  -4  -2  -4    0.53    0.07
   4   2   4    0.37    0.09
   4   2   4    0.51    0.05
   4   2   4    0.53    0.03
   4   2   4    0.51    0.05
   4   2   4    0.49    0.04
   4   2   4    0.57    0.04
  -5  -2  -4   12.99    0.47
  -5  -2  -4   12.82    0.52
  -5  -2  -4   12.79    0.46
   5   2   4   13.51    0.50
   5   2   4   13.27    0.45
   5   2   4   13.37    0.47
   5   2   4   13.54    0.46
  -6  -2  -4    3.52    0.16
  -6  -2  -4    3.68    0.25
  -6  -2  -4    3.68    0.18
  -6  -2  -4    3.65    0.14
   6   2   4    3.54    0.14
   6   2   4    3.86    0.22
   6   2   4    3.70    0.15
  -7  -2  -4    3.19    0.19
  -7  -2  -4    3.08    0.12
   7   2   4    2.99    0.12
   7   2   4    3.15    0.14
  -8  -2  -4    3.54    0.22
  -8  -2  -4    3.29    0.13
   8   2   4    3.17    0.13
  -9  -2  -4    0.09    0.03
  -9  -2  -4    0.13    0.12
   9   2   4    0.07    0.05
   8  -3  -4    0.09    0.09
   8  -3  -4    0.09    0.05
  -8   3   4    0.14    0.16
  -8   3   4    0.06    0.05
   7  -3  -4    0.36    0.09
   7  -3  -4    0.33    0.05
  -7   3   4    0.35    0.14
  -7   3   4    0.43    0.05
   6  -3  -4    0.72    0.08
   6  -3  -4    0.87    0.07
  -6   3   4    0.81    0.13
  -6   3   4    0.91    0.07
   5  -3  -4    2.37    0.14
   5  -3  -4    2.44    0.10
  -5   3   4    2.51    0.12
  -5   3   4    2.47    0.20
  -5   3   4    2.58    0.11
   4  -3  -4    6.34    0.23
   4  -3  -4    6.80    0.23
   4  -3  -4    6.69    0.28
  -4   3   4    6.68    0.24
  -4   3   4    5.74    0.32
  -4   3   4    6.02    0.28
  -4   3   4    6.65    0.23
   3  -3  -4    9.70    0.35
   3  -3  -4   10.47    0.40
   3  -3  -4    9.91    0.42
   3  -3  -4   10.31    0.35
  -3   3   4   10.46    0.42
  -3   3   4   10.56    0.35
  -3   3   4   10.80    0.46
   2  -3  -4   88.81    3.03
   2  -3  -4   86.29    3.04
  -2   3   4   88.88    3.04
  -2   3   4   92.23    3.07
   1  -3  -4   11.96    0.44
   1  -3  -4   12.09    0.44
  -1   3   4   12.26    0.45
  -1   3   4   11.79    0.43
  -1   3   4    9.75    0.40
   0  -3  -4   30.60    1.07
   0  -3  -4   29.96    1.05
   0   3   4   31.07    1.07
   0   3   4   30.03    1.05
  -1  -3  -4   11.12    0.41
  -1  -3  -4   10.61    0.38
   1   3   4   10.38    0.41
   1   3   4   10.21    0.37
   1   3   4   11.07    0.38
  -2  -3  -4   18.62    0.64
  -2  -3  -4   16.60    0.60
   2   3   4   17.03    0.63
  -3  -3  -4   63.71    2.16
   3   3   4   61.86    2.15
  -4  -3  -4   21.08    0.77
   4   3   4   20.69    0.76
  -5  -3  -4    0.19    0.10
  -5  -3  -4    0.13    0.06
  -5  -3  -4    0.16    0.05
  -5  -3  -4    0.16    0.03
   5   3   4    0.10    0.03
   5   3   4    0.04    0.09
   5   3   4    0.17    0.03
  -6  -3  -4    0.90    0.12
  -6  -3  -4    1.06    0.14
  -6  -3  -4    0.85    0.06
  -6  -3  -4    1.09    0.10
   6   3   4    0.87    0.06
   6   3   4    0.78    0.12
   6   3   4    1.03    0.07
  -7  -3  -4    0.22    0.08
  -7  -3  -4    0.15    0.03
  -7  -3  -4    0.28    0.06
   7   3   4    0.16    0.04
  -8  -3  -4    2.21    0.18
  -8  -3  -4    2.17    0.09
   8   3   4    2.20    0.10
  -9  -3  -4    1.26    0.21
   9   3   4    0.85    0.08
   7  -4  -4    0.67    0.10
   7  -4  -4    0.70    0.06
  -7   4   4    0.98    0.10
  -7   4   4    0.32    0.18
   6  -4  -4    0.13    0.08
   6  -4  -4   -0.04    0.04
  -6   4   4   -0.21    0.15
  -6   4   4    0.09    0.05
   5  -4  -4    2.13    0.10
   5  -4  -4    2.21    0.14
  -5   4   4    2.31    0.11
   4  -4  -4    0.07    0.03
   4  -4  -4    0.16    0.06
  -4   4   4   -0.25    0.11
  -4   4   4    0.12    0.04
   3  -4  -4   13.31    0.54
   3  -4  -4   14.32    0.50
  -3   4   4   13.05    0.50
  -3   4   4   13.82    0.58
   2  -4  -4   71.37    2.37
   2  -4  -4   67.90    2.39
  -2   4   4   69.53    2.41
  -2   4   4   69.66    2.39
   1  -4  -4    0.11    0.06
   1  -4  -4    0.10    0.08
   1  -4  -4    0.08    0.03
   1  -4  -4    0.08    0.03
  -1   4   4    0.09    0.02
  -1   4   4    0.01    0.05
  -1   4   4    0.14    0.07
  -1   4   4    0.14    0.03
  -1   4   4    0.05    0.08
   0  -4  -4    0.50    0.05
   0  -4  -4    0.48    0.07
   0  -4  -4    0.50    0.04
   0  -4  -4    0.57    0.04
   0  -4  -4    0.46    0.08
   0   4   4    0.53    0.04
   0   4   4    0.52    0.07
   0   4   4    0.44    0.08
   0   4   4    0.42    0.05
   0   4   4    0.47    0.04
   0   4   4    0.52    0.03
  -1  -4  -4   18.68    0.65
  -1  -4  -4   17.21    0.63
   1   4   4   17.29    0.62
   1   4   4   17.81    0.65
  -2  -4  -4    0.22    0.03
  -2  -4  -4    0.11    0.06
  -2  -4  -4    0.24    0.08
  -2  -4  -4    0.18    0.02
  -2  -4  -4    0.18    0.04
   2   4   4    0.17    0.02
   2   4   4    0.18    0.04
   2   4   4    0.17    0.07
   2   4   4    0.19    0.02
   2   4   4    0.18    0.04
  -3  -4  -4   32.85    1.14
  -3  -4  -4   31.53    1.09
   3   4   4   32.14    1.09
   3   4   4   32.14    1.13
  -4  -4  -4   12.36    0.43
  -4  -4  -4   12.09    0.49
   4   4   4   12.71    0.42
   4   4   4   12.31    0.44
   4   4   4   12.49    0.49
  -5  -4  -4    2.53    0.22
  -5  -4  -4    2.35    0.12
  -5  -4  -4    2.40    0.10
   5   4   4    2.57    0.09
   5   4   4    2.24    0.19
  -6  -4  -4   12.50    0.45
   6   4   4   12.97    0.47
  -7  -4  -4    7.17    0.27
  -7  -4  -4    6.78    0.24
   7   4   4    6.88    0.30
   7   4   4    6.97    0.24
  -8  -4  -4    0.08    0.10
  -8  -4  -4    0.14    0.08
  -8  -4  -4   -0.05    0.02
   8   4   4   -0.05    0.04
   8   4   4   -0.24    0.11
  -9  -4  -4    0.40    0.12
   9   4   4    0.30    0.05
   9   4   4    0.03    0.14
   7  -5  -4    0.07    0.06
   7  -5  -4    0.03    0.09
  -7   5   4    0.14    0.06
   6  -5  -4   -0.01    0.08
   6  -5  -4   -0.03    0.05
  -6   5   4    0.08    0.06
   5  -5  -4    0.15    0.07
   5  -5  -4    0.11    0.04
  -5   5   4    0.08    0.05
  -4   5   4   32.96    1.17
   2  -5  -4    6.58    0.25
   2  -5  -4    7.09    0.29
   2  -5  -4    6.84    0.24
   2  -5  -4    6.54    0.32
   2  -5  -4    7.15    0.24
  -2   5   4    6.86    0.24
  -2   5   4    7.20    0.28
  -2   5   4    6.85    0.34
  -2   5   4    7.32    0.33
   1  -5  -4    9.51    0.39
   1  -5  -4    9.84    0.33
   1  -5  -4    9.41    0.37
   1  -5  -4    9.73    0.33
   1  -5  -4    9.43    0.33
   1  -5  -4    9.51    0.32
  -1   5   4    8.49    0.34
  -1   5   4    9.68    0.33
  -1   5   4    9.43    0.39
  -1   5   4    8.64    0.38
  -1   5   4    9.43    0.32
   0  -5  -4    3.34    0.12
   0  -5  -4    3.45    0.12
   0  -5  -4    3.53    0.13
   0  -5  -4    3.49    0.19
   0  -5  -4    3.44    0.13
   0  -5  -4    3.43    0.19
   0   5   4    3.41    0.13
   0   5   4    3.40    0.19
   0   5   4    3.30    0.12
   0   5   4    3.19    0.19
   0   5   4    3.06    0.15
  -1  -5  -4   72.13    2.55
  -1  -5  -4   78.52    2.55
   1   5   4   73.02    2.55
   1   5   4   74.41    2.54
  -2  -5  -4  141.36    4.63
  -2  -5  -4  126.63    4.59
   2   5   4  138.01    4.60
   2   5   4  135.00    4.63
  -3  -5  -4   19.89    0.71
   3   5   4   20.14    0.69
   3   5   4   19.70    0.73
  -4  -5  -4    6.92    0.26
  -4  -5  -4    7.25    0.27
  -4  -5  -4    7.31    0.25
  -4  -5  -4    7.42    0.34
   4   5   4    7.14    0.25
   4   5   4    7.13    0.26
   4   5   4    7.23    0.33
  -5  -5  -4    3.86    0.17
  -5  -5  -4    3.96    0.26
  -5  -5  -4    4.02    0.15
   5   5   4    4.04    0.14
  -6  -5  -4    3.79    0.14
  -6  -5  -4    3.79    0.18
   6   5   4    3.94    0.19
   6   5   4    3.89    0.14
  -7  -5  -4   12.52    0.44
  -7  -5  -4   11.58    0.41
   7   5   4   12.23    0.41
   7   5   4   12.07    0.46
  -8  -5  -4   10.21    0.37
  -8  -5  -4    9.60    0.33
  -8  -5  -4    9.08    0.33
   8   5   4   10.09    0.40
   8   5   4    9.96    0.34
  -9  -5  -4    0.17    0.09
   9   5   4    0.01    0.13
   9   5   4    0.04    0.04
   6  -6  -4    1.43    0.11
   6  -6  -4    1.29    0.16
  -6   6   4    0.83    0.22
  -6   6   4    1.52    0.12
   5  -6  -4    1.20    0.14
   5  -6  -4    1.15    0.09
  -5   6   4    1.09    0.19
  -5   6   4    1.36    0.11
   4  -6  -4    2.72    0.15
   4  -6  -4    2.79    0.12
  -4   6   4    2.80    0.13
  -4   6   4    3.14    0.26
   3  -6  -4    0.34    0.04
   3  -6  -4    0.15    0.06
  -3   6   4    0.23    0.10
  -3   6   4    0.16    0.05
   2  -6  -4   33.95    1.18
   1  -6  -4    7.40    0.27
   1  -6  -4    7.76    0.27
   1  -6  -4    7.71    0.26
   1  -6  -4    7.08    0.35
   1  -6  -4    7.53    0.27
   1  -6  -4    7.45    0.31
  -1   6   4    7.72    0.35
  -1   6   4    7.44    0.34
  -1   6   4    7.11    0.29
  -1   6   4    7.52    0.26
  -1   6   4    7.60    0.26
   0  -6  -4    3.49    0.13
   0  -6  -4    3.65    0.14
   0  -6  -4    3.44    0.13
   0  -6  -4    3.66    0.20
   0  -6  -4    3.52    0.14
   0  -6  -4    3.58    0.22
   0   6   4    3.56    0.13
   0   6   4    3.53    0.13
   0   6   4    3.27    0.21
   0   6   4    3.41    0.22
   0   6   4    3.41    0.16
  -1  -6  -4   27.79    1.00
  -1  -6  -4   28.79    0.99
   1   6   4   28.53    0.99
   1   6   4   26.31    0.99
  -2  -6  -4    0.04    0.10
  -2  -6  -4    0.06    0.04
  -2  -6  -4   -0.01    0.03
  -2  -6  -4    0.07    0.03
  -2  -6  -4    0.03    0.09
  -2  -6  -4    0.07    0.02
   2   6   4    0.03    0.03
   2   6   4    0.06    0.03
   2   6   4    0.11    0.05
   2   6   4    0.17    0.07
   2   6   4    0.04    0.09
  -3  -6  -4   14.88    0.59
  -3  -6  -4   15.83    0.60
   3   6   4   15.91    0.55
   3   6   4   15.93    0.56
   3   6   4   14.97    0.60
  -4  -6  -4    5.07    0.23
  -4  -6  -4    4.97    0.28
  -4  -6  -4    4.83    0.18
  -4  -6  -4    5.02    0.20
   4   6   4    4.90    0.21
   4   6   4    4.84    0.17
   4   6   4    4.96    0.21
  -5  -6  -4    5.77    0.21
  -5  -6  -4    5.73    0.23
   5   6   4    5.88    0.20
   5   6   4    5.89    0.24
  -6  -6  -4   13.40    0.48
   6   6   4   13.24    0.48
   6   6   4   13.05    0.45
  -7  -6  -4    2.57    0.11
  -7  -6  -4    2.76    0.17
   7   6   4    2.69    0.18
   7   6   4    2.74    0.11
  -8  -6  -4    7.12    0.29
   8   6   4    6.78    0.24
   8   6   4    6.71    0.31
  -9  -6  -4    0.15    0.10
   9   6   4    0.10    0.13
   9   6   4    0.02    0.04
   5  -7  -4    0.28    0.09
   5  -7  -4    0.21    0.06
  -5   7   4    0.25    0.07
  -5   7   4   -0.21    0.17
   4  -7  -4    1.11    0.10
   4  -7  -4    1.19    0.13
  -4   7   4    1.24    0.11
  -4   7   4    1.29    0.17
   3  -7  -4    4.47    0.20
   3  -7  -4    4.54    0.18
  -3   7   4    4.66    0.19
  -3   7   4    5.08    0.26
   2  -7  -4    0.07    0.06
   2  -7  -4    0.06    0.04
  -2   7   4    0.07    0.09
  -2   7   4    0.04    0.04
   1  -7  -4    4.11    0.16
   1  -7  -4    4.34    0.22
   1  -7  -4    4.27    0.17
   1  -7  -4    4.24    0.16
  -1   7   4    4.28    0.16
  -1   7   4    4.28    0.20
  -1   7   4    4.51    0.26
   0  -7  -4    4.10    0.27
   0  -7  -4    4.39    0.23
   0  -7  -4    4.36    0.17
   0  -7  -4    4.46    0.17
   0  -7  -4    4.17    0.17
   0  -7  -4    4.32    0.16
   0   7   4    4.20    0.25
   0   7   4    4.46    0.16
   0   7   4    4.21    0.19
   0   7   4    4.29    0.16
  -1  -7  -4    9.70    0.33
  -1  -7  -4    9.40    0.33
  -1  -7  -4    9.95    0.40
  -1  -7  -4    9.65    0.34
  -1  -7  -4    9.17    0.43
   1   7   4    9.49    0.36
   1   7   4    9.27    0.40
   1   7   4    9.20    0.40
   1   7   4    9.47    0.33
   1   7   4    9.53    0.33
  -2  -7  -4   13.70    0.55
  -2  -7  -4   13.14    0.52
   2   7   4   12.63    0.52
   2   7   4   13.85    0.51
   2   7   4   12.97    0.47
  -3  -7  -4    7.02    0.39
  -3  -7  -4    8.41    0.29
  -3  -7  -4    8.37    0.30
   3   7   4    8.53    0.34
   3   7   4    8.16    0.31
   3   7   4    8.21    0.28
  -4  -7  -4    2.16    0.10
  -4  -7  -4    2.20    0.12
   4   7   4    2.17    0.09
   4   7   4    2.20    0.16
   4   7   4    2.09    0.15
  -5  -7  -4    2.53    0.11
  -5  -7  -4    2.54    0.14
   5   7   4    2.55    0.16
   5   7   4    2.56    0.10
  -6  -7  -4    5.93    0.21
  -6  -7  -4    5.97    0.25
   6   7   4    5.97    0.26
   6   7   4    5.99    0.21
  -7  -7  -4    4.65    0.18
  -7  -7  -4    4.99    0.23
   7   7   4    4.84    0.24
   7   7   4    4.81    0.18
  -8  -7  -4    0.08    0.10
  -8  -7  -4    0.09    0.03
   8   7   4    0.09    0.11
   8   7   4    0.07    0.04
  -9  -7  -4    0.22    0.11
   9   7   4    0.18    0.13
   9   7   4    0.12    0.04
   5  -8  -4    0.77    0.11
   5  -8  -4    0.80    0.08
  -5   8   4    0.75    0.08
  -5   8   4    0.73    0.18
   4  -8  -4    2.02    0.12
   4  -8  -4    2.06    0.16
  -4   8   4    2.03    0.14
  -4   8   4    2.03    0.27
   3  -8  -4    0.03    0.05
   3  -8  -4    0.08    0.07
  -3   8   4   -0.09    0.11
  -3   8   4    0.02    0.06
   2  -8  -4    5.35    0.22
   2  -8  -4    5.27    0.20
  -2   8   4    5.19    0.21
  -2   8   4    5.56    0.26
   1  -8  -4    3.19    0.15
  -1   8   4    3.21    0.14
  -1   8   4    3.34    0.19
   0  -8  -4    0.09    0.05
   0  -8  -4    0.12    0.09
   0  -8  -4    0.00    0.05
   0  -8  -4   -0.01    0.04
   0   8   4   -0.02    0.04
   0   8   4   -0.01    0.07
   0   8   4    0.03    0.11
  -1  -8  -4    1.40    0.09
  -1  -8  -4    1.42    0.09
  -1  -8  -4    1.38    0.14
   1   8   4    1.38    0.08
   1   8   4    1.43    0.14
  -2  -8  -4    0.50    0.17
  -2  -8  -4    0.39    0.05
  -2  -8  -4    0.32    0.06
   2   8   4    0.41    0.08
   2   8   4    0.51    0.12
   2   8   4    0.40    0.04
  -3  -8  -4    4.16    0.16
  -3  -8  -4    3.94    0.33
  -3  -8  -4    4.04    0.18
   3   8   4    4.06    0.15
   3   8   4    4.26    0.24
   3   8   4    3.90    0.20
  -4  -8  -4    5.46    0.20
  -4  -8  -4    5.44    0.22
   4   8   4    5.41    0.24
   4   8   4    5.47    0.20
  -5  -8  -4    3.76    0.15
  -5  -8  -4    3.80    0.18
   5   8   4    3.72    0.14
   5   8   4    3.79    0.20
  -6  -8  -4    0.39    0.05
  -6  -8  -4    0.46    0.09
   6   8   4    0.35    0.04
   6   8   4    0.43    0.10
  -7  -8  -4    0.44    0.05
  -7  -8  -4    0.43    0.10
   7   8   4    0.39    0.05
   7   8   4    0.42    0.10
  -8  -8  -4   -0.01    0.04
  -8  -8  -4    0.04    0.10
   8   8   4    0.02    0.11
   8   8   4   -0.03    0.04
   4  -9  -4    0.01    0.10
  -4   9   4   -0.03    0.07
  -4   9   4   -0.20    0.15
   3  -9  -4    0.32    0.09
  -3   9   4    0.28    0.13
  -3   9   4    0.23    0.07
   2  -9  -4    0.86    0.09
  -2   9   4    0.90    0.11
  -2   9   4    0.87    0.13
   1  -9  -4    7.16    0.28
  -1   9   4    7.25    0.31
  -1  -9  -4   10.91    0.39
  -1  -9  -4   11.16    0.39
   1   9   4   11.21    0.42
   1   9   4   10.95    0.38
  -2  -9  -4    0.47    0.05
  -2  -9  -4    0.43    0.06
   2   9   4    0.34    0.04
   2   9   4    0.51    0.09
  -3  -9  -4   -0.02    0.06
  -3  -9  -4   -0.02    0.04
   3   9   4    0.00    0.08
   3   9   4   -0.01    0.04
  -4  -9  -4    3.17    0.17
  -4  -9  -4    3.31    0.14
   4   9   4    3.25    0.19
   4   9   4    3.24    0.13
  -5  -9  -4   17.38    0.61
  -5  -9  -4   17.14    0.59
   5   9   4   16.88    0.62
   5   9   4   17.41    0.59
  -6  -9  -4    2.79    0.18
  -6  -9  -4    2.65    0.12
   6   9   4    2.81    0.20
   6   9   4    2.63    0.12
  -7  -9  -4    0.36    0.05
  -7  -9  -4    0.42    0.10
   7   9   4    0.30    0.05
   7   9   4    0.43    0.11
  -8  -9  -4    0.74    0.08
  -8  -9  -4    0.91    0.12
   8   9   4    0.75    0.13
   8   9   4    0.71    0.06
   2 -10  -4    0.11    0.09
  -2  10   4    0.02    0.13
  -1  10   4    1.84    0.21
   0  10   4    1.59    0.20
  -1 -10  -4    0.63    0.07
  -1 -10  -4    0.58    0.07
   1  10   4    0.69    0.11
  -2 -10  -4    1.02    0.11
  -2 -10  -4    1.03    0.10
   2  10   4    1.16    0.16
   2  10   4    1.01    0.09
  -3 -10  -4    0.58    0.06
  -3 -10  -4    0.58    0.08
   3  10   4    0.66    0.11
   3  10   4    0.64    0.06
  -4 -10  -4    3.80    0.16
  -4 -10  -4    3.89    0.19
   4  10   4    3.64    0.15
   4  10   4    3.77    0.22
  -5 -10  -4    1.32    0.10
  -5 -10  -4    1.58    0.15
   5  10   4    1.35    0.09
   5  10   4    1.52    0.18
  -6 -10  -4    0.11    0.10
  -6 -10  -4    0.12    0.05
   6  10   4    0.09    0.05
   6  10   4    0.11    0.11
  -7 -10  -4    0.17    0.06
  -7 -10  -4    0.26    0.11
   7  10   4    0.22    0.05
   7  10   4    0.27    0.12
   0  11   4    0.17    0.13
   1  11   4    1.75    0.22
  -2 -11  -4    3.67    0.17
  -2 -11  -4    3.58    0.18
   2  11   4    3.81    0.23
  -3 -11  -4    0.80    0.07
  -3 -11  -4    0.70    0.09
   3  11   4    0.70    0.12
   3  11   4    0.77    0.07
  -4 -11  -4    1.66    0.12
  -4 -11  -4    1.65    0.15
   4  11   4    1.68    0.11
   4  11   4    1.90    0.20
  -5 -11  -4    1.47    0.12
  -5 -11  -4    1.64    0.16
   5  11   4    1.75    0.19
   5  11   4    1.55    0.11
  -6 -11  -4    0.94    0.12
  -6 -11  -4    0.83    0.08
   6  11   4    0.90    0.07
   6  11   4    1.01    0.13
   5   7  -5    3.27    0.22
   5   7  -5    3.38    0.16
  -5  -7   5    3.22    0.23
  -5  -7   5    3.12    0.16
   4   7  -5    1.38    0.12
   4   7  -5    1.39    0.18
  -4  -7   5    1.25    0.12
  -4  -7   5    1.29    0.14
   3   7  -5    0.06    0.06
   3   7  -5    0.03    0.10
  -3  -7   5   -0.09    0.11
  -3  -7   5   -0.01    0.06
   2   7  -5    2.01    0.12
   2   7  -5    2.15    0.17
  -2  -7   5    1.54    0.20
  -2  -7   5    1.92    0.14
   1   7  -5    0.93    0.11
  -1  -7   5    0.93    0.08
  -1  -7   5    0.83    0.13
   0  -7   5    0.73    0.12
   1  -7   5    3.36    0.24
   6   6  -5    0.20    0.11
   6   6  -5    0.20    0.06
  -6  -6   5    0.04    0.11
  -6  -6   5    0.15    0.05
   5   6  -5   -0.01    0.10
   5   6  -5    0.02    0.05
  -5  -6   5    0.00    0.11
  -5  -6   5   -0.01    0.06
   4   6  -5    0.42    0.06
   4   6  -5    0.44    0.10
  -4  -6   5    0.25    0.11
  -4  -6   5    0.30    0.06
   3   6  -5    1.41    0.16
   3   6  -5    1.32    0.10
  -3  -6   5    1.50    0.11
  -3  -6   5    1.34    0.17
   2   6  -5    0.14    0.05
   2   6  -5   -0.01    0.09
  -2  -6   5   -0.08    0.10
  -2  -6   5    0.04    0.06
   1   6  -5    0.45    0.09
   1   6  -5    0.46    0.06
  -1  -6   5    0.37    0.07
  -1  -6   5    0.39    0.11
   0   6  -5    0.62    0.09
   0  -6   5    0.59    0.11
   0  -6   5    0.46    0.07
   1  -6   5    0.16    0.11
   2  -6   5    0.12    0.10
   3  -6   5    0.49    0.11
   7   5  -5    0.43    0.05
   7   5  -5    0.37    0.12
  -7  -5   5    0.39    0.03
  -7  -5   5    0.44    0.11
   6   5  -5    1.86    0.18
   6   5  -5    1.68    0.10
  -6  -5   5    1.86    0.17
  -6  -5   5    1.66    0.10
   5   5  -5    0.25    0.05
   5   5  -5    0.25    0.09
  -5  -5   5    0.13    0.09
  -5  -5   5    0.19    0.05
   4   5  -5    0.86    0.08
   4   5  -5    0.71    0.10
  -4  -5   5    0.69    0.06
  -4  -5   5    0.76    0.10
   3   5  -5    0.46    0.05
   3   5  -5    0.47    0.09
  -3  -5   5    0.41    0.09
  -3  -5   5    0.48    0.06
   2   5  -5    0.64    0.05
   2   5  -5    0.51    0.09
  -2  -5   5    0.54    0.06
  -2  -5   5    0.35    0.09
   1   5  -5    2.39    0.16
   1   5  -5    2.36    0.12
  -1  -5   5    2.47    0.17
  -1  -5   5    2.44    0.13
   0   5  -5    0.56    0.05
   0   5  -5    0.47    0.08
   0  -5   5    0.43    0.09
   0  -5   5    0.57    0.06
  -1   5  -5    1.20    0.14
   1  -5   5    1.25    0.15
   1  -5   5    1.11    0.11
   2  -5   5    0.63    0.10
  -3   5  -5    0.10    0.06
  -3   5  -5    0.05    0.08
   3  -5   5    0.14    0.09
  -4   5  -5    1.56    0.17
  -4   5  -5    1.96    0.13
   4  -5   5    2.07    0.19
   8   4  -5    0.34    0.05
   8   4  -5    0.38    0.12
  -8  -4   5    0.30    0.10
   7   4  -5    0.89    0.08
   7   4  -5    0.87    0.12
  -7  -4   5    0.95    0.11
   6   4  -5    1.79    0.09
   6   4  -5    1.86    0.17
  -6  -4   5    1.65    0.09
  -6  -4   5    1.83    0.16
   5   4  -5    5.13    0.24
   5   4  -5    5.24    0.19
  -5  -4   5    5.25    0.23
  -5  -4   5    5.05    0.19
   4   4  -5    0.23    0.08
   4   4  -5    0.27    0.04
  -4  -4   5    0.26    0.05
  -4  -4   5    0.15    0.08
  -3  -4   5   22.02    0.77
   2   4  -5   19.76    0.69
   2   4  -5   20.14    0.70
  -2  -4   5   20.62    0.70
   1   4  -5    0.84    0.12
   1   4  -5    0.76    0.07
  -1  -4   5    0.78    0.09
  -1  -4   5    0.72    0.08
   0   4  -5    2.69    0.12
   0   4  -5    2.67    0.15
   0  -4   5    2.63    0.15
   0  -4   5    2.67    0.13
  -1   4  -5    1.52    0.13
  -1   4  -5    1.71    0.20
   1  -4   5    1.47    0.14
   1  -4   5    1.49    0.10
  -2   4  -5    4.05    0.18
  -2   4  -5    4.19    0.17
  -2   4  -5    4.49    0.20
   2  -4   5    4.28    0.20
  -3   4  -5    7.59    0.28
  -3   4  -5    7.18    0.29
   3  -4   5    7.92    0.30
  -4   4  -5    0.57    0.09
  -4   4  -5    0.65    0.07
   4  -4   5    0.62    0.10
   4  -4   5    0.67    0.07
  -5   4  -5    0.53    0.11
  -5   4  -5    0.47    0.08
   5  -4   5    0.60    0.10
   5  -4   5    0.38    0.06
   8   3  -5    0.13    0.04
   8   3  -5    0.24    0.11
  -8  -3   5    0.18    0.10
   7   3  -5    2.93    0.12
   7   3  -5    3.20    0.20
  -7  -3   5    2.99    0.18
   6   3  -5    4.15    0.16
   6   3  -5    4.35    0.21
  -6  -3   5    4.28    0.20
  -6  -3   5    4.05    0.15
   5   3  -5    0.04    0.04
   5   3  -5    0.11    0.08
  -5  -3   5    0.10    0.07
  -5  -3   5   -0.02    0.04
   4   3  -5    5.82    0.24
   4   3  -5    5.62    0.20
  -4  -3   5    5.61    0.23
  -4  -3   5    5.45    0.20
   3   3  -5    1.14    0.07
   3   3  -5    0.95    0.11
  -3  -3   5    0.97    0.07
  -3  -3   5    0.85    0.11
  -2  -3   5   19.79    0.69
   1   3  -5   54.68    1.92
  -1  -3   5   54.40    1.94
   0   3  -5   26.10    0.96
   0  -3   5   25.00    0.94
  -1   3  -5   32.18    1.12
  -1   3  -5   27.91    1.00
   1  -3   5   30.10    1.07
   1  -3   5   28.33    1.07
  -2   3  -5    0.53    0.09
  -2   3  -5    0.60    0.20
  -2   3  -5    0.68    0.07
  -2   3  -5    0.56    0.09
   2  -3   5    0.63    0.07
   2  -3   5    0.48    0.05
   2  -3   5    0.68    0.14
   2  -3   5    0.48    0.11
  -3   3  -5    2.81    0.13
  -3   3  -5    2.74    0.15
   3  -3   5    3.00    0.16
   3  -3   5    2.75    0.12
  -4   3  -5    7.83    0.29
  -4   3  -5    7.78    0.31
   4  -3   5    7.63    0.30
   4  -3   5    7.66    0.28
  -5   3  -5    1.30    0.16
  -5   3  -5    1.46    0.12
   5  -3   5    1.56    0.11
   5  -3   5    1.47    0.15
  -6   3  -5    0.21    0.11
  -6   3  -5    0.38    0.08
   6  -3   5    0.24    0.10
   6  -3   5    0.24    0.06
   8   2  -5    0.03    0.04
   8   2  -5    0.07    0.10
  -8  -2   5    0.13    0.09
   7   2  -5    0.00    0.04
   7   2  -5    0.09    0.09
  -7  -2   5    0.03    0.08
   6   2  -5    0.39    0.08
   6   2  -5    0.45    0.04
  -6  -2   5    0.47    0.05
  -6  -2   5    0.39    0.08
   5   2  -5    0.05    0.03
   5   2  -5    0.01    0.07
  -5  -2   5    0.05    0.07
  -5  -2   5    0.02    0.03
   4   2  -5    3.32    0.13
   4   2  -5    3.27    0.16
  -4  -2   5    3.51    0.16
  -4  -2   5    3.29    0.13
   3   2  -5   14.08    0.50
  -3  -2   5   14.51    0.50
   2   2  -5    7.65    0.28
   2   2  -5    7.43    0.37
   2   2  -5    7.56    0.26
  -2  -2   5    7.35    0.28
  -2  -2   5    7.78    0.36
  -2  -2   5    7.79    0.27
   1   2  -5    0.66    0.06
   1   2  -5    0.84    0.12
   1   2  -5    0.87    0.15
   1   2  -5    0.79    0.06
   1   2  -5    0.69    0.10
  -1  -2   5    0.62    0.13
  -1  -2   5    0.67    0.12
  -1  -2   5    0.68    0.06
  -1  -2   5    0.68    0.08
   0   2  -5    7.20    0.37
   0   2  -5    6.83    0.33
   0   2  -5    7.24    0.25
   0   2  -5    7.21    0.27
   0   2  -5    7.24    0.25
   0  -2   5    7.60    0.34
   0  -2   5    7.36    0.26
   0  -2   5    7.10    0.27
   0  -2   5    6.96    0.25
   0  -2   5    6.73    0.33
  -1   2  -5    1.92    0.09
  -1   2  -5    1.72    0.13
  -1   2  -5    2.35    0.22
  -1   2  -5    1.97    0.09
  -1   2  -5    1.87    0.10
  -1   2  -5    2.15    0.20
   1  -2   5    1.75    0.19
   1  -2   5    2.09    0.19
   1  -2   5    1.90    0.11
   1  -2   5    1.94    0.09
   1  -2   5    2.00    0.10
  -2   2  -5    0.61    0.08
  -2   2  -5    0.84    0.14
  -2   2  -5    0.85    0.09
  -2   2  -5    0.66    0.06
  -2   2  -5    0.49    0.20
   2  -2   5    0.55    0.06
   2  -2   5    0.57    0.04
   2  -2   5    0.58    0.12
   2  -2   5    0.80    0.07
   2  -2   5    0.74    0.11
  -3   2  -5   13.63    0.70
  -3   2  -5   12.92    0.54
  -3   2  -5   14.74    0.51
  -3   2  -5   17.19    0.63
  -3   2  -5   15.17    0.52
   3  -2   5   14.79    0.51
   3  -2   5   15.40    0.56
   3  -2   5   14.71    0.52
   3  -2   5   14.75    0.58
  -4   2  -5   -0.01    0.05
  -4   2  -5   -0.02    0.07
   4  -2   5    0.00    0.04
   4  -2   5    0.01    0.06
  -5   2  -5    3.20    0.15
  -5   2  -5    3.01    0.19
   5  -2   5    3.19    0.14
   5  -2   5    3.21    0.17
  -6   2  -5    0.34    0.07
  -6   2  -5    0.18    0.10
   6  -2   5    0.38    0.09
   6  -2   5    0.33    0.06
  -7   2  -5    0.28    0.08
  -7   2  -5    0.21    0.12
   7  -2   5    0.22    0.07
   7  -2   5    0.40    0.10
   8   1  -5    0.69    0.05
  -8  -1   5    0.81    0.10
   7   1  -5    0.22    0.08
   7   1  -5    0.22    0.04
  -7  -1   5    0.19    0.08
   6   1  -5    0.25    0.07
  -6  -1   5    0.36    0.07
   5   1  -5    0.11    0.07
   5   1  -5    0.16    0.03
  -5  -1   5    0.17    0.03
  -5  -1   5    0.14    0.06
   4   1  -5    8.46    0.32
   4   1  -5    8.82    0.30
  -4  -1   5    8.63    0.31
  -4  -1   5    8.69    0.30
   3   1  -5   22.30    0.82
   3   1  -5   21.45    0.82
  -3  -1   5   22.19    0.81
   2   1  -5   34.69    1.27
   2   1  -5   35.36    1.25
  -2  -1   5   34.42    1.25
  -2  -1   5   37.08    1.28
   1   1  -5    0.06    0.02
   1   1  -5    0.05    0.08
   1   1  -5    0.06    0.10
   1   1  -5    0.07    0.03
   1   1  -5    0.00    0.05
  -1  -1   5    0.06    0.11
  -1  -1   5    0.10    0.04
  -1  -1   5    0.06    0.03
  -1  -1   5    0.07    0.02
  -1  -1   5    0.02    0.09
   0   1  -5    4.56    0.23
   0   1  -5    4.62    0.17
   0   1  -5    4.71    0.19
   0   1  -5    4.77    0.17
   0   1  -5    4.56    0.17
   0   1  -5    5.04    0.29
   0  -1   5    4.79    0.17
   0  -1   5    4.66    0.18
   0  -1   5    5.19    0.27
   0  -1   5    4.48    0.24
   0  -1   5    4.61    0.17
  -1   1  -5    0.10    0.13
  -1   1  -5    0.02    0.06
  -1   1  -5    0.05    0.03
  -1   1  -5    0.11    0.09
  -1   1  -5    0.04    0.03
   1  -1   5   -0.14    0.07
   1  -1   5    0.05    0.04
   1  -1   5    0.02    0.03
   1  -1   5    0.00    0.03
   1  -1   5    0.04    0.09
  -2   1  -5   13.17    0.45
  -2   1  -5   11.75    0.47
  -2   1  -5   14.03    0.52
  -2   1  -5   13.21    0.60
  -2   1  -5   13.31    0.45
   2  -1   5   13.72    0.51
   2  -1   5   14.01    0.46
   2  -1   5   13.85    0.51
   2  -1   5   13.17    0.45
   2  -1   5   12.31    0.46
  -3   1  -5   25.76    0.89
  -3   1  -5   22.78    0.95
  -3   1  -5   22.07    0.83
   3  -1   5   23.79    0.86
   3  -1   5   24.76    0.86
  -4   1  -5    0.01    0.06
  -4   1  -5    0.14    0.07
  -4   1  -5    0.03    0.04
   4  -1   5    0.07    0.05
   4  -1   5    0.06    0.04
   4  -1   5    0.04    0.09
   4  -1   5    0.01    0.11
  -5   1  -5    2.02    0.11
  -5   1  -5    2.01    0.15
   5  -1   5    2.19    0.11
   5  -1   5    2.15    0.13
  -6   1  -5    0.31    0.10
  -6   1  -5    0.43    0.06
   6  -1   5    0.43    0.06
   6  -1   5    0.37    0.08
  -7   1  -5   -0.04    0.11
  -7   1  -5    0.06    0.06
   7  -1   5    0.05    0.08
   7  -1   5    0.03    0.06
   8   0  -5    0.15    0.04
  -8   0   5    0.27    0.09
   7   0  -5    1.83    0.14
   7   0  -5    1.73    0.09
  -7   0   5    1.93    0.15
   6   0  -5    0.09    0.03
   6   0  -5    0.13    0.07
  -6   0   5    0.17    0.07
   5   0  -5    9.22    0.35
   5   0  -5    9.72    0.33
  -5   0   5    9.55    0.35
  -5   0   5    9.82    0.33
   4   0  -5   25.98    0.95
   3   0  -5    0.07    0.09
   3   0  -5   -0.01    0.09
   3   0  -5    0.08    0.03
   3   0  -5    0.05    0.05
   3   0  -5    0.00    0.10
  -3   0   5    0.07    0.04
  -3   0   5    0.09    0.14
  -3   0   5    0.11    0.03
   2   0  -5   82.28    2.96
   2   0  -5   84.34    2.95
   2   0  -5   86.22    2.95
  -2   0   5   91.43    2.98
  -2   0   5   86.85    2.95
   1   0  -5    2.30    0.17
   1   0  -5    2.29    0.16
   1   0  -5    2.45    0.09
   1   0  -5    2.36    0.09
   1   0  -5    2.27    0.11
   1   0  -5    2.64    0.21
  -1   0   5    2.62    0.09
  -1   0   5    2.44    0.10
  -1   0   5    2.27    0.16
  -1   0   5    2.42    0.11
  -1   0   5    2.72    0.19
   0   0  -5   10.44    0.41
   0   0  -5   10.86    0.37
   0   0  -5   10.07    0.38
   0   0  -5   11.50    0.46
   0   0  -5   10.87    0.37
   0   0   5   10.54    0.37
   0   0   5   10.98    0.44
   0   0   5   10.78    0.37
   0   0   5   10.66    0.41
   0   0   5   10.87    0.37
  -1   0  -5   94.27    3.18
  -1   0  -5   90.86    3.13
   1   0   5   91.17    3.14
   1   0   5   91.63    3.14
  -2   0  -5   16.98    0.60
  -2   0  -5   14.28    0.56
  -2   0  -5   16.05    0.67
   2   0   5   17.02    0.61
   2   0   5   16.54    0.58
  -3   0  -5    6.08    0.36
  -3   0  -5    5.81    0.21
  -3   0  -5    5.81    0.22
  -3   0  -5    5.91    0.29
  -3   0  -5    5.65    0.24
   3   0   5    5.77    0.22
   3   0   5    6.03    0.21
   3   0   5    6.00    0.28
   3   0   5    6.07    0.25
   3   0   5    5.85    0.21
  -4   0  -5   15.22    0.61
  -4   0  -5   14.43    0.54
  -4   0  -5   15.28    0.64
   4   0   5   16.05    0.57
   4   0   5   14.84    0.53
   4   0   5   16.52    0.58
   4   0   5   15.82    0.53
  -5   0  -5    0.03    0.07
  -5   0  -5    0.19    0.06
  -5   0  -5    0.09    0.04
   5   0   5    0.10    0.05
   5   0   5    0.11    0.04
  -6   0  -5    5.93    0.26
  -6   0  -5    5.94    0.22
   6   0   5    6.02    0.22
   6   0   5    6.05    0.24
  -7   0  -5    2.59    0.19
  -7   0  -5    2.64    0.13
   7   0   5    2.73    0.16
   7   0   5    2.77    0.13
  -8   0  -5    0.00    0.06
  -8   0  -5    0.05    0.12
   8   0   5   -0.02    0.08
   8   0   5    0.02    0.06
   8  -1  -5    1.32    0.09
  -8   1   5    1.49    0.16
   7  -1  -5    0.30    0.04
  -7   1   5    0.25    0.08
  -7   1   5    0.28    0.04
   6  -1  -5    1.07    0.11
   6  -1  -5    0.97    0.06
  -6   1   5    1.02    0.06
  -6   1   5    0.97    0.12
   5  -1  -5    0.39    0.13
   5  -1  -5    0.38    0.06
   5  -1  -5    0.40    0.03
  -5   1   5    0.37    0.06
  -5   1   5    0.38    0.04
  -5   1   5    0.61    0.09
   4  -1  -5   15.03    0.54
   4  -1  -5   15.84    0.61
  -4   1   5   17.28    0.68
  -4   1   5   14.91    0.54
   3  -1  -5   53.81    1.96
   3  -1  -5   55.39    1.97
   3  -1  -5   56.52    1.97
  -3   1   5   61.07    2.02
   2  -1  -5    6.61    0.25
   2  -1  -5    6.74    0.30
   2  -1  -5    7.27    0.24
   2  -1  -5    6.56    0.30
   2  -1  -5    6.89    0.32
   2  -1  -5    7.13    0.24
  -2   1   5    6.74    0.24
  -2   1   5    7.12    0.35
  -2   1   5    7.07    0.24
  -2   1   5    7.02    0.24
  -2   1   5    5.85    0.24
   1  -1  -5   11.21    0.38
   1  -1  -5   11.16    0.43
   1  -1  -5   11.07    0.46
   1  -1  -5   10.53    0.39
   1  -1  -5   11.34    0.43
  -1   1   5   11.32    0.38
  -1   1   5   12.24    0.47
   0  -1  -5   94.13    3.44
   0  -1  -5   96.64    3.29
   0  -1  -5   96.60    3.25
   0   1   5   97.73    3.28
   0   1   5   93.90    3.26
  -1  -1  -5    9.37    0.33
  -1  -1  -5    9.36    0.42
  -1  -1  -5    9.57    0.32
  -1  -1  -5    9.38    0.36
  -1  -1  -5    8.32    0.33
   1   1   5    9.72    0.33
   1   1   5    9.39    0.33
   1   1   5    9.58    0.32
   1   1   5   10.35    0.39
   1   1   5    9.44    0.33
   1   1   5    9.69    0.36
  -2  -1  -5   93.32    3.25
  -2  -1  -5   93.71    3.14
   2   1   5   87.73    3.10
   2   1   5   89.44    3.11
  -3  -1  -5   19.69    0.75
  -3  -1  -5   17.91    0.69
   3   1   5   19.65    0.71
   3   1   5   20.30    0.68
  -4  -1  -5    3.70    0.16
  -4  -1  -5    3.74    0.14
  -4  -1  -5    3.92    0.16
  -4  -1  -5    3.47    0.19
  -4  -1  -5    3.51    0.27
   4   1   5    3.73    0.14
   4   1   5    3.75    0.17
   4   1   5    3.62    0.22
   4   1   5    3.65    0.15
  -5  -1  -5   12.84    0.48
  -5  -1  -5   13.76    0.47
  -5  -1  -5   12.68    0.56
  -5  -1  -5   13.89    0.48
   5   1   5   13.92    0.46
   5   1   5   13.79    0.52
   5   1   5   13.63    0.47
  -6  -1  -5    0.81    0.08
  -6  -1  -5    0.86    0.13
   6   1   5    0.93    0.09
   6   1   5    0.75    0.07
  -7  -1  -5    1.92    0.11
  -7  -1  -5    2.04    0.17
   7   1   5    1.97    0.11
   7   1   5    2.06    0.13
  -8  -1  -5    1.24    0.19
  -8  -1  -5    1.06    0.10
   8   1   5    1.19    0.10
   8  -2  -5    0.03    0.05
   8  -2  -5   -0.13    0.10
   7  -2  -5    0.06    0.04
  -7   2   5    0.08    0.04
  -7   2   5    0.08    0.08
   6  -2  -5    0.64    0.06
  -6   2   5    0.53    0.07
  -6   2   5    0.68    0.07
  -6   2   5    0.91    0.14
   5  -2  -5    1.89    0.20
   5  -2  -5    1.93    0.11
   5  -2  -5    1.87    0.09
  -5   2   5    2.27    0.15
  -5   2   5    1.91    0.11
  -5   2   5    1.62    0.22
  -5   2   5    1.96    0.09
   4  -2  -5   14.26    0.51
   4  -2  -5   15.39    0.58
  -4   2   5   14.95    0.52
  -4   2   5   16.01    0.66
  -4   2   5   14.41    0.53
   3  -2  -5    0.31    0.04
   3  -2  -5    0.34    0.10
   3  -2  -5    0.32    0.03
   3  -2  -5    0.23    0.10
   3  -2  -5    0.27    0.10
  -3   2   5    0.36    0.10
  -3   2   5    0.30    0.04
  -3   2   5    0.28    0.16
  -3   2   5    0.42    0.07
  -3   2   5    0.35    0.03
   2  -2  -5   -0.02    0.09
   2  -2  -5    0.01    0.08
   2  -2  -5   -0.01    0.08
   2  -2  -5    0.00    0.04
   2  -2  -5    0.00    0.02
  -2   2   5    0.02    0.03
  -2   2   5   -0.08    0.06
  -2   2   5    0.05    0.07
  -2   2   5    0.04    0.12
  -2   2   5    0.08    0.03
   1  -2  -5    3.51    0.15
   1  -2  -5    3.59    0.22
   1  -2  -5    4.06    0.14
   1  -2  -5    4.00    0.20
   1  -2  -5    3.88    0.20
   1  -2  -5    4.10    0.14
  -1   2   5    3.99    0.14
  -1   2   5    3.81    0.19
  -1   2   5    3.98    0.25
  -1   2   5    3.89    0.15
  -1   2   5    4.07    0.14
   0  -2  -5   40.54    1.41
   0  -2  -5   41.00    1.38
   0  -2  -5   38.62    1.38
   0   2   5   40.13    1.41
  -1  -2  -5   49.15    1.71
  -1  -2  -5   52.67    1.76
  -1  -2  -5   49.75    1.71
   1   2   5   49.21    1.74
  -2  -2  -5    4.31    0.17
  -2  -2  -5    4.55    0.25
  -2  -2  -5    4.44    0.18
  -2  -2  -5    4.31    0.16
  -2  -2  -5    4.44    0.15
  -2  -2  -5    4.34    0.17
   2   2   5    4.27    0.17
   2   2   5    4.38    0.16
   2   2   5    4.41    0.16
   2   2   5    4.57    0.16
   2   2   5    4.40    0.23
  -3  -2  -5    2.20    0.09
  -3  -2  -5    2.25    0.09
  -3  -2  -5    2.26    0.21
  -3  -2  -5    2.25    0.09
  -3  -2  -5    2.19    0.12
   3   2   5    2.35    0.18
   3   2   5    2.22    0.09
   3   2   5    2.38    0.09
   3   2   5    2.21    0.09
   3   2   5    2.31    0.12
  -4  -2  -5    0.84    0.09
  -4  -2  -5    0.94    0.14
  -4  -2  -5    0.88    0.06
  -4  -2  -5    0.98    0.09
   4   2   5    0.77    0.06
   4   2   5    0.89    0.06
   4   2   5    1.02    0.12
  -5  -2  -5   10.23    0.37
  -5  -2  -5    9.75    0.45
  -5  -2  -5    9.98    0.37
  -5  -2  -5   10.62    0.36
   5   2   5   10.39    0.42
   5   2   5   10.55    0.36
   5   2   5   10.14    0.35
  -6  -2  -5   11.03    0.40
  -6  -2  -5   11.21    0.41
  -6  -2  -5   11.17    0.39
  -6  -2  -5   11.02    0.49
   6   2   5   11.04    0.39
   6   2   5   11.51    0.39
  -7  -2  -5    1.02    0.16
  -7  -2  -5    0.93    0.08
   7   2   5    0.84    0.08
  -8  -2  -5    0.00    0.05
  -8  -2  -5    0.02    0.11
   8   2   5    0.01    0.05
  -9  -2  -5    0.19    0.05
  -9  -2  -5    0.22    0.13
   9   2   5    0.20    0.06
   7  -3  -5    0.10    0.05
   7  -3  -5    0.05    0.09
  -7   3   5    0.23    0.05
  -7   3   5    0.18    0.13
   6  -3  -5    3.75    0.15
  -6   3   5    3.91    0.25
  -6   3   5    3.83    0.18
  -6   3   5    3.86    0.15
   5  -3  -5    6.59    0.24
  -5   3   5    7.05    0.24
  -5   3   5    6.17    0.30
  -5   3   5    6.73    0.25
   4  -3  -5   20.17    0.72
  -4   3   5   18.15    0.70
  -4   3   5   20.41    0.79
   3  -3  -5    1.11    0.13
   3  -3  -5    1.06    0.08
   3  -3  -5    1.06    0.12
   3  -3  -5    1.10    0.06
  -3   3   5    1.25    0.20
  -3   3   5    1.11    0.08
  -3   3   5    1.13    0.06
   2  -3  -5    3.62    0.13
   2  -3  -5    3.45    0.14
   2  -3  -5    3.85    0.13
   2  -3  -5    3.61    0.22
   2  -3  -5    3.47    0.22
  -2   3   5    3.47    0.20
  -2   3   5    3.11    0.18
  -2   3   5    3.63    0.14
  -2   3   5    3.81    0.13
  -2   3   5    4.08    0.27
   1  -3  -5   13.69    0.50
   1  -3  -5   13.52    0.51
  -1   3   5   13.56    0.49
  -1   3   5   11.43    0.46
  -1   3   5   13.79    0.52
   0  -3  -5   37.50    1.29
   0  -3  -5   38.11    1.32
   0   3   5   37.46    1.32
   0   3   5   36.74    1.29
  -1  -3  -5   46.37    1.61
  -1  -3  -5   47.73    1.61
   1   3   5   48.04    1.64
   1   3   5   46.92    1.61
  -2  -3  -5    0.62    0.04
  -2  -3  -5    0.46    0.11
  -2  -3  -5    0.54    0.05
  -2  -3  -5    0.53    0.07
  -2  -3  -5    0.63    0.05
  -2  -3  -5    0.51    0.05
   2   3   5    0.41    0.04
   2   3   5    0.44    0.07
   2   3   5    0.46    0.04
   2   3   5    0.57    0.04
   2   3   5    0.48    0.10
  -3  -3  -5   15.36    0.56
  -3  -3  -5   16.93    0.62
   3   3   5   16.47    0.55
   3   3   5   15.63    0.60
  -4  -3  -5    7.13    0.34
  -4  -3  -5    7.49    0.25
  -4  -3  -5    7.04    0.26
   4   3   5    6.90    0.27
   4   3   5    7.09    0.33
   4   3   5    6.79    0.24
   4   3   5    6.67    0.24
  -5  -3  -5    0.04    0.06
  -5  -3  -5   -0.08    0.03
  -5  -3  -5    0.17    0.12
  -5  -3  -5    0.07    0.06
   5   3   5   -0.06    0.03
   5   3   5   -0.15    0.10
   5   3   5    0.14    0.03
  -6  -3  -5    6.72    0.24
  -6  -3  -5    6.82    0.27
  -6  -3  -5    6.63    0.26
  -6  -3  -5    6.60    0.36
   6   3   5    6.62    0.24
  -7  -3  -5    2.20    0.15
  -7  -3  -5    2.07    0.10
  -7  -3  -5    2.26    0.17
   7   3   5    2.27    0.10
  -8  -3  -5    0.18    0.10
  -8  -3  -5    0.10    0.04
   8   3   5    0.06    0.05
  -9  -3  -5    0.91    0.07
  -9  -3  -5    1.02    0.14
   9   3   5    0.83    0.07
   7  -4  -5    0.81    0.06
   7  -4  -5    0.82    0.10
  -7   4   5    0.56    0.17
  -7   4   5    1.04    0.10
   6  -4  -5    3.53    0.15
   6  -4  -5    3.44    0.18
  -6   4   5    3.77    0.15
  -6   4   5    3.06    0.29
   5  -4  -5    0.26    0.04
   5  -4  -5    0.15    0.07
  -5   4   5   -0.06    0.15
  -5   4   5    0.16    0.04
   4  -4  -5    7.49    0.25
   4  -4  -5    7.28    0.25
  -4   4   5    7.15    0.26
  -4   4   5    5.85    0.34
  -4   4   5    7.08    0.25
   3  -4  -5    0.31    0.03
   3  -4  -5    0.29    0.09
   3  -4  -5    0.37    0.04
  -3   4   5    0.26    0.04
  -3   4   5    0.12    0.10
  -3   4   5    0.32    0.04
  -3   4   5    0.32    0.18
   2  -4  -5    8.54    0.29
   2  -4  -5    8.92    0.36
   2  -4  -5    8.79    0.30
   2  -4  -5    8.01    0.36
  -2   4   5    8.17    0.33
  -2   4   5    8.54    0.30
  -2   4   5    8.16    0.36
  -2   4   5    8.42    0.30
  -2   4   5    8.97    0.42
   1  -4  -5   84.82    2.86
   1  -4  -5   82.82    2.86
  -1   4   5   83.48    2.88
  -1   4   5   83.51    2.86
   0  -4  -5   29.43    1.02
   0  -4  -5   28.64    1.03
   0   4   5   29.26    1.01
   0   4   5   28.68    1.04
  -1  -4  -5   15.15    0.52
  -1  -4  -5   14.40    0.55
   1   4   5   13.66    0.55
   1   4   5   14.55    0.52
  -2  -4  -5   28.58    1.00
  -2  -4  -5   26.91    0.96
   2   4   5   27.09    0.95
   2   4   5   28.21    0.99
  -3  -4  -5    8.66    0.38
  -3  -4  -5    8.69    0.31
  -3  -4  -5    8.82    0.30
   3   4   5    8.84    0.30
   3   4   5    9.13    0.30
   3   4   5    8.13    0.37
   3   4   5    8.49    0.32
  -4  -4  -5   69.47    2.43
   4   4   5   70.52    2.41
  -5  -4  -5   43.73    1.56
  -6  -4  -5    2.45    0.14
  -6  -4  -5    2.22    0.10
   6   4   5    2.13    0.10
   6   4   5    2.26    0.16
  -7  -4  -5    1.09    0.07
  -7  -4  -5    1.37    0.13
   7   4   5    1.05    0.07
   7   4   5    1.09    0.12
  -8  -4  -5    0.35    0.09
  -8  -4  -5    0.22    0.04
   8   4   5    0.29    0.05
   8   4   5    0.08    0.12
  -9  -4  -5    0.81    0.06
   9   4   5    0.52    0.15
   9   4   5    0.91    0.09
   7  -5  -5    0.11    0.06
   7  -5  -5    0.18    0.09
  -7   5   5    0.17    0.06
   6  -5  -5    4.93    0.23
   6  -5  -5    4.65    0.19
  -6   5   5    4.92    0.20
   5  -5  -5    5.51    0.23
   5  -5  -5    5.44    0.20
  -5   5   5    5.65    0.21
  -5   5   5    4.45    0.36
   4  -5  -5   11.77    0.42
   4  -5  -5   11.50    0.43
  -4   5   5   12.15    0.42
  -4   5   5   12.82    0.51
   3  -5  -5    0.14    0.04
   3  -5  -5    0.22    0.04
   3  -5  -5    0.12    0.05
  -3   5   5    0.19    0.04
  -3   5   5    0.11    0.11
   2  -5  -5    3.69    0.14
   2  -5  -5    3.51    0.15
   2  -5  -5    3.87    0.15
   2  -5  -5    4.12    0.21
   2  -5  -5    3.55    0.24
  -2   5   5    3.75    0.14
  -2   5   5    4.10    0.28
  -2   5   5    3.68    0.20
   1  -5  -5    3.47    0.19
   1  -5  -5    3.28    0.12
   1  -5  -5    3.29    0.13
   1  -5  -5    3.08    0.20
   1  -5  -5    3.22    0.13
   1  -5  -5    3.43    0.13
  -1   5   5    3.28    0.22
  -1   5   5    3.23    0.12
  -1   5   5    2.81    0.16
  -1   5   5    3.41    0.20
  -1   5   5    3.22    0.13
   0  -5  -5   65.50    2.19
   0  -5  -5   60.90    2.19
   0   5   5   64.44    2.20
   0   5   5   63.75    2.18
  -1  -5  -5   32.77    1.17
  -1  -5  -5   32.76    1.15
   1   5   5   32.71    1.17
   1   5   5   33.23    1.14
  -2  -5  -5    3.17    0.21
  -2  -5  -5    3.12    0.12
  -2  -5  -5    2.83    0.18
  -2  -5  -5    3.05    0.11
  -2  -5  -5    3.13    0.14
  -2  -5  -5    3.13    0.11
   2   5   5    2.96    0.15
   2   5   5    2.67    0.20
   2   5   5    3.14    0.12
   2   5   5    3.01    0.11
   2   5   5    3.03    0.15
  -3  -5  -5   18.88    0.69
  -3  -5  -5   20.99    0.75
   3   5   5   20.22    0.68
   3   5   5   19.34    0.73
  -4  -5  -5    0.71    0.09
  -4  -5  -5    0.76    0.06
  -4  -5  -5    0.78    0.13
   4   5   5    0.91    0.11
   4   5   5    0.78    0.05
  -5  -5  -5    6.58    0.23
  -5  -5  -5    6.50    0.25
   5   5   5    6.33    0.26
   5   5   5    6.39    0.23
  -7  -5  -5    0.09    0.08
  -7  -5  -5    0.00    0.04
   7   5   5   -0.02    0.09
   7   5   5    0.00    0.04
  -8  -5  -5    0.63    0.10
  -8  -5  -5    0.59    0.06
   8   5   5    0.56    0.05
   8   5   5    0.56    0.12
  -9  -5  -5    0.25    0.02
   9   5   5    0.24    0.14
   9   5   5    0.25    0.05
   6  -6  -5    0.93    0.07
   6  -6  -5    0.93    0.10
  -6   6   5    1.04    0.08
  -6   6   5    0.46    0.23
   5  -6  -5    1.83    0.11
   5  -6  -5    2.02    0.15
  -5   6   5    1.72    0.22
  -5   6   5    2.07    0.12
   4  -6  -5    1.02    0.08
   4  -6  -5    1.04    0.12
  -4   6   5    1.00    0.09
  -4   6   5    1.03    0.17
   3  -6  -5    0.04    0.04
   3  -6  -5    0.11    0.06
  -3   6   5    0.03    0.04
  -3   6   5   -0.04    0.11
   2  -6  -5    1.29    0.09
   2  -6  -5    1.55    0.13
   2  -6  -5    1.37    0.08
   2  -6  -5    1.28    0.07
  -2   6   5    1.19    0.08
  -2   6   5    1.52    0.19
  -2   6   5    1.44    0.16
   1  -6  -5   15.11    0.52
   1  -6  -5   16.17    0.58
   1  -6  -5   15.76    0.52
   1  -6  -5   14.69    0.60
  -1   6   5   14.96    0.60
  -1   6   5   14.93    0.55
   0  -6  -5   11.53    0.45
   0  -6  -5   10.57    0.45
   0  -6  -5   10.87    0.38
   0  -6  -5   11.07    0.38
   0  -6  -5   11.60    0.39
   0  -6  -5   11.13    0.38
   0   6   5   11.26    0.38
   0   6   5   10.64    0.45
   0   6   5   10.58    0.38
   0   6   5   10.95    0.40
   0   6   5   10.54    0.44
  -1  -6  -5    2.44    0.20
  -1  -6  -5    2.80    0.11
  -1  -6  -5    2.66    0.10
  -1  -6  -5    2.74    0.12
  -1  -6  -5    2.70    0.10
  -1  -6  -5    2.69    0.19
   1   6   5    2.47    0.17
   1   6   5    2.44    0.14
   1   6   5    2.72    0.11
   1   6   5    2.70    0.10
   1   6   5    2.56    0.21
  -2  -6  -5    1.24    0.14
  -2  -6  -5    1.11    0.13
  -2  -6  -5    1.18    0.07
  -2  -6  -5    1.16    0.09
   2   6   5    1.21    0.06
   2   6   5    1.22    0.07
   2   6   5    1.12    0.13
   2   6   5    1.08    0.10
   2   6   5    1.07    0.11
  -3  -6  -5   12.55    0.43
  -3  -6  -5   12.70    0.50
  -3  -6  -5   11.29    0.47
   3   6   5   11.94    0.44
   3   6   5   12.23    0.44
  -5  -6  -5   11.39    0.41
  -5  -6  -5   11.54    0.39
   5   6   5   11.33    0.42
   5   6   5   11.51    0.39
  -6  -6  -5    6.47    0.26
  -6  -6  -5    6.31    0.23
   6   6   5    6.37    0.27
   6   6   5    6.37    0.23
  -7  -6  -5    0.80    0.10
  -7  -6  -5    0.58    0.06
   7   6   5    0.65    0.05
   7   6   5    0.79    0.11
  -8  -6  -5    0.37    0.10
  -8  -6  -5    0.32    0.04
   8   6   5    0.24    0.04
   8   6   5    0.26    0.12
  -9  -6  -5    0.89    0.12
   9   6   5    0.60    0.14
   9   6   5    0.65    0.06
   5  -7  -5   -0.02    0.09
   5  -7  -5    0.09    0.06
  -5   7   5   -0.37    0.18
  -5   7   5    0.05    0.07
   4  -7  -5    0.62    0.06
   4  -7  -5    0.82    0.09
  -4   7   5    0.69    0.16
  -4   7   5    0.66    0.07
   3  -7  -5    1.42    0.11
   3  -7  -5    1.29    0.09
  -3   7   5    1.39    0.10
  -3   7   5    1.43    0.20
   2  -7  -5    5.48    0.20
   2  -7  -5    5.39    0.21
  -2   7   5    5.64    0.26
  -2   7   5    5.53    0.21
   1  -7  -5    1.85    0.09
   1  -7  -5    1.78    0.10
   1  -7  -5    2.07    0.18
   1  -7  -5    1.92    0.10
  -1   7   5    2.26    0.10
  -1   7   5    1.87    0.15
  -1   7   5    2.06    0.18
   0  -7  -5   -0.03    0.04
   0  -7  -5    0.15    0.12
   0  -7  -5    0.05    0.04
   0  -7  -5    0.16    0.10
   0  -7  -5    0.01    0.03
   0  -7  -5    0.01    0.04
   0   7   5    0.06    0.11
   0   7   5    0.01    0.04
   0   7   5   -0.04    0.03
   0   7   5   -0.02    0.07
  -1  -7  -5    0.86    0.14
  -1  -7  -5    0.73    0.08
  -1  -7  -5    0.81    0.07
  -1  -7  -5    0.73    0.12
  -1  -7  -5    0.62    0.06
   1   7   5    0.68    0.06
   1   7   5    0.70    0.12
   1   7   5    0.79    0.11
   1   7   5    0.74    0.13
   1   7   5    0.86    0.07
  -2  -7  -5    0.49    0.12
  -2  -7  -5    0.39    0.13
  -2  -7  -5    0.50    0.06
  -2  -7  -5    0.52    0.06
   2   7   5    0.38    0.04
   2   7   5    0.46    0.08
   2   7   5    0.46    0.09
  -3  -7  -5    3.92    0.17
  -3  -7  -5    3.91    0.15
  -3  -7  -5    3.31    0.28
   3   7   5    3.85    0.20
   3   7   5    3.93    0.14
   3   7   5    3.92    0.19
  -4  -7  -5    7.90    0.28
  -4  -7  -5    8.05    0.30
   4   7   5    7.88    0.31
   4   7   5    8.09    0.28
  -5  -7  -5    2.02    0.09
  -5  -7  -5    1.99    0.13
   5   7   5    1.98    0.15
   5   7   5    2.06    0.09
  -6  -7  -5    1.58    0.14
  -6  -7  -5    1.53    0.09
   6   7   5    1.60    0.08
   6   7   5    1.51    0.17
  -7  -7  -5    0.80    0.10
  -7  -7  -5    0.77    0.07
   7   7   5    0.85    0.07
   7   7   5    0.75    0.11
  -8  -7  -5    2.62    0.11
  -8  -7  -5    2.86    0.21
   8   7   5    2.64    0.12
   8   7   5    2.74    0.23
  -9  -7  -5    0.11    0.12
   9   7   5    0.04    0.05
   9   7   5    0.08    0.13
   4  -8  -5    0.90    0.10
   4  -8  -5    1.05    0.08
  -4   8   5    0.91    0.17
  -4   8   5    1.06    0.12
   3  -8  -5    8.75    0.34
   3  -8  -5    8.55    0.32
  -3   8   5    9.82    0.39
  -3   8   5    8.90    0.33
   2  -8  -5    5.17    0.20
   2  -8  -5    5.02    0.21
  -2   8   5    5.54    0.27
  -2   8   5    5.13    0.20
   1  -8  -5    0.13    0.06
  -1   8   5    0.20    0.05
  -1   8   5    0.16    0.09
   0  -8  -5    0.16    0.11
   0  -8  -5    0.03    0.05
   0  -8  -5    0.03    0.05
   0  -8  -5   -0.02    0.05
   0   8   5    0.00    0.04
   0   8   5    0.10    0.08
  -1  -8  -5    8.54    0.44
  -1  -8  -5    9.11    0.33
  -1  -8  -5    9.16    0.32
   1   8   5    9.41    0.35
   1   8   5    8.79    0.31
  -2  -8  -5   29.57    1.08
   2   8   5   27.62    1.02
  -4  -8  -5    0.11    0.04
  -4  -8  -5    0.13    0.07
   4   8   5    0.17    0.08
   4   8   5    0.17    0.04
  -5  -8  -5    0.71    0.09
  -5  -8  -5    0.63    0.07
   5   8   5    0.62    0.10
   5   8   5    0.66    0.05
  -6  -8  -5    0.20    0.09
  -6  -8  -5    0.16    0.04
   6   8   5    0.16    0.10
   6   8   5    0.18    0.04
  -7  -8  -5    3.40    0.14
  -7  -8  -5    3.76    0.21
   7   8   5    3.58    0.23
   7   8   5    3.37    0.14
  -8  -8  -5    4.12    0.23
   8   8   5    3.57    0.15
   8   8   5    3.58    0.24
   3  -9  -5   -0.05    0.08
  -3   9   5    0.01    0.07
  -3   9   5   -0.09    0.13
   2  -9  -5    2.07    0.15
  -2   9   5    2.15    0.22
  -2   9   5    2.02    0.13
   1  -9  -5    5.58    0.23
  -1   9   5    6.11    0.29
   0  -9  -5    0.90    0.10
   0   9   5    1.24    0.17
  -1  -9  -5    2.08    0.11
  -1  -9  -5    1.89    0.12
   1   9   5    2.09    0.17
  -2  -9  -5    0.58    0.07
  -2  -9  -5    0.58    0.06
   2   9   5    0.56    0.05
   2   9   5    0.68    0.10
  -3  -9  -5    5.47    0.21
  -3  -9  -5    5.40    0.22
   3   9   5    5.44    0.20
   3   9   5    5.29    0.25
  -4  -9  -5    2.08    0.11
  -4  -9  -5    2.00    0.14
   4   9   5    2.12    0.10
   4   9   5    1.99    0.18
  -5  -9  -5    0.45    0.06
  -5  -9  -5    0.49    0.09
   5   9   5    0.39    0.05
   5   9   5    0.52    0.10
  -6  -9  -5    4.43    0.18
  -6  -9  -5    4.62    0.22
   6   9   5    4.37    0.25
   6   9   5    4.45    0.17
  -7  -9  -5    1.97    0.19
   7   9   5    1.90    0.21
   7   9   5    1.82    0.10
  -8  -9  -5    0.14    0.11
  -8  -9  -5    0.09    0.05
   8   9   5    0.07    0.05
   8   9   5    0.21    0.13
  -2  10   5    1.56    0.22
  -1  10   5    2.18    0.23
   0  10   5    1.97    0.21
  -1 -10  -5    1.14    0.11
  -1 -10  -5    1.30    0.10
   1  10   5    1.39    0.18
  -2 -10  -5    4.41    0.18
  -2 -10  -5    4.46    0.20
   2  10   5    4.78    0.24
   2  10   5    4.29    0.18
  -3 -10  -5    6.26    0.24
  -3 -10  -5    6.20    0.25
   3  10   5    6.20    0.28
   3  10   5    6.10    0.23
  -4 -10  -5    3.34    0.15
  -4 -10  -5    3.30    0.18
   4  10   5    3.32    0.22
   4  10   5    3.32    0.14
  -5 -10  -5    0.76    0.07
  -5 -10  -5    0.57    0.10
   5  10   5    0.71    0.12
   5  10   5    0.60    0.06
  -6 -10  -5    1.91    0.12
  -6 -10  -5    2.06    0.17
   6  10   5    2.09    0.22
   6  10   5    1.88    0.11
  -7 -10  -5    2.27    0.12
  -7 -10  -5    2.26    0.19
   7  10   5    2.17    0.12
   7  10   5    2.38    0.23
   0  11   5    0.87    0.14
   1  11   5    0.53    0.12
  -2 -11  -5    1.51    0.14
  -2 -11  -5    1.50    0.12
   2  11   5    1.86    0.21
  -3 -11  -5   -0.01    0.08
  -3 -11  -5   -0.01    0.06
   3  11   5    0.18    0.12
   3  11   5   -0.03    0.05
  -4 -11  -5    0.13    0.09
  -4 -11  -5    0.08    0.06
   4  11   5    0.06    0.05
   4  11   5    0.34    0.12
  -5 -11  -5    0.01    0.10
  -5 -11  -5    0.00    0.06
   5  11   5    0.14    0.12
   5  11   5    0.01    0.06
  -6 -11  -5   -0.01    0.06
  -6 -11  -5   -0.04    0.10
   6  11   5   -0.06    0.06
   6  11   5    0.14    0.13
   3   7  -6    0.34    0.07
  -3  -7   6    0.34    0.08
   2   7  -6    0.02    0.07
   2   7  -6   -0.01    0.11
  -2  -7   6   -0.32    0.12
  -2  -7   6   -0.03    0.07
   1   7  -6    0.50    0.11
  -1  -7   6    0.38    0.13
  -1  -7   6    0.34    0.08
   5   6  -6    0.00    0.06
   5   6  -6    0.09    0.11
  -5  -6   6   -0.04    0.06
  -5  -6   6   -0.20    0.12
   4   6  -6    0.13    0.11
   4   6  -6    0.24    0.06
  -4  -6   6    0.02    0.12
  -4  -6   6    0.18    0.07
   3   6  -6    0.05    0.10
   3   6  -6    0.08    0.06
  -3  -6   6   -0.06    0.11
  -3  -6   6    0.08    0.07
   2   6  -6    0.08    0.06
   2   6  -6    0.02    0.10
  -2  -6   6   -0.07    0.11
  -2  -6   6    0.05    0.07
   1   6  -6    0.04    0.10
  -1  -6   6   -0.11    0.11
  -1  -6   6    0.04    0.07
   0   6  -6    0.28    0.10
   0  -6   6    0.23    0.07
   0  -6   6    0.15    0.11
   1  -6   6    0.03    0.11
   2  -6   6    0.93    0.13
   6   5  -6    0.84    0.07
   6   5  -6    0.92    0.13
  -6  -5   6    0.72    0.12
  -6  -5   6    0.99    0.10
   5   5  -6    2.77    0.13
   5   5  -6    2.71    0.21
  -5  -5   6    2.48    0.13
  -5  -5   6    2.52    0.20
   4   5  -6    0.24    0.10
   4   5  -6    0.19    0.05
  -4  -5   6    0.13    0.11
  -4  -5   6    0.13    0.06
   3   5  -6    3.98    0.17
   3   5  -6    3.96    0.22
  -3  -5   6    4.03    0.22
  -3  -5   6    3.99    0.17
   2   5  -6    0.45    0.10
   2   5  -6    0.49    0.06
  -2  -5   6    0.37    0.06
  -2  -5   6    0.51    0.10
   1   5  -6    2.96    0.19
   1   5  -6    2.85    0.14
  -1  -5   6    2.94    0.15
  -1  -5   6    2.83    0.20
   0   5  -6    5.40    0.24
   0  -5   6    5.32    0.26
   0  -5   6    4.96    0.21
   1  -5   6    0.14    0.10
   2  -5   6    3.07    0.22
   3  -5   6    0.70    0.12
   7   4  -6    0.53    0.12
   7   4  -6    0.46    0.06
  -7  -4   6    0.50    0.11
  -7  -4   6    0.46    0.04
   6   4  -6    0.13    0.11
   6   4  -6    0.04    0.05
  -6  -4   6   -0.01    0.10
  -6  -4   6    0.02    0.05
   5   4  -6    3.93    0.21
   5   4  -6    3.83    0.16
  -5  -4   6    3.74    0.16
  -5  -4   6    3.41    0.21
   4   4  -6   11.78    0.41
   4   4  -6   11.89    0.44
  -4  -4   6   11.59    0.41
  -4  -4   6   12.03    0.44
   3   4  -6    2.00    0.16
   3   4  -6    1.88    0.10
  -3  -4   6    1.73    0.17
  -3  -4   6    1.84    0.11
   2   4  -6    0.31    0.05
   2   4  -6    0.31    0.09
  -2  -4   6    0.20    0.09
  -2  -4   6    0.24    0.06
   1   4  -6    8.12    0.29
   1   4  -6    8.04    0.32
  -1  -4   6    7.93    0.29
  -1  -4   6    8.01    0.32
   0   4  -6    1.90    0.10
   0   4  -6    1.90    0.16
   0  -4   6    1.92    0.16
   0  -4   6    1.86    0.12
  -1   4  -6   15.02    0.53
   1  -4   6   14.60    0.53
   1  -4   6   14.50    0.52
   2  -4   6    5.27    0.24
   3  -4   6    0.56    0.10
  -4   4  -6    2.96    0.20
  -4   4  -6    3.25    0.17
   4  -4   6    3.32    0.21
   7   3  -6    0.00    0.05
   7   3  -6    0.15    0.11
  -7  -3   6    0.06    0.03
  -7  -3   6    0.07    0.10
   6   3  -6    0.98    0.11
   6   3  -6    0.84    0.08
  -6  -3   6    0.91    0.10
  -6  -3   6    0.82    0.08
   5   3  -6    0.99    0.08
   5   3  -6    1.10    0.16
  -5  -3   6    1.12    0.08
  -5  -3   6    0.90    0.10
   4   3  -6    0.67    0.09
   4   3  -6    0.46    0.05
  -4  -3   6    0.56    0.09
  -4  -3   6    0.35    0.05
   3   3  -6    7.29    0.29
   3   3  -6    7.05    0.26
  -3  -3   6    7.57    0.29
  -3  -3   6    7.27    0.26
   2   3  -6    7.98    0.28
   2   3  -6    7.93    0.32
  -2  -3   6    8.12    0.31
  -2  -3   6    7.85    0.29
   1   3  -6   12.97    0.47
   1   3  -6   12.31    0.44
  -1  -3   6   13.48    0.46
  -1  -3   6   12.61    0.45
   0   3  -6    0.14    0.04
   0   3  -6    0.26    0.08
   0  -3   6    0.19    0.07
   0  -3   6    0.23    0.05
  -1   3  -6   -0.07    0.08
   1  -3   6   -0.10    0.05
   1  -3   6    0.03    0.07
  -2   3  -6    2.95    0.19
  -2   3  -6    2.67    0.13
   2  -3   6    2.67    0.16
  -3   3  -6    2.28    0.12
  -3   3  -6    2.06    0.14
   3  -3   6    2.23    0.15
  -4   3  -6    0.06    0.06
  -4   3  -6    0.04    0.08
   4  -3   6    0.08    0.09
  -5   3  -6    1.05    0.17
  -5   3  -6    1.42    0.13
   5  -3   6    1.43    0.17
   5  -3   6    1.47    0.11
   7   2  -6    0.57    0.10
   7   2  -6    0.47    0.05
  -7  -2   6    0.52    0.10
   6   2  -6    3.10    0.13
   6   2  -6    3.36    0.19
  -6  -2   6    3.27    0.13
  -6  -2   6    3.45    0.18
   5   2  -6    2.98    0.12
   5   2  -6    3.20    0.18
  -5  -2   6    2.91    0.13
  -5  -2   6    3.12    0.17
   4   2  -6    1.78    0.14
   4   2  -6    1.78    0.09
  -4  -2   6    1.67    0.09
  -4  -2   6    1.68    0.13
   3   2  -6    0.29    0.04
   3   2  -6    0.13    0.07
  -3  -2   6    0.05    0.07
  -3  -2   6    0.10    0.04
   2   2  -6    0.04    0.04
   2   2  -6    0.01    0.07
  -2  -2   6    0.05    0.04
  -2  -2   6    0.07    0.07
   1   2  -6    7.21    0.26
   1   2  -6    7.37    0.29
  -1  -2   6    7.49    0.27
  -1  -2   6    7.33    0.28
   0   2  -6    1.93    0.14
   0   2  -6    1.83    0.09
   0  -2   6    1.88    0.10
   0  -2   6    2.00    0.18
   0  -2   6    1.96    0.12
  -1   2  -6   10.39    0.38
  -1   2  -6   10.87    0.38
  -1   2  -6   12.94    0.55
  -1   2  -6   11.70    0.41
  -1   2  -6   10.22    0.48
   1  -2   6   10.76    0.46
   1  -2   6   10.98    0.39
   1  -2   6   10.78    0.40
  -2   2  -6    1.21    0.10
  -2   2  -6    1.49    0.17
  -2   2  -6    1.26    0.09
  -2   2  -6    1.41    0.27
  -2   2  -6    1.13    0.16
   2  -2   6    1.25    0.08
   2  -2   6    1.38    0.11
   2  -2   6    1.14    0.15
  -3   2  -6    4.17    0.18
  -3   2  -6    3.63    0.24
  -3   2  -6    4.32    0.17
   3  -2   6    4.10    0.16
   3  -2   6    4.16    0.19
  -4   2  -6    0.07    0.06
  -4   2  -6   -0.01    0.07
   4  -2   6    0.06    0.08
   4  -2   6    0.03    0.05
  -5   2  -6    1.67    0.12
  -5   2  -6    1.47    0.16
   5  -2   6    1.66    0.11
   5  -2   6    1.66    0.15
  -6   2  -6    0.89    0.09
  -6   2  -6    0.90    0.12
   6  -2   6    1.02    0.08
   6  -2   6    0.99    0.10
   8   1  -6    0.06    0.05
  -8  -1   6    0.12    0.10
   7   1  -6    0.41    0.05
   7   1  -6    0.55    0.10
  -7  -1   6    0.54    0.09
  -7  -1   6    0.46    0.03
   6   1  -6    0.20    0.09
   6   1  -6    0.15    0.04
  -6  -1   6    0.16    0.08
  -6  -1   6    0.20    0.04
   5   1  -6    5.28    0.23
   5   1  -6    5.33    0.19
  -5  -1   6    5.11    0.19
  -5  -1   6    5.11    0.22
   4   1  -6   18.07    0.63
  -4  -1   6   17.82    0.63
   3   1  -6    3.57    0.14
   3   1  -6    3.54    0.17
  -3  -1   6    3.68    0.16
  -3  -1   6    3.70    0.14
   2   1  -6   17.92    0.71
  -2  -1   6   18.66    0.71
  -2  -1   6   19.05    0.64
   1   1  -6    6.70    0.26
   1   1  -6    6.53    0.32
   1   1  -6    6.67    0.35
   1   1  -6    6.44    0.24
  -1  -1   6    6.79    0.25
  -1  -1   6    6.85    0.24
  -1  -1   6    6.68    0.32
   0   1  -6   12.88    0.47
   0   1  -6   13.54    0.47
   0   1  -6   13.19    0.48
   0   1  -6   13.76    0.54
   0   1  -6   14.57    0.58
   0  -1   6   13.92    0.47
   0  -1   6   13.53    0.48
   0  -1   6   13.84    0.54
  -1   1  -6   30.96    1.03
  -1   1  -6   25.96    0.96
   1  -1   6   23.63    0.90
   1  -1   6   25.63    0.95
   1  -1   6   27.07    0.90
  -2   1  -6    0.06    0.04
  -2   1  -6    0.06    0.11
  -2   1  -6   -0.17    0.19
  -2   1  -6    0.16    0.09
  -2   1  -6    0.08    0.05
   2  -1   6    0.13    0.06
   2  -1   6    0.07    0.04
   2  -1   6    0.17    0.04
   2  -1   6    0.06    0.10
   2  -1   6    0.10    0.10
  -3   1  -6    8.95    0.32
  -3   1  -6    9.14    0.31
  -3   1  -6    7.23    0.35
  -3   1  -6    7.97    0.53
   3  -1   6    8.71    0.31
   3  -1   6    9.62    0.39
   3  -1   6    8.88    0.32
   3  -1   6    9.34    0.39
  -4   1  -6    6.20    0.22
  -4   1  -6    5.81    0.24
  -4   1  -6    5.77    0.27
   4  -1   6    5.86    0.24
   4  -1   6    5.88    0.22
  -5   1  -6    0.03    0.05
  -5   1  -6   -0.03    0.08
   5  -1   6    0.01    0.05
   5  -1   6    0.00    0.07
  -6   1  -6    1.54    0.17
  -6   1  -6    1.72    0.12
   6  -1   6    1.60    0.15
   6  -1   6    1.67    0.11
  -7   1  -6    0.33    0.08
  -7   1  -6    0.32    0.12
   7  -1   6    0.39    0.07
   7  -1   6    0.41    0.09
   8   0  -6    0.07    0.05
  -8   0   6    0.12    0.10
   7   0  -6    0.85    0.08
   7   0  -6    0.90    0.10
  -7   0   6    0.89    0.10
  -7   0   6    0.90    0.06
   6   0  -6    6.97    0.28
   6   0  -6    6.96    0.25
  -6   0   6    6.80    0.25
  -6   0   6    7.13    0.28
   5   0  -6    4.21    0.16
   5   0  -6    4.22    0.19
  -5   0   6    4.23    0.19
  -5   0   6    4.25    0.16
   4   0  -6    8.41    0.29
   4   0  -6    8.51    0.32
  -4   0   6    8.35    0.31
  -4   0   6    8.64    0.30
   3   0  -6    2.72    0.15
   3   0  -6    2.91    0.11
  -3   0   6    2.92    0.13
  -3   0   6    2.93    0.12
   2   0  -6    0.12    0.10
   2   0  -6    0.09    0.10
   2   0  -6    0.10    0.06
   2   0  -6    0.13    0.11
  -2   0   6    0.17    0.10
  -2   0   6    0.05    0.05
  -2   0   6    0.10    0.03
   1   0  -6   56.97    1.99
   1   0  -6   55.45    1.98
   1   0  -6   59.56    2.01
  -1   0   6   57.34    1.98
   0   0  -6   44.64    1.61
   0   0  -6   48.26    1.66
   0   0   6   44.93    1.61
   0   0   6   47.71    1.63
  -1   0  -6    1.02    0.06
  -1   0  -6    0.73    0.08
  -1   0  -6    1.02    0.06
  -1   0  -6    0.88    0.18
  -1   0  -6    0.92    0.11
   1   0   6    1.06    0.07
   1   0   6    1.05    0.11
   1   0   6    1.02    0.08
   1   0   6    1.06    0.07
   1   0   6    1.17    0.14
   1   0   6    0.94    0.06
  -2   0  -6   28.79    1.03
  -2   0  -6   29.17    1.12
   2   0   6   28.46    1.04
   2   0   6   28.66    1.02
  -3   0  -6    2.18    0.27
  -3   0  -6    2.31    0.10
  -3   0  -6    1.96    0.17
  -3   0  -6    2.22    0.12
  -3   0  -6    2.80    0.23
   3   0   6    2.11    0.16
   3   0   6    2.31    0.11
   3   0   6    2.20    0.10
   3   0   6    2.49    0.20
  -4   0  -6   10.61    0.56
  -4   0  -6   10.72    0.37
  -4   0  -6   10.55    0.38
  -4   0  -6    9.84    0.40
   4   0   6   10.45    0.37
   4   0   6   10.64    0.44
   4   0   6   10.48    0.36
  -5   0  -6   10.04    0.38
  -5   0  -6   10.49    0.35
  -5   0  -6    9.03    0.38
   5   0   6   10.16    0.36
   5   0   6    9.99    0.35
  -6   0  -6    0.21    0.06
  -6   0  -6    0.20    0.09
   6   0   6    0.17    0.07
   6   0   6    0.29    0.06
  -7   0  -6    1.60    0.12
  -7   0  -6    1.60    0.19
   7   0   6    1.54    0.11
   7   0   6    1.60    0.14
   8  -1  -6    0.11    0.05
  -8   1   6    0.11    0.09
   7  -1  -6    0.10    0.05
  -7   1   6    0.18    0.04
  -7   1   6    0.14    0.08
   6  -1  -6    0.06    0.04
   6  -1  -6    0.14    0.07
  -6   1   6    0.08    0.04
  -6   1   6    0.14    0.07
   5  -1  -6    2.05    0.09
   5  -1  -6    2.07    0.13
  -5   1   6    1.92    0.12
  -5   1   6    2.15    0.10
   4  -1  -6    0.42    0.04
   4  -1  -6    0.40    0.07
  -4   1   6    0.37    0.06
  -4   1   6    0.38    0.04
   3  -1  -6    2.28    0.22
   3  -1  -6    2.25    0.13
   3  -1  -6    2.31    0.09
  -3   1   6    2.37    0.11
  -3   1   6    2.26    0.10
   2  -1  -6   26.50    0.99
   2  -1  -6   27.12    0.99
   2  -1  -6   26.45    1.00
  -2   1   6   29.98    1.04
   1  -1  -6    1.24    0.15
   1  -1  -6    1.54    0.13
   1  -1  -6    1.22    0.09
   1  -1  -6    1.39    0.06
   1  -1  -6    1.33    0.12
  -1   1   6    1.03    0.09
  -1   1   6    1.67    0.17
  -1   1   6    1.38    0.07
  -1   1   6    1.31    0.08
   0  -1  -6   12.46    0.41
   0  -1  -6   12.74    0.52
   0  -1  -6   11.80    0.41
   0  -1  -6   11.14    0.42
   0  -1  -6   11.69    0.46
   0  -1  -6   12.04    0.46
   0   1   6   12.89    0.50
   0   1   6   12.09    0.42
   0   1   6   12.01    0.41
   0   1   6   12.12    0.46
  -1  -1  -6    3.15    0.18
  -1  -1  -6    2.80    0.15
  -1  -1  -6    3.43    0.12
  -1  -1  -6    3.38    0.18
  -1  -1  -6    3.14    0.27
  -1  -1  -6    3.41    0.13
   1   1   6    3.39    0.13
   1   1   6    3.42    0.12
   1   1   6    3.49    0.13
   1   1   6    3.21    0.14
   1   1   6    3.55    0.24
   1   1   6    3.41    0.18
  -2  -1  -6    3.61    0.14
  -2  -1  -6    3.67    0.20
  -2  -1  -6    3.49    0.17
  -2  -1  -6    3.59    0.14
  -2  -1  -6    3.76    0.31
   2   1   6    3.67    0.14
   2   1   6    3.63    0.14
   2   1   6    3.97    0.18
   2   1   6    3.81    0.24
   2   1   6    3.66    0.14
   2   1   6    3.52    0.15
  -3  -1  -6   24.15    0.90
  -3  -1  -6   25.97    0.99
   3   1   6   25.10    0.88
   3   1   6   25.28    0.91
  -4  -1  -6    6.38    0.23
  -4  -1  -6    6.35    0.39
  -4  -1  -6    6.13    0.24
  -4  -1  -6    6.11    0.26
   4   1   6    6.17    0.22
   4   1   6    6.29    0.30
   4   1   6    5.99    0.23
  -5  -1  -6    1.56    0.14
  -5  -1  -6    1.19    0.20
  -5  -1  -6    1.52    0.13
  -5  -1  -6    1.59    0.10
   5   1   6    1.68    0.11
   5   1   6    1.61    0.09
  -6  -1  -6    1.70    0.11
  -6  -1  -6    1.73    0.16
   6   1   6    1.77    0.12
   6   1   6    1.91    0.10
  -7  -1  -6    0.01    0.06
  -7  -1  -6    0.01    0.10
   7   1   6   -0.04    0.05
  -8  -1  -6    1.00    0.14
  -8  -1  -6    1.06    0.12
   8   1   6    1.10    0.11
   7  -2  -6    0.39    0.05
  -7   2   6    0.65    0.08
  -7   2   6    0.43    0.09
   6  -2  -6    3.23    0.13
  -6   2   6    3.24    0.16
  -6   2   6    3.17    0.13
   5  -2  -6    0.03    0.06
   5  -2  -6    0.04    0.04
  -5   2   6    0.04    0.06
  -5   2   6    0.06    0.04
   4  -2  -6    5.13    0.29
   4  -2  -6    4.77    0.20
   4  -2  -6    4.96    0.18
  -4   2   6    5.19    0.18
  -4   2   6    4.91    0.20
   3  -2  -6   15.16    0.59
   3  -2  -6   14.19    0.52
  -3   2   6   15.49    0.52
  -3   2   6   17.05    0.70
  -3   2   6   14.12    0.53
   2  -2  -6   16.66    0.63
   2  -2  -6   16.65    0.61
   2  -2  -6   17.45    0.62
  -2   2   6   14.42    0.57
   1  -2  -6    8.58    0.32
   1  -2  -6    8.89    0.37
   1  -2  -6    9.26    0.31
   1  -2  -6    9.30    0.41
   1  -2  -6    9.21    0.31
   1  -2  -6    9.29    0.38
  -1   2   6    9.49    0.31
  -1   2   6    9.65    0.42
  -1   2   6    7.93    0.33
  -1   2   6    9.19    0.32
  -1   2   6    9.15    0.31
   0  -2  -6    0.55    0.09
   0  -2  -6    0.57    0.05
   0  -2  -6    0.54    0.08
   0  -2  -6    0.32    0.11
   0  -2  -6    0.58    0.05
   0   2   6    0.70    0.12
   0   2   6    0.53    0.05
   0   2   6    0.50    0.07
   0   2   6    0.63    0.05
   0   2   6    0.53    0.06
  -1  -2  -6    3.36    0.15
  -1  -2  -6    3.79    0.14
  -1  -2  -6    3.60    0.18
  -1  -2  -6    3.69    0.27
  -1  -2  -6    3.63    0.18
  -1  -2  -6    3.64    0.13
   1   2   6    3.56    0.13
   1   2   6    3.39    0.15
   1   2   6    3.68    0.14
   1   2   6    3.87    0.24
   1   2   6    3.63    0.14
  -2  -2  -6    1.22    0.07
  -2  -2  -6    1.55    0.12
  -2  -2  -6    1.18    0.07
  -2  -2  -6    1.44    0.17
  -2  -2  -6    1.43    0.10
  -2  -2  -6    1.65    0.11
   2   2   6    1.24    0.07
   2   2   6    1.50    0.07
   2   2   6    1.19    0.07
   2   2   6    1.46    0.14
   2   2   6    1.37    0.09
  -3  -2  -6   19.61    0.71
  -3  -2  -6   19.67    0.69
  -3  -2  -6   22.29    0.80
  -3  -2  -6   19.97    0.70
   3   2   6   19.98    0.68
   3   2   6   19.74    0.69
   3   2   6   19.55    0.74
  -4  -2  -6   16.70    0.60
  -4  -2  -6   17.39    0.71
   4   2   6   17.05    0.58
   4   2   6   17.28    0.66
  -5  -2  -6    0.60    0.08
  -5  -2  -6    0.72    0.08
  -5  -2  -6    0.57    0.05
  -5  -2  -6    0.48    0.17
   5   2   6    0.64    0.08
   5   2   6    0.56    0.05
  -6  -2  -6    0.10    0.05
  -6  -2  -6    0.19    0.08
  -6  -2  -6    0.14    0.08
   6   2   6    0.15    0.06
   6   2   6    0.10    0.04
  -7  -2  -6    1.17    0.16
  -7  -2  -6    0.97    0.10
   7   2   6    1.04    0.09
  -8  -2  -6    0.35    0.12
  -8  -2  -6    0.35    0.06
   8   2   6    0.34    0.06
   7  -3  -6    0.55    0.06
   7  -3  -6    0.36    0.10
  -7   3   6    0.77    0.09
  -7   3   6    0.54    0.09
   6  -3  -6    3.24    0.14
  -6   3   6    3.20    0.14
  -6   3   6    3.51    0.17
   5  -3  -6    1.65    0.09
   5  -3  -6    1.63    0.11
  -5   3   6    1.61    0.09
  -5   3   6    1.74    0.12
  -5   3   6    1.94    0.18
   4  -3  -6    2.52    0.23
   4  -3  -6    2.82    0.11
   4  -3  -6    2.67    0.13
  -4   3   6    2.79    0.13
  -4   3   6    2.82    0.12
  -4   3   6    2.97    0.31
  -4   3   6    2.82    0.19
   3  -3  -6    1.36    0.15
   3  -3  -6    1.40    0.07
   3  -3  -6    1.28    0.10
  -3   3   6    1.36    0.08
  -3   3   6    1.61    0.24
  -3   3   6    1.36    0.09
   2  -3  -6    8.17    0.28
   2  -3  -6    8.28    0.36
   2  -3  -6    8.10    0.37
   2  -3  -6    7.56    0.29
   2  -3  -6    7.89    0.36
  -2   3   6    8.28    0.29
  -2   3   6   10.11    0.44
  -2   3   6    7.90    0.35
  -2   3   6    7.35    0.32
  -2   3   6    8.05    0.28
   1  -3  -6   25.67    0.93
   1  -3  -6   25.66    0.95
   1  -3  -6   25.45    0.93
  -1   3   6   27.54    0.97
  -1   3   6   26.32    0.93
   0  -3  -6    0.23    0.07
   0  -3  -6    0.21    0.05
   0  -3  -6    0.17    0.03
   0  -3  -6    0.14    0.08
   0  -3  -6    0.14    0.11
   0  -3  -6    0.17    0.03
   0   3   6    0.23    0.11
   0   3   6    0.25    0.03
   0   3   6    0.16    0.03
   0   3   6    0.13    0.03
   0   3   6    0.11    0.05
  -1  -3  -6   67.23    2.21
  -1  -3  -6   64.86    2.21
  -1  -3  -6   63.71    2.25
   1   3   6   63.30    2.24
  -2  -3  -6   61.48    2.07
  -2  -3  -6   57.06    2.00
  -2  -3  -6   57.95    2.00
   2   3   6   59.59    2.05
  -3  -3  -6    6.56    0.25
  -3  -3  -6    6.69    0.35
  -3  -3  -6    6.30    0.23
   3   3   6    6.43    0.23
   3   3   6    6.86    0.23
   3   3   6    6.39    0.25
   3   3   6    6.59    0.23
   3   3   6    7.02    0.32
  -4  -3  -6   10.24    0.46
  -4  -3  -6    9.81    0.34
  -4  -3  -6    9.63    0.36
   4   3   6    9.91    0.34
   4   3   6    9.85    0.34
   4   3   6    9.85    0.36
  -5  -3  -6    3.98    0.15
  -5  -3  -6    4.04    0.19
   5   3   6    3.89    0.15
   5   3   6    3.94    0.20
  -6  -3  -6    0.62    0.09
  -6  -3  -6    0.60    0.09
  -6  -3  -6    0.56    0.05
   6   3   6    0.65    0.05
  -7  -3  -6    7.33    0.31
  -7  -3  -6    6.97    0.26
  -7  -3  -6    7.08    0.29
   7   3   6    7.31    0.26
  -8  -3  -6    0.25    0.11
  -8  -3  -6    0.13    0.05
   8   3   6    0.11    0.05
   7  -4  -6    0.52    0.10
   7  -4  -6    0.65    0.06
  -7   4   6    0.86    0.10
   6  -4  -6    0.07    0.05
   6  -4  -6   -0.01    0.08
  -6   4   6    0.06    0.05
  -6   4   6   -0.06    0.15
   5  -4  -6    0.14    0.04
  -5   4   6   -0.03    0.14
  -5   4   6    0.12    0.06
  -5   4   6    0.09    0.05
   4  -4  -6    0.97    0.09
   4  -4  -6    0.84    0.07
  -4   4   6    0.77    0.09
  -4   4   6    0.85    0.08
   3  -4  -6   27.07    0.99
  -3   4   6   31.27    1.10
  -3   4   6   25.09    0.97
   2  -4  -6   37.20    1.37
   2  -4  -6   36.81    1.38
  -2   4   6   43.02    1.43
   1  -4  -6    0.05    0.09
   1  -4  -6    0.09    0.05
   1  -4  -6    0.00    0.10
   1  -4  -6    0.08    0.03
   1  -4  -6    0.06    0.03
  -1   4   6    0.09    0.03
  -1   4   6    0.19    0.12
  -1   4   6    0.08    0.06
  -1   4   6    0.13    0.08
  -1   4   6    0.05    0.03
   0  -4  -6   23.87    0.87
   0  -4  -6   25.17    0.89
   0   4   6   24.44    0.90
   0   4   6   23.95    0.86
  -1  -4  -6   -0.04    0.07
  -1  -4  -6    0.01    0.03
  -1  -4  -6    0.05    0.06
  -1  -4  -6    0.04    0.03
  -1  -4  -6    0.13    0.11
  -1  -4  -6    0.03    0.05
   1   4   6    0.02    0.10
   1   4   6    0.01    0.03
   1   4   6   -0.03    0.03
   1   4   6   -0.03    0.05
   1   4   6   -0.01    0.03
   1   4   6    0.04    0.06
  -2  -4  -6   56.71    1.95
  -2  -4  -6   54.92    1.96
  -2  -4  -6   60.68    2.01
   2   4   6   57.90    2.00
  -3  -4  -6   56.68    1.99
  -5  -4  -6    3.42    0.17
  -5  -4  -6    3.44    0.14
   5   4   6    3.34    0.13
   5   4   6    3.32    0.18
  -6  -4  -6    1.83    0.14
  -6  -4  -6    1.75    0.09
   6   4   6    1.56    0.17
   6   4   6    1.77    0.09
  -7  -4  -6    1.07    0.08
  -7  -4  -6    1.12    0.14
   7   4   6    1.06    0.08
   7   4   6    0.89    0.12
  -8  -4  -6    2.40    0.18
  -8  -4  -6    2.22    0.11
   8   4   6    1.76    0.23
   8   4   6    2.16    0.11
  -9  -4  -6    0.48    0.05
   9   4   6    0.41    0.15
   9   4   6    0.58    0.06
   6  -5  -6    1.65    0.11
   6  -5  -6    1.67    0.16
  -6   5   6    1.83    0.12
   5  -5  -6   -0.11    0.08
   5  -5  -6    0.01    0.04
  -5   5   6   -0.03    0.05
   4  -5  -6    0.70    0.08
   4  -5  -6    0.71    0.07
  -4   5   6    0.71    0.08
  -4   5   6    0.33    0.16
   3  -5  -6    2.75    0.13
   3  -5  -6    2.43    0.11
  -3   5   6    2.55    0.11
  -3   5   6    2.48    0.22
  -3   5   6    2.42    0.12
   2  -5  -6    0.31    0.11
   2  -5  -6    0.36    0.04
   2  -5  -6    0.38    0.05
  -2   5   6    0.31    0.09
  -2   5   6    0.34    0.04
  -2   5   6    0.53    0.17
  -2   5   6    0.44    0.05
   1  -5  -6    1.21    0.14
   1  -5  -6    1.04    0.13
   1  -5  -6    1.16    0.09
   1  -5  -6    1.17    0.07
   1  -5  -6    1.13    0.07
  -1   5   6    1.15    0.12
  -1   5   6    1.18    0.16
  -1   5   6    1.14    0.07
  -1   5   6    1.14    0.07
  -1   5   6    1.05    0.12
   0  -5  -6    2.32    0.17
   0  -5  -6    2.26    0.09
   0  -5  -6    2.34    0.11
   0  -5  -6    2.15    0.21
   0  -5  -6    2.24    0.10
   0   5   6    2.34    0.10
   0   5   6    2.33    0.09
   0   5   6    2.59    0.22
   0   5   6    2.06    0.14
   0   5   6    2.23    0.09
   0   5   6    2.05    0.16
  -1  -5  -6   20.28    0.74
  -1  -5  -6   18.82    0.70
   1   5   6   19.64    0.73
   1   5   6   19.03    0.69
  -2  -5  -6   11.07    0.38
  -2  -5  -6   10.98    0.37
  -2  -5  -6   10.61    0.46
  -2  -5  -6    9.97    0.41
   2   5   6   10.86    0.37
   2   5   6   11.16    0.37
   2   5   6   10.13    0.39
   2   5   6   10.45    0.39
  -3  -5  -6    1.80    0.12
  -3  -5  -6    1.87    0.09
  -3  -5  -6    1.87    0.19
   3   5   6    1.79    0.13
   3   5   6    1.92    0.08
  -5  -5  -6    2.44    0.15
  -5  -5  -6    2.35    0.11
   5   5   6    2.48    0.10
   5   5   6    2.32    0.16
  -6  -5  -6    2.50    0.16
  -6  -5  -6    2.27    0.11
   6   5   6    2.17    0.10
   6   5   6    2.24    0.17
  -7  -5  -6    2.44    0.17
  -7  -5  -6    2.42    0.11
   7   5   6    2.34    0.11
   7   5   6    2.35    0.19
  -8  -5  -6   -0.01    0.04
  -8  -5  -6    0.21    0.10
   8   5   6   -0.05    0.05
   8   5   6   -0.02    0.12
  -9  -5  -6    0.39    0.05
   9   5   6    0.35    0.06
   9   5   6    0.23    0.14
   6  -6  -6    0.00    0.06
   6  -6  -6    0.20    0.09
  -6   6   6    0.04    0.07
  -6   6   6   -0.46    0.22
   5  -6  -6    1.08    0.14
   5  -6  -6    1.00    0.07
  -5   6   6    1.00    0.11
  -5   6   6    0.57    0.21
   4  -6  -6    0.95    0.09
   4  -6  -6    1.06    0.12
  -4   6   6    0.77    0.18
  -4   6   6    0.95    0.09
   3  -6  -6    0.82    0.10
   3  -6  -6    0.75    0.05
  -3   6   6    0.84    0.13
  -3   6   6    0.70    0.08
   2  -6  -6    1.28    0.14
   2  -6  -6    1.02    0.07
   2  -6  -6    1.11    0.09
   2  -6  -6    1.14    0.09
  -2   6   6    1.15    0.12
  -2   6   6    1.31    0.20
  -2   6   6    0.99    0.08
   1  -6  -6    4.27    0.16
   1  -6  -6    4.35    0.17
   1  -6  -6    4.30    0.26
   1  -6  -6    4.57    0.25
   1  -6  -6    4.60    0.18
  -1   6   6    4.37    0.17
  -1   6   6    4.45    0.30
  -1   6   6    4.34    0.21
   0  -6  -6   12.30    0.42
   0  -6  -6   12.17    0.43
   0  -6  -6   12.25    0.50
   0  -6  -6   11.45    0.48
   0  -6  -6   11.98    0.42
   0   6   6   11.74    0.47
   0   6   6   12.45    0.41
   0   6   6   12.16    0.44
   0   6   6   11.90    0.50
   0   6   6   12.40    0.42
  -1  -6  -6   16.11    0.63
  -1  -6  -6   17.48    0.65
   1   6   6   17.09    0.62
   1   6   6   16.62    0.59
  -2  -6  -6   10.66    0.37
  -2  -6  -6   10.89    0.38
  -2  -6  -6    9.90    0.43
   2   6   6   10.84    0.37
   2   6   6   10.73    0.36
   2   6   6   10.09    0.39
   2   6   6   10.30    0.40
  -3  -6  -6    2.37    0.10
  -3  -6  -6    2.44    0.13
   3   6   6    2.15    0.15
   3   6   6    2.36    0.10
  -4  -6  -6   10.27    0.37
  -4  -6  -6   10.47    0.36
   4   6   6   10.18    0.35
   4   6   6   10.09    0.39
  -5  -6  -6    1.21    0.13
  -5  -6  -6    1.07    0.08
   5   6   6    1.06    0.14
   5   6   6    1.09    0.07
  -6  -6  -6    0.33    0.05
  -6  -6  -6    0.47    0.09
   6   6   6    0.35    0.04
   6   6   6    0.37    0.10
  -7  -6  -6    1.48    0.09
  -7  -6  -6    1.53    0.16
   7   6   6    1.53    0.18
   7   6   6    1.37    0.09
  -8  -6  -6    0.45    0.11
  -8  -6  -6    0.37    0.05
   8   6   6    0.40    0.12
   8   6   6    0.38    0.05
  -9  -6  -6    0.31    0.12
  -9  -6  -6    0.23    0.04
   9   6   6    0.24    0.14
   9   6   6    0.29    0.06
   5  -7  -6    0.39    0.06
   5  -7  -6    0.43    0.10
  -5   7   6    0.45    0.07
  -5   7   6    0.45    0.21
   4  -7  -6    0.19    0.06
   4  -7  -6    0.18    0.08
  -4   7   6    0.06    0.16
  -4   7   6    0.22    0.06
   3  -7  -6    0.22    0.05
   3  -7  -6    0.22    0.07
  -3   7   6    0.21    0.05
  -3   7   6    0.10    0.12
   2  -7  -6    1.17    0.10
   2  -7  -6    1.29    0.08
  -2   7   6    1.33    0.09
  -2   7   6    1.34    0.18
   1  -7  -6   15.74    0.57
   1  -7  -6   16.90    0.58
   1  -7  -6   17.01    0.64
   1  -7  -6   16.34    0.57
  -1   7   6   16.48    0.67
  -1   7   6   16.75    0.57
  -1   7   6   17.30    0.60
   0  -7  -6   10.32    0.43
   0  -7  -6    9.88    0.35
   0  -7  -6    9.87    0.34
   0  -7  -6    9.59    0.44
   0  -7  -6    9.41    0.35
   0  -7  -6   10.06    0.36
   0   7   6   10.47    0.38
   0   7   6    9.91    0.35
  -1  -7  -6    0.52    0.05
  -1  -7  -6    0.49    0.13
  -1  -7  -6    0.61    0.07
   1   7   6    0.58    0.07
   1   7   6    0.55    0.09
   1   7   6    0.55    0.10
   1   7   6    0.59    0.06
  -2  -7  -6    7.04    0.25
  -2  -7  -6    7.14    0.27
   2   7   6    6.79    0.30
   2   7   6    6.66    0.28
   2   7   6    7.20    0.25
  -3  -7  -6    0.67    0.07
  -3  -7  -6    0.42    0.07
   3   7   6    0.43    0.04
   3   7   6    0.34    0.08
  -4  -7  -6    7.55    0.28
  -4  -7  -6    7.36    0.26
   4   7   6    7.03    0.30
   4   7   6    7.38    0.26
  -5  -7  -6   17.54    0.61
   5   7   6   16.78    0.62
  -6  -7  -6    8.36    0.33
  -6  -7  -6    8.33    0.30
   6   7   6    8.42    0.30
   6   7   6    8.46    0.35
  -7  -7  -6    0.02    0.04
  -7  -7  -6    0.16    0.10
   7   7   6    0.06    0.04
   7   7   6    0.03    0.11
  -8  -7  -6    0.24    0.11
  -8  -7  -6    0.14    0.05
   8   7   6    0.23    0.05
   8   7   6    0.24    0.12
   4  -8  -6    2.66    0.18
   4  -8  -6    2.73    0.14
  -4   8   6    2.69    0.15
  -4   8   6    3.02    0.30
   3  -8  -6    1.33    0.10
   3  -8  -6    1.32    0.13
  -3   8   6    1.23    0.11
  -3   8   6    1.46    0.23
   2  -8  -6   -0.04    0.05
   2  -8  -6   -0.05    0.06
  -2   8   6    0.13    0.11
  -2   8   6   -0.06    0.05
   1  -8  -6    0.33    0.06
   1  -8  -6    0.28    0.06
  -1   8   6    0.28    0.05
  -1   8   6    0.34    0.10
   0  -8  -6    8.76    0.32
   0   8   6    8.54    0.31
   0   8   6    8.89    0.35
  -1  -8  -6   31.10    1.15
  -2  -8  -6    1.43    0.11
  -2  -8  -6    1.38    0.09
   2   8   6    1.41    0.15
   2   8   6    1.31    0.08
  -3  -8  -6    0.74    0.08
  -3  -8  -6    0.79    0.08
   3   8   6    0.77    0.07
   3   8   6    0.82    0.10
  -4  -8  -6    4.69    0.18
  -4  -8  -6    4.50    0.20
   4   8   6    4.74    0.17
   4   8   6    4.50    0.23
  -5  -8  -6    1.35    0.09
  -5  -8  -6    1.32    0.15
   5   8   6    1.35    0.08
   5   8   6    1.51    0.17
  -6  -8  -6    3.71    0.16
  -6  -8  -6    4.18    0.21
   6   8   6    3.76    0.15
   6   8   6    3.99    0.23
  -7  -8  -6    2.32    0.19
  -7  -8  -6    2.10    0.11
   7   8   6    2.26    0.21
   7   8   6    2.12    0.11
  -8  -8  -6    0.05    0.05
  -8  -8  -6    0.14    0.12
   8   8   6    0.10    0.05
   8   8   6    0.23    0.13
   3  -9  -6    0.10    0.08
  -3   9   6   -0.01    0.07
  -3   9   6    0.01    0.14
   2  -9  -6    0.07    0.07
  -2   9   6    0.06    0.12
  -2   9   6   -0.06    0.06
  -1   9   6    1.49    0.11
  -1   9   6    1.67    0.19
   0  -9  -6    4.98    0.21
   0   9   6    5.50    0.26
  -1  -9  -6    1.78    0.11
  -1  -9  -6    1.86    0.12
   1   9   6    1.98    0.19
  -2  -9  -6    1.18    0.10
  -2  -9  -6    1.33    0.12
   2   9   6    1.42    0.18
   2   9   6    1.28    0.08
  -3  -9  -6    0.24    0.07
  -3  -9  -6    0.28    0.05
   3   9   6    0.34    0.10
   3   9   6    0.22    0.04
  -4  -9  -6    7.73    0.31
  -4  -9  -6    7.85    0.28
   4   9   6    7.98    0.28
   4   9   6    7.74    0.33
  -5  -9  -6    7.68    0.28
  -5  -9  -6    7.79    0.31
   5   9   6    7.84    0.28
   5   9   6    7.79    0.34
  -6  -9  -6    1.80    0.11
  -6  -9  -6    1.88    0.17
   6   9   6    1.89    0.21
   6   9   6    1.76    0.10
  -7  -9  -6    0.14    0.05
  -7  -9  -6    0.03    0.11
   7   9   6    0.06    0.05
   7   9   6    0.24    0.12
  -8  -9  -6    0.09    0.05
  -8  -9  -6    0.31    0.12
   8   9   6    0.18    0.13
   8   9   6    0.07    0.05
  -2  10   6    3.14    0.27
  -1  10   6    1.34    0.21
   0  10   6    1.30    0.20
  -1 -10  -6    0.71    0.08
   1  10   6    0.95    0.12
  -2 -10  -6    1.08    0.10
  -2 -10  -6    1.04    0.12
   2  10   6    1.36    0.20
  -3 -10  -6    2.26    0.12
  -3 -10  -6    1.95    0.15
   3  10   6    2.24    0.20
   3  10   6    2.00    0.11
  -4 -10  -6    1.98    0.15
  -4 -10  -6    2.06    0.12
   4  10   6    1.88    0.11
   4  10   6    1.98    0.20
  -5 -10  -6    1.46    0.16
  -5 -10  -6    1.57    0.11
   5  10   6    1.75    0.21
   5  10   6    1.50    0.10
  -6 -10  -6    0.26    0.11
  -6 -10  -6    0.37    0.06
   6  10   6    0.26    0.05
   6  10   6    0.44    0.13
  -7 -10  -6    0.08    0.06
  -7 -10  -6    0.01    0.11
   7  10   6    0.00    0.05
   7  10   6    0.12    0.13
   0  11   6    0.77    0.14
   1  11   6    0.69    0.13
  -2 -11  -6    2.53    0.14
  -2 -11  -6    2.53    0.16
   2  11   6    2.87    0.23
  -3 -11  -6    3.98    0.18
  -3 -11  -6    3.76    0.20
   3  11   6    4.11    0.26
  -4 -11  -6    1.95    0.13
  -4 -11  -6    1.92    0.17
   4  11   6    1.97    0.11
   4  11   6    1.96    0.22
  -5 -11  -6    0.02    0.10
  -5 -11  -6    0.10    0.07
   5  11   6    0.17    0.12
   5  11   6    0.07    0.05
  -6 -11  -6    0.02    0.11
   6  11   6    0.13    0.13
   6  11   6    0.00    0.06
   2   6  -7    0.17    0.11
   2   6  -7    0.04    0.07
  -2  -6   7   -0.10    0.12
  -2  -6   7    0.10    0.08
   1   6  -7    0.59    0.12
  -1  -6   7    0.57    0.08
  -1  -6   7    0.50    0.13
   5   5  -7    0.58    0.12
   5   5  -7    0.57    0.07
  -5  -5   7    0.44    0.07
  -5  -5   7    0.42    0.13
   4   5  -7    0.21    0.12
   4   5  -7    0.13    0.06
  -4  -5   7    0.07    0.07
  -4  -5   7   -0.06    0.12
   3   5  -7    0.21    0.06
   3   5  -7    0.32    0.11
  -3  -5   7    0.29    0.07
  -3  -5   7    0.07    0.11
   2   5  -7    4.28    0.24
   2   5  -7    4.07    0.18
  -2  -5   7    4.16    0.19
  -2  -5   7    4.38    0.24
   1   5  -7    2.33    0.19
  -1  -5   7    2.14    0.14
  -1  -5   7    2.01    0.20
   0   5  -7    0.49    0.11
   0  -5   7    0.34    0.12
   0  -5   7    0.36    0.07
   1  -5   7    1.64    0.20
   2  -5   7    0.73    0.13
   6   4  -7    1.68    0.21
   6   4  -7    1.35    0.11
  -6  -4   7    1.29    0.11
  -6  -4   7    1.14    0.13
   5   4  -7    0.93    0.07
   5   4  -7    0.80    0.12
  -5  -4   7    0.81    0.07
  -5  -4   7    0.75    0.12
   4   4  -7    1.36    0.11
   4   4  -7    1.27    0.13
  -4  -4   7    1.05    0.11
  -4  -4   7    1.21    0.13
   3   4  -7    4.71    0.24
   3   4  -7    4.43    0.18
  -3  -4   7    4.31    0.19
  -3  -4   7    4.17    0.24
   2   4  -7    0.55    0.11
   2   4  -7    0.67    0.06
  -2  -4   7    0.66    0.11
  -2  -4   7    0.59    0.07
   1   4  -7    4.89    0.20
   1   4  -7    5.26    0.24
  -1  -4   7    5.07    0.21
  -1  -4   7    4.89    0.24
   0   4  -7    3.92    0.22
   0  -4   7    3.62    0.18
   0  -4   7    3.73    0.22
  -1   4  -7    0.05    0.10
   1  -4   7    0.27    0.10
   2  -4   7    2.60    0.20
   3  -4   7    0.59    0.12
   6   3  -7    0.00    0.05
   6   3  -7    0.10    0.11
  -6  -3   7   -0.05    0.10
  -6  -3   7   -0.01    0.05
   5   3  -7    0.11    0.11
   5   3  -7    0.10    0.05
  -5  -3   7    0.03    0.06
  -5  -3   7   -0.08    0.10
   4   3  -7    0.07    0.10
   4   3  -7    0.07    0.05
  -4  -3   7   -0.03    0.09
  -4  -3   7    0.00    0.05
   3   3  -7    5.68    0.26
   3   3  -7    5.51    0.21
  -3  -3   7    5.42    0.22
  -3  -3   7    5.74    0.25
   2   3  -7    0.49    0.10
   2   3  -7    0.44    0.05
  -2  -3   7    0.45    0.06
  -2  -3   7    0.40    0.09
   1   3  -7    0.21    0.09
   1   3  -7    0.15    0.05
  -1  -3   7    0.10    0.08
  -1  -3   7    0.10    0.06
   0   3  -7    0.59    0.10
   0   3  -7    0.42    0.05
   0  -3   7    0.47    0.07
   0  -3   7    0.46    0.09
  -1   3  -7    0.56    0.10
   1  -3   7    0.60    0.07
   1  -3   7    0.69    0.10
  -2   3  -7    0.46    0.12
   2  -3   7    0.55    0.10
   3  -3   7    2.09    0.18
  -4   3  -7    0.68    0.08
   4  -3   7    0.93    0.11
  -5   3  -7    0.10    0.08
   7   2  -7    0.66    0.06
   7   2  -7    0.74    0.12
  -7  -2   7    0.75    0.11
  -7  -2   7    0.68    0.07
   6   2  -7    0.65    0.06
   6   2  -7    0.79    0.12
  -6  -2   7    0.71    0.06
  -6  -2   7    0.67    0.10
   5   2  -7    1.43    0.17
   5   2  -7    1.10    0.09
  -5  -2   7    1.03    0.09
  -5  -2   7    0.93    0.11
   4   2  -7    0.38    0.10
   4   2  -7    0.28    0.05
  -4  -2   7    0.19    0.05
  -4  -2   7    0.29    0.09
   3   2  -7    3.19    0.13
   3   2  -7    3.20    0.19
  -3  -2   7    3.13    0.14
  -3  -2   7    3.16    0.17
   2   2  -7    6.23    0.27
   2   2  -7    6.41    0.23
  -2  -2   7    6.47    0.26
  -2  -2   7    6.49    0.24
   1   2  -7    5.01    0.19
   1   2  -7    5.22    0.23
  -1  -2   7    5.29    0.22
  -1  -2   7    5.12    0.20
   0   2  -7    4.94    0.20
   0   2  -7    5.58    0.24
   0  -2   7    5.27    0.23
   0  -2   7    5.16    0.20
  -1   2  -7    9.10    0.34
   1  -2   7    8.32    0.31
   1  -2   7    8.42    0.33
  -2   2  -7    0.22    0.06
  -2   2  -7    0.19    0.11
   2  -2   7    0.20    0.08
  -3   2  -7    5.60    0.29
  -3   2  -7    5.01    0.21
   3  -2   7    5.07    0.23
  -4   2  -7    2.28    0.14
  -4   2  -7    2.05    0.16
   4  -2   7    2.19    0.16
  -5   2  -7    0.12    0.09
  -5   2  -7    0.23    0.07
   5  -2   7    0.29    0.09
   5  -2   7    0.21    0.07
   7   1  -7    0.04    0.05
   7   1  -7    0.17    0.11
  -7  -1   7    0.05    0.10
  -7  -1   7    0.07    0.04
   6   1  -7    3.80    0.16
   6   1  -7    4.02    0.22
  -6  -1   7    3.82    0.20
  -6  -1   7    3.75    0.15
   5   1  -7    0.51    0.10
   5   1  -7    0.50    0.05
  -5  -1   7    0.42    0.05
  -5  -1   7    0.48    0.08
   4   1  -7    5.98    0.22
   4   1  -7    6.21    0.26
  -4  -1   7    5.99    0.22
  -4  -1   7    5.76    0.24
   3   1  -7   11.27    0.41
   3   1  -7   11.26    0.39
  -3  -1   7   11.23    0.39
  -3  -1   7   11.00    0.41
   2   1  -7    0.24    0.08
   2   1  -7    0.21    0.04
  -2  -1   7    0.23    0.07
  -2  -1   7    0.24    0.05
   1   1  -7   12.27    0.43
   1   1  -7   12.46    0.45
  -1  -1   7   12.46    0.43
  -1  -1   7   12.54    0.44
   0   1  -7    2.02    0.10
   0   1  -7    2.17    0.15
   0  -1   7    2.19    0.19
   0  -1   7    2.25    0.11
   0  -1   7    2.16    0.13
  -1   1  -7    8.26    0.40
  -1   1  -7    9.44    0.34
  -1   1  -7    8.31    0.31
  -1   1  -7    8.30    0.31
   1  -1   7    9.25    0.32
   1  -1   7    8.65    0.31
   1  -1   7    8.37    0.39
  -2   1  -7   20.72    0.67
  -2   1  -7   17.31    0.64
   2  -1   7   17.79    0.65
  -3   1  -7    1.19    0.09
  -3   1  -7    0.87    0.14
  -3   1  -7    0.96    0.11
   3  -1   7    1.21    0.12
   3  -1   7    1.07    0.08
  -4   1  -7    2.99    0.17
  -4   1  -7    2.46    0.25
  -4   1  -7    3.40    0.15
   4  -1   7    3.16    0.14
   4  -1   7    3.45    0.17
  -5   1  -7    2.87    0.15
  -5   1  -7    2.60    0.18
   5  -1   7    2.61    0.14
   5  -1   7    2.72    0.17
  -6   1  -7    0.05    0.10
  -6   1  -7    0.09    0.07
   6  -1   7    0.16    0.09
   6  -1   7    0.04    0.06
   7   0  -7    0.60    0.06
  -7   0   7    0.68    0.07
  -7   0   7    0.60    0.10
   6   0  -7    0.29    0.05
   6   0  -7    0.41    0.09
  -6   0   7    0.35    0.09
  -6   0   7    0.28    0.05
   5   0  -7    0.44    0.05
   5   0  -7    0.45    0.09
  -5   0   7    0.35    0.05
  -5   0   7    0.34    0.08
   4   0  -7    1.53    0.13
   4   0  -7    1.45    0.08
  -4   0   7    1.38    0.12
  -4   0   7    1.36    0.09
   3   0  -7    5.40    0.23
   3   0  -7    5.14    0.19
  -3   0   7    5.34    0.22
  -3   0   7    5.55    0.20
   2   0  -7   12.70    0.43
   2   0  -7   12.18    0.44
  -2   0   7   12.35    0.43
  -2   0   7   12.33    0.44
   1   0  -7    0.22    0.11
   1   0  -7    0.13    0.04
   1   0  -7    0.10    0.07
  -1   0   7    0.13    0.11
  -1   0   7    0.14    0.04
  -1   0   7    0.10    0.06
   0   0  -7   14.26    0.50
   0   0  -7   14.97    0.57
   0   0  -7   14.43    0.52
   0   0   7   14.49    0.51
   0   0   7   14.64    0.57
   0   0   7   15.12    0.51
  -1   0  -7    6.49    0.26
  -1   0  -7    6.17    0.23
  -1   0  -7    6.24    0.23
  -1   0  -7    6.09    0.31
   1   0   7    6.35    0.24
   1   0   7    6.24    0.31
   1   0   7    6.44    0.23
  -2   0  -7    3.47    0.20
  -2   0  -7    3.34    0.14
   2   0   7    3.38    0.15
   2   0   7    3.11    0.13
   2   0   7    3.28    0.22
   2   0   7    3.27    0.14
  -3   0  -7    9.99    0.43
  -3   0  -7   10.49    0.38
  -3   0  -7   11.17    0.37
   3   0   7   10.97    0.38
   3   0   7   10.18    0.37
  -4   0  -7    0.54    0.08
  -4   0  -7    0.54    0.06
  -4   0  -7    0.46    0.13
   4   0   7    0.65    0.06
   4   0   7    0.66    0.07
  -5   0  -7    3.69    0.16
  -5   0  -7    3.40    0.19
   5   0   7    3.51    0.15
   5   0   7    3.51    0.17
  -6   0  -7    2.74    0.19
  -6   0  -7    2.98    0.15
   6   0   7    2.98    0.17
   6   0   7    3.00    0.14
  -7   0  -7   -0.03    0.07
  -7   0  -7    0.01    0.11
   7   0   7    0.08    0.06
   7  -1  -7    0.04    0.05
  -7   1   7    0.05    0.04
  -7   1   7    0.07    0.09
   6  -1  -7    0.82    0.10
   6  -1  -7    0.86    0.08
  -6   1   7    0.93    0.08
  -6   1   7    0.97    0.09
   5  -1  -7    1.77    0.10
   5  -1  -7    1.97    0.15
  -5   1   7    1.88    0.13
  -5   1   7    1.91    0.10
   4  -1  -7    3.05    0.13
   4  -1  -7    3.30    0.17
  -4   1   7    3.13    0.13
  -4   1   7    3.07    0.15
   3  -1  -7    0.28    0.04
   3  -1  -7    0.32    0.07
  -3   1   7    0.28    0.04
  -3   1   7    0.33    0.06
   2  -1  -7    0.35    0.07
   2  -1  -7    0.35    0.04
  -2   1   7    0.44    0.06
  -2   1   7    0.33    0.04
   1  -1  -7    0.51    0.11
   1  -1  -7    0.38    0.04
   1  -1  -7    0.45    0.10
   1  -1  -7    0.37    0.06
  -1   1   7    0.50    0.05
  -1   1   7    0.44    0.06
   0  -1  -7    9.28    0.34
   0  -1  -7    8.73    0.38
   0  -1  -7    8.66    0.32
   0  -1  -7    9.22    0.32
   0  -1  -7    8.94    0.38
   0   1   7    9.39    0.38
   0   1   7    9.39    0.33
   0   1   7    9.04    0.32
  -1  -1  -7   20.48    0.78
  -1  -1  -7   22.31    0.78
   1   1   7   21.86    0.78
  -2  -1  -7    5.94    0.22
  -2  -1  -7    5.59    0.26
   2   1   7    5.85    0.26
   2   1   7    5.70    0.21
   2   1   7    5.78    0.23
   2   1   7    6.29    0.22
   2   1   7    6.19    0.22
  -3  -1  -7    1.34    0.17
  -3  -1  -7    1.84    0.10
   3   1   7    1.56    0.09
   3   1   7    1.73    0.13
   3   1   7    1.76    0.10
  -4  -1  -7    0.40    0.11
  -4  -1  -7    0.41    0.07
  -4  -1  -7    0.35    0.05
   4   1   7    0.41    0.05
   4   1   7    0.57    0.06
  -5  -1  -7    0.09    0.05
  -5  -1  -7    0.15    0.10
  -5  -1  -7    0.09    0.08
   5   1   7    0.16    0.06
   5   1   7    0.13    0.05
  -6  -1  -7    2.73    0.18
  -6  -1  -7    2.96    0.15
   6   1   7    2.97    0.15
   6   1   7    2.87    0.14
  -7  -1  -7    1.35    0.18
  -7  -1  -7    1.38    0.12
   7   1   7    1.53    0.11
   7  -2  -7    0.22    0.05
  -7   2   7    0.19    0.05
  -7   2   7    0.17    0.09
   6  -2  -7    0.20    0.05
  -6   2   7    0.27    0.05
  -6   2   7    0.24    0.08
   5  -2  -7    3.21    0.16
   5  -2  -7    3.12    0.13
  -5   2   7    3.23    0.14
  -5   2   7    3.25    0.17
   4  -2  -7    6.56    0.24
   4  -2  -7    6.49    0.26
  -4   2   7    6.77    0.26
  -4   2   7    6.89    0.24
   3  -2  -7    1.20    0.07
   3  -2  -7    1.32    0.11
  -3   2   7    1.27    0.10
  -3   2   7    1.17    0.08
   2  -2  -7    7.44    0.36
   2  -2  -7    7.66    0.29
   2  -2  -7    7.72    0.27
  -2   2   7    7.93    0.28
  -2   2   7    8.05    0.28
   1  -2  -7   21.03    0.76
   1  -2  -7   20.48    0.77
   0  -2  -7    0.09    0.06
   0  -2  -7    0.04    0.04
   0  -2  -7    0.06    0.03
   0  -2  -7    0.02    0.08
   0  -2  -7    0.11    0.09
   0   2   7    0.04    0.04
   0   2   7    0.12    0.04
   0   2   7    0.10    0.06
  -1  -2  -7   12.56    0.48
  -1  -2  -7   12.05    0.45
  -1  -2  -7   12.56    0.48
  -1  -2  -7   12.80    0.43
  -1  -2  -7   12.34    0.43
   1   2   7   12.71    0.43
   1   2   7   13.01    0.43
   1   2   7   12.72    0.43
   1   2   7   11.89    0.44
  -2  -2  -7   16.16    0.54
  -2  -2  -7   15.89    0.57
   2   2   7   15.94    0.54
   2   2   7   15.26    0.54
  -3  -2  -7    0.16    0.09
  -3  -2  -7    0.17    0.04
   3   2   7    0.12    0.06
   3   2   7    0.11    0.03
   3   2   7    0.27    0.05
  -4  -2  -7    4.49    0.18
  -4  -2  -7    4.50    0.22
   4   2   7    4.56    0.21
   4   2   7    4.37    0.17
   4   2   7    4.48    0.18
  -5  -2  -7    6.31    0.26
  -5  -2  -7    6.35    0.24
  -5  -2  -7    6.22    0.28
   5   2   7    6.43    0.24
   5   2   7    6.38    0.23
  -6  -2  -7    1.28    0.17
  -6  -2  -7    1.30    0.15
  -6  -2  -7    1.23    0.10
   6   2   7    1.27    0.10
  -7  -2  -7    2.27    0.19
  -7  -2  -7    2.08    0.13
   7   2   7    2.29    0.12
  -8  -2  -7    0.11    0.07
  -8  -2  -7    0.21    0.12
   8   2   7    0.15    0.07
   7  -3  -7    0.11    0.05
  -7   3   7    0.14    0.09
  -7   3   7    0.19    0.06
   6  -3  -7    1.18    0.09
  -6   3   7    1.23    0.14
  -6   3   7    1.09    0.09
   5  -3  -7    4.22    0.19
   5  -3  -7    4.11    0.16
  -5   3   7    4.24    0.19
  -5   3   7    4.04    0.17
   4  -3  -7    0.29    0.04
   4  -3  -7    0.30    0.06
  -4   3   7    0.27    0.05
  -4   3   7    0.30    0.06
   3  -3  -7    4.25    0.16
   3  -3  -7    4.15    0.18
  -3   3   7    4.24    0.16
  -3   3   7    4.25    0.17
   2  -3  -7    0.80    0.10
   2  -3  -7    0.77    0.06
   2  -3  -7    0.59    0.13
  -2   3   7    0.56    0.10
  -2   3   7    0.92    0.07
  -2   3   7    0.83    0.08
   1  -3  -7   31.96    1.17
   1  -3  -7   31.71    1.13
   1  -3  -7   31.40    1.13
   0  -3  -7   73.91    2.58
   0  -3  -7   76.49    2.63
   0  -3  -7   75.97    2.58
  -1  -3  -7   21.11    0.81
  -1  -3  -7   20.22    0.73
  -1  -3  -7   20.11    0.73
   1   3   7   20.57    0.70
  -2  -3  -7    2.20    0.10
  -2  -3  -7    2.30    0.14
   2   3   7    2.11    0.12
   2   3   7    2.35    0.10
   2   3   7    2.23    0.09
   2   3   7    2.16    0.10
  -3  -3  -7    6.22    0.26
  -3  -3  -7    6.23    0.22
   3   3   7    6.35    0.22
   3   3   7    5.94    0.24
   3   3   7    6.02    0.22
  -4  -3  -7    2.19    0.11
   4   3   7    2.29    0.10
   4   3   7    2.18    0.15
   4   3   7    2.40    0.11
  -5  -3  -7   18.25    0.67
   5   3   7   18.63    0.64
   5   3   7   19.24    0.67
  -6  -3  -7    2.68    0.13
  -6  -3  -7    2.97    0.19
   6   3   7    2.88    0.12
   6   3   7    2.53    0.20
  -7  -3  -7    0.12    0.06
  -7  -3  -7    0.16    0.10
   7   3   7   -0.08    0.12
   7   3   7    0.09    0.05
  -8  -3  -7    0.84    0.07
  -8  -3  -7    0.90    0.13
   8   3   7    0.75    0.15
   8   3   7    0.91    0.07
   6  -4  -7    0.04    0.05
  -6   4   7   -0.04    0.05
  -6   4   7    0.01    0.08
   5  -4  -7    0.51    0.05
  -5   4   7    0.56    0.06
  -5   4   7    0.58    0.08
   4  -4  -7    3.99    0.15
   4  -4  -7    4.06    0.18
  -4   4   7    3.92    0.16
  -4   4   7    3.86    0.17
  -4   4   7    3.23    0.26
   3  -4  -7    0.50    0.07
   3  -4  -7    0.45    0.04
  -3   4   7    0.31    0.12
  -3   4   7    0.54    0.05
  -3   4   7    0.57    0.06
   2  -4  -7    5.07    0.32
   2  -4  -7    5.03    0.20
   2  -4  -7    5.00    0.18
  -2   4   7    4.82    0.19
  -2   4   7    4.95    0.19
  -2   4   7    5.14    0.25
   1  -4  -7    3.30    0.23
   1  -4  -7    3.47    0.13
   1  -4  -7    3.42    0.16
   1  -4  -7    3.55    0.27
   1  -4  -7    3.53    0.24
  -1   4   7    3.27    0.14
  -1   4   7    3.50    0.21
  -1   4   7    3.44    0.18
  -1   4   7    3.59    0.14
   0  -4  -7    6.66    0.32
   0  -4  -7    6.63    0.32
   0  -4  -7    7.16    0.27
   0  -4  -7    7.36    0.25
   0  -4  -7    6.97    0.36
   0  -4  -7    7.47    0.26
   0   4   7    7.35    0.30
   0   4   7    7.14    0.25
   0   4   7    7.31    0.26
   0   4   7    7.04    0.28
  -1  -4  -7    7.27    0.25
  -1  -4  -7    6.99    0.30
  -1  -4  -7    7.05    0.31
  -1  -4  -7    7.11    0.27
  -1  -4  -7    7.39    0.26
   1   4   7    7.12    0.25
   1   4   7    6.91    0.27
   1   4   7    7.41    0.25
   1   4   7    7.38    0.26
  -3  -4  -7    8.49    0.32
  -3  -4  -7    8.75    0.30
   3   4   7    8.11    0.29
   3   4   7    8.17    0.32
  -4  -4  -7    5.70    0.24
  -4  -4  -7    5.55    0.21
   4   4   7    5.66    0.20
   4   4   7    5.50    0.24
  -5  -4  -7    0.01    0.05
  -5  -4  -7    0.05    0.09
   5   4   7    0.05    0.08
   5   4   7    0.05    0.04
  -6  -4  -7    4.24    0.22
  -6  -4  -7    4.26    0.17
   6   4   7    4.26    0.23
   6   4   7    4.33    0.17
  -7  -4  -7    1.37    0.17
  -7  -4  -7    1.33    0.10
   7   4   7    1.36    0.10
   7   4   7    1.19    0.20
  -8  -4  -7    0.34    0.06
   8   4   7    0.21    0.13
   8   4   7    0.38    0.06
   6  -5  -7    0.04    0.09
   6  -5  -7    0.02    0.05
  -6   5   7    0.00    0.06
   5  -5  -7    0.46    0.05
   5  -5  -7    0.51    0.09
  -5   5   7    0.55    0.06
  -5   5   7   -0.02    0.18
   4  -5  -7    0.92    0.08
  -4   5   7    1.09    0.11
  -4   5   7    0.64    0.17
  -4   5   7    1.03    0.09
   3  -5  -7    3.76    0.16
   3  -5  -7    3.58    0.14
  -3   5   7    3.57    0.16
  -3   5   7    3.47    0.25
  -3   5   7    3.59    0.15
   2  -5  -7    6.47    0.24
   2  -5  -7    6.33    0.23
   2  -5  -7    6.22    0.33
  -2   5   7    6.27    0.23
  -2   5   7    6.46    0.29
  -2   5   7    6.17    0.23
   1  -5  -7    7.75    0.37
   1  -5  -7    7.94    0.28
   1  -5  -7    8.19    0.29
   1  -5  -7    7.99    0.38
  -1   5   7    7.68    0.28
  -1   5   7    7.95    0.28
  -1   5   7    7.74    0.31
   0  -5  -7    2.49    0.13
   0  -5  -7    2.22    0.20
   0  -5  -7    2.52    0.11
   0  -5  -7    2.50    0.10
   0   5   7    2.31    0.10
   0   5   7    2.28    0.15
   0   5   7    2.86    0.18
   0   5   7    2.41    0.11
  -1  -5  -7    3.86    0.20
  -1  -5  -7    3.80    0.14
  -1  -5  -7    3.86    0.15
  -1  -5  -7    3.76    0.17
  -1  -5  -7    3.45    0.21
   1   5   7    3.60    0.18
   1   5   7    3.76    0.14
   1   5   7    3.69    0.19
   1   5   7    3.71    0.14
   1   5   7    3.80    0.15
  -2  -5  -7   15.61    0.55
   2   5   7   15.76    0.54
   2   5   7   15.88    0.53
   2   5   7   15.21    0.55
  -3  -5  -7   13.27    0.45
  -3  -5  -7   13.43    0.47
   3   5   7   12.99    0.47
   3   5   7   12.89    0.45
  -4  -5  -7    3.71    0.19
  -4  -5  -7    3.78    0.15
   4   5   7    3.76    0.14
   4   5   7    3.62    0.19
  -5  -5  -7    3.16    0.13
  -5  -5  -7    3.06    0.18
   5   5   7    3.06    0.19
   5   5   7    3.06    0.13
  -6  -5  -7    0.00    0.05
  -6  -5  -7    0.02    0.09
   6   5   7    0.03    0.10
   6   5   7    0.02    0.04
  -7  -5  -7    0.97    0.09
  -7  -5  -7    1.27    0.17
   7   5   7    0.91    0.09
   7   5   7    0.96    0.13
  -8  -5  -7    0.04    0.06
  -8  -5  -7    0.22    0.11
   8   5   7    0.10    0.13
   8   5   7    0.02    0.05
   5  -6  -7   -0.09    0.09
   5  -6  -7    0.07    0.06
  -5   6   7    0.03    0.06
   4  -6  -7    0.62    0.08
   4  -6  -7    0.61    0.06
  -4   6   7    0.56    0.06
  -4   6   7    0.44    0.18
   3  -6  -7    0.81    0.10
   3  -6  -7    0.64    0.06
  -3   6   7    0.79    0.06
  -3   6   7    0.72    0.14
   2  -6  -7    2.14    0.10
   2  -6  -7    2.10    0.13
  -2   6   7    1.98    0.11
  -2   6   7    2.19    0.20
  -2   6   7    2.11    0.11
   1  -6  -7    7.94    0.29
   1  -6  -7    8.31    0.30
  -1   6   7    8.12    0.29
  -1   6   7    8.06    0.29
  -1   6   7    8.54    0.33
   0  -6  -7    4.38    0.16
   0  -6  -7    4.13    0.26
   0  -6  -7    4.31    0.17
   0  -6  -7    4.39    0.18
   0   6   7    3.99    0.23
   0   6   7    4.34    0.16
   0   6   7    4.36    0.21
   0   6   7    4.39    0.17
  -1  -6  -7    1.98    0.10
  -1  -6  -7    1.94    0.12
  -1  -6  -7    1.68    0.18
   1   6   7    1.70    0.15
   1   6   7    1.84    0.09
   1   6   7    1.74    0.09
   1   6   7    1.70    0.15
   2   6   7   25.89    0.90
  -3  -6  -7    3.35    0.14
  -3  -6  -7    3.39    0.17
   3   6   7    3.16    0.13
   3   6   7    3.33    0.18
  -4  -6  -7    0.72    0.08
  -4  -6  -7    0.95    0.12
   4   6   7    1.00    0.14
   4   6   7    0.74    0.07
  -5  -6  -7    1.32    0.09
  -5  -6  -7    1.45    0.14
   5   6   7    1.28    0.08
   5   6   7    1.37    0.16
  -6  -6  -7    0.25    0.10
  -6  -6  -7    0.20    0.05
   6   6   7    0.28    0.05
   6   6   7    0.28    0.10
  -7  -6  -7    2.85    0.13
  -7  -6  -7    3.15    0.21
   7   6   7    2.92    0.22
   7   6   7    3.04    0.13
  -8  -6  -7    2.08    0.12
  -8  -6  -7    2.54    0.22
   8   6   7    2.17    0.12
   8   6   7    2.25    0.23
   5  -7  -7   -0.04    0.06
   5  -7  -7   -0.09    0.09
  -5   7   7   -0.04    0.07
   4  -7  -7    0.11    0.08
   4  -7  -7    0.12    0.06
  -4   7   7   -0.24    0.17
  -4   7   7    0.14    0.06
   3  -7  -7    5.65    0.22
   3  -7  -7    5.70    0.24
  -3   7   7    5.72    0.23
  -3   7   7    7.12    0.33
   2  -7  -7   10.45    0.37
   2  -7  -7   10.48    0.38
   2  -7  -7   10.15    0.38
  -2   7   7   12.03    0.43
  -2   7   7   10.40    0.38
   1  -7  -7    9.08    0.34
   1  -7  -7    9.34    0.34
   1  -7  -7    9.69    0.35
  -1   7   7    9.49    0.34
  -1   7   7   10.36    0.38
   0  -7  -7    1.98    0.19
   0  -7  -7    2.24    0.13
   0   7   7    2.23    0.11
   0   7   7    2.43    0.18
  -1  -7  -7    0.91    0.08
  -1  -7  -7    0.87    0.11
   1   7   7    0.91    0.12
   1   7   7    0.80    0.10
  -2  -7  -7    1.86    0.10
  -2  -7  -7    1.91    0.13
   2   7   7    1.89    0.09
   2   7   7    1.84    0.16
  -4  -7  -7   12.62    0.46
  -4  -7  -7   12.57    0.44
   4   7   7   12.35    0.47
   4   7   7   12.63    0.43
  -5  -7  -7    0.68    0.06
  -5  -7  -7    0.69    0.09
   5   7   7    0.63    0.05
   5   7   7    0.82    0.11
  -6  -7  -7    1.04    0.09
  -6  -7  -7    1.07    0.15
   6   7   7    1.06    0.08
   6   7   7    1.31    0.18
  -7  -7  -7    0.13    0.11
  -7  -7  -7    0.06    0.05
   7   7   7    0.09    0.05
   7   7   7    0.12    0.11
  -8  -7  -7    1.46    0.10
  -8  -7  -7    1.71    0.21
   8   7   7    1.47    0.10
   8   7   7    1.66    0.23
   4  -8  -7    0.04    0.09
   4  -8  -7    0.03    0.06
  -4   8   7   -0.12    0.07
  -4   8   7   -0.24    0.17
   3  -8  -7    0.28    0.08
   3  -8  -7    0.43    0.06
  -3   8   7    0.35    0.14
  -3   8   7    0.36    0.07
   2  -8  -7    0.21    0.07
   2  -8  -7    0.21    0.05
  -2   8   7    0.25    0.12
  -2   8   7    0.16    0.06
   1  -8  -7    2.30    0.14
  -1   8   7    2.89    0.21
  -1   8   7    2.35    0.12
   0  -8  -7    0.02    0.06
   0   8   7    0.09    0.10
   0   8   7    0.06    0.05
  -1  -8  -7    0.70    0.08
  -1  -8  -7    0.57    0.06
   1   8   7    0.71    0.11
  -2  -8  -7   10.18    0.36
  -2  -8  -7   10.39    0.38
   2   8   7   10.34    0.40
   2   8   7   10.20    0.36
  -3  -8  -7    2.10    0.15
  -3  -8  -7    2.19    0.11
   3   8   7    2.08    0.18
   3   8   7    2.12    0.10
  -4  -8  -7    0.01    0.05
  -4  -8  -7    0.02    0.08
   4   8   7    0.10    0.10
   4   8   7    0.09    0.04
  -5  -8  -7    0.25    0.05
  -5  -8  -7    0.32    0.09
   5   8   7    0.29    0.11
   5   8   7    0.24    0.05
  -6  -8  -7    1.14    0.10
  -6  -8  -7    1.18    0.12
   6   8   7    1.29    0.19
   6   8   7    1.27    0.09
  -7  -8  -7    2.94    0.14
  -7  -8  -7    3.19    0.21
   7   8   7    3.15    0.23
   7   8   7    2.99    0.14
  -8  -8  -7    0.63    0.06
  -8  -8  -7    0.69    0.13
   8   8   7    0.61    0.06
   8   8   7    0.60    0.13
   3  -9  -7    0.32    0.09
  -3   9   7    0.34    0.15
  -3   9   7    0.27    0.07
  -2   9   7    1.42    0.22
  -2   9   7    1.27    0.11
  -1   9   7    3.14    0.24
   0  -9  -7    5.03    0.22
   0   9   7    5.70    0.28
  -1  -9  -7    4.06    0.19
   1   9   7    4.66    0.26
  -2  -9  -7    5.46    0.23
  -2  -9  -7    5.45    0.21
   2   9   7    5.73    0.28
  -3  -9  -7    4.83    0.22
  -3  -9  -7    4.91    0.19
   3   9   7    4.81    0.18
   3   9   7    4.79    0.25
  -4  -9  -7    0.99    0.14
  -4  -9  -7    0.96    0.09
   4   9   7    1.07    0.17
   4   9   7    0.97    0.08
  -5  -9  -7    0.76    0.10
  -5  -9  -7    0.69    0.06
   5   9   7    0.54    0.06
   5   9   7    0.64    0.12
  -6  -9  -7    0.42    0.06
  -6  -9  -7    0.47    0.11
   6   9   7    0.47    0.12
   6   9   7    0.40    0.06
  -7  -9  -7    1.37    0.11
  -7  -9  -7    1.59    0.20
   7   9   7    1.40    0.10
   7   9   7    1.40    0.23
  -2  10   7    0.41    0.15
  -1  10   7    0.91    0.15
   0  10   7    1.71    0.22
  -1 -10  -7   -0.02    0.07
   1  10   7    0.01    0.12
  -2 -10  -7    0.16    0.06
  -2 -10  -7    0.09    0.08
   2  10   7    0.25    0.12
  -3 -10  -7    0.28    0.06
  -3 -10  -7    0.24    0.08
   3  10   7    0.28    0.05
   3  10   7    0.46    0.12
  -4 -10  -7    0.31    0.09
  -4 -10  -7    0.41    0.07
   4  10   7    0.49    0.12
   4  10   7    0.34    0.05
  -5 -10  -7    2.05    0.18
  -5 -10  -7    2.25    0.13
   5  10   7    2.22    0.12
   5  10   7    2.33    0.23
  -6 -10  -7    1.94    0.13
  -6 -10  -7    2.06    0.19
   6  10   7    1.86    0.11
   6  10   7    2.13    0.24
   0  11   7    0.77    0.15
   1  11   7    4.83    0.29
  -2 -11  -7    3.85    0.21
   2  11   7    4.26    0.27
  -3 -11  -7    0.63    0.08
  -3 -11  -7    0.52    0.10
   3  11   7    0.61    0.14
  -4 -11  -7    0.03    0.07
  -4 -11  -7   -0.04    0.09
   4  11   7   -0.02    0.06
   4  11   7    0.10    0.12
  -5 -11  -7    0.30    0.11
  -5 -11  -7    0.42    0.07
   5  11   7    0.34    0.06
   5  11   7    0.40    0.14
   4   4  -8    0.55    0.13
   4   4  -8    0.55    0.07
  -4  -4   8    0.41    0.08
  -4  -4   8    0.34    0.13
   3   4  -8    0.53    0.07
   3   4  -8    0.50    0.12
  -3  -4   8    0.42    0.08
  -3  -4   8    0.18    0.12
   2   4  -8    0.18    0.06
   2   4  -8    0.30    0.11
  -2  -4   8    0.04    0.11
  -2  -4   8    0.22    0.07
   1   4  -8    0.11    0.12
  -1  -4   8    0.10    0.07
  -1  -4   8    0.10    0.11
   0   4  -8    0.94    0.13
   0  -4   8    0.87    0.13
   0  -4   8    0.90    0.09
  -1   4  -8    0.29    0.12
   1  -4   8    0.22    0.12
   2  -4   8    0.00    0.12
   5   3  -8    2.50    0.22
   5   3  -8    2.29    0.13
  -5  -3   8    1.96    0.20
  -5  -3   8    2.12    0.14
   4   3  -8    0.05    0.06
   4   3  -8    0.14    0.12
  -4  -3   8   -0.04    0.11
  -4  -3   8    0.05    0.07
   3   3  -8    0.09    0.11
   3   3  -8    0.07    0.06
  -3  -3   8   -0.02    0.06
  -3  -3   8   -0.04    0.11
   2   3  -8    0.80    0.07
   2   3  -8    1.09    0.12
  -2  -3   8    0.86    0.08
  -2  -3   8    0.74    0.11
   1   3  -8    0.10    0.06
   1   3  -8    0.12    0.11
  -1  -3   8    0.13    0.07
  -1  -3   8    0.11    0.10
   0   3  -8    2.25    0.19
   0  -3   8    2.12    0.14
   0  -3   8    2.17    0.18
  -1   3  -8    3.06    0.21
   1  -3   8    3.27    0.21
  -2   3  -8    0.27    0.13
   2  -3   8    0.28    0.11
   3  -3   8    1.26    0.13
   6   2  -8    0.45    0.06
   6   2  -8    0.67    0.13
  -6  -2   8    0.38    0.11
  -6  -2   8    0.42    0.06
   5   2  -8   -0.04    0.06
   5   2  -8    0.20    0.12
  -5  -2   8   -0.12    0.10
  -5  -2   8    0.01    0.06
   4   2  -8    2.02    0.12
   4   2  -8    2.22    0.20
  -4  -2   8    1.98    0.13
  -4  -2   8    1.87    0.17
   3   2  -8    2.17    0.12
   3   2  -8    2.25    0.18
  -3  -2   8    2.30    0.13
  -3  -2   8    1.91    0.17
   2   2  -8    2.75    0.20
   2   2  -8    2.57    0.13
  -2  -2   8    2.43    0.17
  -2  -2   8    2.43    0.13
   1   2  -8    7.96    0.31
   1   2  -8    9.00    0.35
  -1  -2   8    8.41    0.32
  -1  -2   8    8.99    0.34
   0   2  -8    0.72    0.11
   0  -2   8    0.33    0.06
   0  -2   8    0.41    0.09
  -1   2  -8    5.08    0.26
   1  -2   8    4.63    0.23
  -2   2  -8    4.72    0.27
   2  -2   8    4.35    0.22
   3  -2   8    0.18    0.09
  -4   2  -8    0.62    0.08
   4  -2   8    0.94    0.11
   6   1  -8    0.34    0.11
   6   1  -8    0.23    0.06
  -6  -1   8    0.22    0.10
  -6  -1   8    0.15    0.06
   5   1  -8    2.32    0.12
   5   1  -8    2.49    0.20
  -5  -1   8    2.09    0.17
  -5  -1   8    2.03    0.13
   4   1  -8    0.51    0.10
   4   1  -8    0.26    0.05
  -4  -1   8    0.24    0.09
  -4  -1   8    0.26    0.06
   3   1  -8    2.21    0.11
   3   1  -8    2.30    0.18
  -3  -1   8    2.21    0.16
  -3  -1   8    2.13    0.12
   2   1  -8    2.51    0.18
   2   1  -8    2.30    0.11
  -2  -1   8    2.23    0.12
  -2  -1   8    2.16    0.16
   1   1  -8    1.35    0.09
   1   1  -8    1.40    0.16
  -1  -1   8    1.28    0.10
  -1  -1   8    1.19    0.14
   0   1  -8   10.90    0.40
   0   1  -8    9.94    0.36
   0  -1   8    9.99    0.37
   0  -1   8   10.66    0.38
  -1   1  -8    2.54    0.19
   1  -1   8    2.35    0.13
   1  -1   8    2.46    0.16
  -2   1  -8    2.61    0.23
   2  -1   8    2.63    0.16
  -3   1  -8    5.50    0.23
  -3   1  -8    6.29    0.33
   3  -1   8    6.07    0.26
  -4   1  -8    0.56    0.07
   4  -1   8    0.66    0.10
  -5   1  -8    2.81    0.16
   5  -1   8    3.26    0.19
   6   0  -8    0.40    0.11
   6   0  -8    0.26    0.06
  -6   0   8    0.23    0.10
  -6   0   8    0.22    0.06
   5   0  -8    0.09    0.05
   5   0  -8    0.16    0.10
  -5   0   8    0.03    0.05
  -5   0   8    0.02    0.09
   4   0  -8    0.29    0.05
   4   0  -8    0.26    0.09
  -4   0   8    0.14    0.08
  -4   0   8    0.14    0.05
   3   0  -8    0.93    0.08
   3   0  -8    1.01    0.10
  -3   0   8    0.90    0.09
  -3   0   8    0.87    0.09
   2   0  -8    4.81    0.19
   2   0  -8    5.06    0.22
  -2   0   8    5.08    0.21
  -2   0   8    5.14    0.20
   1   0  -8    3.59    0.15
   1   0  -8    3.72    0.19
  -1   0   8    3.82    0.18
  -1   0   8    3.84    0.16
   0   0  -8    0.08    0.09
   0   0  -8    0.09    0.04
   0   0   8    0.10    0.05
   0   0   8    0.06    0.07
  -1   0  -8    4.12    0.22
   1   0   8    3.80    0.17
   1   0   8    3.50    0.16
  -2   0  -8    0.07    0.05
  -2   0  -8   -0.14    0.12
   2   0   8    0.03    0.07
  -3   0  -8    4.51    0.19
  -3   0  -8    4.28    0.29
   3   0   8    4.86    0.20
  -4   0  -8    3.84    0.19
  -4   0  -8    3.92    0.18
   4   0   8    3.95    0.17
   4   0   8    4.29    0.20
  -5   0  -8    0.03    0.06
  -5   0  -8    0.03    0.08
   5   0   8    0.04    0.06
   5   0   8    0.08    0.08
  -6   0  -8    0.23    0.07
  -6   0  -8    0.20    0.10
   6   0   8    0.25    0.07
   6   0   8    0.37    0.09
   6  -1  -8    0.58    0.10
   6  -1  -8    0.46    0.06
  -6   1   8    0.52    0.10
  -6   1   8    0.48    0.06
   5  -1  -8    0.21    0.09
   5  -1  -8    0.12    0.05
  -5   1   8    0.12    0.05
  -5   1   8    0.12    0.08
   4  -1  -8    1.17    0.15
   4  -1  -8    1.10    0.09
  -4   1   8    1.05    0.13
  -4   1   8    0.99    0.09
   3  -1  -8    0.03    0.08
   3  -1  -8   -0.03    0.04
  -3   1   8   -0.01    0.07
  -3   1   8   -0.05    0.05
   2  -1  -8    6.01    0.25
   2  -1  -8    6.15    0.22
  -2   1   8    6.14    0.24
  -2   1   8    5.94    0.23
   1  -1  -8   10.72    0.37
   1  -1  -8   10.54    0.40
  -1   1   8   10.71    0.38
  -1   1   8   11.03    0.39
   0  -1  -8    1.47    0.15
   0  -1  -8    1.31    0.15
   0  -1  -8    1.37    0.08
   0  -1  -8    1.58    0.15
   0   1   8    1.47    0.11
   0   1   8    1.41    0.10
  -1  -1  -8    5.12    0.23
   1   1   8    4.81    0.19
   1   1   8    4.95    0.20
  -2  -1  -8    0.34    0.11
  -2  -1  -8    0.47    0.06
   2   1   8    0.54    0.07
  -3  -1  -8    0.20    0.05
   3   1   8    0.27    0.07
   3   1   8    0.22    0.08
   3   1   8    0.16    0.04
  -4  -1  -8    6.02    0.33
  -4  -1  -8    6.67    0.25
   4   1   8    6.93    0.26
   4   1   8    6.38    0.24
   4   1   8    6.55    0.28
  -5  -1  -8    2.40    0.17
  -5  -1  -8    2.62    0.14
  -5  -1  -8    2.22    0.24
   5   1   8    2.80    0.15
   5   1   8    2.58    0.13
  -6  -1  -8    0.09    0.10
  -6  -1  -8    0.20    0.07
   6   1   8    0.18    0.07
   6  -2  -8    0.56    0.09
   6  -2  -8    0.46    0.06
  -6   2   8    0.62    0.09
  -6   2   8    0.49    0.06
   5  -2  -8    0.33    0.05
   5  -2  -8    0.32    0.08
  -5   2   8    0.31    0.08
  -5   2   8    0.21    0.05
   4  -2  -8    2.68    0.16
   4  -2  -8    2.50    0.12
  -4   2   8    2.45    0.15
  -4   2   8    2.44    0.12
   3  -2  -8   16.87    0.60
   3  -2  -8   17.18    0.59
  -3   2   8   16.90    0.60
  -3   2   8   17.56    0.59
   2  -2  -8    7.89    0.28
   2  -2  -8    7.86    0.30
  -2   2   8    7.56    0.28
  -2   2   8    7.77    0.29
   1  -2  -8    0.92    0.07
   1  -2  -8    1.02    0.12
   1  -2  -8    0.80    0.14
  -1   2   8    1.01    0.09
  -1   2   8    0.89    0.08
   0  -2  -8    6.16    0.31
   0  -2  -8    6.36    0.26
   0  -2  -8    6.26    0.23
   0  -2  -8    6.36    0.30
   0   2   8    6.31    0.23
   0   2   8    6.63    0.24
  -1  -2  -8    0.57    0.05
  -1  -2  -8    0.60    0.09
  -1  -2  -8    0.79    0.08
   1   2   8    0.75    0.08
   1   2   8    0.72    0.06
  -2  -2  -8   13.68    0.51
  -2  -2  -8   13.69    0.48
   2   2   8   13.67    0.47
   2   2   8   13.26    0.49
   2   2   8   14.29    0.48
  -3  -2  -8   17.59    0.62
  -3  -2  -8   18.67    0.65
   3   2   8   17.14    0.63
   3   2   8   18.34    0.62
   3   2   8   17.55    0.61
  -4  -2  -8    0.75    0.13
  -4  -2  -8    0.87    0.09
   4   2   8    0.94    0.10
   4   2   8    0.84    0.14
   4   2   8    0.85    0.08
  -5  -2  -8    5.07    0.28
  -5  -2  -8    5.40    0.21
   5   2   8    5.30    0.25
   5   2   8    5.28    0.20
  -6  -2  -8    0.52    0.14
  -6  -2  -8    0.57    0.07
   6   2   8    0.49    0.12
   6   2   8    0.53    0.06
  -7  -2  -8    0.56    0.08
  -7  -2  -8    0.54    0.11
   7   2   8    0.55    0.07
   6  -3  -8    0.47    0.06
  -6   3   8    0.55    0.06
  -6   3   8    0.55    0.10
   5  -3  -8    0.03    0.05
   5  -3  -8    0.07    0.08
  -5   3   8    0.03    0.08
  -5   3   8    0.01    0.05
   4  -3  -8    0.51    0.05
   4  -3  -8    0.60    0.08
  -4   3   8    0.61    0.08
  -4   3   8    0.59    0.06
   3  -3  -8    2.16    0.10
   3  -3  -8    2.30    0.15
  -3   3   8    2.14    0.11
  -3   3   8    2.15    0.13
   1  -3  -8    6.42    0.26
   1  -3  -8    6.66    0.24
   1  -3  -8    6.72    0.33
  -1   3   8    6.53    0.24
  -1   3   8    6.59    0.24
   0  -3  -8    0.46    0.08
   0  -3  -8    0.58    0.05
   0  -3  -8    0.76    0.12
   0  -3  -8    0.64    0.12
   0   3   8    0.67    0.08
   0   3   8    0.66    0.05
   0   3   8    0.71    0.11
  -1  -3  -8    6.10    0.23
  -1  -3  -8    6.08    0.22
   1   3   8    6.07    0.23
   1   3   8    6.15    0.24
   1   3   8    6.15    0.23
  -2  -3  -8    0.50    0.09
   2   3   8    0.50    0.04
   2   3   8    0.50    0.05
   2   3   8    0.41    0.07
  -3  -3  -8   15.37    0.54
  -3  -3  -8   14.92    0.51
   3   3   8   14.37    0.52
   3   3   8   13.90    0.50
  -4  -3  -8    6.23    0.24
  -4  -3  -8    6.52    0.29
   4   3   8    6.51    0.27
   4   3   8    6.08    0.23
  -5  -3  -8    0.01    0.11
  -5  -3  -8    0.06    0.06
   5   3   8   -0.01    0.05
   5   3   8    0.00    0.09
  -6  -3  -8    3.24    0.16
  -6  -3  -8    3.28    0.24
   6   3   8    3.19    0.22
   6   3   8    3.39    0.15
  -7  -3  -8    1.23    0.12
   7   3   8    1.40    0.11
   7   3   8    1.22    0.14
   6  -4  -8    0.01    0.06
  -6   4   8    0.05    0.06
  -6   4   8    0.08    0.09
   5  -4  -8    0.25    0.05
  -5   4   8    0.21    0.08
  -5   4   8    0.18    0.06
   4  -4  -8    1.02    0.09
   4  -4  -8    0.97    0.13
  -4   4   8    0.97    0.10
  -4   4   8    0.94    0.12
   3  -4  -8    1.20    0.13
   3  -4  -8    1.14    0.08
  -3   4   8    1.14    0.11
  -3   4   8    1.20    0.09
   2  -4  -8    0.29    0.07
   2  -4  -8    0.33    0.05
  -2   4   8    0.40    0.06
  -2   4   8    0.39    0.05
   1  -4  -8    1.19    0.13
   1  -4  -8    1.43    0.16
   1  -4  -8    1.50    0.08
  -1   4   8    1.52    0.09
  -1   4   8    1.51    0.09
  -1   4   8    1.73    0.16
   0  -4  -8    7.36    0.34
   0  -4  -8    7.16    0.29
   0  -4  -8    7.27    0.26
   0  -4  -8    7.35    0.33
   0   4   8    7.13    0.26
   0   4   8    7.78    0.29
   0   4   8    7.38    0.27
  -1  -4  -8   14.43    0.50
  -1  -4  -8   14.35    0.52
   1   4   8   14.39    0.51
   1   4   8   14.35    0.50
   1   4   8   14.29    0.49
  -2  -4  -8    5.16    0.23
  -2  -4  -8    5.04    0.19
   2   4   8    4.81    0.22
   2   4   8    5.04    0.19
   2   4   8    5.21    0.19
  -3  -4  -8    0.06    0.09
  -3  -4  -8    0.07    0.05
   3   4   8    0.08    0.04
   3   4   8    0.01    0.07
  -4  -4  -8    2.93    0.13
  -4  -4  -8    3.04    0.19
   4   4   8    2.87    0.18
   4   4   8    2.84    0.12
  -5  -4  -8    0.81    0.12
  -5  -4  -8    0.66    0.06
   5   4   8    0.82    0.06
   5   4   8    0.76    0.10
  -6  -4  -8    1.05    0.10
  -6  -4  -8    1.19    0.14
   6   4   8    1.09    0.09
   6   4   8    1.14    0.18
  -7  -4  -8    3.52    0.24
  -7  -4  -8    3.60    0.17
   7   4   8    3.44    0.25
   7   4   8    3.59    0.16
   5  -5  -8    0.66    0.06
  -5   5   8    0.81    0.09
  -5   5   8    0.84    0.07
   4  -5  -8    3.39    0.14
  -4   5   8    3.45    0.15
  -4   5   8    3.38    0.17
   3  -5  -8    2.80    0.13
   3  -5  -8    3.17    0.16
  -3   5   8    2.70    0.13
  -3   5   8    2.81    0.15
   2  -5  -8    0.00    0.04
   2  -5  -8    0.01    0.07
  -2   5   8    0.04    0.05
  -2   5   8    0.03    0.05
  -2   5   8   -0.12    0.11
   1  -5  -8    0.24    0.04
   1  -5  -8    0.39    0.07
  -1   5   8    0.24    0.10
  -1   5   8    0.22    0.05
  -1   5   8    0.25    0.05
   0  -5  -8   12.10    0.42
   0  -5  -8   11.66    0.48
   0  -5  -8   11.31    0.40
   0  -5  -8   11.26    0.47
   0   5   8   11.19    0.40
   0   5   8   11.06    0.46
   0   5   8   11.18    0.40
   0   5   8   12.10    0.43
  -1  -5  -8    7.73    0.28
  -1  -5  -8    7.79    0.30
   1   5   8    7.69    0.30
   1   5   8    7.36    0.27
   1   5   8    7.66    0.28
  -2  -5  -8    3.03    0.17
  -2  -5  -8    2.75    0.13
   2   5   8    2.81    0.12
   2   5   8    3.07    0.17
  -3  -5  -8    0.62    0.06
  -3  -5  -8    0.71    0.09
   3   5   8    0.63    0.05
   3   5   8    0.54    0.08
  -4  -5  -8    0.60    0.10
  -4  -5  -8    0.68    0.06
   4   5   8    0.64    0.05
   4   5   8    0.68    0.09
  -5  -5  -8    5.13    0.25
  -5  -5  -8    4.91    0.19
   5   5   8    4.80    0.19
   5   5   8    4.79    0.24
  -6  -5  -8    0.61    0.07
  -6  -5  -8    0.74    0.12
   6   5   8    0.68    0.06
   6   5   8    0.71    0.11
  -7  -5  -8    0.71    0.13
  -7  -5  -8    0.68    0.07
   7   5   8    0.76    0.07
   7   5   8    0.73    0.13
  -8  -5  -8    1.00    0.11
  -8  -5  -8    1.03    0.15
   8   5   8    0.93    0.15
   8   5   8    1.13    0.11
   5  -6  -8    1.78    0.17
   5  -6  -8    1.66    0.11
  -5   6   8    1.75    0.13
   4  -6  -8    0.23    0.08
   4  -6  -8    0.30    0.06
  -4   6   8    0.03    0.18
  -4   6   8    0.22    0.06
   3  -6  -8    0.11    0.07
   3  -6  -8    0.13    0.05
  -3   6   8    0.13    0.06
  -3   6   8    0.09    0.06
  -3   6   8   -0.03    0.14
   2  -6  -8    2.62    0.15
   2  -6  -8    2.38    0.12
  -2   6   8    2.31    0.13
  -2   6   8    2.76    0.22
  -2   6   8    2.33    0.12
   1  -6  -8    1.82    0.13
   1  -6  -8    1.61    0.09
  -1   6   8    1.57    0.10
  -1   6   8    1.53    0.10
  -1   6   8    1.66    0.18
   0  -6  -8   18.45    0.64
   0  -6  -8   18.88    0.66
   0   6   8   20.11    0.67
   0   6   8   18.10    0.65
   0   6   8   18.49    0.64
  -1  -6  -8   17.54    0.62
  -1  -6  -8   17.49    0.61
   1   6   8   18.33    0.63
   1   6   8   17.04    0.61
  -2  -6  -8    1.92    0.11
  -2  -6  -8    2.30    0.15
   2   6   8    2.19    0.17
   2   6   8    1.90    0.10
  -3  -6  -8    0.44    0.09
  -3  -6  -8    0.43    0.05
   3   6   8    0.35    0.04
   3   6   8    0.42    0.09
  -4  -6  -8    0.25    0.05
  -4  -6  -8    0.23    0.09
   4   6   8    0.18    0.04
   4   6   8    0.28    0.09
  -5  -6  -8    7.43    0.32
  -5  -6  -8    7.47    0.27
   5   6   8    7.56    0.32
   5   6   8    7.23    0.27
  -6  -6  -8    8.36    0.35
  -6  -6  -8    8.07    0.30
   6   6   8    8.26    0.35
   6   6   8    8.22    0.29
  -7  -6  -8    1.01    0.13
  -7  -6  -8    0.88    0.07
   7   6   8    0.94    0.13
   7   6   8    0.89    0.07
  -8  -6  -8    0.52    0.14
  -8  -6  -8    0.41    0.07
   8   6   8    0.37    0.06
   8   6   8    0.46    0.14
   4  -7  -8    0.54    0.10
   4  -7  -8    0.51    0.06
  -4   7   8    0.43    0.20
  -4   7   8    0.46    0.07
   3  -7  -8    3.58    0.18
   3  -7  -8    3.55    0.16
  -3   7   8    3.64    0.17
  -3   7   8    4.45    0.30
   2  -7  -8    0.50    0.07
   2  -7  -8    0.36    0.05
   2  -7  -8    0.34    0.06
  -2   7   8    0.30    0.06
  -2   7   8    0.43    0.13
   1  -7  -8    0.69    0.08
   1  -7  -8    0.66    0.06
  -1   7   8    0.86    0.12
  -1   7   8    0.62    0.06
   0  -7  -8    1.28    0.13
   0   7   8    1.18    0.09
   0   7   8    1.47    0.18
  -1  -7  -8    4.50    0.20
  -1  -7  -8    4.51    0.18
   1   7   8    4.56    0.23
  -2  -7  -8    3.18    0.18
  -2  -7  -8    3.30    0.14
   2   7   8    3.26    0.20
   2   7   8    3.16    0.13
  -3  -7  -8    0.07    0.08
  -3  -7  -8    0.11    0.05
   3   7   8    0.12    0.09
   3   7   8    0.03    0.04
  -4  -7  -8    3.91    0.16
  -4  -7  -8    3.64    0.20
   4   7   8    3.90    0.22
   4   7   8    3.82    0.15
  -5  -7  -8    1.21    0.16
  -5  -7  -8    1.40    0.10
   5   7   8    1.44    0.18
   5   7   8    1.40    0.09
  -6  -7  -8    0.99    0.12
  -6  -7  -8    0.73    0.07
   6   7   8    0.70    0.06
   6   7   8    0.83    0.12
  -7  -7  -8    1.25    0.14
  -7  -7  -8    1.28    0.11
   7   7   8    1.17    0.10
   7   7   8    1.29    0.21
   3  -8  -8    0.56    0.07
   3  -8  -8    0.61    0.09
  -3   8   8    0.41    0.07
  -3   8   8    0.54    0.16
  -2   8   8    2.74    0.24
  -2   8   8    2.24    0.13
   1  -8  -8    1.40    0.13
  -1   8   8    1.64    0.21
  -1   8   8    1.24    0.11
   0  -8  -8    4.77    0.22
   0   8   8    5.46    0.27
  -1  -8  -8    4.22    0.20
   1   8   8    4.56    0.25
  -2  -8  -8    1.15    0.10
  -2  -8  -8    1.01    0.13
   2   8   8    1.25    0.18
  -3  -8  -8    1.71    0.15
  -3  -8  -8    1.64    0.10
   3   8   8    1.62    0.09
   3   8   8    1.77    0.18
  -4  -8  -8    3.74    0.20
  -4  -8  -8    3.93    0.16
   4   8   8    3.88    0.22
   4   8   8    3.68    0.15
  -5  -8  -8    6.97    0.30
  -5  -8  -8    7.03    0.26
   5   8   8    6.84    0.25
   5   8   8    7.01    0.32
  -6  -8  -8    2.18    0.20
  -6  -8  -8    2.05    0.13
   6   8   8    2.21    0.12
   6   8   8    2.15    0.22
  -7  -8  -8    0.17    0.12
  -7  -8  -8    0.10    0.06
   7   8   8    0.23    0.12
   7   8   8    0.08    0.06
  -2   9   8    0.30    0.07
  -2   9   8    0.56    0.15
  -1   9   8    2.70    0.25
   0  -9  -8    1.58    0.14
   0   9   8    1.89    0.22
  -1  -9  -8    0.35    0.08
   1   9   8    0.53    0.12
  -2  -9  -8    0.85    0.07
  -2  -9  -8    0.78    0.09
   2   9   8    0.80    0.12
  -3  -9  -8    0.33    0.06
  -3  -9  -8    0.40    0.09
   3   9   8    0.34    0.05
   3   9   8    0.45    0.11
  -4  -9  -8   -0.02    0.09
  -4  -9  -8    0.05    0.05
   4   9   8    0.02    0.05
   4   9   8    0.10    0.11
  -5  -9  -8    0.54    0.11
  -5  -9  -8    0.59    0.07
   5   9   8    0.58    0.06
   5   9   8    0.71    0.13
  -6  -9  -8    1.01    0.11
  -6  -9  -8    0.98    0.13
   6   9   8    1.09    0.10
   6   9   8    1.09    0.14
  -7  -9  -8    0.06    0.12
  -7  -9  -8    0.02    0.06
   7   9   8    0.06    0.13
   7   9   8   -0.02    0.06
  -1  10   8    2.67    0.26
   0  10   8    0.78    0.14
  -1 -10  -8   -0.02    0.08
   1  10   8    0.09    0.12
  -2 -10  -8    0.47    0.09
   2  10   8    0.67    0.13
  -3 -10  -8    5.12    0.21
  -3 -10  -8    5.29    0.24
   3  10   8    5.42    0.28
  -4 -10  -8    5.56    0.26
  -4 -10  -8    5.56    0.22
   4  10   8    5.29    0.21
   4  10   8    5.85    0.30
  -5 -10  -8    2.32    0.14
  -5 -10  -8    2.36    0.20
   5  10   8    2.42    0.13
   5  10   8    2.66    0.24
  -6 -10  -8    0.00    0.11
  -6 -10  -8    0.01    0.07
   6  10   8    0.11    0.13
   6  10   8   -0.05    0.06
   1  11   8    0.25    0.14
  -2 -11  -8    0.13    0.09
   2  11   8    0.20    0.13
  -3 -11  -8    0.16    0.07
  -3 -11  -8    0.23    0.10
   3  11   8    0.41    0.14
  -4 -11  -8    0.04    0.07
  -4 -11  -8    0.02    0.10
   4  11   8    0.14    0.13
   3   3  -9    0.35    0.13
   3   3  -9    0.31    0.07
  -3  -3   9    0.24    0.08
  -3  -3   9    0.20    0.12
   2   3  -9    1.11    0.08
   2   3  -9    1.56    0.22
  -2  -3   9    0.95    0.13
  -2  -3   9    1.14    0.14
   1   3  -9    2.80    0.23
  -1  -3   9    2.51    0.21
  -1  -3   9    2.69    0.16
   0   3  -9    0.17    0.12
   0  -3   9    0.06    0.11
  -1   3  -9    2.60    0.23
   1  -3   9    2.57    0.22
   4   2  -9    0.22    0.07
   4   2  -9    0.14    0.13
  -4  -2   9    0.15    0.07
  -4  -2   9    0.02    0.11
   3   2  -9    2.75    0.23
   3   2  -9    2.69    0.14
  -3  -2   9    2.21    0.20
  -3  -2   9    2.37    0.15
   2   2  -9    0.72    0.07
   2   2  -9    1.10    0.13
  -2  -2   9    0.83    0.12
  -2  -2   9    0.83    0.08
   1   2  -9    0.99    0.12
   1   2  -9    0.71    0.07
  -1  -2   9    0.71    0.11
  -1  -2   9    0.99    0.08
   0   2  -9    3.42    0.23
   0  -2   9    3.12    0.17
   0  -2   9    3.24    0.20
  -1   2  -9    0.04    0.12
   1  -2   9    0.08    0.10
  -2   2  -9    0.68    0.15
   2  -2   9    0.59    0.11
   3  -2   9    3.63    0.23
   5   1  -9    0.59    0.13
   5   1  -9    0.25    0.06
  -5  -1   9    0.19    0.11
  -5  -1   9    0.28    0.07
   4   1  -9    0.43    0.06
   4   1  -9    0.73    0.12
  -4  -1   9    0.66    0.08
  -4  -1   9    0.52    0.11
   3   1  -9    0.07    0.06
   3   1  -9   -0.06    0.11
  -3  -1   9   -0.10    0.10
  -3  -1   9    0.00    0.06
   2   1  -9    1.08    0.12
   2   1  -9    0.87    0.07
  -2  -1   9    0.98    0.12
  -2  -1   9    1.04    0.11
   1   1  -9    0.60    0.11
   1   1  -9    0.52    0.06
  -1  -1   9    0.54    0.07
  -1  -1   9    0.51    0.10
   0   1  -9    1.61    0.20
   0  -1   9    1.45    0.15
   0  -1   9    1.43    0.12
  -1   1  -9    4.68    0.26
   1  -1   9    4.29    0.22
  -2   1  -9    0.60    0.15
   2  -1   9    0.77    0.10
  -3   1  -9    2.14    0.28
   3  -1   9    2.33    0.18
   4  -1   9    0.53    0.10
   5   0  -9    0.44    0.06
   5   0  -9    0.65    0.12
  -5   0   9    0.33    0.10
  -5   0   9    0.42    0.07
   4   0  -9    1.98    0.18
   4   0  -9    1.74    0.11
  -4   0   9    1.40    0.12
  -4   0   9    1.63    0.16
   3   0  -9    0.99    0.07
   3   0  -9    1.08    0.12
  -3   0   9    0.98    0.11
  -3   0   9    1.08    0.10
   2   0  -9    0.03    0.09
   2   0  -9    0.06    0.05
  -2   0   9    0.04    0.06
  -2   0   9   -0.03    0.08
   1   0  -9    1.44    0.17
   1   0  -9    1.38    0.09
  -1   0   9    1.39    0.14
  -1   0   9    1.31    0.12
   0   0  -9    1.44    0.19
   0   0   9    1.32    0.14
   0   0   9    1.37    0.12
  -1   0  -9    5.20    0.27
   1   0   9    4.67    0.22
  -2   0  -9    3.82    0.27
   2   0   9    3.34    0.19
  -3   0  -9   -0.30    0.16
   3   0   9   -0.05    0.08
  -4   0  -9    1.04    0.12
   4   0   9    1.32    0.15
  -5   0  -9    0.76    0.08
   5   0   9    0.87    0.10
   5  -1  -9    1.31    0.18
   5  -1  -9    0.72    0.07
  -5   1   9    0.61    0.07
  -5   1   9    0.85    0.10
   4  -1  -9    0.35    0.10
   4  -1  -9    0.16    0.06
  -4   1   9    0.14    0.09
  -4   1   9    0.12    0.06
   3  -1  -9    2.29    0.12
   3  -1  -9    2.30    0.17
  -3   1   9    1.97    0.12
  -3   1   9    1.96    0.15
   2  -1  -9    0.19    0.09
   2  -1  -9    0.11    0.05
  -2   1   9    0.06    0.08
  -2   1   9    0.17    0.06
   1  -1  -9    5.86    0.22
   1  -1  -9    6.30    0.27
  -1   1   9    5.70    0.23
  -1   1   9    5.79    0.24
   0  -1  -9    2.48    0.18
   0  -1  -9    2.22    0.12
   0   1   9    2.40    0.13
   0   1   9    2.30    0.14
  -1  -1  -9    0.15    0.11
   1   1   9    0.06    0.06
   1   1   9    0.12    0.07
  -2  -1  -9    9.20    0.39
   2   1   9    8.27    0.33
  -3  -1  -9    3.35    0.29
  -3  -1  -9    3.65    0.17
   3   1   9    3.96    0.18
  -4  -1  -9    0.93    0.08
   4   1   9    1.06    0.14
  -5  -1  -9    3.78    0.17
  -5  -1  -9    2.60    0.29
   5  -2  -9    2.51    0.13
   5  -2  -9    2.95    0.18
  -5   2   9    2.74    0.18
  -5   2   9    2.72    0.15
   4  -2  -9    5.52    0.21
   4  -2  -9    5.92    0.25
  -4   2   9    5.48    0.24
  -4   2   9    5.29    0.22
   3  -2  -9    0.04    0.05
   3  -2  -9    0.15    0.09
  -3   2   9    0.03    0.06
  -3   2   9    0.00    0.07
   2  -2  -9    0.25    0.09
   2  -2  -9    0.26    0.05
  -2   2   9    0.21    0.07
  -2   2   9    0.21    0.06
   1  -2  -9    0.06    0.05
   1  -2  -9    0.05    0.09
  -1   2   9    0.05    0.05
  -1   2   9    0.02    0.06
   0  -2  -9    8.52    0.34
   0  -2  -9    7.96    0.29
   0   2   9    8.26    0.30
   0   2   9    8.26    0.31
  -1  -2  -9   17.50    0.60
   1   2   9   15.94    0.57
   1   2   9   15.44    0.57
  -2  -2  -9    0.09    0.06
  -2  -2  -9   -0.20    0.12
   2   2   9    0.02    0.06
  -3  -2  -9    5.76    0.22
  -3  -2  -9    5.14    0.31
   3   2   9    6.04    0.23
  -4  -2  -9    1.72    0.12
  -4  -2  -9    1.46    0.18
   4   2   9    1.68    0.11
   4   2   9    1.73    0.17
  -5  -2  -9    0.18    0.16
  -5  -2  -9    0.53    0.07
   5   2   9    0.46    0.06
   5   2   9    0.53    0.11
  -6  -2  -9    2.31    0.15
   6   2   9    2.31    0.23
   6   2   9    2.45    0.14
   5  -3  -9   -0.06    0.05
   5  -3  -9    0.05    0.09
  -5   3   9   -0.02    0.06
  -5   3   9    0.00    0.09
   4  -3  -9    2.49    0.17
   4  -3  -9    2.24    0.12
  -4   3   9    2.23    0.15
  -4   3   9    2.24    0.13
   3  -3  -9    0.09    0.08
   3  -3  -9    0.09    0.05
  -3   3   9    0.08    0.07
  -3   3   9    0.20    0.06
   2  -3  -9    1.22    0.09
   2  -3  -9    1.21    0.15
  -2   3   9    1.16    0.11
  -2   3   9    1.20    0.10
   1  -3  -9    3.60    0.15
   1  -3  -9    3.85    0.20
  -1   3   9    3.56    0.16
  -1   3   9    3.56    0.16
   0  -3  -9   -0.05    0.04
   0  -3  -9   -0.06    0.09
   0   3   9   -0.03    0.06
   0   3   9    0.01    0.05
  -1  -3  -9    3.65    0.22
   1   3   9    3.73    0.16
   1   3   9    3.82    0.16
  -2  -3  -9    2.00    0.20
  -2  -3  -9    2.61    0.13
   2   3   9    2.83    0.13
  -3  -3  -9    0.34    0.06
  -3  -3  -9    0.21    0.12
   3   3   9    0.44    0.08
  -4  -3  -9    5.62    0.22
  -4  -3  -9    5.49    0.30
   4   3   9    5.75    0.26
   4   3   9    5.44    0.21
  -5  -3  -9    3.39    0.16
  -5  -3  -9    3.37    0.27
   5   3   9    3.40    0.22
   5   3   9    3.49    0.15
  -6  -3  -9    0.03    0.07
  -6  -3  -9    0.09    0.15
   6   3   9    0.07    0.06
   6   3   9    0.05    0.12
   5  -4  -9    0.15    0.06
  -5   4   9    0.18    0.09
  -5   4   9    0.18    0.07
   4  -4  -9    0.37    0.06
   4  -4  -9    0.49    0.09
  -4   4   9    0.51    0.08
  -4   4   9    0.42    0.07
   3  -4  -9    1.04    0.10
   3  -4  -9    0.95    0.09
  -3   4   9    0.81    0.10
  -3   4   9    0.97    0.12
   2  -4  -9    1.33    0.09
   2  -4  -9    1.37    0.15
  -2   4   9    1.45    0.11
  -2   4   9    1.30    0.10
   1  -4  -9    9.09    0.32
   1  -4  -9    9.15    0.35
  -1   4   9    8.86    0.33
  -1   4   9    9.02    0.33
   0  -4  -9    1.47    0.09
   0  -4  -9    1.27    0.14
   0   4   9    1.44    0.10
   0   4   9    1.42    0.10
  -1  -4  -9    0.30    0.09
   1   4   9    0.41    0.08
   1   4   9    0.29    0.05
   1   4   9    0.35    0.05
  -2  -4  -9    2.44    0.13
  -2  -4  -9    2.23    0.18
   2   4   9    2.63    0.16
  -3  -4  -9    0.36    0.06
  -3  -4  -9    0.37    0.11
   3   4   9    0.37    0.05
   3   4   9    0.41    0.09
  -4  -4  -9    2.12    0.20
  -4  -4  -9    1.80    0.12
   4   4   9    1.86    0.11
   4   4   9    2.03    0.17
  -5  -4  -9    5.36    0.29
  -5  -4  -9    5.03    0.21
   5   4   9    5.02    0.20
   5   4   9    5.31    0.26
  -6  -4  -9    0.86    0.16
  -6  -4  -9    0.80    0.08
   6   4   9    0.87    0.07
   6   4   9    0.89    0.13
  -7  -4  -9    0.21    0.08
  -7  -4  -9    0.36    0.16
   7   4   9    0.17    0.13
   7   4   9    0.24    0.07
   5  -5  -9    0.28    0.06
  -5   5   9    0.31    0.07
  -5   5   9    0.39    0.09
   4  -5  -9    0.05    0.06
  -4   5   9    0.00    0.07
  -4   5   9    0.00    0.06
   3  -5  -9    1.46    0.15
   3  -5  -9    1.38    0.10
  -3   5   9    1.36    0.11
  -3   5   9    1.53    0.12
   2  -5  -9    8.78    0.33
   2  -5  -9    8.43    0.30
  -2   5   9    8.37    0.31
  -2   5   9    8.24    0.31
   1  -5  -9   -0.02    0.05
   1  -5  -9    0.03    0.08
  -1   5   9    0.03    0.05
  -1   5   9    0.03    0.05
   0  -5  -9    0.71    0.09
   0   5   9    1.04    0.16
   0   5   9    0.80    0.09
   0   5   9    0.71    0.08
  -1  -5  -9    0.00    0.08
   1   5   9    0.03    0.09
  -2  -5  -9    2.72    0.13
  -2  -5  -9    2.67    0.18
   2   5   9    2.87    0.18
  -3  -5  -9   12.85    0.44
  -3  -5  -9   12.31    0.47
   3   5   9   12.76    0.47
   3   5   9   12.40    0.44
  -4  -5  -9    3.56    0.22
  -4  -5  -9    3.44    0.16
   4   5   9    3.55    0.15
   4   5   9    3.48    0.20
  -5  -5  -9    0.53    0.07
  -5  -5  -9    0.61    0.13
   5   5   9    0.60    0.11
   5   5   9    0.67    0.06
  -6  -5  -9    2.43    0.14
  -6  -5  -9    2.81    0.25
   6   5   9    2.43    0.22
   6   5   9    2.52    0.13
  -7  -5  -9   -0.04    0.07
  -7  -5  -9   -0.03    0.15
   7   5   9    0.01    0.06
   7   5   9    0.00    0.13
   4  -6  -9    0.49    0.06
  -4   6   9    0.56    0.08
  -4   6   9    0.58    0.07
   3  -6  -9    0.09    0.08
   3  -6  -9    0.07    0.06
  -3   6   9    0.07    0.06
  -3   6   9    0.03    0.07
   2  -6  -9    1.65    0.10
   2  -6  -9    1.85    0.15
  -2   6   9    1.59    0.12
  -2   6   9    1.49    0.11
   1  -6  -9    7.46    0.27
   1  -6  -9    7.79    0.30
  -1   6   9    7.42    0.28
  -1   6   9    7.24    0.27
   0  -6  -9    0.98    0.14
   0   6   9    1.05    0.09
   0   6   9    1.42    0.18
  -1  -6  -9    0.26    0.09
   1   6   9    0.24    0.10
  -2  -6  -9    0.91    0.10
  -2  -6  -9    0.78    0.10
   2   6   9    0.96    0.16
  -3  -6  -9    2.90    0.19
  -3  -6  -9    3.04    0.14
   3   6   9    2.90    0.13
   3   6   9    3.14    0.20
  -4  -6  -9    8.89    0.33
  -4  -6  -9    8.93    0.37
   4   6   9    8.83    0.32
   4   6   9    9.00    0.36
  -5  -6  -9    1.46    0.20
  -5  -6  -9    1.36    0.11
   5   6   9    1.60    0.18
   5   6   9    1.52    0.10
  -6  -6  -9    1.08    0.15
  -6  -6  -9    1.09    0.11
   6   6   9    1.24    0.20
   6   6   9    1.08    0.10
  -7  -6  -9    0.46    0.07
  -7  -6  -9    0.58    0.15
   7   6   9    0.54    0.13
   7   6   9    0.59    0.07
   3  -7  -9    0.19    0.08
   3  -7  -9    0.12    0.06
  -3   7   9    0.16    0.07
   2  -7  -9    1.73    0.13
   2  -7  -9    1.78    0.15
   2  -7  -9    1.59    0.11
  -2   7   9    2.12    0.23
  -2   7   9    1.56    0.12
   1  -7  -9    0.31    0.08
  -1   7   9    0.47    0.12
  -1   7   9    0.25    0.06
   0  -7  -9    0.20    0.08
   0   7   9    0.33    0.11
   0   7   9    0.22    0.06
  -1  -7  -9    1.52    0.15
   1   7   9    1.60    0.19
  -2  -7  -9    5.19    0.21
  -2  -7  -9    5.20    0.24
   2   7   9    5.65    0.26
  -3  -7  -9    5.22    0.25
  -3  -7  -9    5.17    0.21
   3   7   9    5.17    0.20
   3   7   9    5.49    0.26
  -4  -7  -9   -0.03    0.10
  -4  -7  -9    0.08    0.06
   4   7   9    0.10    0.10
   4   7   9    0.01    0.05
  -5  -7  -9    0.10    0.06
  -5  -7  -9    0.08    0.11
   5   7   9    0.17    0.11
   5   7   9    0.07    0.05
  -6  -7  -9    0.11    0.06
  -6  -7  -9    0.10    0.12
   6   7   9    0.21    0.12
   6   7   9    0.13    0.06
  -7  -7  -9    0.72    0.15
  -7  -7  -9    0.80    0.08
   7   7   9    0.77    0.07
   7   7   9    0.68    0.14
  -3   8   9    1.36    0.19
  -3   8   9    0.91    0.08
  -2   8   9    0.63    0.07
  -2   8   9    0.87    0.16
   1  -8  -9    0.42    0.09
  -1   8   9    0.62    0.14
  -1   8   9    0.30    0.06
   0  -8  -9    0.01    0.08
   0   8   9    0.07    0.12
  -1  -8  -9    1.52    0.15
   1   8   9    1.71    0.21
  -2  -8  -9    2.85    0.19
  -2  -8  -9    2.81    0.14
   2   8   9    3.00    0.22
  -3  -8  -9    4.19    0.22
  -3  -8  -9    4.25    0.18
   3   8   9    4.47    0.24
  -4  -8  -9    1.21    0.11
  -4  -8  -9    1.36    0.17
   4   8   9    1.23    0.10
   4   8   9    1.44    0.20
  -5  -8  -9   -0.02    0.06
  -5  -8  -9    0.10    0.11
   5   8   9    0.12    0.12
   5   8   9    0.07    0.05
  -6  -8  -9   -0.04    0.06
  -6  -8  -9    0.02    0.12
   6   8   9    0.08    0.12
   6   8   9    0.00    0.06
  -1   9   9    0.11    0.15
   0  -9  -9    2.47    0.17
   0   9   9    2.87    0.25
  -1  -9  -9    4.92    0.24
   1   9   9    5.87    0.31
  -2  -9  -9    1.86    0.17
   2   9   9    2.23    0.22
  -3  -9  -9    0.05    0.09
  -3  -9  -9    0.04    0.06
   3   9   9    0.23    0.12
  -4  -9  -9    0.31    0.07
  -4  -9  -9    0.33    0.11
   4   9   9    0.44    0.12
   4   9   9    0.31    0.06
  -5  -9  -9    1.11    0.11
  -5  -9  -9    1.18    0.13
   5   9   9    1.67    0.22
   5   9   9    1.32    0.10
  -6  -9  -9    0.99    0.12
  -6  -9  -9    0.99    0.14
   6   9   9    0.90    0.07
   6   9   9    1.51    0.24
   0  10   9    0.05    0.14
  -1 -10  -9    0.98    0.10
   1  10   9    1.17    0.15
  -2 -10  -9    2.14    0.17
   2  10   9    2.76    0.25
  -3 -10  -9    1.87    0.18
  -3 -10  -9    1.68    0.13
   3  10   9    2.03    0.23
  -4 -10  -9    0.02    0.07
  -4 -10  -9    0.05    0.11
   4  10   9    0.10    0.13
  -5 -10  -9   -0.04    0.07
  -5 -10  -9   -0.06    0.11
   5  10   9   -0.05    0.06
   5  10   9    0.13    0.13
  -1  -2  10    0.16    0.08
   3   1 -10    0.04    0.07
   3   1 -10    0.06    0.12
  -3  -1  10   -0.06    0.11
  -3  -1  10    0.04    0.08
   2   1 -10    1.24    0.14
   2   1 -10    1.16    0.11
  -2  -1  10    1.22    0.13
  -2  -1  10    1.27    0.13
   1   1 -10    2.00    0.22
  -1  -1  10    1.62    0.14
  -1  -1  10    1.56    0.18
   0   1 -10    0.08    0.13
   0  -1  10    0.15    0.08
   0  -1  10    0.05    0.10
  -1   1 -10    1.39    0.15
   1  -1  10    1.07    0.12
  -2   1 -10    0.31    0.16
   2  -1  10    0.21    0.10
   4   0 -10    0.10    0.07
   4   0 -10    0.07    0.12
  -4   0  10    0.19    0.07
  -4   0  10   -0.04    0.10
   3   0 -10    1.01    0.08
   3   0 -10    1.14    0.13
  -3   0  10    1.11    0.13
  -3   0  10    0.94    0.12
   2   0 -10    0.81    0.13
   2   0 -10    0.73    0.07
  -2   0  10    0.60    0.08
  -2   0  10    0.66    0.11
   1   0 -10    2.28    0.22
  -1   0  10    2.12    0.14
  -1   0  10    1.94    0.17
   0   0 -10    2.24    0.21
   0   0  10    2.09    0.15
   0   0  10    2.01    0.17
  -1   0 -10    0.00    0.13
   1   0  10   -0.06    0.09
  -2   0 -10    3.11    0.29
   2   0  10    2.56    0.19
  -3   0 -10    1.56    0.20
   3   0  10    1.41    0.16
   4  -1 -10   -0.01    0.06
   4  -1 -10    0.08    0.11
  -4   1  10   -0.03    0.10
  -4   1  10    0.00    0.07
   3  -1 -10    1.99    0.12
   3  -1 -10    2.03    0.19
  -3   1  10    1.91    0.17
  -3   1  10    1.75    0.13
   2  -1 -10    2.01    0.12
   2  -1 -10    2.34    0.20
  -2   1  10    1.92    0.13
  -2   1  10    2.07    0.16
   1  -1 -10    0.85    0.07
   1  -1 -10    0.95    0.13
  -1   1  10    0.80    0.10
  -1   1  10    0.76    0.08
   0  -1 -10    3.85    0.24
   0   1  10    3.38    0.17
   0   1  10    3.53    0.19
  -1  -1 -10    3.93    0.26
   1   1  10    3.41    0.19
  -2  -1 -10    0.59    0.16
   2   1  10    0.71    0.09
  -3  -1 -10    5.56    0.36
   3   1  10    5.20    0.24
  -4  -1 -10    1.13    0.22
   4  -2 -10    0.23    0.10
   4  -2 -10    0.14    0.06
  -4   2  10    0.03    0.09
  -4   2  10    0.11    0.07
   3  -2 -10    0.04    0.10
   3  -2 -10   -0.08    0.06
  -3   2  10   -0.04    0.07
  -3   2  10   -0.05    0.08
   2  -2 -10    1.42    0.18
   2  -2 -10    1.09    0.10
  -2   2  10    1.21    0.12
  -2   2  10    1.06    0.13
   1  -2 -10    4.27    0.24
   1  -2 -10    4.02    0.17
  -1   2  10    3.92    0.19
  -1   2  10    4.00    0.18
   0  -2 -10    0.02    0.11
   0   2  10   -0.01    0.06
   0   2  10   -0.07    0.08
  -1  -2 -10    4.07    0.26
   1   2  10    3.77    0.19
  -2  -2 -10    2.04    0.23
   2   2  10    2.23    0.14
  -3  -2 -10   -0.40    0.16
  -4  -2 -10    1.15    0.21
  -4  -2 -10    1.77    0.13
  -5  -2 -10    0.10    0.20
  -5  -2 -10    0.81    0.09
   4  -3 -10    0.28    0.06
   4  -3 -10    0.32    0.10
  -4   3  10    0.29    0.07
  -4   3  10    0.26    0.09
   3  -3 -10    1.51    0.17
   3  -3 -10    1.20    0.10
  -3   3  10    1.24    0.12
  -3   3  10    1.27    0.13
   2  -3 -10    0.00    0.10
   2  -3 -10    0.00    0.05
  -2   3  10   -0.04    0.06
  -2   3  10   -0.05    0.07
   1  -3 -10    1.03    0.12
   1  -3 -10    1.01    0.10
  -1   3  10    1.04    0.08
  -1   3  10    1.00    0.09
   0  -3 -10    0.21    0.11
   0   3  10    0.31    0.07
   0   3  10    0.28    0.07
  -1  -3 -10    1.37    0.14
   1   3  10    1.18    0.12
  -2  -3 -10    5.26    0.29
  -3  -3 -10    2.30    0.26
  -3  -3 -10    3.11    0.15
  -4  -3 -10   -0.38    0.16
  -4  -3 -10    0.03    0.07
  -5  -3 -10    0.87    0.20
  -5  -3 -10    1.44    0.13
   4  -4 -10    0.74    0.07
   4  -4 -10    0.93    0.11
  -4   4  10    0.78    0.10
  -4   4  10    0.76    0.08
   3  -4 -10    1.87    0.18
   3  -4 -10    1.49    0.11
  -3   4  10    1.50    0.14
  -3   4  10    1.41    0.12
   2  -4 -10    0.21    0.06
   2  -4 -10    0.24    0.10
  -2   4  10    0.28    0.07
  -2   4  10    0.18    0.06
   1  -4 -10    1.22    0.10
   1  -4 -10    1.20    0.17
  -1   4  10    1.10    0.11
  -1   4  10    1.20    0.12
   0  -4 -10    3.38    0.21
   0   4  10    3.28    0.16
   0   4  10    3.18    0.15
  -1  -4 -10    1.34    0.13
  -2  -4 -10    0.69    0.13
  -3  -4 -10    4.10    0.18
  -3  -4 -10    3.63    0.26
  -4  -4 -10    0.60    0.15
  -4  -4 -10    0.77    0.08
   4   4  10    0.75    0.11
  -5  -4 -10    0.95    0.18
  -5  -4 -10    1.07    0.12
   5   4  10    1.07    0.10
   5   4  10    1.13    0.13
  -6  -4 -10    1.25    0.20
  -6  -4 -10    1.28    0.14
   6   4  10    1.31    0.12
   6   4  10    1.33    0.22
   4  -5 -10    1.82    0.12
  -4   5  10    1.83    0.16
  -4   5  10    1.74    0.14
   3  -5 -10    0.62    0.11
   3  -5 -10    0.54    0.07
  -3   5  10    0.63    0.08
  -3   5  10    0.56    0.07
   2  -5 -10    0.00    0.09
   2  -5 -10    0.01    0.06
  -2   5  10    0.02    0.07
  -2   5  10    0.00    0.06
   1  -5 -10   -0.08    0.09
  -1   5  10    0.04    0.06
  -1   5  10   -0.04    0.06
   0  -5 -10    0.91    0.11
   0   5  10    1.12    0.11
  -1  -5 -10    8.33    0.35
  -2  -5 -10    4.83    0.25
  -3  -5 -10    0.05    0.12
  -3  -5 -10    0.18    0.06
   3   5  10    0.18    0.10
  -4  -5 -10    3.63    0.25
  -4  -5 -10    3.52    0.17
   4   5  10    3.59    0.21
  -5  -5 -10   -0.03    0.14
  -5  -5 -10    0.01    0.07
   5   5  10    0.06    0.11
   5   5  10    0.01    0.06
  -6  -5 -10    0.74    0.18
  -6  -5 -10    0.64    0.08
   6   5  10    0.80    0.14
   6   5  10    0.62    0.07
   3  -6 -10    0.22    0.10
   3  -6 -10    0.14    0.06
  -3   6  10    0.18    0.08
  -3   6  10    0.10    0.07
   2  -6 -10    0.00    0.06
   2  -6 -10   -0.01    0.09
  -2   6  10   -0.04    0.06
  -2   6  10   -0.02    0.07
   1  -6 -10    0.58    0.10
  -1   6  10    0.47    0.07
   0  -6 -10    1.36    0.17
   0   6  10    1.39    0.11
  -1  -6 -10   -0.08    0.10
   1   6  10   -0.01    0.10
  -2  -6 -10    1.70    0.18
   2   6  10    2.13    0.19
  -3  -6 -10    0.12    0.06
  -3  -6 -10    0.11    0.11
   3   6  10    0.25    0.10
  -4  -6 -10    2.28    0.14
  -4  -6 -10    2.01    0.22
   4   6  10    2.53    0.21
  -5  -6 -10    1.46    0.13
  -5  -6 -10    1.38    0.16
   5   6  10    1.46    0.11
   5   6  10    1.60    0.20
  -6  -6 -10    1.12    0.13
  -6  -6 -10    1.34    0.18
   6   6  10    1.33    0.22
   6   6  10    1.12    0.11
   2  -7 -10    0.69    0.10
  -2   7  10    0.52    0.07
   1  -7 -10    2.31    0.18
  -1   7  10    2.27    0.13
   0  -7 -10    3.08    0.21
   0   7  10    4.28    0.25
  -1  -7 -10    2.96    0.20
   1   7  10    3.55    0.23
  -2  -7 -10    0.11    0.10
   2   7  10    0.43    0.11
  -3  -7 -10   -0.02    0.07
  -3  -7 -10   -0.11    0.11
   3   7  10    0.06    0.11
  -4  -7 -10    0.63    0.08
  -4  -7 -10    0.77    0.13
   4   7  10    0.76    0.12
  -5  -7 -10    1.51    0.21
  -5  -7 -10    1.46    0.13
   5   7  10    1.81    0.22
   5   7  10    1.41    0.11
  -6  -7 -10    3.02    0.26
  -6  -7 -10    2.83    0.16
   6   7  10    2.79    0.15
   6   7  10    3.01    0.25
   1  -8 -10    0.15    0.09
  -1   8  10    0.21    0.15
   0  -8 -10    0.24    0.10
   0   8  10    0.39    0.13
  -1  -8 -10    0.44    0.10
   1   8  10    0.72    0.13
  -2  -8 -10    0.03    0.10
   2   8  10    0.11    0.11
  -3  -8 -10    2.16    0.19
  -3  -8 -10    2.36    0.14
   3   8  10    2.71    0.22
  -4  -8 -10    0.77    0.08
  -4  -8 -10    0.70    0.13
   4   8  10    0.97    0.14
  -5  -8 -10    0.11    0.07
  -5  -8 -10    0.01    0.12
   5   8  10    0.07    0.06
   5   8  10    0.14    0.13
   0  -9 -10    1.78    0.17
   0   9  10    2.45    0.25
  -1  -9 -10    0.69    0.11
   1   9  10    0.94    0.15
  -2  -9 -10    0.17    0.11
   2   9  10    0.29    0.13
  -3  -9 -10    0.97    0.09
  -3  -9 -10    1.16    0.13
   3   9  10    1.39    0.22
  -4  -9 -10    0.79    0.08
  -4  -9 -10    0.87    0.12
   4   9  10    1.14    0.14
   2  -1 -11    0.58    0.08
   2  -1 -11    0.64    0.14
  -2   1  11    0.64    0.09
  -2   1  11    0.67    0.11
   1  -1 -11    1.67    0.24
  -1   1  11    1.34    0.17
  -1   1  11    1.48    0.14
   0  -1 -11    0.06    0.14
   0   1  11   -0.01    0.09
  -1  -1 -11    2.55    0.27
   1   1  11    2.02    0.17
  -2  -1 -11    1.31    0.19
   2   1  11    1.06    0.11
   2  -2 -11    0.12    0.12
   2  -2 -11    0.10    0.07
  -2   2  11    0.11    0.07
  -2   2  11    0.04    0.09
   1  -2 -11    1.83    0.23
  -1   2  11    1.51    0.16
  -1   2  11    1.57    0.14
   0  -2 -11    1.46    0.16
   0   2  11    1.19    0.11
  -1  -2 -11   -0.19    0.14
   1   2  11   -0.04    0.09
  -2  -2 -11    0.62    0.17
  -3  -2 -11    0.08    0.18
   2  -3 -11    0.10    0.06
   2  -3 -11    0.17    0.12
  -2   3  11    0.12    0.08
  -2   3  11    0.16    0.07
   1  -3 -11    0.60    0.13
  -1   3  11    0.39    0.08
  -1   3  11    0.47    0.08
   0  -3 -11    2.45    0.24
   0   3  11    2.27    0.15
  -1  -3 -11    1.49    0.16
  -2  -3 -11    0.02    0.15
  -3  -3 -11    1.77    0.20
  -4  -3 -11   -0.36    0.19
   2  -4 -11    1.52    0.12
   2  -4 -11    1.90    0.21
  -2   4  11    1.53    0.13
  -2   4  11    1.51    0.14
   1  -4 -11    1.81    0.21
  -1   4  11    1.59    0.13
  -1   4  11    1.77    0.13
   0  -4 -11   -0.06    0.12
  -1  -4 -11    1.36    0.15
  -2  -4 -11    0.62    0.15
  -3  -4 -11    1.32    0.18
  -4  -4 -11    1.55    0.20
  -4  -4 -11    2.07    0.14
   2  -5 -11   -0.01    0.11
  -2   5  11    0.02    0.06
  -2   5  11   -0.05    0.08
   1  -5 -11    0.99    0.13
  -1   5  11    0.87    0.08
   0  -5 -11    1.23    0.14
  -1  -5 -11   -0.24    0.12
  -2  -5 -11    2.64    0.24
  -3  -5 -11   -0.26    0.13
  -4  -5 -11    0.12    0.08
  -4  -5 -11   -0.16    0.15
   2  -6 -11    0.69    0.12
  -2   6  11    0.71    0.08
   1  -6 -11    0.36    0.11
  -1   6  11    0.26    0.07
   0  -6 -11   -0.24    0.11
  -1  -6 -11    0.05    0.12
  -2  -6 -11    2.58    0.22
  -3  -6 -11    1.58    0.16
  -4  -6 -11    1.48    0.17
  -4  -6 -11    1.45    0.14
   4   6  11    1.83    0.22
   1  -7 -11    0.22    0.11
   0  -7 -11   -0.08    0.11
  -1  -7 -11    0.17    0.11
  -2  -7 -11    0.33    0.12
  -3  -7 -11    0.78    0.14
   3   7  11    1.26    0.21
  -4  -7 -11    1.39    0.16
  -4  -7 -11    1.43    0.14
   4   7  11    1.86    0.23
  -1  -8 -11    2.79    0.21
  -2  -8 -11    1.39    0.14
   2   8  11    1.84    0.22
  -3  -8 -11    0.59    0.13
   3   8  11    0.68    0.13
   0   0   0    0.00    0.00
;
_shelx_hkl_checksum              70448
_olex2_submission_special_instructions 'No special instructions were received'
loop_
_space_group_symop_operation_xyz
'x, y, z'
'-x, -y, -z'
loop_
_atom_site_label
_atom_site_type_symbol
_atom_site_fract_x
_atom_site_fract_y
_atom_site_fract_z
_atom_site_U_iso_or_equiv
_atom_site_adp_type
_atom_site_occupancy
_atom_site_site_symmetry_order
_atom_site_calc_flag
_atom_site_refinement_flags_posn
_atom_site_refinement_flags_adp
_atom_site_refinement_flags_occupancy
_atom_site_disorder_assembly
_atom_site_disorder_group
O3 O 0.4059(4) 0.86883(12) 0.5059(2) 0.079(2) Uani 0.5 1 d . U P A -1
O1 O 0.5490(4) 0.72888(15) 0.74287(19) 0.069(2) Uani 0.5 1 d G U P A -1
O2 O 0.2773(4) 0.93774(11) 0.2719(2) 0.056(2) Uani 0.5 1 d G U P A -1
Br1 Br 0.3274(3) 0.64840(13) 0.14454(14) 0.0925(11) Uani 0.5 1 d G U P A -1
Br2 Br 0.48776(14) 0.24370(12) 0.32749(10) 0.0621(4) Uani 0.5 1 d G U P A -1
Br3 Br 0.68665(12) 0.09008(10) 0.67521(10) 0.0643(4) Uani 0.5 1 d G U P A -1
Br4 Br 0.6878(2) 0.33321(14) 0.85876(11) 0.0606(5) Uani 0.5 1 d G U P A -1
C1 C 0.4994(4) 0.72538(12) 0.62787(18) 0.055(2) Uani 0.5 1 d G U P A -1
C2 C 0.3611(4) 0.83433(11) 0.38222(19) 0.057(2) Uani 0.5 1 d G U P A -1
C3 C 0.4290(2) 0.55465(10) 0.34855(13) 0.043(2) Uani 0.5 1 d G U P A -1
C4 C 0.50255(17) 0.38438(10) 0.42577(10) 0.042(2) Uani 0.5 1 d G U P A -1
C5 C 0.58305(15) 0.31796(10) 0.57618(10) 0.0399(19) Uani 0.5 1 d G U P A -1
C6 C 0.5889(2) 0.41897(11) 0.65512(11) 0.042(2) Uani 0.5 1 d G U P A -1
C7 C 0.5142(3) 0.58717(11) 0.57697(14) 0.042(2) Uani 0.5 1 d G U P A -1
C8 C 0.4357(3) 0.65268(10) 0.42862(15) 0.045(2) Uani 0.5 1 d G U P A -1
C9 C 0.8359(8) 0.8327(6) 0.3147(8) 0.0744(15) Uani 1 1 d . . . . .
H9 H 0.8315 0.9140 0.3522 0.089 Uiso 1 1 calc R . . . .
C10 C 0.7601(10) 0.8791(8) 0.1647(9) 0.095(2) Uani 1 1 d . . . . .
H10 H 0.7094 0.9902 0.1039 0.114 Uiso 1 1 calc R . . . .
C11 C 0.7602(9) 0.7649(9) 0.1083(7) 0.0824(19) Uani 1 1 d . . . . .
H11 H 0.7078 0.7973 0.0095 0.099 Uiso 1 1 calc R . . . .
C12 C 0.8423(8) 0.4770(10) 0.1388(7) 0.0740(16) Uani 1 1 d . . . . .
H12 H 0.7904 0.5085 0.0399 0.089 Uiso 1 1 calc R . . . .
C13 C 0.9202(9) 0.3162(10) 0.2238(8) 0.0802(18) Uani 1 1 d . . . . .
H13 H 0.9217 0.2377 0.1833 0.096 Uiso 1 1 calc R . . . .
C14 C 0.9990(7) 0.2665(7) 0.3727(7) 0.0658(13) Uani 1 1 d . . . . .
H14 H 1.0518 0.1549 0.4299 0.079 Uiso 1 1 calc R . . . .
C15 C 0.9159(5) 0.6715(5) 0.4073(5) 0.0465(9) Uani 1 1 d . . . . .
C16 C 0.9189(5) 0.5486(5) 0.3486(5) 0.0433(8) Uani 1 1 d . . . . .
C17 C 1.0003(5) 0.3793(5) 0.4367(5) 0.0446(8) Uani 1 1 d . . . . .
C18 C 0.8386(6) 0.5968(7) 0.1973(5) 0.0579(11) Uani 1 1 d . . . . .
loop_
_atom_site_aniso_label
_atom_site_aniso_U_11
_atom_site_aniso_U_22
_atom_site_aniso_U_33
_atom_site_aniso_U_23
_atom_site_aniso_U_13
_atom_site_aniso_U_12
O3 0.106(6) 0.052(3) 0.085(4) -0.034(3) 0.002(4) -0.017(3)
O1 0.089(5) 0.080(5) 0.070(5) -0.055(4) 0.016(4) -0.040(4)
O2 0.081(5) 0.020(3) 0.033(3) 0.015(2) -0.009(3) 0.001(3)
Br1 0.104(2) 0.1008(17) 0.0766(19) -0.0383(13) -0.0194(13) -0.0220(13)
Br2 0.0728(7) 0.0663(7) 0.0796(9) -0.0561(6) 0.0140(6) -0.0308(5)
Br3 0.0764(7) 0.0249(5) 0.0687(9) -0.0044(5) -0.0017(6) 0.0007(4)
Br4 0.0626(9) 0.0751(10) 0.0385(9) -0.0072(7) -0.0043(6) -0.0299(7)
C1 0.062(5) 0.063(5) 0.063(4) -0.040(4) 0.011(3) -0.029(4)
C2 0.056(5) 0.043(4) 0.054(4) -0.010(3) -0.002(3) 0.001(3)
C3 0.038(5) 0.052(4) 0.046(4) -0.025(3) 0.003(4) -0.013(3)
C4 0.035(4) 0.046(3) 0.055(4) -0.031(3) 0.016(3) -0.013(3)
C5 0.037(4) 0.036(3) 0.051(4) -0.022(3) 0.011(3) -0.012(3)
C6 0.043(5) 0.043(3) 0.041(4) -0.017(3) 0.007(4) -0.014(3)
C7 0.050(5) 0.040(3) 0.045(4) -0.023(3) 0.002(4) -0.016(3)
C8 0.050(5) 0.037(3) 0.046(4) -0.016(3) 0.001(4) -0.009(3)
C9 0.082(4) 0.037(2) 0.088(4) -0.008(2) -0.014(3) -0.012(2)
C10 0.098(5) 0.055(3) 0.094(5) 0.015(3) -0.030(4) -0.020(3)
C11 0.079(4) 0.093(5) 0.053(3) 0.004(3) -0.015(3) -0.031(3)
C12 0.066(3) 0.121(5) 0.056(3) -0.048(3) 0.009(2) -0.039(3)
C13 0.074(3) 0.111(5) 0.094(4) -0.076(4) 0.012(3) -0.031(3)
C14 0.062(3) 0.062(3) 0.089(4) -0.049(3) 0.009(3) -0.013(2)
C15 0.046(2) 0.0369(18) 0.053(2) -0.0137(17) 0.0042(17) -0.0113(15)
C16 0.0395(18) 0.050(2) 0.0413(19) -0.0178(16) 0.0092(15) -0.0169(16)
C17 0.0411(19) 0.044(2) 0.053(2) -0.0247(18) 0.0098(16) -0.0132(16)
C18 0.051(2) 0.077(3) 0.043(2) -0.016(2) 0.0049(17) -0.024(2)
loop_
_atom_type_symbol
_atom_type_description
_atom_type_scat_dispersion_real
_atom_type_scat_dispersion_imag
_atom_type_scat_source
C C 0.0033 0.0016 'International Tables Vol C Tables 4.2.6.8 and 6.1.1.4'
H H 0.0000 0.0000 'International Tables Vol C Tables 4.2.6.8 and 6.1.1.4'
O O 0.0106 0.0060 'International Tables Vol C Tables 4.2.6.8 and 6.1.1.4'
Br Br -0.2901 2.4595 'International Tables Vol C Tables 4.2.6.8 and 6.1.1.4'
loop_
_geom_angle_atom_site_label_1
_geom_angle_atom_site_label_2
_geom_angle_atom_site_label_3
_geom_angle
_geom_angle_site_symmetry_3
C2 O3 C1 111.3 .
O3 C1 C7 106.2 .
O1 C1 O3 121.6 .
O1 C1 C7 132.2 .
O3 C2 C8 106.2 .
O2 C2 O3 121.4 .
O2 C2 C8 132.4 .
C4 C3 Br1 121.9 .
C8 C3 Br1 120.7 .
C8 C3 C4 117.4 .
C3 C4 Br2 119.5 .
C5 C4 Br2 119.8 .
C5 C4 C3 120.7 .
C4 C5 Br3 120.1 .
C4 C5 C6 121.1 .
C6 C5 Br3 118.8 .
C5 C6 Br4 122.0 .
C7 C6 Br4 120.7 .
C7 C6 C5 117.3 .
C6 C7 C1 130.3 .
C8 C7 C1 108.1 .
C8 C7 C6 121.7 .
C3 C8 C2 129.9 .
C7 C8 C2 108.2 .
C7 C8 C3 121.9 .
C10 C9 H9 119.0 .
C15 C9 H9 119.0 .
C15 C9 C10 122.0(6) .
C9 C10 H10 119.7 .
C11 C10 C9 120.6(5) .
C11 C10 H10 119.7 .
C10 C11 H11 119.7 .
C10 C11 C18 120.5(6) .
C18 C11 H11 119.7 .
C13 C12 H12 119.6 .
C13 C12 C18 120.7(5) .
C18 C12 H12 119.6 .
C12 C13 H13 119.8 .
C12 C13 C14 120.4(5) .
C14 C13 H13 119.8 .
C13 C14 H14 119.2 .
C17 C14 C13 121.6(5) .
C17 C14 H14 119.2 .
C9 C15 C16 118.1(5) .
C9 C15 C17 122.8(5) 2_766
C16 C15 C17 119.1(4) 2_766
C15 C16 C18 119.4(4) .
C17 C16 C15 121.6(4) .
C17 C16 C18 119.0(4) .
C14 C17 C15 122.0(4) 2_766
C14 C17 C16 118.6(4) .
C16 C17 C15 119.4(4) 2_766
C11 C18 C16 119.2(5) .
C12 C18 C11 121.1(5) .
C12 C18 C16 119.7(5) .
loop_
_geom_bond_atom_site_label_1
_geom_bond_atom_site_label_2
_geom_bond_distance
_geom_bond_site_symmetry_2
O3 C1 1.3955 .
O3 C2 1.3922 .
O1 C1 1.1736 .
O2 C2 1.1644 .
Br1 C3 1.8676 .
Br2 C4 1.8781 .
Br3 C5 1.8727 .
Br4 C6 1.8621 .
C1 C7 1.4891 .
C2 C8 1.4905 .
C3 C4 1.3979 .
C3 C8 1.3831 .
C4 C5 1.3958 .
C5 C6 1.3972 .
C6 C7 1.3850 .
C7 C8 1.3740 .
C9 H9 0.9300 .
C9 C10 1.403(10) .
C9 C15 1.368(6) .
C10 H10 0.9300 .
C10 C11 1.342(11) .
C11 H11 0.9300 .
C11 C18 1.404(9) .
C12 H12 0.9300 .
C12 C13 1.347(10) .
C12 C18 1.395(8) .
C13 H13 0.9300 .
C13 C14 1.398(9) .
C14 H14 0.9300 .
C14 C17 1.382(6) .
C15 C16 1.425(6) .
C15 C17 1.472(6) 2_766
C16 C17 1.414(6) .
C16 C18 1.427(6) .
C17 C15 1.472(6) 2_766
loop_
_geom_torsion_atom_site_label_1
_geom_torsion_atom_site_label_2
_geom_torsion_atom_site_label_3
_geom_torsion_atom_site_label_4
_geom_torsion
_geom_torsion_site_symmetry_1
_geom_torsion_site_symmetry_4
O3 C1 C7 C6 -177.8 . .
O3 C1 C7 C8 1.7 . .
O3 C2 C8 C3 180.0 . .
O3 C2 C8 C7 2.1 . .
O1 C1 C7 C6 1.9 . .
O1 C1 C7 C8 -178.7 . .
O2 C2 C8 C3 1.8 . .
O2 C2 C8 C7 -176.0 . .
Br1 C3 C4 Br2 -3.5 . .
Br1 C3 C4 C5 177.9 . .
Br1 C3 C8 C2 4.3 . .
Br1 C3 C8 C7 -178.2 . .
Br2 C4 C5 Br3 3.1 . .
Br2 C4 C5 C6 -177.2 . .
Br3 C5 C6 Br4 -2.6 . .
Br3 C5 C6 C7 178.7 . .
Br4 C6 C7 C1 1.3 . .
Br4 C6 C7 C8 -178.0 . .
C1 O3 C2 O2 177.4 . .
C1 O3 C2 C8 -1.1 . .
C1 C7 C8 C2 -2.3 . .
C1 C7 C8 C3 179.7 . .
C2 O3 C1 O1 -180.0 . .
C2 O3 C1 C7 -0.3 . .
C3 C4 C5 Br3 -178.3 . .
C3 C4 C5 C6 1.4 . .
C4 C3 C8 C2 -176.3 . .
C4 C3 C8 C7 1.2 . .
C4 C5 C6 Br4 177.7 . .
C4 C5 C6 C7 -1.0 . .
C5 C6 C7 C1 -180.0 . .
C5 C6 C7 C8 0.7 . .
C6 C7 C8 C2 177.2 . .
C6 C7 C8 C3 -0.9 . .
C8 C3 C4 Br2 177.1 . .
C8 C3 C4 C5 -1.5 . .
C9 C10 C11 C18 -1.0(11) . .
C9 C15 C16 C17 179.5(4) . .
C9 C15 C16 C18 -0.3(6) . .
C10 C9 C15 C16 -0.9(9) . .
C10 C9 C15 C17 178.6(6) . 2_766
C10 C11 C18 C12 -178.9(6) . .
C10 C11 C18 C16 -0.1(9) . .
C12 C13 C14 C17 -0.2(9) . .
C13 C12 C18 C11 179.0(6) . .
C13 C12 C18 C16 0.3(8) . .
C13 C14 C17 C15 -179.5(5) . 2_766
C13 C14 C17 C16 0.2(7) . .
C15 C9 C10 C11 1.6(11) . .
C15 C16 C17 C14 -179.8(4) . .
C15 C16 C17 C15 -0.1(6) . 2_766
C15 C16 C18 C11 0.8(7) . .
C15 C16 C18 C12 179.5(4) . .
C17 C15 C16 C17 0.1(6) 2_766 .
C17 C15 C16 C18 -179.7(4) 2_766 .
C17 C16 C18 C11 -179.0(4) . .
C17 C16 C18 C12 -0.3(6) . .
C18 C12 C13 C14 0.0(9) . .
C18 C16 C17 C14 0.0(6) . .
C18 C16 C17 C15 179.7(4) . 2_766
