#------------------------------------------------------------------------------
#$Date: 2019-11-25 07:58:39 +0200 (Mon, 25 Nov 2019) $
#$Revision: 240428 $
#$URL: file:///home/coder/svn-repositories/cod/cif/4/12/97/4129771.cif $
#------------------------------------------------------------------------------
#
# This file is available in the Crystallography Open Database (COD),
# http://www.crystallography.net/
#
# All data on this site have been placed in the public domain by the
# contributors.
#
data_4129771
loop_
_publ_author_name
'Rovira, Alexander R.'
'Fin, Andrea'
'Tor, Yitzhak'
_publ_section_title
;
 Chemical Mutagenesis of an Emissive RNA Alphabet.
;
_journal_issue                   46
_journal_name_full               'Journal of the American Chemical Society'
_journal_page_first              14602
_journal_page_last               14605
_journal_paper_doi               10.1021/jacs.5b10420
_journal_volume                  137
_journal_year                    2015
_chemical_absolute_configuration ad
_chemical_formula_moiety         'C10 H12 N4 O4 S, H2 O'
_chemical_formula_sum            'C10 H14 N4 O5 S'
_chemical_formula_weight         302.31
_space_group_crystal_system      monoclinic
_space_group_IT_number           4
_space_group_name_Hall           'P 2yb'
_space_group_name_H-M_alt        'P 1 21 1'
_atom_sites_solution_hydrogens   mixed
_atom_sites_solution_primary     direct
_atom_sites_solution_secondary   difmap
_audit_creation_date             2015-07-30
_audit_creation_method
;
Olex2 1.2-beta
(compiled 2015.01.26 svn.r3150 for OlexSys, GUI svn.r4998)
;
_cell_angle_alpha                90
_cell_angle_beta                 97.432(2)
_cell_angle_gamma                90
_cell_formula_units_Z            2
_cell_length_a                   4.8225(4)
_cell_length_b                   8.0030(5)
_cell_length_c                   15.9946(10)
_cell_measurement_reflns_used    5452
_cell_measurement_temperature    100.0
_cell_measurement_theta_max      25.396
_cell_measurement_theta_min      2.568
_cell_volume                     612.12(7)
_computing_cell_refinement       'SAINT v8.34A (Bruker, 2013)'
_computing_data_collection       'APEX2 v2013.6-2 (Bruker, 2013)'
_computing_data_reduction        'SAINT v8.34A (Bruker, 2013)'
_computing_molecular_graphics    'Olex2 (Dolomanov et al., 2009)'
_computing_publication_material  'Olex2 (Dolomanov et al., 2009)'
_computing_structure_refinement  'ShelXL (Sheldrick, 2008)'
_computing_structure_solution    'ShelXT (Sheldrick, 2015)'
_diffrn_ambient_temperature      100.0
_diffrn_detector                 'Bruker APEX-II CCD'
_diffrn_detector_area_resol_mean 7.9
_diffrn_detector_type            'CCD Area Detector'
_diffrn_measured_fraction_theta_full 0.999
_diffrn_measured_fraction_theta_max 0.996
_diffrn_measurement_device       'Kappa Four-Circle Diffractometer'
_diffrn_measurement_device_type  'Bruker APEX II Ultra'
_diffrn_measurement_method       '\w and \f scans'
_diffrn_radiation_monochromator  'Double Bounce Multilayer Mirrors'
_diffrn_radiation_probe          x-ray
_diffrn_radiation_type           MoK\a
_diffrn_radiation_wavelength     0.71073
_diffrn_reflns_av_R_equivalents  0.0314
_diffrn_reflns_av_unetI/netI     0.0256
_diffrn_reflns_Laue_measured_fraction_full 0.999
_diffrn_reflns_Laue_measured_fraction_max 0.996
_diffrn_reflns_limit_h_max       5
_diffrn_reflns_limit_h_min       -5
_diffrn_reflns_limit_k_max       9
_diffrn_reflns_limit_k_min       -9
_diffrn_reflns_limit_l_max       19
_diffrn_reflns_limit_l_min       -19
_diffrn_reflns_number            10950
_diffrn_reflns_point_group_measured_fraction_full 0.999
_diffrn_reflns_point_group_measured_fraction_max 0.995
_diffrn_reflns_theta_full        25.000
_diffrn_reflns_theta_max         25.439
_diffrn_reflns_theta_min         2.568
_diffrn_source                   'Micro Focus Rotating Anode'
_diffrn_source_type              'Bruker TXS'
_diffrn_standards_number         0
_exptl_absorpt_coefficient_mu    0.293
_exptl_absorpt_correction_T_max  0.0916
_exptl_absorpt_correction_T_min  0.0691
_exptl_absorpt_correction_type   multi-scan
_exptl_absorpt_process_details
;
SADABS-2014/5 (Bruker,2014/5) was used for absorption correction.
wR2(int) was 0.1145 before and 0.0450 after correction.
The Ratio of minimum to maximum transmission is 0.7544.
The \l/2 correction factor is Not present.
;
_exptl_crystal_colour            Colorless
_exptl_crystal_colour_primary    Colorless
_exptl_crystal_density_diffrn    1.640
_exptl_crystal_description       Plank
_exptl_crystal_F_000             316
_exptl_crystal_size_max          0.213
_exptl_crystal_size_mid          0.131
_exptl_crystal_size_min          0.055
_refine_diff_density_max         0.188
_refine_diff_density_min         -0.168
_refine_diff_density_rms         0.038
_refine_ls_abs_structure_details
;
 Flack x determined using 948 quotients [(I+)-(I-)]/[(I+)+(I-)]
 (Parsons, Flack and Wagner, Acta Cryst. B69 (2013) 249-259).
;
_refine_ls_abs_structure_Flack   0.05(3)
_refine_ls_extinction_method     none
_refine_ls_goodness_of_fit_ref   1.061
_refine_ls_hydrogen_treatment    mixed
_refine_ls_matrix_type           full
_refine_ls_number_parameters     209
_refine_ls_number_reflns         2260
_refine_ls_number_restraints     8
_refine_ls_restrained_S_all      1.067
_refine_ls_R_factor_all          0.0274
_refine_ls_R_factor_gt           0.0249
_refine_ls_shift/su_max          0.000
_refine_ls_shift/su_mean         0.000
_refine_ls_structure_factor_coef Fsqd
_refine_ls_weighting_details
'w=1/[\s^2^(Fo^2^)+(0.0286P)^2^+0.1214P] where P=(Fo^2^+2Fc^2^)/3'
_refine_ls_weighting_scheme      calc
_refine_ls_wR_factor_gt          0.0562
_refine_ls_wR_factor_ref         0.0575
_reflns_Friedel_coverage         0.856
_reflns_Friedel_fraction_full    0.999
_reflns_Friedel_fraction_max     0.993
_reflns_number_gt                2150
_reflns_number_total             2260
_reflns_threshold_expression     'I > 2\s(I)'
_cod_data_source_file            ja5b10420_si_005.cif
_cod_data_source_block           Tor110
_cod_depositor_comments
;
The following automatic conversions were performed:

data item '_diffrn_radiation_probe' value 'X-ray' was changed to
'x-ray' in accordance with the
/home/saulius/struct/COD-crude-data/automatic-downloads/DataCite-retrospective/ACS/depositions/lib/dictionaries/cif_core.dic
dictionary named 'cif_core.dic' version 2.4.2 last updated on
2011-04-26.

Automatic conversion script
Id: cif_fix_values 6909 2019-04-08 15:41:33Z antanas 
;
_cod_database_code               4129771
_shelx_space_group_comment
;
The symmetry employed for this shelxl refinement is uniquely defined
by the following loop, which should always be used as a source of
symmetry information in preference to the above space-group names.
They are only intended as comments.
;
_shelx_estimated_absorpt_t_max   0.984
_shelx_estimated_absorpt_t_min   0.940
_olex2_refinement_description
;
1. Fixed Uiso
 At 1.2 times of:
  All C(H) groups, All C(H,H) groups
2. Restrained distances
 N4-H4B = N4-H4A = O4-H4 = O3-H3 = O2-H2 = O1S-H1SB = O1S-H1SA
 0.95 with sigma of 0.02
3.a Ternary CH refined with riding coordinates:
 C1(H1), C2(H2A), C3(H3A), C4(H4C)
3.b Secondary CH2 refined with riding coordinates:
 C5(H5A,H5B)
3.c Aromatic/amide H refined with riding coordinates:
 C10(H10)
;
_shelx_res_file
;
    tor110.res created by SHELXL-2014/7

TITL Tor110 in P21 #4
REM SHELXT solution in P2(1)
REM R1 0.061, Rweak 0.018, Alpha 0.002, Orientation as input
REM Flack x = 0.104 ( 0.028 ) from Parsons' quotients
REM Formula found by SHELXT: C10 N4 O5 S
CELL 0.71073 4.8225 8.003 15.9946 90 97.432 90
ZERR 2 0.0004 0.0005 0.001 0 0.002 0
LATT -1
SYMM -X,0.5+Y,-Z
SFAC C H N O S
UNIT 20 28 8 10 2
EQIV $1 1-X,0.5+Y,2-Z
EQIV $2 1+X,+Y,+Z
EQIV $3 1+X,-1+Y,+Z
EQIV $4 +X,1+Y,+Z
EQIV $5 2-X,0.5+Y,1-Z
DFIX 0.95 N4 H4b N4 H4a O4 H4 O3 H3 O2 H2 O1S H1Sb O1S H1Sa

L.S. 10
PLAN  20
SIZE 0.213 0.131 0.055
TEMP -173.15
HTAB O2 O1S
HTAB O3 O1S_$1
HTAB O1S O2_$2
HTAB O1S O3_$2
HTAB O1S O4_$3
HTAB O4 N2_$4
HTAB N4 N3_$5
BOND $H
ACTA 50
fmap 2 53
REM <olex2.extras>
REM <HklSrc "%.\\sad.hkl">
REM </olex2.extras>

WGHT    0.028600    0.121400
FVAR       0.78108
S1    5    0.450294    0.608909    0.644422    11.00000    0.02553    0.01783 =
         0.01804    0.00192    0.00595    0.00213
O1    4    0.123099    0.597935    0.781253    11.00000    0.02058    0.01956 =
         0.01771   -0.00186    0.00122    0.00345
O2    4    0.514166    0.275584    0.896907    11.00000    0.02381    0.01823 =
         0.02478    0.00483    0.00572    0.00557
H2    2    0.686017    0.231291    0.894607    11.00000    0.06047
O3    4    0.127734    0.459318    0.953108    11.00000    0.02519    0.02064 =
         0.01834   -0.00079    0.00869   -0.00161
H3    2    0.095583    0.516281    1.002032    11.00000    0.05282
O4    4    0.258812    0.947016    0.791168    11.00000    0.02657    0.01993 =
         0.02617    0.00669    0.00679    0.00188
H4    2    0.361994    1.026488    0.766985    11.00000    0.05801
N1    3    0.657884    0.527380    0.581313    11.00000    0.02395    0.01880 =
         0.01918    0.00081    0.00557   -0.00018
N2    3    0.600544    0.145806    0.701796    11.00000    0.02335    0.01798 =
         0.01727    0.00163    0.00548   -0.00024
N3    3    0.902809    0.096198    0.595168    11.00000    0.02443    0.01925 =
         0.01710    0.00027    0.00408    0.00171
N4    3    1.016983    0.296350    0.502710    11.00000    0.02755    0.01722 =
         0.01957   -0.00097    0.00839    0.00030
H4A   2    1.002360    0.400362    0.477331    11.00000    0.03796
H4B   2    1.122742    0.214594    0.480030    11.00000    0.03342
C1    1    0.273301    0.442210    0.781046    11.00000    0.01867    0.01637 =
         0.01987    0.00075    0.00465    0.00186
AFIX  13
H1    2    0.139319    0.346688    0.780284    11.00000   -1.20000
AFIX   0
C2    1    0.480246    0.437544    0.863338    11.00000    0.02117    0.01957 =
         0.01746    0.00141    0.00338    0.00058
AFIX  13
H2A   2    0.665341    0.484217    0.853204    11.00000   -1.20000
AFIX   0
C3    1    0.340406    0.553429    0.920614    11.00000    0.01923    0.01664 =
         0.01878   -0.00151    0.00521   -0.00279
AFIX  13
H3A   2    0.477727    0.601157    0.966627    11.00000   -1.20000
AFIX   0
C4    1    0.216217    0.687126    0.859463    11.00000    0.01893    0.02071 =
         0.01597   -0.00274    0.00440    0.00064
AFIX  13
H4C   2    0.049448    0.736744    0.881358    11.00000   -1.20000
AFIX   0
C5    1    0.414511    0.826071    0.843588    11.00000    0.02033    0.02070 =
         0.02100    0.00160    0.00540    0.00014
AFIX  23
H5A   2    0.494661    0.877742    0.897591    11.00000   -1.20000
H5B   2    0.569652    0.781635    0.815210    11.00000   -1.20000
AFIX   0
C6    1    0.420133    0.435749    0.704063    11.00000    0.01865    0.01805 =
         0.01646    0.00046    0.00135   -0.00148
C7    1    0.572657    0.308713    0.672880    11.00000    0.02022    0.01803 =
         0.01535    0.00079    0.00035   -0.00194
C8    1    0.703249    0.368223    0.604172    11.00000    0.01844    0.01857 =
         0.01584   -0.00043    0.00038   -0.00263
C9    1    0.878398    0.253175    0.565698    11.00000    0.01855    0.02085 =
         0.01583   -0.00311    0.00048   -0.00225
C10   1    0.762038    0.053832    0.660588    11.00000    0.02652    0.01675 =
         0.01951    0.00150    0.00293    0.00016
AFIX  43
H10   2    0.784184   -0.058791    0.679014    11.00000   -1.20000
AFIX   0

O1S   4    1.003098    0.117282    0.906919    11.00000    0.02434    0.01916 =
         0.02563    0.00231    0.00755   -0.00047
H1SA  2    1.073113    0.067269    0.863857    11.00000    0.07770
H1SB  2    1.120846    0.196527    0.922904    11.00000    0.04520
HKLF 4

REM  Tor110 in P21 #4
REM R1 =  0.0249 for    2150 Fo > 4sig(Fo)  and  0.0274 for all    2260 data
REM    209 parameters refined using      8 restraints

END

WGHT      0.0286      0.1214

REM Highest difference peak  0.188,  deepest hole -0.168,  1-sigma level  0.038
Q1    1   0.5384  0.1078  0.7485  11.00000  0.05    0.19
Q2    1   0.2941  0.6315  0.8958  11.00000  0.05    0.15
Q3    1   0.3626  0.4321  0.7388  11.00000  0.05    0.14
Q4    1   0.7159  0.2963  0.5678  11.00000  0.05    0.14
Q5    1   0.3929  0.4471  0.8205  11.00000  0.05    0.14
Q6    1   1.1450  0.0574  0.6188  11.00000  0.05    0.14
Q7    1   0.7471  0.6001  0.5561  11.00000  0.05    0.13
Q8    1   0.8587  0.3330  0.5981  11.00000  0.05    0.13
Q9    1   0.8199  0.0995  0.6148  11.00000  0.05    0.13
Q10   1   0.5520  0.4023  0.7122  11.00000  0.05    0.13
Q11   1   0.8289  0.2523  0.4859  11.00000  0.05    0.13
Q12   1   0.9494  0.1865  0.5981  11.00000  0.05    0.12
Q13   1   0.4082  0.8805  0.6945  11.00000  0.05    0.12
Q14   1   0.5162  0.5308  0.7025  11.00000  0.05    0.12
Q15   1   0.5950  0.1814  0.7186  11.00000  0.05    0.12
Q16   1   0.6404  0.3257  0.6347  11.00000  0.05    0.12
Q17   1   1.1280  0.1361  0.5631  11.00000  0.05    0.11
Q18   1   1.0185  0.0453  0.9398  11.00000  0.05    0.11
Q19   1   0.5073  0.7123  0.6826  11.00000  0.05    0.11
Q20   1   0.4438  0.5087  0.6824  11.00000  0.05    0.11
;
_shelx_res_checksum              73584
_shelx_hkl_file
;
   1   0   0 708.079 18.2773   3
  -1   0   0 691.969 18.1900   3
  -1   0   0 706.112 18.5953   6
   1   0   0 711.172 19.0331   1
   1   0   0 711.209 18.6502   6
   2   0   0 543.898 15.7470   3
  -2   0   0 543.824 16.2726   6
   2   0   0 499.673 16.0940   6
  -2   0   0 537.859 15.5520   3
   2   0   0 560.791 17.0794   1
  -2   0   0 524.801 16.8687   1
   3   0   0 51.0344 5.24991   6
  -3   0   0 42.3648 3.65423   3
   3   0   0 38.9585 4.05580   3
   3   0   0 52.0200 5.71257   1
  -3   0   0 46.5869 4.70351   6
  -3   0   0 36.9183 4.94345   1
   4   0   0 16.4513 3.84466   6
  -4   0   0 9.75165 2.13913   4
  -4   0   0 7.25140 2.74277   6
  -4   0   0 8.78477 3.37719   1
   4   0   0 7.48963 2.56534   3
  -5   0   0 8.59973 2.02932   4
  -5   0   0 2.49257 3.34468   1
   5   0   0 9.16607 3.21273   6
   0  -1   0 0.08314 0.54902   2
   0  -1   0 0.22619 0.39353   6
   0  -1   0 -0.0156 0.08439   6
   0   1   0 -0.3120 0.43711   1
   0   1   0 0.09870 0.37283   6
   0   1   0 -0.3282 0.42788   6
   0   1   0 0.21554 0.56821   2
   0   1   0 0.08919 0.39616   1
   1  -1   0 1960.07 49.6742   6
  -1  -1   0 2041.84 49.7019   1
  -1  -1   0 1987.13 48.2197   4
  -1  -1   0 2013.69 49.6093   6
  -1  -1   0 2000.93 48.9096   3
   1  -1   0 1987.22 49.3237   3
   1  -1   0 2019.84 49.9533   1
   1   1   0 2040.10 48.3561   4
  -1   1   0 2020.17 49.2856   2
   1   1   0 2048.84 49.9309   1
   1   1   0 2053.05 48.9754   3
  -1   1   0 2031.73 50.1749   1
   1   1   0 2041.96 49.5736   6
  -1   1   0 2039.28 49.6492   6
  -1   1   0 1996.78 49.2833   3
   2  -1   0 231.529 8.55035   3
  -2  -1   0 225.270 8.91113   6
  -2  -1   0 228.029 9.15987   1
  -2  -1   0 239.110 8.14799   3
  -2  -1   0 248.743 6.99186   4
   2  -1   0 223.059 8.87706   6
   2  -1   0 231.695 9.43830   1
  -2   1   0 236.693 8.91728   6
   2   1   0 243.960 8.96882   6
  -2   1   0 229.072 9.65613   1
   2   1   0 233.272 9.51081   1
   2   1   0 222.239 8.16278   3
   3  -1   0 487.358 16.3377   3
   3  -1   0 541.651 17.5931   6
  -3  -1   0 522.985 14.1643   4
  -3  -1   0 498.574 15.8702   3
  -3  -1   0 513.349 17.1468   6
  -3  -1   0 499.778 17.4924   1
  -3   1   0 477.847 17.9603   1
   3   1   0 515.508 16.2356   3
   3   1   0 519.216 18.1534   1
  -3   1   0 507.094 17.0595   6
  -3   1   0 506.064 16.1968   3
   3   1   0 536.109 17.2121   6
  -4  -1   0 178.699 6.70009   4
  -4  -1   0 187.635 10.4407   1
  -4  -1   0 167.062 9.38550   6
   4  -1   0 183.488 9.93845   6
   4  -1   0 196.522 9.42719   3
  -4   1   0 190.395 9.78982   6
  -4   1   0 188.410 10.9454   1
   4   1   0 185.804 8.99234   3
   4   1   0 204.876 10.1320   6
  -5  -1   0 44.9798 6.10338   1
   5  -1   0 42.2878 5.77380   6
  -5   1   0 42.7079 4.37455   4
   5   1   0 49.7994 6.17806   6
  -5   1   0 29.7297 5.69718   1
   0  -2   0 942.664 24.3257   2
   0  -2   0 933.724 23.4211   6
   0   2   0 942.390 23.4872   6
   0   2   0 952.080 22.4294   3
   0   2   0 915.180 24.1522   2
   0   2   0 949.120 23.5941   6
   0   2   0 927.186 23.3795   1
   0   2   0 945.428 23.6348   1
   0   2   0 943.923 23.7832   4
  -1  -2   0 127.042 4.15899   4
   1  -2   0 125.748 5.42640   2
   1  -2   0 129.841 5.28394   6
  -1  -2   0 127.297 4.11889   3
  -1  -2   0 125.666 5.04716   6
  -1  -2   0 131.229 4.92662   1
   1  -2   0 122.311 5.27547   1
   1  -2   0 126.911 4.80515   3
  -1   2   0 126.465 5.06660   2
  -1   2   0 122.375 5.02524   6
   1   2   0 123.745 4.92387   6
  -1   2   0 126.088 4.70932   3
   1   2   0 127.444 4.22054   4
   1   2   0 132.586 5.28501   1
   1   2   0 123.443 4.12586   3
  -1   2   0 116.917 5.50666   1
   2  -2   0 488.135 15.3095   3
  -2  -2   0 492.472 15.6434   1
  -2  -2   0 516.189 15.9160   6
  -2  -2   0 499.178 14.5376   3
   2  -2   0 520.599 16.3042   1
   2  -2   0 517.231 16.0965   6
  -2  -2   0 489.554 13.1923   4
   2   2   0 537.291 13.6770   4
   2   2   0 504.665 16.3748   1
   2   2   0 514.275 14.7030   3
  -2   2   0 507.395 16.8012   1
  -2   2   0 514.718 15.2477   3
   2   2   0 520.653 15.6397   6
  -2   2   0 500.336 15.6599   6
  -2   2   0 537.594 15.1611   2
  -3  -2   0 35.2036 4.29833   1
   3  -2   0 27.0296 3.97642   6
  -3  -2   0 30.9872 1.96592   4
   3  -2   0 30.1875 3.97946   3
  -3  -2   0 29.9500 3.29573   3
  -3  -2   0 30.8410 4.18172   6
   3  -2   0 23.0244 3.79687   1
  -3   2   0 31.0706 3.32640   2
   3   2   0 29.2548 3.50454   3
  -3   2   0 36.4262 5.25951   1
  -3   2   0 26.5265 3.24570   3
  -3   2   0 32.6421 3.96779   6
   3   2   0 35.8904 4.85749   1
   3   2   0 30.9817 4.05675   6
   4  -2   0 20.4141 4.16961   6
  -4  -2   0 19.5145 3.98443   1
  -4  -2   0 16.4332 3.70122   6
  -4  -2   0 19.4584 1.77779   4
   4  -2   0 16.3648 3.29487   3
   4   2   0 25.8536 4.36328   6
  -4   2   0 28.8134 3.54386   2
  -4   2   0 20.3155 3.89680   6
  -4   2   0 21.1277 4.80567   1
   5  -2   0 22.2971 4.90000   6
  -5  -2   0 20.1550 4.42553   1
  -5   2   0 27.6662 5.95752   1
   5   2   0 19.5095 4.02146   6
   0  -3   0 0.13818 0.84115   6
   0  -3   0 1.57549 1.40897   2
   0  -3   0 -0.1442 0.28687   6
   0   3   0 -0.0053 0.32626   3
   0   3   0 0.22731 0.92558   1
   0   3   0 -0.0090 0.84861   6
   0   3   0 -0.2332 0.90900   6
   0   3   0 0.46023 1.02295   1
   0   3   0 -0.7577 0.86728   4
   1  -3   0 97.4599 4.81143   6
  -1  -3   0 104.033 4.76142   6
   1  -3   0 105.694 4.87438   1
   1  -3   0 96.7663 5.27889   2
   1  -3   0 104.503 4.33772   3
  -1  -3   0 101.352 4.37426   1
  -1  -3   0 106.419 3.30218   3
  -1   3   0 98.5469 4.66504   6
   1   3   0 100.577 4.57232   6
   1   3   0 105.806 4.92976   1
  -1   3   0 102.590 4.98513   2
  -1   3   0 92.7185 5.17458   1
  -1   3   0 112.637 4.30978   3
   1   3   0 114.451 4.27247   4
  -2  -3   0 1.85212 1.55582   1
   2  -3   0 4.54655 1.74096   3
  -2  -3   0 1.02571 0.95881   3
  -2  -3   0 1.24991 0.85516   4
   2  -3   0 1.90508 1.70811   1
  -2  -3   0 1.46810 1.57870   6
   2  -3   0 3.15231 1.71566   6
   2  -3   0 3.09108 1.86545   2
   2   3   0 4.24213 1.63923   6
  -2   3   0 2.15804 1.91936   1
  -2   3   0 1.79702 1.21168   3
   2   3   0 4.56168 1.92744   1
  -2   3   0 2.72074 1.60160   6
  -2   3   0 3.53924 1.47873   2
   2   3   0 2.92920 1.08190   4
  -3  -3   0 6.87547 2.19192   6
  -3  -3   0 4.65303 1.60755   3
  -3  -3   0 5.57234 2.31959   1
   3  -3   0 4.64566 1.87947   3
   3  -3   0 5.97766 2.53722   6
  -3  -3   0 5.73571 1.00488   4
   3  -3   0 2.27457 1.99937   1
  -3   3   0 3.81397 2.68148   1
   3   3   0 4.55799 2.06543   6
  -3   3   0 4.12824 1.57122   2
   3   3   0 4.02778 2.58270   1
  -3   3   0 3.94456 2.06198   6
  -3   3   0 6.45108 1.88430   3
   4  -3   0 -1.5468 1.78301   3
  -4  -3   0 0.65170 2.43581   1
   4  -3   0 0.26190 2.10978   6
  -4  -3   0 0.47242 0.56381   4
  -4   3   0 3.14325 3.40317   1
  -4   3   0 0.19205 1.19920   2
  -4   3   0 -0.0902 2.09411   6
   4   3   0 -0.0287 1.69142   6
  -5  -3   0 21.0620 4.16344   1
  -5   3   0 15.6633 5.01530   1
   5   3   0 11.2785 3.17940   6
   0  -4   0 381.177 11.3229   6
   0  -4   0 374.661 12.8083   2
   0  -4   0 377.796 11.4598   6
   0   4   0 374.092 11.4952   6
   0   4   0 379.987 11.6118   6
   0   4   0 375.374 11.7289   1
   0   4   0 382.981 11.3996   1
   0   4   0 371.679 11.7435   4
  -1  -4   0 19.7980 2.49154   6
  -1  -4   0 27.5106 3.59457   2
   1  -4   0 20.0004 2.41006   6
  -1  -4   0 22.6786 2.35224   1
   1  -4   0 26.8312 2.88305   1
   1  -4   0 24.5084 3.41661   2
  -1   4   0 26.8005 3.17791   2
  -1   4   0 22.9944 2.64864   6
  -1   4   0 20.8225 2.03016   3
   1   4   0 24.8118 2.50702   4
   1   4   0 24.7396 2.63738   6
  -1   4   0 24.4185 3.28609   1
   1   4   0 25.8464 2.91858   1
  -2  -4   0 373.760 12.1143   1
   2  -4   0 381.345 13.4507   6
   2  -4   0 367.331 12.3011   3
  -2  -4   0 371.518 13.0342   6
   2  -4   0 401.243 13.0834   1
   2  -4   0 361.410 13.6537   2
  -2  -4   0 374.451 10.7957   3
  -2   4   0 382.679 12.1822   3
   2   4   0 370.711 12.5240   6
  -2   4   0 391.091 14.3737   1
  -2   4   0 389.639 12.7492   2
   2   4   0 377.206 11.3586   4
   2   4   0 390.827 13.6917   1
  -2   4   0 360.910 12.6944   6
   3  -4   0 12.4011 3.01885   6
  -3  -4   0 18.1075 3.08782   1
   3  -4   0 20.4521 3.34128   3
  -3  -4   0 16.3462 2.35858   3
   3  -4   0 13.7007 3.18784   1
  -3   4   0 17.2040 3.12063   6
   3   4   0 17.1206 3.16801   6
  -3   4   0 11.0829 3.14760   3
   3   4   0 20.0757 2.17416   4
  -3   4   0 26.0583 4.92119   1
  -3   4   0 19.2493 2.92876   2
  -4  -4   0 14.4845 3.31349   1
   4  -4   0 9.55404 3.12279   6
  -4   4   0 16.4059 3.61036   6
   4   4   0 12.4267 3.05379   6
  -4   4   0 9.85384 3.90489   1
  -4   4   0 9.30888 2.12028   2
  -5  -4   0 9.13760 2.99447   1
  -5   4   0 13.8107 4.67994   1
   5   4   0 6.10666 2.99104   6
   0  -5   0 -0.1027 0.95481   6
   0  -5   0 0.43522 0.95166   6
   0  -5   0 1.36435 1.64972   2
   0   5   0 -0.2580 1.15423   6
   0   5   0 -0.8949 1.05823   1
   0   5   0 1.88150 1.45952   1
   0   5   0 0.42256 1.17584   4
   0   5   0 0.74886 1.19375   6
  -1  -5   0 145.042 7.70605   2
  -1  -5   0 163.542 6.16112   1
   1  -5   0 166.220 8.20389   2
   1  -5   0 169.729 6.72824   1
   1  -5   0 163.168 6.56970   6
  -1  -5   0 158.097 6.58287   6
  -1  -5   0 159.134 6.82824   6
   1   5   0 157.265 6.58867   6
  -1   5   0 150.559 5.49147   3
  -1   5   0 155.057 7.08141   4
   1   5   0 157.238 6.98506   1
   1   5   0 162.136 6.50835   4
  -1   5   0 153.177 6.78276   6
  -1   5   0 156.809 7.72716   1
  -1   5   0 163.144 7.52073   2
  -2  -5   0 180.192 8.63858   2
  -2  -5   0 178.445 8.20569   6
   2  -5   0 156.678 8.11049   6
   2  -5   0 163.383 8.86502   2
  -2  -5   0 177.606 5.53021   3
  -2  -5   0 175.313 7.09401   1
   2  -5   0 180.210 7.83623   1
   2   5   0 173.718 7.56128   6
   2   5   0 177.713 6.85414   4
   2   5   0 171.295 8.54219   1
  -2   5   0 167.532 9.10989   1
  -2   5   0 166.077 7.79710   2
  -2   5   0 179.120 7.09762   3
  -2   5   0 195.886 8.11880   6
  -3  -5   0 416.001 12.1222   3
   3  -5   0 373.290 10.9970   5
  -3  -5   0 391.830 13.4068   1
   3  -5   0 425.703 15.6864   6
  -3   5   0 408.944 16.8639   1
   3   5   0 385.955 12.0900   4
  -3   5   0 385.295 14.3718   6
   3   5   0 384.443 13.9773   6
  -3   5   0 373.180 13.5493   2
  -4  -5   0 99.8442 6.55050   1
  -4   5   0 106.457 10.3094   1
   4   5   0 103.662 6.93385   6
   0  -6   0 1139.62 33.3948   2
   0  -6   0 1160.56 31.0511   6
   0   6   0 1149.31 31.4470   4
   0   6   0 1133.14 31.1892   6
   0   6   0 1126.43 31.0485   6
   0   6   0 1163.54 31.7703   1
   0   6   0 1167.81 31.0083   1
  -1  -6   0 24.2479 3.04281   6
   1  -6   0 28.4315 3.53838   6
  -1  -6   0 25.4798 4.21903   2
   1  -6   0 20.2395 3.83737   2
  -1   6   0 23.7822 1.94546   3
   1   6   0 19.6300 2.72042   4
  -1   6   0 24.1456 3.74419   1
   1   6   0 25.9123 3.17188   6
   1   6   0 20.2618 3.05019   1
  -1   6   0 31.6872 5.24930   1
   1   6   0 23.4162 3.27119   1
  -1   6   0 26.5531 3.41073   6
   2  -6   0 379.471 15.2783   6
  -2  -6   0 471.822 14.9124   6
   2  -6   0 463.745 14.8296   1
  -2  -6   0 456.505 14.0113   1
  -2  -6   0 447.418 16.4386   2
   2  -6   0 475.366 17.4548   2
  -2   6   0 457.328 15.2974   6
  -2   6   0 454.701 13.9127   3
  -2   6   0 455.908 17.2545   1
   2   6   0 448.421 14.1113   4
   2   6   0 455.882 14.9046   6
  -3  -6   0 129.878 6.49209   1
  -3  -6   0 138.536 8.16369   2
   3   6   0 136.774 7.29877   6
   3   6   0 123.926 5.92292   4
  -3   6   0 112.511 8.91684   1
  -4  -6   0 21.5468 3.98682   2
  -4  -6   0 15.7864 3.03477   1
   4   6   0 17.3757 3.33244   6
  -4   6   0 18.3270 4.87281   1
   0  -7   0 0.89901 2.14675   2
   0  -7   0 0.07592 1.23456   6
   0   7   0 1.11859 0.79431   5
   0   7   0 -2.1703 1.55412   1
   0   7   0 0.19436 1.42588   6
  -1  -7   0 72.5695 6.27660   2
   1  -7   0 75.8447 6.61283   2
   1  -7   0 80.5803 5.40723   6
  -1  -7   0 75.0483 4.86618   6
   1   7   0 76.7806 5.42859   1
  -1   7   0 76.5317 5.25281   6
  -1   7   0 78.1042 3.27612   3
   1   7   0 69.5685 4.85855   6
  -1   7   0 73.7094 6.24786   1
  -2  -7   0 13.5641 3.59442   2
   2  -7   0 19.1248 4.33286   2
   2  -7   0 17.2358 2.78195   1
  -2   7   0 15.3307 2.16042   3
   2   7   0 15.9826 2.84536   6
   2   7   0 16.4826 2.81151   4
  -2   7   0 17.6546 4.10601   1
   3  -7   0 128.782 9.22131   2
  -3  -7   0 130.626 6.54326   1
  -3  -7   0 124.146 8.46022   2
  -3   7   0 151.436 10.3070   1
   3   7   0 152.951 7.64410   6
   0  -8   0 72.6886 7.80012   2
   0   8   0 61.9526 6.39070   1
   1  -8   0 12.3355 3.78135   2
  -1  -8   0 5.52902 2.81871   2
   1   8   0 12.6126 2.96609   1
   1   8   0 9.80180 2.69001   6
  -1   8   0 14.9990 3.86688   1
   2  -8   0 57.9728 6.99941   2
  -2  -8   0 54.3115 6.54385   2
   2   8   0 47.7588 5.12911   1
  -2   8   0 59.3422 7.08847   1
   2   8   0 53.0502 5.07131   6
   3  -8   0 31.1006 5.68202   2
  -3  -8   0 30.9391 3.34390   1
  -3  -8   0 29.7521 5.23635   2
  -3   8   0 17.4818 4.93499   1
   3   8   0 30.1741 4.10072   6
   0  -9   0 0.88126 2.44212   2
   0   9   0 -1.5788 2.03211   1
   1  -9   0 8.35580 3.44023   2
  -1  -9   0 11.0274 3.63020   2
   1   9   0 4.63586 2.26678   6
  -1   9   0 4.20736 3.19854   1
   1   9   0 8.24965 2.88841   1
  -2  -9   0 2.21091 2.81448   2
   2  -9   0 10.9934 4.07059   2
  -2   9   0 5.96279 3.35855   1
   2   9   0 4.69493 2.08768   6
   2   9   0 2.95530 2.10611   1
   5   0  -1 47.3020 6.22028   6
  -5   0   1 67.6425 8.02264   1
  -5   0   1 59.0858 4.29282   4
  -4   0   1 127.748 7.96274   6
  -4   0   1 127.096 6.17040   4
  -4   0   1 100.631 8.08964   1
   4   0  -1 133.111 8.11854   6
   3   0  -1 89.3694 5.91442   6
   3   0  -1 76.5118 6.05795   1
   3   0  -1 85.9123 5.30805   3
  -3   0   1 80.8037 6.28770   1
  -3   0   1 85.4377 4.52444   4
  -3   0   1 83.7970 5.06844   3
  -3   0   1 88.6075 5.86104   6
  -2   0   1 2.90512 1.44948   3
   2   0  -1 1.38604 1.98559   1
  -2   0   1 1.31544 1.87423   1
   2   0  -1 1.12888 1.62758   6
  -2   0   1 1.94852 1.60837   6
   2   0  -1 3.19029 1.46862   3
   1   0  -1 374.365 11.1386   1
  -1   0   1 371.762 10.4017   3
  -1   0   1 365.987 11.0892   1
  -1   0   1 385.735 10.8345   6
   1   0  -1 365.325 10.6975   6
  -1   0  -1 425.225 11.6155   6
   1   0   1 397.724 11.2764   3
  -1   0  -1 387.583 11.9318   1
   1   0   1 409.237 12.0220   1
   2   0   1 5.80074 1.94431   6
   2   0   1 3.75410 1.77373   3
  -2   0  -1 4.50411 2.27675   1
  -2   0  -1 8.46063 2.04667   6
  -2   0  -1 8.76372 1.85994   3
   2   0   1 7.96624 2.52235   1
   3   0   1 1.13623 1.86515   1
   3   0   1 3.92808 2.24536   6
   3   0   1 8.68331 2.11155   3
  -3   0  -1 4.61509 1.97470   6
  -3   0  -1 2.94263 2.39370   1
  -3   0  -1 4.63218 1.74535   3
  -4   0  -1 16.0139 4.19035   1
  -4   0  -1 14.4262 2.21127   4
   4   0   1 15.4281 3.56291   6
   4   0   1 13.4694 3.17010   3
  -4   0  -1 12.2780 3.15385   6
   5   0   1 35.0474 4.80024   3
   5   0   1 42.1972 5.83648   6
  -5   0  -1 35.2859 6.07349   1
   5  -1  -1 176.726 10.5335   6
  -5  -1   1 194.359 11.2606   1
  -5  -1   1 199.986 10.3294   4
   5   1  -1 169.817 10.1419   6
  -5   1   1 196.855 12.0904   1
  -5   1   1 173.253 8.41453   4
  -4  -1   1 11.1389 2.96614   6
   4  -1  -1 11.2007 3.18443   6
  -4  -1   1 10.5630 2.00358   4
  -4  -1   1 7.55040 3.19052   1
  -4   1   1 12.1575 3.89065   1
  -4   1   1 8.18956 3.03820   6
   4   1  -1 8.03591 2.84867   6
  -3  -1   1 224.625 8.95912   3
  -3  -1   1 229.607 10.0938   6
   3  -1  -1 216.443 9.29598   3
  -3  -1   1 247.837 8.02565   4
   3  -1  -1 227.165 10.4830   1
   3  -1  -1 239.491 10.1570   6
  -3  -1   1 233.520 10.5539   1
   3   1  -1 239.557 10.0248   6
  -3   1   1 242.183 10.1252   6
   3   1  -1 230.771 10.7586   1
  -3   1   1 225.141 10.8651   1
  -3   1   1 240.498 9.39798   3
   2  -1  -1 220.005 8.89405   1
  -2  -1   1 216.425 6.90331   4
  -2  -1   1 210.694 7.61281   3
   2  -1  -1 211.793 7.94109   3
  -2  -1   1 216.214 8.51459   6
   2  -1  -1 201.932 8.30929   6
  -2  -1   1 211.258 8.72020   1
  -2   1   1 203.186 7.78497   3
   2   1  -1 203.011 7.57177   3
   2   1  -1 224.021 9.12167   1
  -2   1   1 223.637 8.45631   6
   2   1  -1 205.479 8.25343   6
  -1  -1   1 178.594 5.37729   4
   1  -1  -1 171.724 6.23192   1
   1  -1  -1 171.811 6.05676   6
  -1  -1   1 173.252 6.34123   1
  -1  -1   1 174.576 6.20276   6
  -1  -1   1 177.397 5.54277   3
   1   1  -1 172.514 6.47810   1
  -1   1   1 178.195 6.07057   6
  -1   1   1 172.730 6.50271   1
   1   1  -1 176.583 5.49043   4
  -1   1   1 170.032 6.30820   2
   1   1  -1 161.327 5.95069   6
  -1   1   1 170.923 5.86517   3
   0  -1  -1 909.322 22.8709   2
   0  -1  -1 905.954 21.9247   6
   0  -1   1 923.217 22.5003   6
   0  -1   1 921.450 22.0177   3
   0  -1   1 895.011 22.4160   6
   0  -1   1 947.699 22.5995   1
   0  -1  -1 902.264 21.9512   6
   0  -1   1 936.894 22.5203   4
   0  -1   1 935.117 22.4288   1
   0   1  -1 982.591 22.5120   3
   0   1   1 863.018 21.9225   6
   0   1  -1 941.628 22.4629   5
   0   1   1 892.577 22.7852   2
   0   1  -1 886.142 22.4368   6
   0   1  -1 882.919 22.4525   4
   0   1  -1 901.292 22.5882   1
   0   1  -1 931.235 22.4539   1
   0   1  -1 923.736 22.5156   6
   0   1   1 896.078 21.9728   6
  -1  -1  -1 1201.36 30.2692   3
  -1  -1  -1 1222.17 30.8352   1
   1  -1   1 1268.65 30.2911   2
   1  -1   1 1256.87 31.5462   1
  -1  -1  -1 1246.38 30.9024   6
   1  -1   1 1197.73 31.1015   6
  -1  -1  -1 1177.60 29.0401   4
   1  -1   1 1212.47 30.7535   3
  -1   1  -1 1273.44 31.0566   6
  -1   1  -1 1175.25 31.5672   1
  -1   1  -1 1275.61 30.0251   2
   1   1   1 1228.17 29.1227   4
   1   1   1 1224.20 30.3752   3
   1   1   1 1195.76 30.7977   6
  -1   1  -1 1191.82 30.6115   3
   1   1   1 1241.53 31.1497   1
  -2  -1  -1 95.2269 5.15115   6
   2  -1   1 82.5403 4.76926   3
  -2  -1  -1 79.0785 4.26567   3
   2  -1   1 78.7307 5.07619   6
  -2  -1  -1 82.3750 5.18275   1
  -2  -1  -1 89.2682 2.95789   4
   2  -1   1 87.7779 5.64514   1
   2   1   1 90.6640 5.54585   1
   2   1   1 85.1763 4.55445   3
   2   1   1 90.4697 5.10973   6
  -2   1  -1 81.8292 3.94559   2
  -2   1  -1 86.3551 5.06097   6
  -2   1  -1 92.8470 5.92215   1
   3  -1   1 24.0950 3.44023   3
   3  -1   1 24.3521 3.54243   6
  -3  -1  -1 28.6194 4.25109   1
  -3  -1  -1 25.3605 1.86532   4
  -3  -1  -1 23.9517 3.02104   3
  -3  -1  -1 18.6367 3.18364   6
   3  -1   1 28.8069 4.16004   1
  -3   1  -1 22.3638 3.03707   3
  -3   1  -1 19.4309 3.74805   1
   3   1   1 29.7259 4.59582   1
   3   1   1 28.2810 3.98947   6
   3   1   1 19.9671 2.99288   3
  -3   1  -1 19.1860 3.23029   6
   4  -1   1 102.260 6.74534   3
  -4  -1  -1 98.1397 4.03385   4
   4  -1   1 99.5137 7.43076   6
  -4  -1  -1 83.5093 6.58768   6
  -4  -1  -1 86.0241 7.16102   1
  -4   1  -1 96.7191 6.92201   6
  -4   1  -1 92.5914 5.21284   2
   4   1   1 90.6710 6.97900   6
   4   1   1 107.023 6.70364   3
  -4   1  -1 93.7137 9.08046   1
   5  -1   1 13.5988 3.61100   6
  -5  -1  -1 18.5783 4.49604   1
   5  -1   1 14.2772 3.52474   3
  -5   1  -1 11.8758 4.24367   1
   5   1   1 14.5307 4.03052   6
  -5   1  -1 23.2459 3.18000   4
  -5  -2   1 35.5173 5.47470   1
   5   2  -1 34.0879 4.95929   6
  -5   2   1 25.2663 5.51033   1
  -4  -2   1 46.6803 5.40432   6
   4  -2  -1 46.1486 5.57279   6
  -4  -2   1 60.0541 3.26931   4
  -4  -2   1 39.4402 5.35866   1
  -4   2   1 57.3173 4.71879   2
   4   2  -1 43.8183 5.06643   6
  -4   2   1 48.0830 5.47494   6
  -4   2   1 66.0601 7.64793   1
  -3  -2   1 118.968 5.79264   3
   3  -2  -1 105.845 6.85453   1
   3  -2  -1 124.216 7.05678   6
   3  -2  -1 112.456 6.33262   3
  -3  -2   1 106.110 4.42655   4
  -3  -2   1 107.054 6.79886   1
  -3  -2   1 102.455 6.54920   6
   3   2  -1 114.518 7.37157   1
   3   2  -1 115.514 6.58190   6
  -3   2   1 117.402 6.69134   6
  -3   2   1 119.775 6.25303   3
  -3   2   1 113.461 6.11242   2
   2  -2  -1 143.457 6.78565   1
  -2  -2   1 140.996 6.73185   1
  -2  -2   1 139.857 5.65942   3
   2  -2  -1 142.016 6.26382   3
   2  -2  -1 140.492 6.66940   6
  -2  -2   1 143.945 4.98384   4
  -2   2   1 147.762 6.26228   3
  -2   2   1 147.725 6.55546   2
   2   2  -1 142.768 5.28654   4
  -2   2   1 138.532 6.48271   6
  -2   2   1 142.979 7.39634   1
   2   2  -1 138.379 6.45703   6
   2   2  -1 141.374 7.10097   1
  -1  -2   1 809.423 20.4356   3
   1  -2  -1 819.200 21.3876   1
  -1  -2   1 797.999 21.4285   1
  -1  -2   1 853.707 21.7318   6
   1  -2  -1 810.156 20.1844   5
   1  -2  -1 802.807 22.3485   2
  -1  -2   1 798.874 20.6840   4
  -1   2   1 857.404 22.0871   2
   1   2  -1 792.520 21.3912   6
  -1   2   1 830.933 21.4668   6
   1   2  -1 827.180 20.9037   4
   1   2  -1 813.298 21.8774   1
  -1   2   1 801.228 21.8285   1
  -1   2   1 806.732 21.1326   3
   0  -2   1 152.368 5.72797   2
   0  -2  -1 149.151 4.78417   6
   0  -2  -1 155.506 4.90633   6
   0  -2   1 156.734 4.37400   3
   0  -2   1 159.578 5.42317   6
   0  -2  -1 148.831 5.97591   2
   0  -2   1 162.899 5.29840   6
   0  -2   1 159.030 5.48345   1
   0  -2   1 150.602 5.47719   4
   0   2   1 157.177 5.87072   2
   0   2   1 162.705 4.99139   6
   0   2  -1 169.842 5.48011   4
   0   2  -1 162.338 5.32343   1
   0   2  -1 155.681 5.33997   6
   0   2  -1 170.166 5.56294   6
   0   2  -1 161.861 4.37127   3
   0   2   1 159.618 4.89571   6
   0   2  -1 157.100 5.55796   1
   1  -2   1 1510.97 38.6054   6
  -1  -2  -1 1542.56 38.2373   6
   1  -2   1 1493.67 38.7365   1
   1  -2   1 1537.55 38.0590   3
  -1  -2  -1 1495.77 37.6386   1
  -1  -2  -1 1528.31 37.1589   3
   1  -2   1 1587.06 38.3254   2
   1   2   1 1542.21 38.2989   1
   1   2   1 1499.27 38.0177   6
   1   2   1 1499.31 37.2446   3
  -1   2  -1 1556.99 37.9574   2
  -1   2  -1 1567.48 37.9326   3
   1   2   1 1486.79 36.8688   4
  -1   2  -1 1485.94 39.1219   1
  -1   2  -1 1553.67 38.4755   6
   2  -2   1 16.2298 2.87966   1
  -2  -2  -1 14.8152 1.03228   4
   2  -2   1 19.4286 3.02523   6
   2  -2   1 17.6522 2.49130   3
  -2  -2  -1 17.5692 2.65678   6
  -2  -2  -1 19.0524 2.86569   1
  -2  -2  -1 19.1200 2.22170   3
  -2   2  -1 14.0380 2.24309   3
   2   2   1 11.7694 2.55565   1
   2   2   1 9.93626 2.12755   6
   2   2   1 15.2714 1.27308   4
  -2   2  -1 13.1371 2.99817   1
  -2   2  -1 13.7576 2.57161   6
  -2   2  -1 17.3808 2.20956   2
   2   2   1 15.4829 2.17167   3
  -3  -2  -1 438.828 14.2593   3
   3  -2   1 468.842 15.5003   3
   3  -2   1 442.275 16.0308   6
  -3  -2  -1 446.682 11.3897   4
   3  -2   1 476.254 16.6185   1
  -3  -2  -1 465.796 15.8532   6
  -3  -2  -1 452.217 15.6928   1
   3   2   1 443.252 15.5458   6
  -3   2  -1 465.569 13.7645   2
  -3   2  -1 468.817 15.7588   6
   3   2   1 456.837 14.7422   3
   3   2   1 451.423 16.6944   1
  -3   2  -1 413.880 16.7246   1
  -3   2  -1 445.571 14.8662   3
   4  -2   1 37.2640 4.79092   3
  -4  -2  -1 30.3271 4.72957   1
   4  -2   1 28.8572 4.77630   6
   4   2   1 33.6009 4.77705   6
  -4   2  -1 40.3274 6.04558   1
   4   2   1 32.9321 4.13130   3
  -4   2  -1 38.8946 3.28593   2
  -4   2  -1 37.2039 5.09416   6
  -5  -2  -1 17.1478 4.23964   1
   5  -2   1 25.3181 4.85037   3
   5  -2   1 29.6684 5.33437   6
  -5   2  -1 12.9763 4.81497   1
   5   2   1 22.0348 4.44121   6
  -5  -3   1 95.4085 7.68230   1
   5   3  -1 110.807 7.85352   6
  -5   3   1 112.962 9.59482   1
  -4  -3   1 48.0490 2.68925   4
   4  -3  -1 47.9682 5.76783   6
  -4  -3   1 50.5631 5.65255   1
  -4   3   1 51.4153 6.97559   1
   4   3  -1 55.7275 5.87169   6
  -4   3   1 54.5383 4.48839   2
  -4   3   1 54.3488 5.74830   6
   3  -3  -1 609.488 19.5835   1
  -3  -3   1 595.814 19.5705   6
   3  -3  -1 574.716 19.4293   6
  -3  -3   1 580.676 18.9491   1
  -3  -3   1 593.882 15.9285   4
  -3  -3   1 573.112 17.4489   3
  -3   3   1 590.170 20.7459   1
  -3   3   1 573.784 18.9503   6
  -3   3   1 599.749 18.5490   3
   3   3  -1 649.636 28.2932   1
   3   3  -1 599.803 19.0120   6
  -3   3   1 584.263 18.3225   2
   3   3  -1 611.707 16.6399   4
  -2  -3   1 11.1099 2.40265   6
  -2  -3   1 8.16707 1.49541   3
   2  -3  -1 9.75110 2.32708   1
  -2  -3   1 9.98902 1.45182   4
  -2  -3   1 6.05268 1.90500   1
   2  -3  -1 6.41551 2.03731   6
  -2   3   1 5.67842 2.22218   1
  -2   3   1 5.98954 1.87556   6
   2   3  -1 6.59821 1.47758   4
  -2   3   1 7.45432 1.93758   2
  -2   3   1 5.38001 1.61975   3
   2   3  -1 6.60320 1.92909   6
   2   3  -1 8.16803 2.35455   1
   1  -3  -1 220.616 6.18896   5
   1  -3  -1 190.220 7.55570   6
  -1  -3   1 230.577 7.66841   1
   1  -3  -1 239.590 9.09703   2
  -1  -3   1 235.832 7.42138   4
  -1  -3   1 234.057 8.04979   6
   1  -3  -1 227.299 7.56488   1
  -1  -3   1 222.163 6.27967   3
  -1  -3   1 227.403 7.81636   6
   1   3  -1 222.127 7.38454   4
  -1   3   1 230.052 7.31096   3
  -1   3   1 233.831 7.79446   6
  -1   3   1 232.227 8.36803   1
   1   3  -1 235.615 8.23524   1
   1   3  -1 224.403 7.71171   6
  -1   3   1 225.030 8.34998   2
   0  -3   1 32.1192 1.49417   3
   0  -3   1 35.2492 2.98487   2
   0  -3  -1 31.9929 2.23803   6
   0  -3   1 31.0202 2.54695   6
   0  -3   1 35.7277 2.46908   6
   0  -3  -1 36.8748 3.26296   2
   0  -3  -1 36.3141 2.19191   6
   0   3   1 34.8087 2.29257   6
   0   3   1 31.8682 2.29746   6
   0   3   1 30.2358 2.32375   1
   0   3  -1 31.9582 2.52385   6
   0   3  -1 33.9281 2.58989   6
   0   3  -1 35.5968 2.57522   4
   0   3   1 32.8097 1.38091   3
   0   3  -1 37.4091 2.80722   1
   0   3   1 33.4688 2.18875   1
   0   3   1 36.0706 3.03314   2
   0   3  -1 34.6104 2.56558   1
   0   3  -1 34.8764 1.45995   3
  -1  -3  -1 49.1247 2.75286   1
  -1  -3  -1 45.2939 3.08546   6
   1  -3   1 42.1942 3.48193   2
  -1  -3  -1 46.4737 2.00350   3
   1  -3   1 42.7894 2.87167   3
  -1  -3  -1 44.3299 3.52450   2
   1  -3   1 47.0726 3.58212   1
   1  -3   1 49.4680 3.46190   6
  -1   3  -1 47.9845 3.16748   2
   1   3   1 41.7375 2.91784   6
   1   3   1 41.6219 2.04974   3
  -1   3  -1 48.5775 2.74656   3
  -1   3  -1 39.5786 3.84580   1
  -1   3  -1 45.0241 3.17740   4
  -1   3  -1 47.6775 3.30224   6
   1   3   1 40.4248 2.38255   4
   1   3   1 43.0247 3.08737   1
   2  -3   1 137.919 6.80369   1
  -2  -3  -1 125.230 6.22708   6
  -2  -3  -1 122.505 5.66829   1
   2  -3   1 133.099 6.76084   6
  -2  -3  -1 133.056 5.11865   3
   2  -3   1 130.325 6.33327   2
   2  -3   1 126.541 6.01933   3
  -2   3  -1 133.147 7.43627   1
  -2   3  -1 121.581 6.17782   6
  -2   3  -1 132.376 5.83500   3
  -2   3  -1 118.433 5.41399   2
   2   3   1 124.966 4.41587   4
   2   3   1 129.195 6.69466   1
   2   3   1 120.725 5.15416   3
   2   3   1 117.345 5.89004   6
  -3  -3  -1 12.0396 2.84147   1
   3  -3   1 19.4260 3.35238   3
  -3  -3  -1 15.4794 2.42329   3
   3  -3   1 15.9224 3.29517   1
  -3  -3  -1 13.1909 2.87112   6
   3  -3   1 13.7856 3.23528   6
  -3   3  -1 17.9113 2.46696   2
   3   3   1 13.1398 3.47491   1
   3   3   1 15.2593 2.99121   6
   3   3   1 16.6206 2.72799   3
  -3   3  -1 12.3002 3.64462   1
  -3   3  -1 19.6537 3.07910   3
  -3   3  -1 19.0518 3.23358   6
   4  -3   1 92.0690 6.45901   3
   4  -3   1 60.7136 6.45509   6
  -4  -3  -1 83.4841 6.36068   1
   4   3   1 80.4123 6.19383   6
   4   3   1 79.1517 5.61200   3
  -4   3  -1 71.3103 6.12792   6
  -4   3  -1 75.0305 8.23803   1
  -4   3  -1 70.6208 4.38587   2
  -5  -3  -1 23.6326 4.45395   1
  -5   3  -1 20.0891 5.22935   1
   5   3   1 21.0595 4.08597   6
  -5  -4   1 26.0280 4.47904   1
   5   4  -1 44.4473 5.71336   6
  -5   4   1 34.6523 6.42821   1
   4  -4  -1 38.8584 5.24691   6
  -4  -4   1 39.6625 4.92170   1
  -4  -4   1 36.0822 2.32851   4
  -4   4   1 33.7236 5.70192   1
  -4   4   1 37.1976 4.26101   2
  -4   4   1 46.7424 5.77558   6
   4   4  -1 36.2771 4.64421   6
   3  -4  -1 43.7268 5.09570   6
  -3  -4   1 32.6610 2.43162   4
  -3  -4   1 33.0572 4.37312   6
   3  -4  -1 33.7921 4.37720   1
  -3  -4   1 35.4182 4.07511   1
  -3  -4   1 34.7666 3.31675   3
  -3   4   1 34.8724 4.09018   6
  -3   4   1 45.7737 6.07693   1
   3   4  -1 35.3977 4.21567   6
   3   4  -1 37.7578 2.96893   4
  -3   4   1 26.4887 3.50077   2
  -3   4   1 28.2515 3.65303   3
  -2  -4   1 4.98171 1.94316   6
   2  -4  -1 6.99492 2.03203   1
  -2  -4   1 4.54555 1.15973   3
  -2  -4   1 6.31404 1.44254   4
   2  -4  -1 6.42022 1.08232   5
  -2  -4   1 4.68455 1.75937   1
   2  -4  -1 3.79573 2.16907   2
   2  -4  -1 10.1851 2.36362   6
  -2   4   1 6.05052 1.87438   6
   2   4  -1 5.42856 2.09888   1
   2   4  -1 5.00270 1.50697   4
  -2   4   1 6.19655 1.63095   3
  -2   4   1 7.90687 2.02848   2
   2   4  -1 3.97604 1.60965   6
  -2   4   1 1.22315 2.03761   1
  -1  -4   1 212.563 7.80782   6
   1  -4  -1 201.513 7.29492   1
  -1  -4   1 206.704 7.51019   1
   1  -4  -1 208.064 7.87579   6
   1  -4  -1 220.497 7.50469   6
  -1  -4   1 225.417 8.12940   6
   1  -4  -1 214.427 9.23493   2
   1   4  -1 211.596 7.54956   4
   1   4  -1 232.986 8.36575   1
  -1   4   1 201.776 7.57992   6
   1   4  -1 202.768 7.68415   6
  -1   4   1 212.367 6.97368   3
  -1   4   1 213.159 8.52562   2
  -1   4   1 211.813 8.45035   1
   0  -4   1 450.615 13.2024   6
   0  -4  -1 452.585 12.7622   6
   0  -4   1 468.604 14.6196   2
   0  -4  -1 452.276 12.9379   6
   0  -4  -1 426.186 14.6152   2
   0  -4   1 453.901 13.4560   6
   0   4   1 455.328 12.8440   1
   0   4   1 452.936 13.0313   6
   0   4  -1 436.497 13.4407   6
   0   4  -1 462.751 13.6194   4
   0   4  -1 454.098 13.8326   1
   0   4  -1 450.351 13.3055   1
   0   4  -1 422.356 13.2893   6
   0   4   1 443.571 13.0666   6
   0   4   1 453.594 14.3156   2
   0   4   1 438.647 13.1415   1
   1  -4   1 820.903 22.8241   1
   1  -4   1 833.912 22.6179   6
  -1  -4  -1 818.528 21.5251   1
  -1  -4  -1 830.658 22.1654   6
  -1  -4  -1 810.167 23.7441   2
   1  -4   1 782.934 23.5416   2
   1  -4   1 816.896 21.7920   3
   1  -4   1 823.182 23.1686   6
  -1  -4  -1 798.378 22.3971   6
  -1   4  -1 838.722 21.6093   3
  -1   4  -1 825.369 22.8274   6
   1   4   1 838.930 21.9404   4
  -1   4  -1 842.880 23.9891   1
  -1   4  -1 833.217 23.0783   4
   1   4   1 836.245 22.1908   6
   1   4   1 840.575 22.6473   1
  -1   4  -1 860.449 23.2521   2
  -2  -4  -1 4.17546 2.02310   2
  -2  -4  -1 5.35193 1.18809   3
   2  -4   1 7.94812 2.33038   1
   2  -4   1 4.93611 2.09648   6
   2  -4   1 8.99833 2.58008   2
  -2  -4  -1 6.85013 1.76234   1
  -2  -4  -1 1.68873 1.50572   6
   2  -4   1 4.80434 1.67006   3
  -2   4  -1 8.65096 2.08964   6
  -2   4  -1 6.44630 1.64424   3
   2   4   1 8.68535 1.51341   3
  -2   4  -1 7.14809 1.85599   2
   2   4   1 8.78290 2.02162   6
   2   4   1 6.21912 1.37068   4
  -2   4  -1 11.1288 3.15950   1
   2   4   1 5.44411 2.16893   1
  -3  -4  -1 368.062 11.8252   3
   3  -4   1 357.626 13.3357   3
   3  -4   1 400.650 14.9063   6
  -3  -4  -1 370.992 12.8064   1
  -3   4  -1 371.592 13.8024   6
   3   4   1 379.432 10.5143   4
   3   4   1 357.199 13.3445   6
  -3   4  -1 352.066 12.1954   2
  -3   4  -1 360.477 15.6475   1
   4  -4   1 65.7381 6.49252   3
   4  -4   1 75.5300 7.78556   6
  -4  -4  -1 69.7389 5.62851   1
   4   4   1 64.4908 6.32396   6
  -4   4  -1 66.6726 8.20648   1
  -4   4  -1 66.4665 6.61886   6
  -4   4  -1 66.0603 4.33959   2
  -5  -4  -1 69.6587 6.08001   1
  -5  -4  -1 60.0046 5.25737   2
  -5   4  -1 92.7863 10.0575   1
   5   4   1 63.8068 6.59071   6
  -4  -5   1 4.27004 2.25162   1
   4   5  -1 2.26715 2.06010   6
  -4   5   1 4.94165 3.46388   1
  -3  -5   1 177.049 6.74224   3
   3  -5  -1 182.305 6.13404   5
   3  -5  -1 178.979 9.32796   6
   3  -5  -1 179.789 8.59811   1
  -3  -5   1 168.741 8.08043   1
  -3   5   1 187.571 8.82834   6
   3   5  -1 175.509 7.18792   4
   3   5  -1 187.109 8.57206   6
  -3   5   1 174.951 8.35497   2
  -3   5   1 163.168 10.0990   1
   2  -5  -1 345.998 14.2538   2
  -2  -5   1 361.474 12.0425   1
  -2  -5   1 350.647 12.3460   6
   2  -5  -1 364.158 12.1874   1
  -2  -5   1 367.877 10.0057   3
  -2  -5   1 335.411 12.7401   6
   2   5  -1 366.104 11.8185   4
  -2   5   1 366.130 14.1482   1
   2   5  -1 366.323 12.4466   6
  -2   5   1 376.243 12.6912   6
   2   5  -1 367.154 16.6790   1
  -2   5   1 366.435 13.0911   2
  -2   5   1 355.491 11.7678   3
  -1  -5   1 263.636 8.91204   1
   1  -5  -1 280.349 8.94688   1
   1  -5  -1 262.989 8.85145   6
  -1  -5   1 263.138 10.6217   2
   1  -5  -1 246.867 9.41113   6
  -1  -5   1 275.425 9.72542   6
  -1  -5   1 205.511 8.75669   6
   1  -5  -1 247.553 10.9442   2
  -1   5   1 259.584 8.06885   3
  -1   5   1 258.682 9.23347   6
   1   5  -1 249.468 9.18713   6
  -1   5   1 265.488 10.2861   2
   1   5  -1 258.618 9.21762   4
  -1   5   1 268.760 10.2332   1
   1   5  -1 271.437 9.93199   1
   0  -5  -1 52.3319 5.36067   2
   0  -5  -1 42.5307 3.01045   6
   0  -5   1 43.9400 3.20179   6
   0  -5  -1 45.7444 3.19598   6
   0  -5   1 31.3959 3.22813   6
   0  -5   1 44.3018 4.63702   2
   0   5  -1 42.0319 3.46145   6
   0   5  -1 47.4582 3.87565   1
   0   5   1 42.4972 3.45407   1
   0   5   1 46.9233 3.54770   4
   0   5   1 48.1741 3.45625   6
   0   5  -1 44.8400 3.33772   1
   0   5   1 40.8203 3.18844   6
   0   5   1 47.6049 3.22380   1
   0   5  -1 43.9245 3.52093   6
   0   5  -1 52.3584 3.63728   4
   1  -5   1 21.9997 2.88991   1
  -1  -5  -1 15.9598 2.37610   6
   1  -5   1 18.7373 2.89646   6
   1  -5   1 17.8505 2.06138   3
  -1  -5  -1 16.6448 3.20450   2
  -1  -5  -1 15.8255 2.24533   6
   1  -5   1 15.1349 2.95344   2
   1  -5   1 16.9679 2.47513   6
  -1   5  -1 14.5639 2.55816   4
   1   5   1 21.7861 2.60392   4
  -1   5  -1 17.0647 3.35680   1
   1   5   1 16.3663 2.59651   1
  -1   5  -1 20.6569 2.04671   3
  -1   5  -1 23.7046 3.02520   6
   1   5   1 18.8371 2.44533   6
   2  -5   1 58.9473 4.12878   3
  -2  -5  -1 62.7257 4.24279   6
   2  -5   1 62.5827 5.39249   2
  -2  -5  -1 62.1599 2.80848   3
   2  -5   1 52.1413 4.54411   1
  -2  -5  -1 60.4403 4.98838   2
   2  -5   1 61.6189 5.02138   6
  -2  -5  -1 64.2951 3.84190   1
   2   5   1 66.9083 5.10595   1
  -2   5  -1 60.7574 3.83351   3
   2   5   1 61.2121 4.26560   6
  -2   5  -1 65.0273 6.52771   1
   2   5   1 63.5065 3.63359   4
  -2   5  -1 62.6104 4.67167   6
  -2   5  -1 66.2636 4.54476   2
  -3  -5  -1 101.580 4.80091   3
  -3  -5  -1 96.4089 5.54117   1
   3  -5   1 86.2088 5.88060   3
   3  -5   1 109.251 7.37880   6
  -3  -5  -1 98.9100 6.45781   2
  -3   5  -1 92.1792 8.87448   1
  -3   5  -1 96.7135 5.58472   2
   3   5   1 102.866 4.52787   4
  -3   5  -1 116.220 6.86563   6
   3   5   1 97.6003 6.08227   6
  -4  -5  -1 62.3203 4.97783   1
  -4  -5  -1 58.2650 5.89844   2
  -4   5  -1 56.7087 7.75637   1
   4   5   1 50.3052 5.48453   6
  -4  -6   1 31.7365 4.76429   2
  -4  -6   1 28.2421 3.93907   1
  -4   6   1 29.1307 6.07503   1
   4   6  -1 27.4117 3.94931   6
  -3  -6   1 1.05322 2.32535   2
  -3  -6   1 2.03367 1.80594   1
  -3   6   1 1.26043 2.66207   1
   3   6  -1 3.68920 2.08581   6
   3   6  -1 4.97919 1.84486   4
   2  -6  -1 45.2676 3.81055   1
   2  -6  -1 53.3394 5.30847   6
  -2  -6   1 43.7920 3.73056   1
  -2  -6   1 54.2496 5.76306   2
   2  -6  -1 41.6868 5.59915   2
   2   6  -1 48.2298 3.98292   4
  -2   6   1 53.6372 5.00292   6
   2   6  -1 55.0612 4.38364   6
  -2   6   1 46.5315 5.55664   1
  -2   6   1 47.3721 3.43321   3
   1  -6  -1 117.975 7.59771   2
  -1  -6   1 108.285 7.04312   2
   1  -6  -1 110.358 5.96384   6
  -1   6   1 123.886 7.03759   1
   1   6  -1 99.7796 6.01385   1
   1   6  -1 107.490 5.80931   6
  -1   6   1 114.683 4.37956   3
   1   6  -1 115.653 5.90055   4
  -1   6   1 112.665 5.78371   6
   0  -6  -1 14.9898 2.42606   6
   0  -6   1 11.0710 2.85876   2
   0  -6   1 16.9171 2.54193   6
   0  -6  -1 17.5551 3.46177   2
   0   6   1 16.6082 1.90409   5
   0   6   1 16.8573 2.75778   4
   0   6  -1 18.5852 2.83326   1
   0   6  -1 15.8635 2.97923   1
   0   6  -1 12.2974 2.51674   6
   0   6   1 18.3450 2.99383   1
   0   6  -1 17.7618 2.91492   4
   0   6   1 16.3946 2.55284   1
   0   6   1 17.1582 2.67290   6
   0   6   1 18.1938 2.71917   6
   0   6  -1 10.6500 2.42268   6
  -1  -6  -1 167.979 7.07441   6
   1  -6   1 161.662 7.80600   6
  -1  -6  -1 175.331 9.06840   2
   1  -6   1 174.079 9.00587   2
   1  -6   1 163.404 7.27521   1
   1   6   1 167.256 7.56298   1
   1   6   1 170.508 7.15694   4
  -1   6  -1 175.861 7.75568   6
   1   6   1 177.754 7.29062   6
  -1   6  -1 173.127 5.86840   3
  -1   6  -1 162.645 8.66057   1
  -2  -6  -1 88.9124 6.50620   2
  -2  -6  -1 92.1523 5.23884   6
   2  -6   1 96.9365 6.99859   2
   2  -6   1 94.6395 6.33628   6
   2  -6   1 90.6414 5.65584   1
  -2  -6  -1 91.6837 4.67066   1
  -2   6  -1 84.3483 4.58901   3
   2   6   1 89.8074 4.78839   4
  -2   6  -1 93.9349 7.33126   1
   2   6   1 80.7614 5.11938   6
  -2   6  -1 81.0735 5.58574   6
  -3  -6  -1 95.8053 6.80445   2
  -3  -6  -1 90.1783 5.11091   1
   3  -6   1 79.2744 10.3201   6
  -3   6  -1 76.8446 8.13232   1
   3   6   1 89.3913 5.89736   6
  -4  -6  -1 0.04204 1.70899   1
  -4  -6  -1 -0.2377 2.20473   2
   4   6   1 -1.5862 1.55980   6
  -4   6  -1 2.53661 3.38290   1
  -4  -7   1 10.0424 3.37827   2
  -4  -7   1 10.2207 2.63303   1
   4   7  -1 9.23018 2.71703   6
  -4   7   1 18.4403 5.02286   1
  -3  -7   1 105.217 6.07517   1
  -3  -7   1 112.149 7.89874   2
   3   7  -1 127.324 7.12393   6
  -3   7   1 118.281 8.97441   1
   2  -7  -1 159.474 10.0397   2
   2  -7  -1 163.598 7.20415   1
  -2  -7   1 149.633 9.00609   2
  -2  -7   1 164.970 7.10991   1
   2   7  -1 167.899 7.88128   6
  -2   7   1 148.637 9.33523   1
  -2   7   1 154.247 6.41974   3
  -2   7   1 157.329 8.93583   6
   1  -7  -1 220.178 11.4423   2
  -1  -7   1 224.120 10.9913   2
  -1  -7   1 222.310 9.17283   6
   1  -7  -1 226.511 9.50780   6
  -1   7   1 220.171 9.20647   6
   1   7  -1 211.088 9.13458   6
   1   7  -1 227.523 9.87910   1
  -1   7   1 225.584 6.88361   3
  -1   7   1 225.522 10.4821   1
   0  -7  -1 86.5497 5.07553   6
   0  -7   1 81.6935 5.15710   6
   0  -7   1 75.7703 6.21184   2
   0  -7  -1 83.7239 6.77981   2
   0   7  -1 77.2655 2.75266   5
   0   7   1 81.2196 5.20138   6
   0   7  -1 76.5645 5.89727   1
   0   7   1 72.2990 3.47926   5
   0   7  -1 78.5309 5.37588   6
   0   7   1 86.0674 5.75272   1
  -1  -7  -1 28.5749 3.33720   6
  -1  -7  -1 27.7861 4.82308   2
   1  -7   1 21.7744 4.04660   2
   1   7   1 26.1283 3.64735   1
  -1   7  -1 35.2667 4.38162   6
  -1   7  -1 26.8101 2.00183   3
  -1   7  -1 28.5328 4.70349   1
   1   7   1 30.8090 3.62880   6
  -2  -7  -1 46.4713 5.74975   2
   2  -7   1 52.9643 6.43173   2
  -2   7  -1 49.3354 6.35131   1
   2   7   1 58.4232 4.46236   6
   2   7   1 57.4523 4.15146   4
  -2   7  -1 58.9309 3.68985   3
  -3  -7  -1 11.2977 3.28908   2
  -3  -7  -1 9.13268 2.14904   1
   3  -7   1 9.25119 3.40239   2
   3   7   1 9.59092 2.35120   6
  -3   7  -1 12.3038 4.23800   1
  -3  -8   1 1.58193 1.59295   1
  -3  -8   1 0.94279 2.52375   2
   3   8  -1 0.70568 1.54191   6
  -3   8   1 0.48062 2.91553   1
  -2  -8   1 3.48747 2.88821   2
   2  -8  -1 1.02097 2.87066   2
   2   8  -1 2.50961 1.84604   6
  -2   8   1 4.90327 3.19775   1
   2   8  -1 3.90694 2.06202   1
  -1  -8   1 133.743 8.81820   2
   1  -8  -1 130.935 9.19013   2
   1   8  -1 125.124 7.18378   6
   1   8  -1 131.023 7.67064   1
  -1   8   1 136.290 8.42892   1
   0  -8  -1 45.2379 5.92494   2
   0  -8   1 48.4143 6.16213   2
   0   8  -1 48.1940 5.65267   1
   0   8   1 58.4345 5.80184   1
  -1  -8  -1 176.425 10.2981   2
   1  -8   1 166.184 10.0316   2
  -1   8  -1 168.207 9.71807   1
   1   8   1 154.311 8.18538   1
   1   8   1 169.316 8.00884   6
  -2  -8  -1 43.6773 5.83142   2
   2  -8   1 65.1584 7.56887   2
  -2   8  -1 53.3788 6.97382   1
   2   8   1 49.6483 4.76989   6
   2   8   1 54.6582 5.52338   1
   3  -8   1 113.222 8.99594   2
  -3  -8  -1 123.914 8.81957   2
   3   8   1 125.322 7.15732   6
  -3   8  -1 132.331 10.1910   1
   2  -9  -1 12.6376 4.06545   2
  -2  -9   1 13.4205 3.96717   2
   2   9  -1 7.78076 2.66747   1
  -2   9   1 8.63253 3.76383   1
   2   9  -1 13.0530 3.16469   6
   1  -9  -1 56.8392 7.24719   2
  -1  -9   1 65.8653 7.64139   2
   1   9  -1 64.6712 6.69088   1
  -1   9   1 75.0383 7.62638   1
   1   9  -1 65.3534 6.04585   6
   0  -9  -1 42.8632 6.58668   2
   0  -9   1 47.8239 6.63907   2
   0   9   1 41.4396 5.58793   1
   0   9  -1 48.9266 6.22014   1
   1  -9   1 6.36159 3.21944   2
  -1  -9  -1 15.2719 4.14757   2
   1   9   1 13.5808 3.23469   1
  -1   9  -1 4.80351 3.07257   1
   1   9   1 6.54115 2.37643   6
   2  -9   1 22.9093 5.00516   2
  -2  -9  -1 26.3555 5.21271   2
  -2   9  -1 15.9071 4.57852   1
   2   9   1 16.9835 3.25155   6
   2   9   1 19.9142 3.69197   1
  -5   0   2 10.3074 4.69153   6
  -5   0   2 10.7851 2.42513   4
   5   0  -2 5.01497 3.01303   6
  -5   0   2 4.41531 3.84655   1
   4   0  -2 160.183 8.96916   6
  -4   0   2 170.856 9.99979   1
  -4   0   2 150.071 8.81482   6
  -4   0   2 150.056 7.22304   4
  -3   0   2 115.678 6.68884   6
  -3   0   2 107.413 5.83367   3
  -3   0   2 118.308 7.36739   1
   3   0  -2 101.048 6.90549   1
   3   0  -2 104.082 6.32633   6
  -3   0   2 112.693 5.56537   4
   2   0  -2 11.5494 2.18716   6
  -2   0   2 10.2908 2.10247   3
  -2   0   2 12.3144 2.00850   4
  -2   0   2 12.7170 2.70943   1
   2   0  -2 13.2224 2.65681   1
  -2   0   2 15.8741 2.70893   6
  -1   0   2 424.103 11.8829   4
   1   0  -2 409.510 12.2324   1
  -1   0   2 431.829 12.3683   1
   1   0  -2 423.504 11.8394   6
   0   0   2 186.115 5.42834   5
   0   0   2 189.128 4.86558   6
   0   0   2 174.867 5.19746   3
   0   0   2 186.179 4.86701   6
   0   0  -2 174.805 5.32879   4
   0   0   2 186.452 4.85213   1
   0   0  -2 185.225 4.81839   1
   0   0  -2 178.714 5.42437   5
   0   0   2 183.067 5.34100   4
   0   0   2 193.220 5.00174   1
   0   0  -2 187.428 4.85823   6
  -1   0  -2 8599.38 208.282   4
  -1   0  -2 9185.18 212.715   6
   1   0   2 9999.99 212.749   1
   1   0   2 8932.47 212.391   3
   1   0   2 8165.00 212.659   6
  -1   0  -2 7922.08 212.901   1
  -1   0  -2 8591.63 212.719   3
   2   0   2 531.059 16.4827   6
  -2   0  -2 549.244 16.3430   6
  -2   0  -2 542.868 15.7402   3
  -2   0  -2 545.428 17.1909   1
   2   0   2 538.377 16.0196   3
   2   0   2 529.645 17.0609   1
  -3   0  -2 9.44825 2.40866   6
   3   0   2 7.75581 2.86673   1
   3   0   2 11.0528 2.67964   6
   3   0   2 10.1526 2.33257   3
  -3   0  -2 11.8832 3.27807   1
  -3   0  -2 11.3740 2.27735   3
   4   0   2 72.6758 5.83461   3
  -4   0  -2 56.7103 6.62850   1
   4   0   2 72.4968 7.16585   6
  -4   0  -2 60.6126 6.15818   6
  -4   0  -2 57.0128 3.61964   4
  -4   0  -2 62.9970 3.12126   4
  -5   0  -2 66.2598 7.66755   1
   5   0   2 72.7910 6.31124   3
   5   0   2 61.9017 6.90357   6
   5  -1  -2 38.7695 5.41024   6
  -5  -1   2 37.4515 6.16533   1
  -5  -1   2 32.5023 3.38745   4
  -5   1   2 34.5667 5.99635   1
   5   1  -2 40.2354 5.71703   6
  -5   1   2 35.5719 4.35755   4
  -4  -1   2 41.6452 3.49408   4
  -4  -1   2 43.9399 5.70839   1
  -4  -1   2 30.3402 4.52330   6
   4  -1  -2 37.8900 5.19037   6
  -4   1   2 35.4303 4.71376   6
  -4   1   2 43.7558 6.20421   1
   4   1  -2 50.9193 5.74429   6
   3  -1  -2 114.065 6.87690   6
   3  -1  -2 128.422 7.55516   1
  -3  -1   2 130.131 7.29386   6
  -3  -1   2 117.424 7.37766   1
  -3  -1   2 134.066 5.70777   4
  -3  -1   2 131.666 6.35883   3
   3   1  -2 129.576 7.02709   6
  -3   1   2 140.551 8.16900   1
  -3   1   2 128.007 6.50873   3
  -3   1   2 134.836 7.16362   6
  -2  -1   2 376.529 12.5451   6
  -2  -1   2 377.993 11.7033   3
   2  -1  -2 402.052 13.0273   1
   2  -1  -2 378.883 12.4148   6
  -2  -1   2 363.962 12.7548   1
  -2  -1   2 374.035 11.2151   4
  -2   1   2 354.914 12.9934   1
   2   1  -2 357.017 13.0328   1
  -2   1   2 406.845 12.6222   6
  -2   1   2 379.830 12.0110   3
  -1  -1   2 174.890 6.60725   1
   1  -1  -2 190.944 6.29007   1
  -1  -1   2 182.893 6.39882   6
  -1  -1   2 187.062 6.04119   4
  -1   1   2 181.943 6.53898   1
   1   1  -2 178.240 6.09611   4
   1   1  -2 180.994 6.24652   6
   1   1  -2 184.997 6.76975   1
  -1   1   2 182.689 6.18219   6
   0  -1   2 193.519 5.27556   5
   0  -1  -2 185.052 6.13354   2
   0  -1   2 179.220 5.45465   6
   0  -1   2 189.741 5.55057   1
   0  -1   2 190.245 5.31704   3
   0  -1   2 180.915 5.70087   1
   0  -1   2 185.077 5.55761   6
   0  -1   2 179.523 5.54612   4
   0   1  -2 182.392 5.28593   3
   0   1   2 184.055 5.72072   5
   0   1  -2 184.271 5.28724   5
   0   1  -2 178.918 5.54616   6
   0   1  -2 184.194 5.51785   6
   0   1  -2 183.073 5.77002   1
   0   1  -2 175.815 5.46426   1
   0   1  -2 187.304 5.64187   4
   0   1   2 177.126 5.97047   2
   1  -1   2 859.262 22.6452   3
   1  -1   2 858.205 22.9864   6
  -1  -1  -2 882.740 22.2784   3
   1  -1   2 904.584 23.5114   1
  -1  -1  -2 847.963 22.4810   6
  -1  -1  -2 875.349 21.9602   2
   1  -1   2 888.786 21.5590   2
  -1  -1  -2 867.796 22.4349   1
   1   1   2 900.578 22.9227   1
   1   1   2 862.331 22.5946   6
   1   1   2 849.158 22.2757   3
  -1   1  -2 852.186 23.5444   1
  -1   1  -2 862.012 22.0482   4
  -1   1  -2 891.702 22.5918   3
  -1   1  -2 906.123 21.3599   2
  -1   1  -2 876.534 22.8262   6
  -2  -1  -2 862.272 23.3908   3
   2  -1   2 848.267 24.5774   6
   2  -1   2 867.200 25.1570   1
   2  -1   2 876.413 24.1224   3
  -2  -1  -2 870.532 24.1989   6
  -2  -1  -2 830.265 24.3459   1
  -2   1  -2 884.352 24.3358   6
   2   1   2 867.303 24.3446   6
   2   1   2 920.103 25.2987   1
   2   1   2 864.795 23.7213   3
  -2   1  -2 888.554 23.8183   3
  -2   1  -2 879.024 21.9962   2
  -2   1  -2 860.856 25.4545   1
   3  -1   2 97.8920 6.92425   1
  -3  -1  -2 120.894 6.68440   6
  -3  -1  -2 108.908 3.54538   4
  -3  -1  -2 102.208 6.74421   1
  -3  -1  -2 108.993 5.68554   3
   3  -1   2 104.807 6.68928   6
   3  -1   2 102.859 6.16135   3
  -3   1  -2 116.414 7.76062   1
  -3   1  -2 105.385 5.77450   3
   3   1   2 107.913 6.59038   6
  -3   1  -2 109.462 4.63873   2
  -3   1  -2 112.444 6.47791   6
   3   1   2 106.296 6.05639   3
   3   1   2 119.867 7.49406   1
  -4  -1  -2 195.080 10.7361   1
   4  -1   2 215.578 11.0290   6
  -4  -1  -2 208.646 5.98337   4
   4  -1   2 215.727 10.2130   3
  -4  -1  -2 220.283 6.29332   4
  -4   1  -2 220.804 10.4935   6
   4   1   2 220.487 10.6954   6
   4   1   2 217.754 9.99974   3
  -4   1  -2 215.715 7.77417   2
  -4   1  -2 193.114 11.5087   1
   5  -1   2 25.4656 4.54320   3
  -5  -1  -2 20.3869 4.70993   1
   5  -1   2 28.5401 5.23985   6
  -5   1  -2 24.9160 5.57496   1
   5   1   2 27.2996 4.79902   6
   5   1   2 27.0503 4.32854   3
  -5   2   2 75.3405 8.80889   1
   5   2  -2 88.2100 7.07282   6
  -4  -2   2 256.733 12.0431   1
   4  -2  -2 254.048 11.7615   6
  -4  -2   2 255.152 8.65775   4
  -4  -2   2 277.662 12.2858   6
   4   2  -2 256.495 11.5009   6
  -4   2   2 246.556 11.4987   6
  -4   2   2 227.260 10.5199   2
  -4   2   2 259.896 13.2314   1
   3  -2  -2 134.546 7.53783   1
  -3  -2   2 127.610 7.44634   1
  -3  -2   2 139.102 7.58916   6
  -3  -2   2 138.189 5.50522   4
   3  -2  -2 131.169 7.33146   6
  -3  -2   2 143.165 6.50862   3
   3   2  -2 123.447 7.83997   1
  -3   2   2 119.388 6.83724   2
  -3   2   2 139.368 6.88084   3
  -3   2   2 138.315 7.31869   6
   3   2  -2 145.498 7.35438   6
  -3   2   2 135.872 8.26836   1
   2  -2  -2 436.910 13.8776   1
  -2  -2   2 430.107 14.0320   1
  -2  -2   2 434.301 14.0655   6
   2  -2  -2 435.653 13.8632   6
  -2  -2   2 420.157 12.3079   4
  -2  -2   2 430.599 12.7768   3
   2   2  -2 439.905 12.6729   4
   2   2  -2 422.073 13.5884   6
  -2   2   2 441.995 13.4691   3
  -2   2   2 434.483 14.6485   1
  -2   2   2 413.209 13.6059   6
   2   2  -2 399.093 14.3079   1
  -2   2   2 446.176 14.2847   2
   1  -2  -2 344.366 9.99025   1
  -1  -2   2 338.228 10.6621   6
   1  -2  -2 357.461 9.60067   5
   1  -2  -2 336.843 11.6201   2
   1  -2  -2 345.392 10.3610   6
  -1  -2   2 338.487 10.0456   4
  -1  -2   2 331.387 10.5584   1
  -1   2   2 351.397 10.6173   1
  -1   2   2 373.577 10.4392   6
   1   2  -2 349.805 10.4796   6
  -1   2   2 346.063 11.3348   2
  -1   2   2 359.385 10.3120   3
   1   2  -2 366.559 11.1051   1
   1   2  -2 374.600 10.4088   4
   0  -2  -2 211.850 5.98328   6
   0  -2  -2 225.898 7.82751   2
   0  -2   2 215.435 6.11450   3
   0  -2   2 204.071 6.75802   1
   0  -2   2 225.008 7.04113   4
   0  -2   2 219.411 6.88555   6
   0  -2   2 225.319 7.14418   1
   0  -2  -2 207.391 5.91401   6
   0  -2   2 216.935 7.04262   6
   0   2  -2 220.055 6.91275   1
   0   2  -2 227.468 6.17288   3
   0   2  -2 213.266 6.95219   6
   0   2  -2 218.361 7.26869   1
   0   2   2 205.890 5.96759   6
   0   2  -2 229.492 7.10202   6
   0   2   2 214.259 6.08539   6
   0   2  -2 220.260 6.99169   4
   0   2  -2 223.576 6.10664   5
   0   2   2 213.439 7.43406   2
  -1  -2  -2 57.5853 3.24531   6
   1  -2   2 65.8380 3.74911   6
   1  -2   2 64.8640 3.24206   2
  -1  -2  -2 60.5946 2.75531   3
   1  -2   2 64.4101 3.38292   3
  -1  -2  -2 62.2955 2.78926   1
   1  -2   2 63.2573 3.99195   1
  -1  -2  -2 64.6911 3.53772   2
  -1   2  -2 56.9715 3.49348   6
  -1   2  -2 67.0721 3.38486   4
   1   2   2 61.7453 2.82944   3
   1   2   2 62.7772 3.20224   6
  -1   2  -2 62.7746 3.20654   3
   1   2   2 56.6544 3.28255   1
   1   2   2 60.9787 2.31567   4
  -1   2  -2 59.3051 4.17492   1
  -1   2  -2 66.5294 3.02266   2
   2  -2   2 84.9574 5.23395   6
   2  -2   2 76.5204 5.24706   1
  -2  -2  -2 72.1226 4.48550   1
  -2  -2  -2 77.8531 4.01667   3
   2  -2   2 80.9284 4.76855   3
  -2  -2  -2 80.2184 4.79852   6
  -2   2  -2 76.1724 5.72821   1
   2   2   2 70.7399 4.57550   6
  -2   2  -2 78.0633 4.36974   3
  -2   2  -2 70.7602 4.62534   6
   2   2   2 70.2071 4.99579   1
   2   2   2 72.1311 4.14880   3
  -2   2  -2 76.4674 3.45743   2
   3  -2   2 33.8009 4.40341   6
   3  -2   2 27.8629 3.98258   1
  -3  -2  -2 30.3061 3.97137   1
   3  -2   2 32.5874 4.08918   3
  -3  -2  -2 26.8962 3.11916   3
  -3  -2  -2 20.7954 3.24170   6
   3   2   2 22.7006 3.47916   6
  -3   2  -2 31.5492 3.88525   3
  -3   2  -2 29.0568 2.33233   2
  -3   2  -2 33.0346 4.20528   6
  -3   2  -2 24.0917 4.18856   1
   3   2   2 27.6836 4.30143   1
   3   2   2 28.7582 3.53651   3
   4  -2   2 124.997 7.72284   3
   4  -2   2 129.792 8.49994   6
  -4  -2  -2 127.304 8.07405   1
  -4   2  -2 130.872 5.88072   4
  -4   2  -2 139.648 8.08962   6
   4   2   2 114.538 7.66612   6
  -4   2  -2 124.070 5.28648   2
   4   2   2 125.268 7.18230   3
  -4   2  -2 122.067 9.23165   1
   5  -2   2 48.0342 6.14116   3
   5  -2   2 43.5575 5.90481   6
  -5  -2  -2 41.9932 5.81250   1
   5   2   2 54.9587 6.13187   3
  -5   2  -2 54.2015 7.69939   1
   5   2   2 36.8663 5.13409   6
  -5  -3   2 9.60548 3.33787   1
   5   3  -2 3.83386 2.45724   6
  -5   3   2 3.15180 3.76193   1
  -4  -3   2 0.60635 1.12381   4
   4  -3  -2 1.43037 2.07138   6
  -4  -3   2 3.20685 2.53909   1
   4   3  -2 3.93640 2.19585   6
  -4   3   2 2.15483 2.06594   6
  -4   3   2 -2.3502 2.36999   1
  -4   3   2 -0.0654 1.61497   2
  -3  -3   2 1.75910 1.32170   3
  -3  -3   2 4.27955 2.22875   6
   3  -3  -2 2.78014 1.79327   6
   3  -3  -2 2.66916 2.08756   1
  -3  -3   2 2.59119 1.20298   4
  -3  -3   2 3.87880 2.17537   1
  -3   3   2 1.39989 2.17535   1
  -3   3   2 3.11587 1.98476   2
  -3   3   2 3.21258 1.72254   3
  -3   3   2 6.34029 2.28866   6
   3   3  -2 3.67060 1.96149   6
   3   3  -2 5.50741 1.65389   4
  -2  -3   2 861.798 24.1498   1
  -2  -3   2 864.540 22.5974   4
  -2  -3   2 877.755 22.7760   3
   2  -3  -2 839.807 22.2320   5
  -2  -3   2 875.415 24.6610   6
   2  -3  -2 858.816 23.8659   1
   2   3  -2 850.236 23.0922   4
  -2   3   2 840.665 24.5729   2
  -2   3   2 861.647 25.2188   1
  -2   3   2 879.785 23.8423   3
   2   3  -2 817.763 25.0134   1
  -2   3   2 855.515 24.0157   6
   2   3  -2 866.676 24.0729   6
  -1  -3   2 48.0190 3.35038   6
   1  -3  -2 49.1893 2.88122   1
  -1  -3   2 57.0079 3.57525   6
  -1  -3   2 55.1716 3.44172   1
   1  -3  -2 48.7922 4.36969   2
   1  -3  -2 47.4493 2.48150   5
  -1  -3   2 48.9437 3.07841   4
   1  -3  -2 50.2480 3.27047   6
   1   3  -2 51.1587 3.61735   1
  -1   3   2 51.1757 2.92517   3
  -1   3   2 55.3350 3.22476   6
  -1   3   2 49.5105 3.52455   1
   1   3  -2 52.7293 3.32369   6
  -1   3   2 54.5890 3.98335   2
   1   3  -2 52.8994 3.25144   4
   0  -3   2 301.626 9.47282   1
   0  -3   2 284.804 9.43633   4
   0  -3   2 295.494 7.98126   3
   0  -3   2 285.761 9.73821   2
   0  -3   2 291.759 9.17451   6
   0  -3  -2 280.691 8.35892   6
   0  -3  -2 270.528 10.1378   2
   0  -3  -2 280.464 8.27254   6
   0  -3   2 300.991 9.42293   6
   0   3  -2 302.206 7.96370   3
   0   3  -2 299.675 9.72119   1
   0   3   2 307.424 8.62731   6
   0   3  -2 295.924 9.22568   1
   0   3   2 288.094 8.42374   6
   0   3  -2 311.000 8.00411   5
   0   3  -2 294.866 9.37848   4
   0   3   2 300.989 9.98539   2
   0   3  -2 301.364 9.38593   6
   0   3  -2 292.712 9.38826   6
  -1  -3  -2 290.253 8.08191   3
   1  -3   2 289.399 9.14523   3
   1  -3   2 285.940 9.92987   6
  -1  -3  -2 295.862 9.25574   6
  -1  -3  -2 275.118 8.21759   1
   1  -3   2 288.552 7.58855   5
  -1  -3  -2 275.178 9.92117   2
   1  -3   2 311.740 10.2422   1
   1  -3   2 290.801 9.67313   2
   1   3   2 291.347 8.98148   6
  -1   3  -2 298.963 9.72825   6
  -1   3  -2 293.970 8.91421   3
   1   3   2 283.058 9.14222   1
  -1   3  -2 299.676 9.62572   4
  -1   3  -2 283.725 10.5801   1
   1   3   2 290.530 8.17399   3
   1   3   2 288.590 8.41794   4
  -2  -3  -2 37.0359 2.71204   3
  -2  -3  -2 29.0869 2.95648   1
  -2  -3  -2 36.3732 3.71577   6
   2  -3   2 37.1904 4.15624   6
   2  -3   2 39.3953 3.93549   3
   2  -3   2 44.7873 4.61000   1
  -2  -3  -2 34.4522 3.51869   2
   2  -3   2 29.7241 3.30502   2
  -2   3  -2 45.1033 5.29947   1
  -2   3  -2 36.8954 2.73123   2
   2   3   2 40.5255 3.45645   6
  -2   3  -2 37.6216 3.08818   3
  -2   3  -2 36.0242 3.68956   6
  -2   3  -2 37.5849 3.12168   4
   2   3   2 28.1942 3.56493   1
   2   3   2 35.8699 1.85225   4
   2   3   2 40.3809 2.89787   3
  -3  -3  -2 25.9626 3.69158   6
   3  -3   2 28.6869 4.36020   6
  -3  -3  -2 31.5966 3.81646   1
  -3  -3  -2 35.3523 3.49729   3
   3  -3   2 31.2172 4.07990   3
   3   3   2 30.5300 3.55497   3
  -3   3  -2 28.3468 3.27760   4
  -3   3  -2 34.6368 4.83904   3
  -3   3  -2 25.0941 4.60207   1
  -3   3  -2 31.6392 2.62967   2
   3   3   2 26.8976 3.56843   6
   3   3   2 26.3655 5.01017   1
  -3   3  -2 35.7861 4.40466   6
  -4  -3  -2 24.5543 4.00860   1
   4  -3   2 25.5412 3.84485   3
   4  -3   2 22.4572 4.13863   6
  -4   3  -2 31.9819 4.56226   6
  -4   3  -2 20.2934 5.12646   1
   4   3   2 28.2698 4.40442   6
  -4   3  -2 28.0417 2.58139   2
   4   3   2 31.9926 4.02337   3
  -5  -3  -2 25.8677 4.53391   1
   5  -3   2 13.3858 3.46117   3
  -5   3  -2 21.4222 5.63876   1
   5   3   2 24.3903 4.56631   6
  -5  -4   2 32.3547 4.79849   1
  -5   4   2 48.4403 7.34776   1
   5   4  -2 33.5778 4.71911   6
  -4  -4   2 2.75426 1.13448   4
   4  -4  -2 2.45117 2.23093   6
  -4  -4   2 4.05829 2.45245   1
   4   4  -2 3.69038 2.19854   6
  -4   4   2 2.57942 3.04435   1
  -4   4   2 3.57219 3.56362   6
  -3  -4   2 119.569 6.86427   1
  -3  -4   2 130.898 7.60662   6
  -3  -4   2 128.589 5.28092   4
  -3  -4   2 120.211 5.70782   3
   3  -4  -2 136.946 7.68668   6
   3  -4  -2 138.150 7.33275   1
  -3   4   2 132.818 8.57703   1
  -3   4   2 131.098 7.01145   2
   3   4  -2 132.030 5.94135   4
   3   4  -2 122.252 6.89362   6
  -3   4   2 118.424 6.86663   6
  -3   4   2 120.210 6.90845   3
   2  -4  -2 60.8807 5.41907   2
  -2  -4   2 71.6735 4.86252   6
   2  -4  -2 62.4742 4.56192   6
  -2  -4   2 68.5746 3.37629   3
   2  -4  -2 74.7871 4.48618   1
  -2  -4   2 69.8424 4.55149   1
  -2  -4   2 64.9108 3.71243   4
   2  -4  -2 69.1959 3.13970   5
   2   4  -2 61.0690 4.30208   6
  -2   4   2 69.4950 4.87832   2
  -2   4   2 71.2497 5.50980   1
  -2   4   2 66.5045 4.42497   6
   2   4  -2 73.1808 4.16636   4
  -2   4   2 69.6951 4.22783   3
   2   4  -2 61.7813 5.01914   1
   1  -4  -2 63.5382 3.40790   6
   1  -4  -2 57.0358 3.64486   6
  -1  -4   2 60.8520 3.82149   1
   1  -4  -2 62.0280 3.23919   1
  -1  -4   2 56.5081 3.88894   6
   1  -4  -2 56.4101 4.95935   2
  -1  -4   2 61.8372 3.67206   4
  -1  -4   2 60.7069 2.27027   3
  -1  -4   2 58.9245 3.91651   6
  -1   4   2 59.9732 3.18953   3
   1   4  -2 58.7566 3.71516   4
   1   4  -2 61.2492 4.13400   1
   1   4  -2 62.6656 3.82469   6
  -1   4   2 62.5389 4.20444   1
  -1   4   2 67.3578 4.50560   2
  -1   4   2 57.3788 3.50787   6
   0  -4  -2 428.303 14.7664   2
   0  -4   2 442.435 11.5092   3
   0  -4   2 447.930 13.2863   6
   0  -4   2 433.496 14.1620   2
   0  -4  -2 440.464 12.5318   6
   0  -4   2 451.021 13.5713   6
   0  -4  -2 439.220 12.3914   6
   0   4  -2 440.643 13.4761   6
   0   4   2 438.189 12.7714   1
   0   4  -2 452.826 13.3836   1
   0   4  -2 453.164 13.9869   1
   0   4   2 431.763 12.6011   6
   0   4  -2 455.544 13.5858   4
   0   4  -2 447.087 13.5788   6
   0   4   2 441.540 12.7198   6
   0   4   2 433.774 14.1896   2
   0   4   2 446.184 12.4595   1
  -1  -4  -2 6.00099 2.06096   2
  -1  -4  -2 5.17796 1.48228   6
   1  -4   2 11.9750 2.48885   2
   1  -4   2 7.54206 1.47813   3
  -1  -4  -2 7.39020 1.55583   6
   1  -4   2 10.1182 2.20490   1
   1  -4   2 6.84490 1.65106   6
   1  -4   2 5.81032 1.83389   6
   1   4   2 5.29659 1.41233   6
   1   4   2 4.16804 1.54588   1
  -1   4  -2 7.29314 1.41168   3
   1   4   2 6.93570 1.43032   4
  -1   4  -2 7.69198 1.85829   6
   1   4   2 6.65738 0.92388   3
  -1   4  -2 7.08120 1.82317   4
  -1   4  -2 5.49330 2.12272   1
   2  -4   2 51.0571 5.03618   1
   2  -4   2 34.6344 4.13650   6
   2  -4   2 46.6129 3.75182   3
  -2  -4  -2 45.0077 4.04645   2
   2  -4   2 46.0178 4.06080   2
  -2  -4  -2 48.2166 3.23112   1
  -2  -4  -2 45.7682 2.71697   3
  -2  -4  -2 44.5156 3.76124   6
  -2   4  -2 40.0170 3.21062   3
  -2   4  -2 49.8859 5.52661   1
   2   4   2 41.1474 2.48668   4
  -2   4  -2 48.9034 3.77350   4
   2   4   2 41.1609 3.49123   6
   2   4   2 46.5681 2.92395   3
   2   4   2 50.3296 4.32581   1
  -2   4  -2 55.9170 4.90874   6
  -2   4  -2 49.3120 3.46903   2
  -3  -4  -2 162.375 7.77126   2
  -3  -4  -2 161.952 6.77503   3
   3  -4   2 163.349 9.06879   6
   3  -4   2 152.116 7.95342   3
  -3  -4  -2 161.327 7.33299   1
   3   4   2 165.149 8.03918   6
  -3   4  -2 168.507 10.0905   1
   3   4   2 163.722 7.06936   3
  -3   4  -2 163.651 6.81262   2
  -3   4  -2 170.210 8.41210   6
   4  -4   2 222.401 10.8713   3
  -4  -4  -2 247.700 10.4229   1
   4  -4   2 243.282 12.2846   6
  -4  -4  -2 246.232 10.1585   2
   4   4   2 248.222 10.1918   3
  -4   4  -2 255.528 11.6935   6
  -4   4  -2 241.596 13.5599   1
   4   4   2 235.487 10.9793   6
  -5  -4  -2 9.19176 2.97662   1
   5  -4   2 12.5883 3.63109   3
  -5   4  -2 11.0374 4.77950   1
   5   4   2 8.31201 2.67535   6
   4  -5  -2 53.8527 3.59873   5
  -4  -5   2 50.5854 5.35892   1
  -4  -5   2 50.7318 3.21010   4
  -4   5   2 58.2644 7.70996   1
   4   5  -2 39.4199 4.84771   6
  -3  -5   2 82.2957 4.24981   3
   3  -5  -2 80.4399 3.78758   5
  -3  -5   2 77.8274 4.23557   4
  -3  -5   2 66.6771 5.21215   1
   3  -5  -2 75.4010 5.38059   1
   3   5  -2 71.2736 5.32490   6
  -3   5   2 76.7309 5.68647   6
   3   5  -2 79.8762 4.77939   4
  -3   5   2 78.4075 7.95168   1
  -2  -5   2 174.789 8.24681   6
   2  -5  -2 155.366 9.11752   2
   2  -5  -2 172.653 8.06085   6
  -2  -5   2 175.364 7.00742   4
   2  -5  -2 178.615 5.35519   5
   2  -5  -2 172.482 7.10994   1
  -2  -5   2 169.428 7.62659   6
  -2  -5   2 169.933 7.39783   1
  -2  -5   2 175.446 5.60952   3
   2   5  -2 165.278 7.19096   4
   2   5  -2 155.582 7.34826   6
  -2   5   2 166.771 8.12377   2
  -2   5   2 168.473 7.48647   6
  -2   5   2 179.628 8.98745   1
  -2   5   2 161.282 6.91790   3
  -1  -5   2 97.1729 5.00811   1
  -1  -5   2 103.532 5.45334   6
  -1  -5   2 97.7207 5.33177   6
  -1  -5   2 109.190 6.25864   2
   1  -5  -2 95.3575 5.09306   6
   1  -5  -2 96.8935 6.70215   2
   1  -5  -2 103.840 4.66880   6
  -1   5   2 95.0084 5.82618   2
  -1   5   2 97.6361 4.95536   6
   1   5  -2 101.008 5.22965   6
   1   5  -2 89.4909 5.03706   4
  -1   5   2 102.610 4.25413   3
   1   5  -2 103.449 5.66338   1
   1   5  -2 108.399 5.76529   1
  -1   5   2 95.7210 5.69356   1
   0  -5   2 104.348 5.26825   6
   0  -5   2 115.060 5.60693   6
   0  -5  -2 105.226 4.79726   6
   0  -5   2 114.200 3.44651   3
   0  -5  -2 113.794 4.74749   6
   0  -5   2 117.025 6.40360   2
   0  -5  -2 101.499 6.56322   2
   0   5   2 105.983 4.99836   6
   0   5  -2 106.251 5.47591   6
   0   5   2 108.538 4.63623   5
   0   5  -2 104.414 5.41156   4
   0   5  -2 107.170 3.63152   5
   0   5   2 100.045 5.91528   2
   0   5  -2 100.756 5.44608   6
   0   5  -2 108.291 5.99773   1
   0   5   2 96.4639 4.65751   1
   0   5  -2 105.988 5.40063   1
   0   5   2 101.944 4.87713   6
   0   5   2 101.762 5.08157   1
   1  -5   2 266.317 10.1933   6
  -1  -5  -2 257.400 10.8374   2
   1  -5   2 254.359 8.50395   3
  -1  -5  -2 271.390 8.88720   6
   1  -5   2 265.608 10.6178   2
   1  -5   2 289.053 10.0176   1
   1  -5   2 288.953 9.79569   6
  -1  -5  -2 259.291 9.17102   6
   1   5   2 264.516 9.39919   1
  -1   5  -2 265.797 9.51585   1
   1   5   2 251.693 8.85937   6
   1   5   2 250.606 8.81052   4
  -1   5  -2 259.569 9.79375   6
  -1   5  -2 246.488 10.8073   1
  -1   5  -2 263.940 8.27253   3
  -1   5  -2 241.225 9.65026   4
   2  -5   2 79.2849 4.89408   3
  -2  -5  -2 74.3915 5.59426   2
   2  -5   2 86.9602 5.62722   1
   2  -5   2 93.8329 6.14723   6
   2  -5   2 77.7072 5.74014   2
  -2  -5  -2 79.5108 4.18424   1
  -2  -5  -2 77.9329 4.62405   6
  -2  -5  -2 87.6950 3.56055   3
   2   5   2 87.4200 5.84242   1
   2   5   2 81.7867 4.84152   6
  -2   5  -2 88.9966 6.87079   1
   2   5   2 86.4594 3.69635   3
   2   5   2 79.4368 3.97748   4
  -2   5  -2 79.9768 5.27821   6
  -2   5  -2 84.4294 4.59784   3
   3  -5   2 109.024 7.50881   6
  -3  -5  -2 102.768 6.64167   2
  -3  -5  -2 110.807 5.62488   1
  -3  -5  -2 110.001 5.02343   3
   3  -5   2 100.275 6.37119   3
   3   5   2 108.043 4.28768   4
   3   5   2 107.127 6.37312   6
  -3   5  -2 92.9964 6.41782   6
  -3   5  -2 111.257 5.77815   2
  -3   5  -2 117.157 8.81638   1
   4  -5   2 127.140 7.98824   3
  -4  -5  -2 144.401 7.27892   1
  -4  -5  -2 148.506 7.99588   2
   4   5   2 138.439 8.03002   6
  -4   5  -2 117.347 10.0273   1
  -4  -6   2 97.1558 6.45408   1
  -4   6   2 103.871 8.99584   1
   4   6  -2 88.1281 6.41263   6
  -3  -6   2 16.7078 3.83050   6
   3  -6  -2 20.7714 1.74404   5
   3  -6  -2 23.1936 3.45746   1
  -3  -6   2 20.4356 3.31416   1
  -3   6   2 23.0092 4.77960   1
   3   6  -2 21.7178 3.60861   6
   3   6  -2 19.8556 2.98673   4
   2  -6  -2 84.1525 5.76964   6
   2  -6  -2 97.5285 5.02605   1
  -2  -6   2 87.6563 6.43376   2
  -2  -6   2 105.184 5.99182   6
  -2  -6   2 101.668 5.57825   1
   2  -6  -2 81.6628 7.24590   2
   2   6  -2 94.4550 5.64779   6
  -2   6   2 84.3349 4.72744   3
  -2   6   2 93.4902 5.60117   6
  -2   6   2 100.618 7.10043   1
   2   6  -2 85.7977 5.37375   4
   1  -6  -2 318.066 11.3589   6
  -1  -6   2 321.839 15.6352   6
  -1  -6   2 317.407 11.5375   6
   1  -6  -2 316.986 13.7987   2
  -1  -6   2 345.825 13.2263   2
  -1   6   2 336.333 11.2891   6
   1   6  -2 322.075 11.5532   6
   1   6  -2 325.657 12.0497   1
   1   6  -2 321.103 11.5277   4
  -1   6   2 326.652 12.2816   1
  -1   6   2 317.427 9.62292   3
   0  -6  -2 50.2601 5.69129   2
   0  -6   2 54.7488 4.98972   2
   0  -6   2 60.2140 4.17133   6
   0  -6   2 50.2640 4.16984   6
   0  -6  -2 56.2399 3.77948   6
   0   6   2 53.9264 4.10889   4
   0   6   2 59.5326 3.96111   6
   0   6   2 51.4114 3.70897   1
   0   6   2 57.9459 3.96227   6
   0   6  -2 52.3772 4.27170   6
   0   6  -2 52.9508 5.15537   1
   0   6  -2 58.2941 4.42247   6
   0   6  -2 51.8644 2.29663   5
   0   6   2 53.1727 3.23660   5
   0   6   2 59.6337 4.25830   1
   1  -6   2 60.7654 3.35708   3
   1  -6   2 63.8870 4.52836   1
  -1  -6  -2 67.9189 4.04498   6
  -1  -6  -2 60.1028 5.56408   2
   1  -6   2 60.7688 4.74294   6
   1  -6   2 66.0145 5.48393   2
   1  -6   2 56.2012 4.35732   6
  -1   6  -2 60.4668 5.98441   1
  -1   6  -2 54.8192 4.50916   6
   1   6   2 64.1176 4.08839   6
  -1   6  -2 71.4429 3.36136   3
   1   6   2 62.4663 4.08703   4
   1   6   2 59.9478 4.35634   1
  -2  -6  -2 371.495 14.9376   2
   2  -6   2 377.651 12.9438   3
   2  -6   2 381.073 15.0710   2
   2  -6   2 410.857 15.1243   6
  -2  -6  -2 393.891 11.8058   1
  -2  -6  -2 396.710 12.9516   6
  -2   6  -2 406.928 12.7294   3
  -2   6  -2 401.711 16.1868   1
  -2   6  -2 415.987 14.2755   6
   2   6   2 394.114 12.3310   4
   2   6   2 392.962 13.1563   6
  -3  -6  -2 13.3292 2.33630   1
  -3  -6  -2 17.7230 3.74569   2
   3  -6   2 15.1222 2.93673   3
   3  -6   2 25.1926 6.22093   6
   3  -6   2 10.9179 3.26093   2
  -3   6  -2 18.0941 4.50983   1
   3   6   2 13.4907 2.75139   6
  -4  -6  -2 44.2581 5.49901   2
  -4  -6  -2 44.1839 4.12821   1
   4   6   2 32.1020 4.41558   6
  -4   6  -2 22.2880 5.73164   1
  -4  -7   2 87.5751 7.21144   2
  -4  -7   2 85.0408 5.89199   1
  -4   7   2 73.0707 8.64081   1
   4   7  -2 78.6301 6.17780   6
  -3  -7   2 4.15974 2.11730   1
  -3  -7   2 0.63066 2.40134   2
   3   7  -2 7.43538 2.37634   6
  -3   7   2 3.57992 3.19950   1
  -2  -7   2 36.3064 3.83861   1
   2  -7  -2 30.5692 5.50325   2
  -2  -7   2 30.8490 4.74363   2
   2   7  -2 33.3439 4.39915   1
  -2   7   2 32.8958 5.03439   1
  -2   7   2 30.6933 3.94846   6
   2   7  -2 37.4991 4.24234   6
  -2   7   2 34.9303 2.86546   3
   1  -7  -2 292.659 10.8311   6
  -1  -7   2 254.805 10.5278   6
  -1  -7   2 260.873 12.2087   2
   1  -7  -2 272.881 13.2364   2
   1   7  -2 299.438 11.1386   6
  -1   7   2 289.782 10.6477   6
  -1   7   2 287.592 8.29345   3
  -1   7   2 267.971 11.5793   1
   1   7  -2 260.660 11.1979   1
   0  -7  -2 242.586 11.9123   2
   0  -7  -2 234.077 9.18113   6
   0  -7   2 246.917 11.5253   2
   0  -7   2 251.542 10.1563   6
   0   7   2 235.530 9.91542   1
   0   7  -2 250.671 11.0053   1
   0   7  -2 244.965 10.2138   6
   0   7   2 264.522 9.82437   6
   0   7   2 243.214 8.02323   5
  -1  -7  -2 87.9891 4.94238   6
   1  -7   2 85.7209 6.70455   2
  -1  -7  -2 99.0500 7.32969   2
   1  -7   2 83.1142 5.90967   6
   1   7   2 87.6427 5.54539   1
   1   7   2 86.4052 5.09412   6
  -1   7  -2 92.4234 3.83078   3
  -1   7  -2 76.4819 6.56134   1
  -1   7  -2 85.9663 5.70507   6
  -2  -7  -2 90.6518 7.05158   2
   2  -7   2 86.4733 7.05969   2
   2   7   2 97.0494 5.55692   6
  -2   7  -2 103.882 8.09440   1
   2   7   2 90.9161 5.03816   4
  -2   7  -2 89.2865 4.72483   3
  -3  -7  -2 7.84249 3.09817   2
  -3  -7  -2 7.05045 1.80213   1
   3  -7   2 9.01964 3.26710   2
  -3   7  -2 13.5985 4.40905   1
   3   7   2 13.5203 2.69168   6
  -3  -8   2 0.92611 1.69150   1
  -3  -8   2 3.82078 2.66212   2
   3   8  -2 0.31124 1.71118   6
  -3   8   2 -0.5082 3.00439   1
   2  -8  -2 131.496 9.91612   2
  -2  -8   2 128.883 8.81655   2
   2   8  -2 137.643 7.56868   6
  -2   8   2 126.324 8.76046   1
   2   8  -2 146.635 8.19618   1
  -1  -8   2 19.6921 4.12599   2
   1  -8  -2 13.0129 3.83384   2
   1   8  -2 25.1227 4.21009   1
  -1   8   2 23.1938 4.32171   1
   1   8  -2 14.9812 3.09403   6
   0  -8   2 37.7114 5.12419   2
   0  -8  -2 41.3332 6.13482   2
   0   8   2 39.7448 4.80584   1
   0   8  -2 32.3343 4.85632   1
   1  -8   2 47.0257 6.24659   2
  -1  -8  -2 61.9398 7.45961   2
   1   8   2 50.2971 5.10240   1
  -1   8  -2 40.9526 5.82460   1
   1   8   2 56.5720 4.48398   6
  -2  -8  -2 37.5915 5.46224   2
   2  -8   2 37.8764 5.60633   2
   2   8   2 54.4775 4.39829   6
  -2   8  -2 47.6422 6.69140   1
  -3  -8  -2 5.03533 3.14809   2
   3  -8   2 3.80341 2.75908   2
  -3   8  -2 7.39271 4.14555   1
   3   8   2 3.22477 1.87839   6
   2  -9  -2 12.6225 4.32080   2
  -2  -9   2 10.8449 3.47330   2
  -2   9   2 7.67021 3.56421   1
   2   9  -2 14.2908 3.16488   6
   2   9  -2 6.66182 2.90749   1
  -1  -9   2 8.69498 3.29024   2
   1  -9  -2 7.77802 3.72164   2
  -1   9   2 1.37419 2.81448   1
   1   9  -2 2.17734 2.27728   1
   1   9  -2 5.52533 2.34793   6
   0  -9  -2 90.9681 8.18321   2
   0  -9   2 82.3266 7.51676   2
   0   9  -2 79.6966 7.01357   1
   0   9   2 90.2553 6.81965   1
  -1  -9  -2 30.3757 5.55800   2
   1  -9   2 21.6438 4.40012   2
  -1   9  -2 26.5714 5.25356   1
   1   9   2 28.1345 3.93552   6
   1   9   2 24.4357 4.02363   1
  -5   0   3 7.38161 3.93539   1
  -5   0   3 1.10910 1.67979   4
   5   0  -3 0.34510 1.98131   6
  -4   0   3 10.5855 3.61815   1
  -4   0   3 7.35869 2.27390   4
  -4   0   3 6.05649 2.53754   6
   4   0  -3 11.3974 3.33621   6
  -3   0   3 173.228 7.39964   4
  -3   0   3 163.360 7.53770   3
   3   0  -3 162.133 8.68061   1
   3   0  -3 166.695 8.11769   6
  -3   0   3 156.043 8.70607   1
  -3   0   3 192.197 8.71607   6
  -2   0   3 203.700 7.54653   3
   2   0  -3 194.422 7.76692   6
  -2   0   3 190.694 7.93547   6
  -2   0   3 194.397 8.44028   1
   2   0  -3 196.902 8.43976   1
  -2   0   3 194.889 7.54344   4
   1   0  -3 31.7815 2.84037   1
  -1   0   3 30.2174 2.81568   4
  -1   0   3 30.5614 2.77726   1
  -1   0   3 25.8826 2.30981   6
   1   0  -3 31.3682 2.85907   4
   0   0   3 1.41611 0.83357   1
   0   0   3 0.29573 0.88412   3
   0   0  -3 1.08598 1.16824   4
   0   0   3 0.30251 1.02186   5
   0   0  -3 0.94231 0.78673   1
   0   0   3 1.64555 1.12210   4
   0   0   3 0.44184 0.69833   1
   0   0  -3 -0.0161 1.21069   5
   0   0   3 1.47389 0.66593   6
   0   0   3 1.46823 0.71524   6
   0   0  -3 0.71158 0.64675   6
   0   0  -3 0.84860 0.68155   1
   1   0   3 2633.86 63.8171   4
   1   0   3 2618.40 65.0411   3
  -1   0  -3 2623.79 63.9327   4
   1   0   3 2674.34 65.1983   6
  -1   0  -3 2762.34 64.9952   6
  -1   0  -3 2696.86 65.5746   1
  -1   0  -3 2619.83 64.9500   3
   1   0   3 2762.33 65.7554   1
  -2   0  -3 5.67939 1.65781   3
  -2   0  -3 1.22574 2.04898   1
   2   0   3 4.67911 1.79979   6
   2   0   3 8.18831 2.43021   1
  -2   0  -3 1.27751 1.49392   6
  -2   0  -3 1.85123 0.72937   4
   2   0   3 1.36784 1.44142   3
   3   0   3 3.24123 1.86362   6
  -3   0  -3 1.66060 0.77178   4
  -3   0  -3 0.16880 1.52708   6
  -3   0  -3 3.44120 1.60513   3
   3   0   3 -1.8991 1.55664   1
  -3   0  -3 -0.5369 2.03405   1
   3   0   3 4.56319 1.82685   3
   4   0   3 221.978 10.9971   6
  -4   0  -3 192.212 11.0652   1
  -4   0  -3 206.436 6.51861   4
   4   0   3 205.147 9.90077   3
   5   0   3 11.0694 3.48706   6
   5   0   3 7.29682 2.92354   3
  -5   0  -3 8.56194 3.74931   1
  -5  -1   3 192.725 11.2135   1
  -5  -1   3 157.274 7.43952   4
   5   1  -3 174.758 9.88312   6
  -5   1   3 177.893 8.79898   4
   4  -1  -3 90.1225 6.74317   6
  -4  -1   3 88.3679 7.33445   1
  -4  -1   3 90.6536 6.98549   6
  -4  -1   3 87.6760 5.23814   4
   4   1  -3 95.1276 6.73016   6
  -4   1   3 92.9136 6.01102   4
  -4   1   3 88.4814 8.50772   1
  -3  -1   3 223.269 8.62388   4
  -3  -1   3 247.551 10.4433   6
  -3  -1   3 230.145 9.23236   3
   3  -1  -3 232.865 10.5165   1
   3  -1  -3 238.790 10.0272   6
  -3  -1   3 233.055 10.6127   1
   3   1  -3 238.418 9.92360   6
  -3   1   3 248.669 9.69481   3
  -3   1   3 228.849 10.9057   1
   3   1  -3 257.493 11.2395   1
  -3   1   3 231.136 10.0327   6
   2  -1  -3 805.071 22.0215   6
   2  -1  -3 796.516 22.4500   1
  -2  -1   3 785.352 21.3210   4
  -2  -1   3 775.610 22.2903   6
  -2  -1   3 766.120 22.6074   1
  -2  -1   3 788.978 21.4548   3
   2   1  -3 783.708 21.9910   6
  -2   1   3 776.784 21.7407   3
  -2   1   3 774.956 22.8542   1
  -2   1   3 782.639 22.0992   6
   2   1  -3 772.613 21.3836   4
   2   1  -3 767.608 22.9585   1
   1  -1  -3 543.149 14.4506   1
  -1  -1   3 529.646 15.2240   1
   1  -1  -3 543.705 14.5990   5
  -1  -1   3 546.597 14.9894   6
  -1  -1   3 532.564 14.9405   4
   1  -1  -3 557.071 14.5508   6
   1   1  -3 556.481 15.1337   4
   1   1  -3 530.585 15.4021   1
  -1   1   3 537.486 14.6733   6
  -1   1   3 552.883 14.9523   1
   1   1  -3 531.655 14.7627   6
   0  -1   3 863.211 21.2752   6
   0  -1   3 833.631 21.0861   5
   0  -1   3 840.453 21.4013   4
   0  -1  -3 831.006 21.7082   5
   0  -1  -3 809.924 22.0467   2
   0  -1   3 844.314 21.1541   1
   0  -1   3 856.790 21.1604   6
   0  -1   3 851.821 21.1781   3
   0  -1   3 843.372 21.4454   1
   0   1   3 841.609 21.9568   2
   0   1  -3 812.973 21.1788   6
   0   1  -3 835.467 21.2155   5
   0   1   3 829.067 21.5874   5
   0   1  -3 847.515 21.5507   1
   0   1  -3 852.399 21.2140   6
   0   1  -3 813.427 21.5061   4
   0   1  -3 818.021 21.1344   1
   1  -1   3 2594.14 64.3812   6
   1  -1   3 2602.69 64.0779   3
   1  -1   3 2842.16 62.8343   2
   1  -1   3 2630.70 64.9014   1
   1  -1   3 2644.79 63.4995   4
  -1  -1  -3 2599.58 63.4518   1
  -1  -1  -3 2595.51 63.6446   6
  -1  -1  -3 2667.01 63.3724   2
  -1  -1  -3 2568.01 63.6664   3
  -1   1  -3 2649.46 63.4427   4
  -1   1  -3 2616.46 64.1374   6
   1   1   3 2529.53 63.7989   6
   1   1   3 2629.27 63.7765   3
   1   1   3 2578.67 62.3742   4
   1   1   3 2647.57 64.1809   1
  -1   1  -3 2642.86 64.0116   3
  -1   1  -3 2583.27 65.0582   1
   2  -1   3 27.1907 3.75142   1
   2  -1   3 19.9750 2.91270   6
   2  -1   3 26.9711 3.16394   3
  -2  -1  -3 21.2568 2.53728   3
  -2  -1  -3 22.7057 2.83672   6
  -2  -1  -3 25.8600 3.22045   1
  -2  -1  -3 24.7702 1.91391   2
   2   1   3 20.2254 2.58201   3
  -2   1  -3 26.0256 1.26995   2
  -2   1  -3 24.3617 2.05697   4
  -2   1  -3 27.5725 3.02837   3
  -2   1  -3 23.9669 2.96985   6
  -2   1  -3 20.4573 3.33954   1
   2   1   3 26.8909 3.67774   1
   2   1   3 25.7286 3.10095   6
  -3  -1  -3 47.1418 4.82491   6
  -3  -1  -3 44.6496 3.73929   3
   3  -1   3 33.9513 4.19059   6
   3  -1   3 51.3707 4.98193   3
  -3  -1  -3 39.2087 4.71542   1
   3  -1   3 45.3290 5.33273   1
  -3   1  -3 51.1203 4.97298   6
  -3   1  -3 44.0066 2.24263   2
  -3   1  -3 49.1185 5.82818   1
   3   1   3 47.9487 4.12815   3
   3   1   3 37.1493 4.41033   6
  -3   1  -3 44.9958 2.77671   4
   3   1   3 52.0852 5.94517   1
   4  -1   3 43.3692 4.99262   3
  -4  -1  -3 26.2478 4.59135   1
   4  -1   3 57.9348 6.63511   6
   4   1   3 47.6399 5.89214   6
  -4   1  -3 43.4761 2.90241   4
  -4   1  -3 46.6446 2.57324   2
  -4   1  -3 51.2739 5.71746   6
   4   1   3 41.8308 5.15891   3
  -4   1  -3 51.2597 6.59807   1
   5  -1   3 52.9864 6.67291   6
  -5  -1  -3 44.0102 6.03070   1
   5  -1   3 48.0935 5.70858   3
  -5   1  -3 56.4457 7.70588   1
   5   1   3 52.2070 5.96596   3
   5   1   3 48.1532 6.19069   6
  -5  -2   3 54.6471 6.53084   1
  -5  -2   3 63.9289 4.48449   4
   5   2  -3 55.0822 6.28842   6
  -5   2   3 62.0020 6.08551   4
  -5   2   3 63.3965 7.91829   1
   4  -2  -3 109.202 7.27046   6
  -4  -2   3 98.6784 7.45530   6
  -4  -2   3 101.329 7.52180   1
  -4  -2   3 104.396 5.24941   4
  -4   2   3 99.2935 7.02386   6
  -4   2   3 99.4723 8.19791   1
   4   2  -3 100.403 6.91622   6
  -4   2   3 102.779 6.87450   2
  -3  -2   3 109.935 6.84931   1
  -3  -2   3 107.766 5.09710   4
   3  -2  -3 113.081 6.55959   6
  -3  -2   3 115.110 6.90534   6
  -3  -2   3 111.880 5.79033   3
   3  -2  -3 109.898 6.68045   1
  -3   2   3 98.9321 7.16119   1
  -3   2   3 111.196 6.51639   6
   3   2  -3 99.0713 7.09335   1
  -3   2   3 101.111 5.95103   3
  -3   2   3 106.167 6.58543   2
   3   2  -3 96.9052 6.09121   6
  -2  -2   3 1308.96 34.9505   6
  -2  -2   3 1311.58 33.5667   3
  -2  -2   3 1289.65 33.3289   4
  -2  -2   3 1248.49 34.7797   1
   2  -2  -3 1306.80 34.3017   1
   2   2  -3 1312.20 35.6338   1
   2   2  -3 1279.42 33.6830   4
   2   2  -3 1299.38 34.4222   6
  -2   2   3 1265.83 35.2135   1
  -2   2   3 1284.05 34.3856   6
  -2   2   3 1367.98 34.3450   3
  -2   2   3 1336.05 35.6433   2
   1  -2  -3 1458.57 36.6876   1
  -1  -2   3 1476.08 38.1099   6
   1  -2  -3 1474.09 37.2286   5
   1  -2  -3 1530.39 37.4752   6
  -1  -2   3 1488.34 37.7376   4
  -1  -2   3 1502.17 38.1994   1
   1   2  -3 1501.08 37.9070   6
  -1   2   3 1554.17 37.5590   6
  -1   2   3 1496.03 37.1618   5
  -1   2   3 1601.44 39.5161   2
  -1   2   3 1464.48 37.6012   1
   1   2  -3 1537.43 38.0446   4
   0  -2   3 1104.89 27.6105   4
   0  -2   3 1164.94 27.7673   6
   0  -2  -3 1097.96 25.8845   6
   0  -2   3 1074.77 27.4414   6
   0  -2   3 1072.05 26.8135   3
   0  -2   3 1095.94 27.4519   1
   0  -2  -3 1080.01 28.6057   2
   0  -2  -3 1053.20 25.8552   6
   0  -2   3 1064.86 27.6896   1
   0   2  -3 1124.32 27.7542   4
   0   2  -3 1097.16 27.6345   6
   0   2   3 1069.10 26.0900   6
   0   2  -3 1100.00 27.9900   1
   0   2   3 1059.69 27.5514   5
   0   2  -3 1055.70 26.7905   3
   0   2  -3 1061.81 27.5203   6
   0   2   3 973.697 25.9698   6
   0   2  -3 1124.41 26.8370   5
   0   2   3 1085.67 28.2388   2
   0   2  -3 1044.09 27.4236   1
   1  -2   3 180.812 7.30630   1
  -1  -2  -3 180.232 6.67978   2
  -1  -2  -3 174.982 5.92997   3
   1  -2   3 195.204 6.69134   3
   1  -2   3 190.662 6.07881   2
   1  -2   3 184.428 6.07396   5
  -1  -2  -3 181.983 5.32791   1
   1  -2   3 188.936 7.09736   6
  -1  -2  -3 171.402 6.10622   6
  -1   2  -3 194.548 6.53593   3
   1   2   3 179.292 6.23808   6
  -1   2  -3 178.922 6.74409   6
   1   2   3 173.949 5.97009   3
  -1   2  -3 201.166 7.89382   1
   1   2   3 180.138 6.29406   1
  -1   2  -3 193.970 6.53107   4
  -2  -2  -3 249.106 8.43466   3
  -2  -2  -3 243.506 8.68865   1
  -2  -2  -3 242.490 8.14130   2
   2  -2   3 231.693 9.08145   3
   2  -2   3 251.859 10.0929   1
   2  -2   3 253.449 9.86865   6
  -2  -2  -3 244.411 9.00465   6
   2   2   3 229.905 8.92941   6
   2   2   3 237.420 9.64872   1
   2   2   3 229.136 8.48137   3
  -2   2  -3 247.686 7.17863   2
  -2   2  -3 246.006 8.20358   4
  -2   2  -3 235.299 10.3969   1
  -2   2  -3 245.201 9.27142   6
  -3  -2  -3 60.0784 4.96737   1
   3  -2   3 57.7064 5.67358   6
  -3  -2  -3 56.3108 4.69736   6
   3  -2   3 55.7064 4.73149   3
   3  -2   3 68.8401 7.77131   1
  -3  -2  -3 56.4559 4.09280   3
  -3  -2  -3 60.9902 3.65055   2
  -3   2  -3 63.8587 4.99075   6
  -3   2  -3 58.6061 3.59495   4
   3   2   3 52.8938 5.86239   1
   3   2   3 59.6385 4.46014   3
  -3   2  -3 60.1499 2.82371   2
  -3   2  -3 59.4115 6.75543   1
  -3   2  -3 48.0517 4.18114   3
   3   2   3 65.4195 5.15538   6
   4  -2   3 14.8425 3.68993   6
   4  -2   3 18.0642 3.64160   3
  -4  -2  -3 16.2188 3.62858   1
  -4   2  -3 16.8910 4.53699   1
  -4   2  -3 14.0187 2.18576   4
  -4   2  -3 14.8592 3.41058   6
  -4   2  -3 20.2026 1.77154   2
   4   2   3 8.86179 3.02220   6
   4   2   3 18.1983 3.60275   3
   5  -2   3 31.8902 4.85444   3
  -5  -2  -3 36.5584 5.34192   1
   5  -2   3 32.4081 5.44611   6
   5   2   3 33.5996 4.95223   3
   5   2   3 21.8482 4.35390   6
  -5   2  -3 33.0243 6.21905   1
  -5  -3   3 47.8751 6.28106   1
   5   3  -3 32.7967 4.80120   6
  -5   3   3 48.0801 7.29062   1
  -4  -3   3 31.6201 4.68763   6
   4  -3  -3 38.5622 5.14247   6
  -4  -3   3 29.5414 4.52265   1
  -4  -3   3 33.4226 3.09459   4
  -4   3   3 22.5682 3.74995   6
  -4   3   3 24.8406 4.91881   1
  -4   3   3 25.1944 3.91188   2
   4   3  -3 37.3830 4.71985   6
  -3  -3   3 8.57365 2.47464   6
   3  -3  -3 5.40816 2.27333   6
   3  -3  -3 14.2060 2.95333   1
  -3  -3   3 7.51479 1.84884   3
  -3  -3   3 6.19326 2.41956   1
  -3  -3   3 8.25578 1.73166   4
  -3   3   3 8.98268 3.08449   1
  -3   3   3 17.1894 2.98957   3
   3   3  -3 8.60498 2.01079   4
  -3   3   3 9.91654 2.53819   6
   3   3  -3 7.54206 2.25159   6
  -3   3   3 15.9363 3.12981   2
  -2  -3   3 129.697 5.58509   4
   2  -3  -3 148.336 6.27921   1
   2  -3  -3 141.296 6.55236   6
   2  -3  -3 133.171 5.32301   5
  -2  -3   3 140.493 5.58721   3
  -2  -3   3 144.956 6.75697   1
  -2  -3   3 140.351 6.85071   6
  -2   3   3 141.909 7.21114   2
  -2   3   3 130.712 7.03067   1
   2   3  -3 137.647 6.46855   6
   2   3  -3 140.508 6.12705   4
   2   3  -3 139.708 7.32309   1
  -2   3   3 153.939 6.50000   3
  -2   3   3 138.296 6.34806   6
  -1  -3   3 1370.59 35.4529   1
  -1  -3   3 1401.93 35.5727   6
   1  -3  -3 1407.17 34.9050   6
  -1  -3   3 1392.59 35.6436   6
   1  -3  -3 1328.72 37.3330   2
  -1  -3   3 1366.28 35.0910   4
   1  -3  -3 1370.23 34.3906   5
   1  -3  -3 1366.25 33.7045   1
  -1   3   3 1423.03 36.7671   2
  -1   3   3 1373.25 35.0663   1
  -1   3   3 1372.73 34.0551   5
  -1   3   3 1368.97 34.7011   6
   1   3  -3 1372.44 35.3439   6
   1   3  -3 1352.30 35.9549   1
   1   3  -3 1389.99 35.4567   4
   0  -3   3 71.0314 3.74897   6
   0  -3   3 72.3323 3.96659   6
   0  -3   3 69.2494 3.70018   1
   0  -3  -3 66.9007 4.68518   2
   0  -3   3 70.7658 2.93344   3
   0  -3  -3 68.6009 2.72584   6
   0  -3   3 70.9028 3.87449   4
   0  -3  -3 67.6928 2.77275   6
   0   3  -3 70.1814 3.87881   4
   0   3   3 72.7841 3.72640   5
   0   3  -3 68.3669 3.83701   6
   0   3  -3 66.7909 4.25696   1
   0   3   3 63.5324 2.77987   6
   0   3  -3 69.2916 3.78744   1
   0   3   3 70.9836 4.26115   2
   0   3   3 67.5766 2.94312   6
   0   3  -3 70.4243 2.88794   5
   0   3  -3 62.1754 3.81552   6
   1  -3   3 1228.21 30.7313   2
   1  -3   3 1184.15 30.3879   3
   1  -3   3 1166.17 31.4890   1
  -1  -3  -3 1198.61 29.4163   3
  -1  -3  -3 1183.25 28.6578   1
  -1  -3  -3 1126.63 31.2741   2
   1  -3   3 1207.16 29.0122   5
  -1  -3  -3 1141.66 29.9692   6
  -1   3  -3 1196.90 32.3200   1
  -1   3  -3 1158.86 30.9337   6
   1   3   3 1143.39 29.8578   6
   1   3   3 1191.72 30.0748   1
   1   3   3 1139.27 29.3695   3
  -1   3  -3 1169.77 30.8041   4
  -1   3  -3 1231.49 30.2296   3
   2  -3   3 257.832 10.3568   1
   2  -3   3 253.920 8.93025   2
   2  -3   3 262.764 10.3736   6
  -2  -3  -3 251.152 9.32121   6
  -2  -3  -3 243.987 8.26216   3
   2  -3   3 250.690 9.45246   3
  -2  -3  -3 253.213 8.36837   1
  -2  -3  -3 246.519 9.12213   2
   2   3   3 256.849 8.66497   3
  -2   3  -3 257.799 9.15091   3
  -2   3  -3 235.059 8.78011   4
   2   3   3 239.659 6.61570   4
   2   3   3 239.757 9.09467   6
   2   3   3 254.602 9.90291   1
  -2   3  -3 246.819 11.0203   1
  -2   3  -3 254.106 9.69758   6
   3  -3   3 112.143 7.57636   6
  -3  -3  -3 132.571 6.20072   3
  -3  -3  -3 126.765 6.18666   2
  -3  -3  -3 126.127 6.56666   1
   3  -3   3 119.531 6.96978   3
  -3   3  -3 132.717 7.29932   6
   3   3   3 142.138 6.70026   3
  -3   3  -3 141.466 5.26354   2
  -3   3  -3 121.113 8.65919   1
  -3   3  -3 140.942 6.25649   4
   3   3   3 130.547 7.09683   6
   4  -3   3 87.6216 7.19274   6
   4  -3   3 83.7745 6.35504   3
  -4  -3  -3 75.7085 5.93075   1
  -4  -3  -3 72.9970 4.79679   2
   4   3   3 77.1302 6.28587   6
   4   3   3 81.6920 5.78567   3
  -4   3  -3 82.1868 8.60592   1
  -4   3  -3 81.3090 6.31056   6
  -4   3  -3 73.7946 4.00897   2
   5  -3   3 25.5609 4.82549   3
  -5  -3  -3 28.8029 4.56276   1
   5   3   3 36.7337 4.93354   3
   5   3   3 17.6562 3.97907   6
  -5   3  -3 41.5222 6.87293   1
  -5  -4   3 33.5745 4.84163   1
   5   4  -3 35.7510 4.90349   6
  -5   4   3 42.6604 6.93072   1
  -4  -4   3 162.745 8.77273   1
   4  -4  -3 152.296 12.5747   6
  -4  -4   3 148.159 6.03467   4
   4   4  -3 146.726 8.39226   6
  -4   4   3 139.564 9.97331   1
   3  -4  -3 23.4638 3.51772   1
   3  -4  -3 28.7651 2.88341   5
  -3  -4   3 24.9768 2.94982   3
  -3  -4   3 20.9827 3.40478   1
  -3  -4   3 25.8627 2.78332   4
  -3  -4   3 18.9936 3.44848   6
   3   4  -3 22.1166 3.07763   4
  -3   4   3 24.1962 3.60493   2
  -3   4   3 21.8714 3.55591   6
  -3   4   3 24.4307 4.49476   1
   3   4  -3 23.1486 3.42501   6
   2  -4  -3 435.899 13.1071   1
  -2  -4   3 424.202 12.3303   3
  -2  -4   3 412.050 13.8830   1
   2  -4  -3 409.059 13.9168   6
  -2  -4   3 419.675 12.9263   4
  -2  -4   3 403.144 14.3487   6
   2  -4  -3 429.205 12.1457   5
   2   4  -3 420.630 13.4760   4
  -2   4   3 418.044 14.8113   1
   2   4  -3 450.671 14.1438   6
  -2   4   3 447.658 13.8910   6
  -2   4   3 433.998 13.6219   3
  -2   4   3 432.443 14.9138   2
   2   4  -3 421.774 15.1819   1
   1  -4  -3 350.016 11.1881   6
  -1  -4   3 368.091 11.6114   4
  -1  -4   3 362.166 11.9098   6
  -1  -4   3 373.418 12.0428   6
   1  -4  -3 368.611 13.8314   2
  -1  -4   3 363.670 11.6422   1
   1  -4  -3 360.816 10.5834   6
  -1   4   3 348.180 10.0168   5
   1   4  -3 366.749 11.7642   4
   1   4  -3 366.396 12.2967   1
  -1   4   3 361.845 11.0141   6
  -1   4   3 365.233 12.7826   2
   1   4  -3 353.388 12.0354   1
   1   4  -3 370.411 11.7854   6
  -1   4   3 365.663 10.8748   3
  -1   4   3 356.095 11.5678   1
   0  -4   3 321.772 11.0153   4
   0  -4  -3 321.863 9.56806   6
   0  -4  -3 331.937 9.49664   6
   0  -4   3 334.279 11.0299   6
   0  -4   3 332.728 9.21920   3
   0  -4  -3 320.387 12.2084   2
   0  -4   3 330.570 10.7262   6
   0  -4   3 324.994 11.4008   2
   0   4  -3 332.570 10.9706   4
   0   4  -3 326.981 10.9754   6
   0   4   3 327.254 11.6087   2
   0   4   3 336.938 10.3454   5
   0   4  -3 336.744 11.5321   1
   0   4  -3 346.020 10.9688   1
   0   4   3 335.622 9.54567   1
   0   4  -3 335.314 11.0093   6
   0   4  -3 333.385 9.13378   5
   0   4   3 318.248 9.68414   6
   0   4   3 324.180 9.78429   1
   0   4   3 331.836 9.85285   6
   1  -4   3 381.765 12.4917   2
   1  -4   3 381.573 12.8181   6
   1  -4   3 362.312 12.4692   1
  -1  -4  -3 380.791 13.1974   2
   1  -4   3 390.457 12.2947   6
   1  -4   3 390.573 11.5352   3
  -1  -4  -3 365.081 10.8799   6
  -1  -4  -3 373.916 11.4041   6
  -1   4  -3 360.799 11.8477   1
   1   4   3 387.279 11.1483   4
   1   4   3 366.364 10.2336   3
  -1   4  -3 381.751 11.1754   3
  -1   4  -3 369.774 12.2616   4
  -1   4  -3 376.215 13.5585   1
  -1   4  -3 374.582 12.3161   6
   1   4   3 364.497 11.1308   6
   1   4   3 365.467 11.4021   1
   2  -4   3 417.327 13.7913   2
  -2  -4  -3 421.161 12.1149   3
   2  -4   3 413.877 14.7623   6
  -2  -4  -3 414.263 14.0742   2
   2  -4   3 417.748 11.6393   5
  -2  -4  -3 404.654 13.4841   6
  -2  -4  -3 404.529 11.9481   1
   2  -4   3 401.971 14.4272   1
   2  -4   3 412.029 13.6215   3
   2   4   3 418.040 12.3580   3
  -2   4  -3 433.655 15.9993   1
   2   4   3 395.927 13.1482   6
  -2   4  -3 432.936 13.2811   3
   2   4   3 396.248 11.2608   4
  -2   4  -3 429.441 13.6383   4
  -2   4  -3 421.972 14.0307   6
   2   4   3 409.732 14.1419   1
  -3  -4  -3 87.8633 5.11331   1
  -3  -4  -3 90.7296 4.87728   3
  -3  -4  -3 90.1158 5.68617   2
   3  -4   3 92.8092 6.02922   3
   3  -4   3 105.591 7.21135   6
   3   4   3 87.4886 5.82222   6
  -3   4  -3 84.8297 5.99210   6
  -3   4  -3 99.2077 7.98265   1
  -3   4  -3 92.3598 4.60412   2
   3   4   3 83.8195 5.07610   3
   4  -4   3 66.9411 5.86410   3
  -4  -4  -3 66.8912 5.06840   2
  -4  -4  -3 64.2988 5.09854   1
   4  -4   3 73.3642 7.56347   6
  -4   4  -3 57.9243 6.09856   6
  -4   4  -3 57.8777 7.51570   1
   4   4   3 68.1725 5.19905   3
   4   4   3 73.8522 5.87540   6
  -5  -4  -3 7.79308 2.76537   1
   5  -4   3 5.79233 2.83959   3
  -5   4  -3 10.9863 4.34961   1
   5   4   3 5.55842 2.81460   6
  -4  -5   3 29.6861 4.17840   1
  -4  -5   3 25.7522 2.80254   4
   4  -5  -3 31.8052 3.31523   5
  -4   5   3 25.1035 5.28775   1
   4   5  -3 30.8726 4.45555   6
   3  -5  -3 83.3621 5.43452   1
  -3  -5   3 78.4815 5.63275   1
  -3  -5   3 78.9595 4.48046   4
   3  -5  -3 91.9619 6.29834   6
   3  -5  -3 81.4806 4.05881   5
  -3  -5   3 80.8573 4.34785   3
  -3   5   3 80.1826 5.60085   6
   3   5  -3 72.1993 4.90039   4
  -3   5   3 73.0936 7.28217   1
   3   5  -3 94.8490 6.00543   6
  -2  -5   3 104.518 4.21549   3
  -2  -5   3 109.591 5.92279   1
  -2  -5   3 117.187 6.65732   6
  -2  -5   3 106.894 5.38028   4
   2  -5  -3 114.889 6.21603   6
  -2  -5   3 115.837 6.16143   6
   2  -5  -3 106.744 4.28122   5
   2  -5  -3 99.8390 7.49402   2
   2  -5  -3 107.182 4.99948   1
   2   5  -3 106.640 5.90472   6
   2   5  -3 100.920 5.65354   4
  -2   5   3 113.720 5.85439   6
  -2   5   3 116.152 6.76054   2
  -2   5   3 102.890 6.72469   1
  -2   5   3 101.275 5.30547   3
  -1  -5   3 87.9204 5.11274   6
   1  -5  -3 84.7880 4.01624   6
  -1  -5   3 87.6343 4.97607   4
   1  -5  -3 83.0675 6.29800   2
  -1  -5   3 88.3083 4.82954   1
  -1  -5   3 92.9112 5.24011   6
   1  -5  -3 84.0551 4.58563   6
  -1  -5   3 83.4536 2.73172   3
  -1   5   3 84.6861 3.30329   5
  -1   5   3 83.1877 4.38781   6
   1   5  -3 81.9547 5.17839   1
   1   5  -3 85.7884 4.97743   4
   1   5  -3 84.6295 5.26395   1
   1   5  -3 78.1791 4.77406   6
  -1   5   3 82.9128 3.90108   3
  -1   5   3 82.0989 5.51264   2
  -1   5   3 81.1224 4.99833   1
   0  -5   3 251.892 9.49275   6
   0  -5  -3 243.764 8.01242   6
   0  -5   3 254.281 10.1554   2
   0  -5  -3 247.028 8.19660   6
   0  -5   3 258.399 7.31164   3
   0  -5  -3 233.573 10.6360   2
   0  -5   3 247.136 9.15769   6
   0   5   3 240.045 8.46459   1
   0   5  -3 251.716 9.37631   1
   0   5   3 248.612 8.49423   5
   0   5  -3 244.711 9.96329   1
   0   5   3 252.150 10.1751   2
   0   5  -3 282.659 9.77901   4
   0   5   3 245.733 8.36003   6
   0   5   3 248.047 8.19144   1
   0   5  -3 248.948 9.47526   6
   0   5   3 249.932 6.96179   3
   0   5  -3 254.013 9.49869   6
   0   5  -3 254.547 7.22662   5
   0   5   3 248.405 8.47009   6
  -1  -5  -3 242.452 8.04858   6
   1  -5   3 237.629 9.82099   2
  -1  -5  -3 225.934 10.2822   2
   1  -5   3 244.513 9.48853   1
   1  -5   3 244.901 8.25680   3
  -1  -5  -3 226.562 8.34655   6
   1  -5   3 248.674 9.21766   6
   1  -5   3 232.019 9.73427   6
  -1   5  -3 235.707 9.36681   6
   1   5   3 232.867 8.20104   6
   1   5   3 239.387 8.35178   4
   1   5   3 251.847 6.76231   3
   1   5   3 245.922 8.72926   1
  -1   5  -3 235.394 9.39595   4
  -1   5  -3 252.956 10.8159   1
  -1   5  -3 257.974 9.30740   1
  -1   5  -3 241.122 7.93482   3
   2  -5   3 49.9347 4.52938   2
  -2  -5  -3 50.0956 2.86970   3
  -2  -5  -3 59.6620 3.85896   6
   2  -5   3 47.8360 3.92391   3
  -2  -5  -3 52.3786 4.79972   2
   2  -5   3 45.9479 4.58300   6
  -2  -5  -3 52.6926 3.06941   1
   2  -5   3 59.9366 5.94223   6
  -2   5  -3 52.5455 3.75732   3
   2   5   3 54.3448 3.04691   4
   2   5   3 54.3910 3.92677   6
   2   5   3 53.3259 3.06674   3
   2   5   3 57.6124 5.45300   1
  -2   5  -3 51.5003 6.03331   1
  -2   5  -3 57.5452 5.26085   6
  -3  -5  -3 372.928 11.7294   3
   3  -5   3 360.171 13.6716   3
  -3  -5  -3 372.841 13.9270   2
   3  -5   3 375.440 15.2464   6
  -3  -5  -3 359.881 11.7604   1
  -3   5  -3 353.639 13.8223   6
  -3   5  -3 362.611 16.3538   1
   3   5   3 383.885 13.4934   6
   3   5   3 367.057 9.95331   4
   3   5   3 382.082 12.1613   3
  -4  -5  -3 86.4955 6.08247   2
  -4  -5  -3 83.7115 5.29688   1
   4  -5   3 70.1780 5.95887   3
  -4   5  -3 73.6400 8.58906   1
   4   5   3 71.6943 5.84173   6
  -4  -6   3 20.1252 3.59759   1
   4   6  -3 15.7295 3.31493   6
  -4   6   3 17.8221 4.78135   1
   3  -6  -3 105.053 4.31491   5
  -3  -6   3 109.503 5.64527   4
  -3  -6   3 96.5143 6.20445   1
  -3  -6   3 108.672 6.73476   6
   3  -6  -3 120.603 6.12473   1
   3   6  -3 104.690 6.14080   4
  -3   6   3 106.902 8.15848   1
   3   6  -3 114.711 6.73167   6
  -2  -6   3 181.336 7.77565   4
   2  -6  -3 181.003 6.85303   1
   2  -6  -3 179.362 10.5637   2
   2  -6  -3 177.877 8.35289   6
  -2  -6   3 180.036 7.92821   1
  -2  -6   3 166.119 5.16360   3
  -2  -6   3 176.565 8.23203   6
   2   6  -3 188.101 8.34656   6
  -2   6   3 172.780 7.21852   3
  -2   6   3 177.368 7.84461   6
  -2   6   3 179.612 9.28232   1
   2   6  -3 168.433 7.93847   4
  -1  -6   3 77.2161 5.11844   6
   1  -6  -3 75.2339 6.80041   2
  -1  -6   3 76.9129 5.72294   2
  -1  -6   3 81.9659 4.91176   1
   1  -6  -3 76.4263 4.70193   6
  -1  -6   3 75.2958 5.09832   6
   1   6  -3 78.7963 5.43749   1
   1   6  -3 79.8388 5.17322   6
  -1   6   3 83.4605 4.74461   6
  -1   6   3 76.9612 3.68864   3
   1   6  -3 85.8915 5.25787   4
  -1   6   3 78.6243 5.50330   1
   0  -6   3 7.66933 2.03473   6
   0  -6   3 8.33911 1.01269   3
   0  -6  -3 8.68407 1.87173   6
   0  -6  -3 8.20243 3.03273   2
   0  -6   3 7.53908 2.20937   6
   0  -6   3 13.5355 2.97982   2
   0   6   3 10.5192 1.97106   6
   0   6  -3 9.33339 1.18079   5
   0   6   3 8.33105 1.80989   5
   0   6   3 9.59861 1.97141   1
   0   6  -3 6.57996 2.51554   1
   0   6   3 12.6672 2.32542   1
   0   6  -3 10.3648 2.42148   6
   0   6  -3 7.79558 2.15615   6
   0   6   3 10.6562 2.05937   6
  -1  -6  -3 205.706 10.3711   2
  -1  -6  -3 201.985 7.55283   6
   1  -6   3 228.067 9.67377   6
   1  -6   3 206.581 8.89637   1
   1  -6   3 205.869 7.38351   3
   1  -6   3 218.993 8.76124   6
   1  -6   3 190.799 9.47001   2
   1   6   3 215.307 8.46006   1
  -1   6  -3 202.488 7.08450   3
   1   6   3 211.547 7.89161   6
   1   6   3 212.862 8.07992   4
  -1   6  -3 211.022 9.05044   6
  -1   6  -3 223.546 10.5448   1
  -2  -6  -3 46.2330 3.64249   6
  -2  -6  -3 49.5783 5.84445   2
   2  -6   3 51.3803 5.66328   6
   2  -6   3 51.4481 5.77267   2
   2  -6   3 46.8267 3.90098   3
  -2   6  -3 50.3903 3.62564   3
   2   6   3 49.8482 3.88985   6
  -2   6  -3 59.2798 7.08231   1
   2   6   3 47.0854 3.26506   4
  -2   6  -3 56.0555 5.33919   6
   3  -6   3 18.5825 3.61488   2
  -3  -6  -3 23.4951 4.10042   2
   3  -6   3 22.2261 3.52092   3
  -3  -6  -3 24.0358 2.63979   1
   3  -6   3 19.8683 5.06979   6
  -3   6  -3 23.2451 5.01003   1
   3   6   3 17.3084 2.95820   6
  -4  -6  -3 37.6633 3.64767   1
  -4  -6  -3 42.6602 5.45567   2
   4  -6   3 36.1290 4.71537   3
   4   6   3 37.2247 4.66988   6
  -4   6  -3 57.5557 8.48422   1
  -4  -7   3 19.0373 3.40802   1
   4   7  -3 21.3028 3.63546   6
  -3  -7   3 45.1862 5.92596   2
  -3  -7   3 40.3613 4.42122   1
  -3   7   3 46.6730 6.32425   1
   3   7  -3 41.8932 4.75210   6
   2  -7  -3 33.2344 5.57211   2
  -2  -7   3 41.9353 4.28372   1
  -2  -7   3 30.2645 4.95421   2
  -2   7   3 40.2140 3.10535   3
   2   7  -3 39.2964 4.55351   6
   2   7  -3 39.3472 4.80358   1
  -2   7   3 39.5288 5.36794   1
  -2   7   3 39.6026 4.32905   6
  -1  -7   3 -0.1863 1.99244   2
  -1  -7   3 -0.0108 1.39309   6
   1  -7  -3 0.72234 2.85661   2
   1  -7  -3 1.59921 1.51967   6
  -1   7   3 -0.4974 1.90071   1
  -1   7   3 1.91729 0.86362   3
   1   7  -3 1.48810 1.83260   1
  -1   7   3 1.14032 1.53177   6
   1   7  -3 1.73904 1.86399   6
   0  -7  -3 95.0815 7.64279   2
   0  -7   3 98.8244 6.91161   2
   0  -7  -3 94.1824 5.09900   6
   0  -7   3 99.5015 6.07079   6
   0   7   3 89.3392 5.67687   1
   0   7   3 98.1424 4.69167   5
   0   7  -3 94.6859 6.07229   6
   0   7  -3 97.2256 6.76896   1
   1  -7   3 68.3759 6.00317   2
   1  -7   3 65.0825 5.38018   6
  -1  -7  -3 69.7424 4.26519   6
  -1  -7  -3 76.2633 7.70772   2
  -1   7  -3 81.2285 3.70982   3
  -1   7  -3 77.1535 5.51774   6
  -1   7  -3 79.6938 6.78547   1
   1   7   3 77.3955 4.68631   6
   1   7   3 67.1370 4.75526   1
   2  -7   3 24.6307 3.15056   3
  -2  -7  -3 29.1384 4.95250   2
   2  -7   3 23.5760 4.22311   2
  -2   7  -3 37.3763 5.96320   1
  -2   7  -3 32.9088 3.42459   3
   2   7   3 32.2030 3.34072   4
   2   7   3 26.6433 3.41515   6
  -3  -7  -3 68.6650 7.26138   2
   3  -7   3 74.3547 6.65696   2
   3  -7   3 73.9061 5.43214   3
  -3   7  -3 68.9544 8.56115   1
   3   7   3 66.2912 5.04926   6
  -3  -8   3 11.5137 2.69607   1
  -3  -8   3 15.5726 4.12004   2
   3   8  -3 12.4596 2.94291   1
  -3   8   3 18.0181 4.29489   1
   3   8  -3 7.64055 2.51629   6
  -2  -8   3 116.294 8.27927   2
   2  -8  -3 115.616 9.41209   2
  -2   8   3 116.469 8.35181   1
   2   8  -3 113.060 7.33816   1
   2   8  -3 113.117 6.92647   6
  -1  -8   3 7.50951 2.90297   2
   1  -8  -3 10.6178 4.15914   2
  -1   8   3 5.41063 2.68791   1
   1   8  -3 7.12609 2.54253   6
   1   8  -3 5.89071 2.73280   1
   0  -8  -3 65.8386 7.80147   2
   0  -8   3 53.7059 6.15061   2
   0   8  -3 68.9174 6.83770   1
   0   8   3 58.2320 5.06431   1
   1  -8   3 42.4740 5.68372   2
  -1  -8  -3 52.1646 7.02879   2
   1   8   3 46.4665 4.46486   6
  -1   8  -3 47.4964 6.13792   1
   1   8   3 50.4378 4.87734   1
  -2  -8  -3 6.04735 3.12762   2
   2  -8   3 3.22738 2.64743   2
  -2   8  -3 5.24021 3.42566   1
   2   8   3 3.37054 1.94388   6
  -2  -9   3 -0.4903 2.02410   2
   2  -9  -3 -2.4800 2.95693   2
   2   9  -3 -1.9408 1.61410   1
   2   9  -3 0.94834 1.78251   6
  -2   9   3 -0.5802 2.20990   1
  -1  -9   3 100.019 7.91591   2
   1  -9  -3 104.843 9.01120   2
  -1   9   3 101.688 7.47840   1
   1   9  -3 88.7455 6.43803   6
   1   9  -3 89.5988 6.99915   1
   0  -9  -3 5.69456 3.12392   2
   0  -9   3 5.47446 2.97897   2
   0   9   3 1.76622 2.19425   1
   0   9  -3 2.14071 2.57249   1
  -1  -9  -3 27.7034 5.22551   2
   1  -9   3 32.4908 5.62524   2
   1   9   3 35.2648 4.51245   1
  -1   9  -3 25.0587 5.10267   1
   1   9   3 35.6956 4.11169   6
   5   0  -4 63.0436 6.87124   6
  -5   0   4 51.4419 6.88760   1
  -5   0   4 65.4956 5.10397   4
   4   0  -4 169.031 9.18765   6
  -4   0   4 183.261 10.4563   1
  -4   0   4 173.556 8.23891   4
  -4   0   4 164.121 9.30223   6
   3   0  -4 29.7192 3.58704   6
  -3   0   4 31.7493 3.65014   3
  -3   0   4 26.0503 3.75714   6
  -3   0   4 24.0700 3.33177   4
  -3   0   4 28.3165 4.10651   1
   3   0  -4 33.1653 4.55261   1
  -2   0   4 502.580 15.4335   6
  -2   0   4 471.156 15.7730   1
  -2   0   4 482.395 15.1862   4
   2   0  -4 516.294 16.0277   1
   2   0  -4 511.622 15.0969   6
   1   0  -4 1577.80 38.5310   1
   1   0  -4 1554.15 39.0140   4
   1   0  -4 1355.34 37.6374   6
  -1   0   4 1569.01 38.1612   6
   1   0  -4 1528.81 38.3681   5
  -1   0   4 1618.98 38.6930   1
   0   0  -4 1881.85 45.1041   1
   0   0  -4 1869.38 45.2614   1
   0   0  -4 1918.21 46.5358   5
   0   0   4 1877.24 45.4638   1
   0   0   4 1847.70 45.2366   6
   0   0   4 1891.05 46.3838   5
   0   0   4 1861.82 45.2227   6
   0   0   4 1915.75 46.2810   4
   0   0  -4 1905.80 45.2062   6
   0   0   4 1855.03 45.1919   1
   0   0   4 1878.13 46.0767   3
   0   0  -4 1844.32 46.2764   4
   1   0   4 1209.41 27.8754   2
   1   0   4 1198.91 30.1344   1
   1   0   4 1131.19 29.5072   6
  -1   0  -4 1124.02 29.7798   1
   1   0   4 1146.96 28.4067   4
  -1   0  -4 1147.90 29.4936   3
   1   0   4 1125.87 29.5585   3
  -1   0  -4 1123.48 28.5752   4
  -1   0  -4 1166.94 29.1999   6
   2   0   4 123.147 6.01054   3
   2   0   4 131.058 6.90190   1
  -2   0  -4 127.856 5.90909   3
  -2   0  -4 137.206 6.14424   6
   2   0   4 128.787 6.37216   6
  -2   0  -4 125.274 6.73127   1
  -2   0  -4 132.922 4.36362   4
  -3   0  -4 366.826 10.0909   4
   3   0   4 358.729 14.4005   1
   3   0   4 368.343 13.2795   3
  -3   0  -4 363.473 14.3692   1
   3   0   4 366.807 13.8937   6
  -3   0  -4 363.061 13.2157   6
  -3   0  -4 374.438 12.7585   3
  -4   0  -4 8.89533 1.23869   4
   4   0   4 8.04738 2.87213   3
  -4   0  -4 4.83191 3.27524   1
   4   0   4 5.64722 2.85120   6
   5   0   4 16.7927 4.29945   6
  -5   0  -4 19.1126 4.75178   1
   5   0   4 20.2942 4.18223   3
  -5  -1   4 254.684 10.3890   4
  -5  -1   4 268.427 13.5591   1
  -5   1   4 256.738 13.8313   1
   5   1  -4 290.585 12.9549   6
  -5   1   4 267.741 11.6356   4
  -4  -1   4 32.2168 3.86769   4
  -4  -1   4 28.6158 4.71122   1
   4  -1  -4 33.1675 4.80257   6
  -4  -1   4 32.4919 5.05672   6
  -4   1   4 32.0026 5.34666   1
  -4   1   4 31.4403 4.23675   4
  -4   1   4 24.1683 4.13532   6
   4   1  -4 32.8666 4.47141   6
  -3  -1   4 106.634 6.56584   6
  -3  -1   4 108.850 6.91054   1
   3  -1  -4 102.210 6.21088   6
  -3  -1   4 98.1877 5.71011   3
  -3  -1   4 102.122 5.49448   4
   3  -1  -4 102.630 6.59309   1
  -3   1   4 110.884 6.49592   6
  -3   1   4 104.689 5.97980   3
  -3   1   4 103.415 7.02087   1
   3   1  -4 110.917 7.15622   1
  -3   1   4 105.049 6.09661   4
   3   1  -4 107.388 6.24414   6
  -2  -1   4 113.886 6.19913   1
  -2  -1   4 110.115 5.79950   6
   2  -1  -4 110.991 5.78996   1
  -2  -1   4 107.250 5.30429   4
   2   1  -4 107.229 5.43126   6
   2   1  -4 103.328 6.17940   1
  -2   1   4 102.824 6.05835   1
  -2   1   4 101.285 5.43920   6
   2   1  -4 111.496 5.48665   4
   1  -1  -4 101.536 3.74542   1
  -1  -1   4 101.391 4.76043   1
  -1  -1   4 105.826 4.48058   6
   1  -1  -4 98.9341 3.83653   6
  -1  -1   4 97.4170 4.60404   4
   1  -1  -4 105.758 4.37541   5
  -1   1   4 110.636 4.25377   6
  -1   1   4 98.7659 4.23549   5
   1   1  -4 107.796 4.98802   1
   1   1  -4 98.1938 4.71168   4
   1   1  -4 94.5231 4.15589   6
  -1   1   4 97.4382 4.28855   1
   0  -1   4 507.548 13.8617   1
   0  -1   4 511.986 13.7181   3
   0  -1   4 505.909 13.5064   1
   0  -1   4 503.686 13.5848   6
   0  -1   4 497.236 13.4528   6
   0  -1  -4 489.033 14.2573   5
   0  -1   4 504.655 13.6639   5
   0  -1   4 493.051 13.8477   4
   0   1  -4 512.047 14.0184   1
   0   1  -4 504.703 13.5250   1
   0   1  -4 514.527 14.0405   4
   0   1   4 492.304 14.4728   2
   0   1  -4 509.136 13.5005   6
   0   1  -4 504.452 13.5416   6
   0   1  -4 497.696 13.8902   5
   0   1   4 503.218 13.9701   4
   0   1   4 481.599 12.0908   6
   0   1   4 482.774 14.1088   5
   1  -1   4 806.672 21.4844   6
   1  -1   4 784.980 20.5598   4
   1  -1   4 813.174 22.0373   1
  -1  -1  -4 813.912 20.2276   1
  -1  -1  -4 787.680 20.4545   6
  -1  -1  -4 794.138 20.9289   3
  -1  -1  -4 792.340 20.6464   2
   1  -1   4 791.149 21.2253   3
  -1   1  -4 791.641 22.1486   1
  -1   1  -4 818.606 21.1504   6
   1   1   4 771.620 19.7860   4
   1   1   4 769.298 20.9859   3
   1   1   4 770.762 20.7866   6
  -1   1  -4 806.278 21.1896   3
  -1   1  -4 814.704 20.7197   4
   1   1   4 797.725 20.2668   2
   1   1   4 792.939 21.1387   1
  -2  -1  -4 127.097 5.97064   6
   2  -1   4 113.291 6.31196   6
  -2  -1  -4 128.786 6.24223   1
  -2  -1  -4 133.968 5.87709   3
  -2  -1  -4 127.304 4.55149   2
   2  -1   4 135.662 7.04749   1
   2  -1   4 130.338 6.24460   3
  -2   1  -4 135.381 6.27386   6
   2   1   4 135.353 6.86104   1
   2   1   4 130.810 6.02010   3
  -2   1  -4 133.472 6.06371   3
  -2   1  -4 139.960 4.98337   4
   2   1   4 133.105 6.38534   6
  -3  -1  -4 56.6000 5.42464   1
   3  -1   4 67.9610 7.25086   1
  -3  -1  -4 62.9637 4.44651   3
   3  -1   4 72.2848 5.62666   6
  -3  -1  -4 66.3163 3.06594   2
  -3  -1  -4 66.7236 4.95603   6
   3  -1   4 61.8984 4.96853   3
  -3   1  -4 61.1846 4.64337   3
   3   1   4 57.7135 5.95981   1
  -3   1  -4 70.9877 5.12785   6
  -3   1  -4 66.7935 3.38550   4
   3   1   4 64.8268 4.81163   3
  -3   1  -4 76.5796 7.18700   1
   3   1   4 59.9943 5.08375   6
   4  -1   4 101.544 7.75808   6
   4  -1   4 113.133 7.28314   3
  -4  -1  -4 100.565 7.38476   1
  -4  -1  -4 110.307 4.28950   2
  -4   1  -4 102.171 4.54295   4
  -4   1  -4 101.903 8.43336   1
   4   1   4 108.318 7.04034   3
   4   1   4 111.546 7.59743   6
   5  -1   4 34.3110 5.27588   3
  -5  -1  -4 26.4503 4.97151   1
   5  -1   4 21.1986 4.56688   6
  -5   1  -4 36.5653 6.33707   1
   5   1   4 19.2694 4.07452   6
   5   1   4 29.3389 4.57217   3
  -5  -2   4 81.7911 4.97681   4
  -5  -2   4 77.3061 7.90458   1
  -5   2   4 90.4146 9.08325   1
   5   2  -4 82.8700 6.91114   6
  -5   2   4 80.9625 6.41682   4
  -4  -2   4 55.4448 4.06043   4
  -4  -2   4 50.9269 6.24051   6
  -4  -2   4 44.2828 5.40102   1
   4  -2  -4 67.6586 6.54455   6
   4   2  -4 53.0100 5.78051   6
  -4   2   4 53.4315 6.94477   1
  -4   2   4 41.8459 5.20485   6
  -4   2   4 43.4926 5.38037   2
   3  -2  -4 435.938 15.3357   1
  -3  -2   4 435.407 13.8355   4
  -3  -2   4 443.556 15.7798   6
   3  -2  -4 433.283 15.1424   6
  -3  -2   4 428.317 15.8011   1
  -3  -2   4 443.370 14.4545   3
   3   2  -4 459.478 15.3144   6
  -3   2   4 432.097 16.4023   1
   3   2  -4 460.774 14.3695   4
  -3   2   4 435.884 15.3124   6
  -3   2   4 458.032 15.1204   3
   3   2  -4 458.104 16.8241   1
   2  -2  -4 58.0025 3.95940   1
  -2  -2   4 59.0970 4.48074   1
   2  -2  -4 53.2808 3.90692   6
  -2  -2   4 63.6600 3.87890   4
  -2  -2   4 57.7009 4.31567   6
   2  -2  -4 58.2041 3.50648   5
  -2   2   4 52.3415 4.46814   1
   2   2  -4 61.6070 4.04088   4
  -2   2   4 64.0926 4.14454   6
  -2   2   4 55.9125 3.94507   3
   2   2  -4 56.8754 3.99005   6
   2   2  -4 68.0440 4.94421   1
  -2   2   4 64.2228 5.04954   2
   1  -2  -4 241.532 7.85046   5
  -1  -2   4 239.042 8.12673   4
   1  -2  -4 231.174 7.24196   6
  -1  -2   4 232.348 8.15320   6
  -1  -2   4 225.985 8.23169   1
  -1   2   4 258.883 9.66439   2
  -1   2   4 234.397 7.52997   1
   1   2  -4 241.369 8.69009   1
  -1   2   4 243.008 7.50940   6
  -1   2   4 247.075 7.67204   5
   1   2  -4 249.021 8.53418   4
   1   2  -4 238.549 7.97232   6
   0  -2   4 580.814 16.5715   4
   0  -2   4 573.626 16.3182   1
   0  -2   4 621.988 16.4839   6
   0  -2   4 602.112 15.8997   5
   0  -2   4 613.876 16.0561   3
   0  -2  -4 571.936 17.6021   2
   0  -2   4 613.872 16.7688   1
   0  -2   4 594.765 16.5775   6
   0   2  -4 629.015 16.6487   6
   0   2   4 597.058 14.6253   6
   0   2  -4 622.965 16.5351   1
   0   2   4 580.516 14.5659   6
   0   2  -4 603.335 16.5264   6
   0   2  -4 603.088 17.0391   1
   0   2  -4 602.364 16.7195   4
   0   2  -4 614.780 16.0895   5
   0   2   4 599.505 16.7403   5
   0   2   4 630.860 17.4017   2
   1  -2   4 53.3826 4.08935   1
   1  -2   4 62.4363 3.64581   3
  -1  -2  -4 58.9452 3.19732   3
   1  -2   4 63.2262 2.95331   2
  -1  -2  -4 55.1252 3.70866   2
   1  -2   4 63.9852 3.97761   6
   1  -2   4 69.1443 3.59686   4
  -1  -2  -4 63.4722 3.02781   6
   1  -2   4 60.3726 3.35071   5
   1   2   4 54.3543 3.11610   3
   1   2   4 57.2956 3.12349   6
  -1   2  -4 59.1333 3.65664   6
  -1   2  -4 58.5109 3.38294   3
   1   2   4 63.0516 3.28831   1
  -1   2  -4 57.7870 3.48439   4
   1   2   4 63.3411 3.41275   2
  -2  -2  -4 467.665 14.3256   6
  -2  -2  -4 472.492 13.9080   3
   2  -2   4 456.504 14.7291   3
  -2  -2  -4 470.394 13.5504   2
  -2  -2  -4 483.778 13.8732   1
   2  -2   4 491.830 15.6745   6
  -2   2  -4 438.064 14.6425   6
  -2   2  -4 451.595 16.1908   1
   2   2   4 456.515 14.1150   3
   2   2   4 467.970 15.2862   1
  -2   2  -4 456.619 13.5557   4
   2   2   4 442.439 14.4152   6
  -2   2  -4 471.558 14.4758   3
  -3  -2  -4 24.4987 3.39867   6
   3  -2   4 29.3297 4.25122   6
  -3  -2  -4 22.8290 3.04600   3
   3  -2   4 32.9922 4.07522   3
  -3  -2  -4 28.8041 2.66138   2
  -3  -2  -4 32.2144 3.97718   1
  -3   2  -4 24.7561 3.72025   6
   3   2   4 26.2420 3.54954   3
   3   2   4 25.1213 3.79391   6
  -3   2  -4 29.3898 2.94706   4
  -3   2  -4 21.7046 4.40684   1
   3   2   4 33.1540 4.71774   1
   4  -2   4 44.7273 5.23758   3
  -4  -2  -4 55.1311 3.55492   2
  -4  -2  -4 55.7890 5.67092   1
   4  -2   4 50.7320 6.16914   6
  -4   2  -4 54.6611 6.19648   6
   4   2   4 50.4023 5.42651   3
  -4   2  -4 56.7055 3.66005   4
  -4   2  -4 59.2269 7.43559   1
   4   2   4 48.6845 5.75631   6
   5  -2   4 6.03213 3.33816   6
  -5  -2  -4 8.16407 3.10476   1
   5  -2   4 15.9169 4.03888   3
   5   2   4 13.8081 3.41812   3
   5   2   4 8.04636 3.19091   6
  -5   2  -4 9.88602 4.29750   1
  -5  -3   4 42.4276 5.62277   1
  -5   3   4 31.5151 5.94874   1
   5   3  -4 26.6138 4.28092   6
  -4  -3   4 60.8485 6.29603   1
  -4  -3   4 72.0503 4.46092   4
   4  -3  -4 76.5569 6.04910   6
  -4  -3   4 76.4664 7.44147   6
  -4   3   4 75.7389 6.17718   6
  -4   3   4 77.0842 8.04138   1
   4   3  -4 74.8101 5.96663   6
   3  -3  -4 22.2299 2.78448   5
  -3  -3   4 19.3725 2.79366   3
  -3  -3   4 20.0810 3.52051   1
  -3  -3   4 18.7226 3.40463   6
  -3  -3   4 23.3485 2.87156   4
   3  -3  -4 24.2593 3.53636   1
   3   3  -4 20.9341 3.00522   4
  -3   3   4 27.4677 4.41960   1
  -3   3   4 18.9986 3.16998   6
   3   3  -4 20.0344 3.28977   6
  -3   3   4 21.0990 3.22326   3
  -3   3   4 27.1830 4.14510   2
  -2  -3   4 184.608 7.92239   1
   2  -3  -4 190.761 6.94441   1
  -2  -3   4 171.978 7.92910   6
  -2  -3   4 177.147 6.97600   4
   2  -3  -4 179.248 6.58925   5
   2  -3  -4 180.212 7.45685   6
   2   3  -4 176.660 8.49332   1
  -2   3   4 189.453 7.54035   6
  -2   3   4 166.082 7.94415   1
  -2   3   4 167.441 8.41435   2
   2   3  -4 185.132 7.54399   4
  -2   3   4 175.711 7.37486   3
   2   3  -4 179.746 7.54541   6
  -1  -3   4 789.562 22.2169   6
  -1  -3   4 786.539 21.9310   4
  -1  -3   4 775.431 22.1129   6
   1  -3  -4 773.885 21.3684   5
   1  -3  -4 837.015 21.0865   6
  -1  -3   4 816.311 22.2249   1
   1  -3  -4 759.519 24.0436   2
   1   3  -4 780.477 22.2516   1
   1   3  -4 797.405 21.9330   6
  -1   3   4 814.568 21.0689   6
   1   3  -4 864.776 22.5216   4
  -1   3   4 837.453 23.6131   2
  -1   3   4 811.321 21.0568   5
   1   3  -4 828.834 22.8155   1
  -1   3   4 801.491 21.3013   1
   0  -3  -4 80.8298 2.69470   6
   0  -3   4 81.5819 4.29208   4
   0  -3   4 78.3776 4.12489   6
   0  -3   4 78.5179 4.37246   1
   0  -3   4 83.9358 4.21091   1
   0  -3   4 90.0643 4.55382   6
   0  -3   4 81.0590 3.50249   3
   0  -3  -4 79.7682 2.66022   6
   0  -3  -4 70.9490 5.18410   2
   0   3  -4 79.4304 4.32777   6
   0   3   4 78.8413 2.90670   6
   0   3   4 81.3954 4.26450   5
   0   3  -4 79.3938 3.50248   5
   0   3   4 79.5540 3.00662   6
   0   3  -4 82.6396 4.25263   1
   0   3   4 80.7858 4.75902   2
   0   3  -4 77.1888 4.28929   6
   0   3  -4 72.0414 4.29686   4
   0   3  -4 76.2039 4.63179   1
   1  -3   4 459.277 14.3480   6
   1  -3   4 447.384 13.7802   6
  -1  -3  -4 439.842 12.5232   6
   1  -3   4 430.647 14.2531   1
   1  -3   4 456.433 13.3694   3
   1  -3   4 450.809 12.2726   5
  -1  -3  -4 438.768 14.2527   2
   1  -3   4 434.858 13.1666   2
  -1  -3  -4 448.797 12.5371   3
  -1   3  -4 465.446 13.7251   4
  -1   3  -4 448.106 13.8106   6
  -1   3  -4 465.427 13.2037   3
   1   3   4 453.829 13.7954   2
   1   3   4 461.305 12.7732   1
   1   3   4 423.791 12.4659   3
  -1   3  -4 443.827 13.4315   1
  -1   3  -4 474.615 15.2738   1
   1   3   4 447.651 12.6118   6
   2  -3   4 74.4857 5.21071   6
   2  -3   4 70.8118 4.62977   3
  -2  -3  -4 61.0467 3.30701   1
  -2  -3  -4 62.9297 3.65428   3
  -2  -3  -4 57.1801 4.01032   2
  -2  -3  -4 63.0346 4.08453   6
   2  -3   4 58.4393 3.65049   2
   2  -3   4 62.2690 4.93960   1
  -2   3  -4 59.2321 4.09398   3
  -2   3  -4 61.5511 3.94422   4
   2   3   4 62.4628 4.12325   6
   2   3   4 66.4402 4.65454   1
   2   3   4 56.6759 1.90855   4
   2   3   4 64.6667 3.86950   3
  -2   3  -4 60.4692 4.37965   6
  -2   3  -4 64.9586 5.65272   1
   2   3   4 59.7030 2.05116   4
  -3  -3  -4 8.05617 2.05599   2
   3  -3   4 8.03628 2.58502   3
  -3  -3  -4 5.97675 2.09299   1
  -3  -3  -4 5.56793 1.76614   3
   3  -3   4 11.2544 3.15750   6
   3   3   4 6.99350 2.27827   6
  -3   3  -4 8.45511 2.02333   4
  -3   3  -4 10.7798 2.67959   6
   3   3   4 7.00510 2.14270   3
  -3   3  -4 11.9842 3.81563   1
   4  -3   4 4.98503 2.66224   6
  -4  -3  -4 1.54008 2.23995   1
  -4  -3  -4 2.18932 1.59671   2
   4  -3   4 4.71537 2.53291   3
  -4   3  -4 2.25992 1.98915   6
   4   3   4 2.98864 2.17097   3
  -4   3  -4 4.43303 3.55380   1
   4   3   4 1.19704 2.02484   6
  -5  -3  -4 2.70478 2.22880   1
   5  -3   4 -1.1177 1.78341   3
   5   3   4 -0.3269 1.74233   3
  -5   3  -4 4.30299 3.37434   1
   5   3   4 3.40377 2.30742   6
   5  -4  -4 70.1212 5.05839   5
  -5  -4   4 60.8603 6.73681   1
   5   4  -4 68.7839 6.98207   6
  -5   4   4 76.5286 9.19238   1
  -4  -4   4 26.1240 4.20572   1
  -4  -4   4 18.9456 2.57773   4
   4  -4  -4 22.1554 3.02441   5
   4   4  -4 22.1762 3.02948   4
   4   4  -4 21.9926 3.60866   6
  -4   4   4 20.4159 4.71029   1
  -3  -4   4 69.4021 4.17365   4
   3  -4  -4 64.9135 5.24475   6
  -3  -4   4 65.1445 4.27100   3
   3  -4  -4 64.4446 4.82353   1
   3  -4  -4 69.6247 4.14034   5
  -3  -4   4 68.2690 5.39125   1
  -3  -4   4 81.1844 6.12427   6
  -3   4   4 76.7514 7.17846   1
  -3   4   4 69.9529 7.56108   2
   3   4  -4 64.5831 5.12393   6
   3   4  -4 63.1584 4.66576   4
  -3   4   4 63.5722 5.00785   6
  -2  -4   4 83.6511 4.11914   3
  -2  -4   4 92.9102 5.75940   6
   2  -4  -4 86.8711 4.24329   1
  -2  -4   4 79.6617 4.50902   4
  -2  -4   4 80.6816 5.24324   1
   2  -4  -4 90.9616 4.26562   5
   2  -4  -4 78.5816 4.92525   6
  -2   4   4 87.6745 4.92086   3
  -2   4   4 92.2527 4.98699   6
  -2   4   4 83.9567 5.68220   1
  -2   4   4 85.8100 5.84727   2
   2   4  -4 94.0768 5.25739   6
   2   4  -4 90.2731 6.16440   1
   2   4  -4 88.2983 5.10224   4
   1  -4  -4 86.2874 3.58218   6
  -1  -4   4 89.4012 4.71464   4
  -1  -4   4 94.3522 3.58490   3
  -1  -4   4 86.2877 4.92061   6
  -1  -4   4 93.6840 5.02644   6
   1  -4  -4 89.8722 4.21405   6
  -1  -4   4 89.7005 4.82049   1
  -1   4   4 78.2664 5.41033   2
   1   4  -4 88.7168 4.81037   6
  -1   4   4 82.9547 4.00338   6
   1   4  -4 82.3169 4.96869   1
  -1   4   4 87.0332 4.51868   1
   1   4  -4 84.4458 5.11143   1
  -1   4   4 81.0030 3.72541   5
   1   4  -4 79.9990 4.80767   4
   0  -4  -4 412.644 11.2096   6
   0  -4  -4 399.551 14.6441   2
   0  -4   4 423.134 13.3455   4
   0  -4  -4 427.017 11.3141   6
   0  -4   4 413.863 11.5923   3
   0  -4   4 429.330 13.3837   6
   0  -4   4 422.334 13.0371   6
   0  -4   4 419.479 13.3295   1
   0   4   4 404.832 13.8517   2
   0   4   4 405.646 11.5053   6
   0   4  -4 427.238 13.3164   6
   0   4   4 418.673 12.7437   5
   0   4  -4 421.394 13.1396   1
   0   4   4 413.807 11.4353   3
   0   4  -4 407.766 13.2119   6
   0   4  -4 434.148 13.3648   4
   0   4  -4 414.386 11.5032   5
   0   4   4 403.609 11.5727   6
   0   4  -4 389.814 13.6288   1
   1  -4   4 340.760 11.5112   2
   1  -4   4 347.754 11.9912   1
  -1  -4  -4 348.447 12.5658   2
   1  -4   4 352.645 12.1663   6
   1  -4   4 350.364 10.8963   3
   1  -4   4 363.412 11.7167   6
   1  -4   4 345.790 9.16697   5
  -1  -4  -4 339.559 9.82646   6
  -1  -4  -4 342.910 10.3212   6
  -1   4  -4 343.102 11.6827   6
   1   4   4 336.153 10.4616   1
   1   4   4 341.211 10.2127   6
  -1   4  -4 325.816 11.2010   1
  -1   4  -4 344.770 11.5523   4
  -1   4  -4 325.698 12.7779   1
  -1   4  -4 331.306 10.5178   3
   1   4   4 321.662 9.72205   3
  -2  -4  -4 125.317 5.26385   3
   2  -4   4 131.345 6.47353   3
   2  -4   4 126.629 7.11881   1
  -2  -4  -4 125.174 4.64705   1
   2  -4   4 134.342 5.04719   5
   2  -4   4 133.689 7.36669   6
   2  -4   4 118.685 6.05608   2
  -2  -4  -4 123.595 6.44880   6
  -2  -4  -4 131.954 6.81487   2
  -2   4  -4 128.104 6.04547   3
   2   4   4 130.696 6.73214   1
   2   4   4 124.594 4.29850   4
   2   4   4 124.001 5.44807   3
  -2   4  -4 143.274 6.89288   6
   2   4   4 128.132 6.03572   6
  -2   4  -4 134.844 8.31629   1
  -2   4  -4 129.577 6.24562   4
  -3  -4  -4 96.8964 5.16483   3
  -3  -4  -4 98.7256 5.97668   2
   3  -4   4 90.6961 6.97644   6
   3  -4   4 92.9501 6.21830   3
  -3  -4  -4 98.4633 5.07159   1
   3   4   4 103.197 6.20487   6
   3   4   4 98.8255 5.59094   3
  -3   4  -4 103.421 8.31164   1
  -3   4  -4 100.136 6.46573   6
   4  -4   4 62.3429 7.00993   6
   4  -4   4 76.0017 6.25262   3
  -4  -4  -4 81.1472 5.43505   2
  -4  -4  -4 90.0955 5.61417   1
   4   4   4 91.5949 5.93690   3
  -4   4  -4 74.4046 8.71090   1
   4   4   4 82.2659 6.34922   6
  -4   4  -4 73.7341 7.38746   6
   4  -5  -4 43.4122 3.59420   5
  -4  -5   4 43.3589 3.46551   4
  -4  -5   4 45.8135 5.29917   1
  -4   5   4 48.3436 6.63005   1
   4   5  -4 52.2624 5.46047   6
   3  -5  -4 151.945 6.03312   5
   3  -5  -4 132.410 6.59713   1
  -3  -5   4 133.533 7.55093   1
  -3  -5   4 144.619 6.17351   3
  -3  -5   4 148.152 6.47601   4
   3  -5  -4 148.757 7.90770   6
  -3   5   4 138.900 8.86062   1
   3   5  -4 136.961 7.49239   6
  -3   5   4 129.403 7.23766   6
   3   5  -4 145.193 7.22141   4
  -2  -5   4 33.9430 3.83442   6
  -2  -5   4 32.0313 3.95017   6
   2  -5  -4 34.7007 2.65955   1
   2  -5  -4 36.7909 5.62531   2
  -2  -5   4 32.4085 3.78362   1
  -2  -5   4 33.2282 3.62350   4
   2  -5  -4 41.5854 4.13904   6
   2  -5  -4 33.6516 2.68080   5
  -2  -5   4 31.1635 2.38479   3
  -2   5   4 28.3777 4.06321   1
   2   5  -4 34.6644 4.01654   6
   2   5  -4 41.2781 4.24569   4
  -2   5   4 34.7896 3.60537   3
  -2   5   4 33.3863 3.53218   6
  -1  -5   4 23.3531 3.05278   4
  -1  -5   4 24.7308 1.62741   3
  -1  -5   4 28.0908 3.32600   1
   1  -5  -4 26.2065 2.78114   6
  -1  -5   4 17.5951 2.79558   6
   1  -5  -4 17.1928 3.81304   2
   1  -5  -4 24.0950 2.04684   6
  -1  -5   4 28.8387 3.61183   6
  -1   5   4 19.4138 2.81080   1
  -1   5   4 25.5154 2.08291   5
   1   5  -4 24.3178 3.36460   1
  -1   5   4 25.9319 2.68607   6
   1   5  -4 32.4397 3.77494   1
  -1   5   4 16.5093 3.24332   2
  -1   5   4 24.6142 2.47958   3
   1   5  -4 21.5497 2.83828   6
   1   5  -4 28.5057 3.39605   4
   0  -5   4 21.6741 1.98986   3
   0  -5  -4 21.5526 2.07358   6
   0  -5  -4 18.9315 1.95785   6
   0  -5   4 14.2097 2.86908   2
   0  -5  -4 16.2426 3.51192   2
   0  -5   4 15.7727 2.71554   6
   0  -5   4 13.9369 2.32547   6
   0   5  -4 13.7176 2.75538   1
   0   5  -4 15.3161 2.49964   1
   0   5  -4 20.5163 1.88930   5
   0   5  -4 19.9423 2.99218   6
   0   5   4 16.4516 1.61823   3
   0   5   4 19.3816 2.53887   5
   0   5  -4 19.6836 2.91233   6
   0   5  -4 20.0298 2.94221   4
   0   5   4 22.7305 2.47421   1
   0   5   4 17.8885 2.03984   1
   0   5   4 18.0364 2.11083   6
   0   5   4 20.1495 2.24096   6
   0   5   4 22.5937 3.56557   2
   1  -5   4 2.66823 1.62586   2
   1  -5   4 0.23896 1.52383   6
  -1  -5  -4 3.45756 1.24483   6
   1  -5   4 4.23112 1.41958   3
   1  -5   4 2.40577 1.73217   1
  -1  -5  -4 2.06796 1.14172   6
   1  -5   4 3.02185 1.58203   6
  -1  -5  -4 5.04927 2.51732   2
  -1   5  -4 4.11783 2.32654   1
   1   5   4 4.96255 1.58635   1
  -1   5  -4 2.95517 1.63814   1
  -1   5  -4 6.12284 1.43504   3
  -1   5  -4 1.65169 1.48810   4
   1   5   4 3.89334 0.91009   3
   1   5   4 3.12221 1.22358   6
   1   5   4 3.45711 1.30627   4
  -1   5  -4 3.65468 1.64400   6
  -2  -5  -4 126.721 7.23856   2
   2  -5   4 119.106 6.53942   6
   2  -5   4 112.521 7.16905   6
  -2  -5  -4 115.307 5.36703   6
   2  -5   4 120.708 6.66415   2
   2  -5   4 120.527 3.82524   5
   2  -5   4 120.989 6.24932   3
  -2  -5  -4 120.444 4.90005   3
  -2   5  -4 131.607 6.02461   3
   2   5   4 120.749 5.05587   3
  -2   5  -4 114.899 6.55115   6
   2   5   4 114.527 5.78212   6
  -2   5  -4 131.536 8.64694   1
   2   5   4 118.831 4.68871   4
   2   5   4 115.138 6.58137   1
  -3  -5  -4 103.884 5.10064   3
   3  -5   4 115.237 7.86852   6
   3  -5   4 102.172 4.64715   5
  -3  -5  -4 98.5292 4.74283   1
  -3  -5  -4 97.8622 6.51163   2
   3  -5   4 101.479 6.43730   3
  -3   5  -4 96.0796 8.35817   1
   3   5   4 106.401 6.28721   6
  -3   5  -4 93.5025 6.44677   6
   3   5   4 99.3363 5.32522   3
  -4  -5  -4 32.0634 4.40212   2
   4  -5   4 32.6350 4.65905   3
  -4  -5  -4 31.5430 3.43879   1
   4   5   4 17.1764 3.40832   6
   4   5   4 31.6603 3.88320   3
  -4   5  -4 27.1119 5.75122   1
  -4  -6   4 11.5421 3.06031   1
   4   6  -4 6.85456 2.49480   6
  -4   6   4 12.0064 4.20731   1
  -3  -6   4 58.4714 4.32084   4
  -3  -6   4 61.7065 5.19764   6
   3  -6  -4 62.6296 3.56551   5
  -3  -6   4 66.1617 5.21612   1
   3   6  -4 68.3814 5.29053   6
  -3   6   4 52.1208 6.51663   1
   3   6  -4 69.9166 5.88082   4
  -2  -6   4 610.365 19.6088   6
   2  -6  -4 619.508 19.2347   6
  -2  -6   4 601.302 18.8803   4
  -2  -6   4 629.248 16.2416   3
   2  -6  -4 611.174 22.7482   2
  -2  -6   4 631.943 19.2521   1
  -2   6   4 644.851 18.8655   6
   2   6  -4 640.881 20.2766   1
  -2   6   4 634.511 20.6445   1
  -2   6   4 612.607 18.3376   3
   2   6  -4 593.195 19.3024   6
  -1  -6   4 231.090 10.6159   2
   1  -6  -4 240.759 12.1612   2
  -1  -6   4 230.089 9.66934   4
  -1  -6   4 233.792 9.29900   1
  -1  -6   4 237.733 9.85059   6
   1  -6  -4 245.765 8.92098   6
  -1  -6   4 247.551 9.92854   6
  -1   6   4 243.096 8.04591   3
  -1   6   4 235.213 7.38158   5
   1   6  -4 266.142 10.5832   1
   1   6  -4 236.531 9.71743   6
  -1   6   4 234.342 9.58557   1
  -1   6   4 239.248 8.72818   6
   0  -6   4 21.9304 3.14837   6
   0  -6   4 20.0503 1.66362   3
   0  -6  -4 18.6032 2.22670   6
   0  -6   4 21.6021 3.23949   6
   0  -6  -4 25.4150 4.59483   2
   0  -6   4 20.3574 3.69510   2
   0   6   4 17.1775 1.44478   3
   0   6   4 20.3891 2.63252   5
   0   6   4 17.4877 1.38405   3
   0   6   4 20.3119 2.48035   1
   0   6  -4 16.7962 3.49593   1
   0   6   4 15.0179 2.28032   6
   0   6  -4 14.6019 2.86050   6
   0   6  -4 17.8751 1.73868   5
   0   6   4 18.4086 2.59206   1
   1  -6   4 61.4082 5.76582   6
  -1  -6  -4 66.0001 3.61899   6
   1  -6   4 62.2399 3.70652   3
   1  -6   4 63.8414 5.18563   2
  -1  -6  -4 58.0510 6.11866   2
   1  -6   4 58.9358 4.45138   6
   1   6   4 60.8181 4.19211   1
  -1   6  -4 65.8802 4.95188   6
  -1   6  -4 71.9693 7.09043   1
   1   6   4 59.8929 3.75980   6
  -1   6  -4 62.1891 3.53942   3
   1   6   4 54.1766 3.82197   4
  -2  -6  -4 218.762 8.09292   6
   2  -6   4 223.131 8.96883   3
   2  -6   4 225.235 10.6092   6
   2  -6   4 208.299 9.90796   2
  -2  -6  -4 204.986 10.4530   2
   2   6   4 212.082 8.42272   6
  -2   6  -4 202.620 11.3601   1
   2   6   4 211.729 7.59178   4
  -2   6  -4 214.265 9.68630   6
  -2   6  -4 231.664 8.55388   3
   2   6   4 218.446 7.03357   3
  -3  -6  -4 237.639 7.83091   1
   3  -6   4 230.779 10.4076   3
   3  -6   4 219.667 10.7221   2
  -3  -6  -4 250.352 11.4268   2
   3  -6   4 299.526 16.3582   6
   3   6   4 233.968 9.85286   6
  -3   6  -4 258.861 13.7965   1
   3   6   4 244.416 8.70060   3
   4  -6   4 76.0429 6.27304   3
  -4  -6  -4 97.4715 6.93774   2
   4   6   4 77.8023 5.98737   6
  -4   6  -4 101.390 10.5508   1
  -3  -7   4 105.566 6.42642   1
   3   7  -4 107.727 6.80655   6
  -3   7   4 101.664 8.14767   1
  -2  -7   4 51.8748 7.77575   6
  -2  -7   4 36.7035 5.09969   2
  -2  -7   4 39.1614 4.29406   1
   2  -7  -4 37.6000 6.04347   2
  -2   7   4 42.8696 3.32577   3
  -2   7   4 49.5404 5.74492   1
  -2   7   4 37.6412 4.07175   6
   2   7  -4 45.2645 5.08288   1
   2   7  -4 47.0566 4.99289   6
  -1  -7   4 90.3394 6.74873   2
   1  -7  -4 87.0685 5.13332   6
  -1  -7   4 101.727 6.15863   6
   1  -7  -4 93.7332 8.10026   2
   1   7  -4 85.5625 5.85325   6
   1   7  -4 106.800 6.83282   1
  -1   7   4 89.4561 6.11599   1
  -1   7   4 83.2876 5.04941   6
  -1   7   4 87.3139 3.97523   3
   0  -7   4 245.860 11.2711   2
   0  -7  -4 217.080 11.9717   2
   0  -7  -4 249.823 8.68197   6
   0  -7   4 243.704 10.3136   6
   0   7  -4 241.560 11.2704   1
   0   7   4 229.024 9.40124   1
   0   7   4 239.819 8.95637   1
   0   7   4 238.031 8.62383   5
   0   7  -4 238.284 6.86371   5
   0   7  -4 248.172 10.4228   6
  -1  -7  -4 40.5618 3.17807   6
   1  -7   4 43.4569 3.03912   3
   1  -7   4 44.9366 5.15515   6
   1  -7   4 45.4026 5.35585   2
  -1  -7  -4 41.9515 5.66661   2
  -1   7  -4 47.9357 5.27833   6
  -1   7  -4 52.5393 6.50692   1
  -1   7  -4 47.6294 3.00434   3
   1   7   4 47.2155 5.07437   4
   1   7   4 42.9417 3.52296   6
   2  -7   4 19.9727 2.91997   3
   2  -7   4 29.4546 4.63371   2
  -2  -7  -4 16.3028 3.95291   2
   2   7   4 23.7444 3.00897   6
  -2   7  -4 24.2460 3.00413   3
  -2   7  -4 27.3331 5.17584   1
   3  -7   4 1.41196 2.15786   2
   3  -7   4 0.61454 1.39353   3
  -3  -7  -4 0.53744 2.19162   2
  -3   7  -4 1.34616 3.12397   1
   3   7   4 0.91023 1.43778   6
  -3  -8   4 24.7023 3.66179   1
  -3  -8   4 35.1698 5.76127   2
   3   8  -4 26.1652 3.99246   6
  -3   8   4 32.5209 5.69886   1
   3   8  -4 20.3359 3.70044   1
   2  -8  -4 62.2810 8.11886   2
  -2  -8   4 66.9631 4.93415   1
  -2  -8   4 47.1532 5.88674   2
   2   8  -4 62.1508 5.16773   6
  -2   8   4 61.7982 6.78982   1
   2   8  -4 53.4941 5.85695   1
   1  -8  -4 33.3651 5.90599   2
  -1  -8   4 25.5858 4.36449   2
   1   8  -4 29.8306 4.54388   1
  -1   8   4 27.0744 4.35706   1
   1   8  -4 28.5568 2.79309   5
   1   8  -4 26.2280 3.91530   6
   0  -8   4 43.4030 5.43844   2
   0  -8  -4 43.0347 6.38601   2
   0   8  -4 47.2993 5.72159   1
   0   8   4 51.6544 5.17638   1
   1  -8   4 33.3800 5.01373   2
  -1  -8  -4 37.2053 6.03420   2
   1   8   4 34.2861 3.70581   6
   1   8   4 38.8335 4.25484   1
  -1   8  -4 46.8486 6.47725   1
   2  -8   4 42.3621 5.93434   2
  -2  -8  -4 32.9748 5.58263   2
   2   8   4 32.3148 3.70396   6
  -2   8  -4 41.1016 6.42258   1
  -1  -9   4 12.3350 3.42954   2
   1  -9  -4 10.2097 3.87165   2
   1   9  -4 19.4334 4.26125   1
  -1   9   4 23.9965 4.51027   1
   1   9  -4 18.2688 3.69157   6
   0  -9  -4 -0.8888 2.36472   2
   0  -9   4 1.25169 2.13714   2
   0   9   4 -0.1457 2.11429   1
   0   9  -4 -2.4001 1.94482   1
   1  -9   4 13.4526 3.65264   2
  -1  -9  -4 16.1475 4.58267   2
   1   9   4 17.2018 3.01072   6
   1   9   4 15.8760 3.27142   1
  -1   9  -4 14.4376 4.16942   1
  -5   0   5 30.3180 5.54805   1
  -5   0   5 25.6140 3.86183   4
  -4   0   5 338.017 14.2261   6
  -4   0   5 347.596 13.0949   4
  -4   0   5 353.898 15.2269   1
   4   0  -5 350.289 13.7509   6
   3   0  -5 47.9166 5.21635   1
  -3   0   5 54.0366 5.39540   6
   3   0  -5 49.8358 4.72273   6
  -3   0   5 55.4520 4.28195   3
  -3   0   5 45.2483 5.11091   1
  -3   0   5 40.1660 4.31910   4
  -2   0   5 2278.57 58.1845   6
   2   0  -5 2326.60 58.7439   1
  -2   0   5 2302.32 58.4154   4
  -2   0   5 2282.79 58.7768   1
   2   0  -5 2332.48 57.7139   6
   1   0  -5 52.1279 3.61482   4
   1   0  -5 40.0758 3.04732   5
   1   0  -5 45.0002 2.46708   1
   1   0  -5 40.8622 3.00260   1
  -1   0   5 54.6167 3.65636   4
  -1   0   5 45.3514 2.77987   6
  -1   0   5 42.8664 3.06306   1
   1   0  -5 44.0766 2.49549   6
   0   0   5 60.4555 3.53765   5
   0   0  -5 56.3988 2.49746   6
   0   0  -5 57.6150 3.67393   5
   0   0   5 57.1499 3.27388   4
   0   0   5 57.2797 2.85990   1
   0   0   5 56.0239 2.53247   6
   0   0   5 56.6621 2.55583   1
   0   0   5 52.8087 3.17088   3
   0   0  -5 59.3103 2.64925   1
   0   0  -5 53.7204 2.41515   1
   0   0  -5 61.7388 3.60905   4
   0   0   5 55.4988 2.51232   6
   1   0   5 385.419 11.6780   6
  -1   0  -5 388.521 11.1995   4
   1   0   5 390.200 10.9211   4
   1   0   5 413.501 12.3756   1
  -1   0  -5 390.595 11.8568   3
   1   0   5 418.917 10.6428   2
  -1   0  -5 379.236 10.7049   1
   1   0   5 393.865 11.9482   3
  -1   0  -5 395.559 11.2936   6
  -1   0  -5 393.192 11.9531   1
  -2   0  -5 304.774 8.70010   4
  -2   0  -5 307.659 10.3860   6
   2   0   5 323.561 11.7344   1
   2   0   5 280.418 10.7333   6
  -2   0  -5 299.918 10.3566   3
  -2   0  -5 273.716 10.9711   1
   2   0   5 309.567 10.7204   3
  -3   0  -5 162.214 5.35586   4
   3   0   5 166.554 10.2951   1
  -3   0  -5 163.799 7.91016   6
  -3   0  -5 160.239 8.77266   1
   3   0   5 160.372 7.99891   3
   3   0   5 168.489 8.55128   6
   4   0   5 5.02614 2.73052   6
  -4   0  -5 7.29576 1.22615   4
  -4   0  -5 12.9538 3.92391   1
   4   0   5 5.19253 2.43064   3
   5   0   5 258.647 13.2115   6
   5   0   5 268.622 12.6693   3
  -5   0  -5 263.334 13.4787   1
  -5  -1   5 3.20678 2.01100   4
  -5  -1   5 3.26276 2.76627   1
  -5   1   5 2.24173 2.40676   4
  -5   1   5 2.23524 2.80662   1
   5   1  -5 3.10616 2.67120   6
  -4  -1   5 124.351 8.39626   1
  -4  -1   5 120.452 6.60910   4
   4  -1  -5 123.726 7.54396   6
  -4  -1   5 120.573 8.02130   6
  -4   1   5 113.031 7.11521   4
  -4   1   5 106.783 8.32335   1
  -4   1   5 119.186 7.69622   6
   4   1  -5 122.855 7.52233   6
  -3  -1   5 164.639 7.53012   4
   3  -1  -5 175.768 8.07581   6
   3  -1  -5 162.382 8.30820   1
  -3  -1   5 166.296 7.63124   3
  -3  -1   5 157.531 8.56861   1
  -3  -1   5 178.809 8.63408   6
   3   1  -5 177.286 9.17807   1
  -3   1   5 175.926 8.30607   4
  -3   1   5 176.671 9.23483   1
   3   1  -5 168.049 7.95483   6
  -3   1   5 165.900 8.20426   6
   2  -1  -5 101.604 5.16654   6
   2  -1  -5 101.130 5.16631   5
  -2  -1   5 117.214 5.80905   4
  -2  -1   5 119.257 6.33601   1
   2  -1  -5 116.277 5.80539   1
  -2  -1   5 113.566 5.89537   6
  -2   1   5 111.391 6.17179   1
   2   1  -5 109.683 5.46102   6
  -2   1   5 102.476 5.49036   6
  -2   1   5 117.034 6.08695   4
   2   1  -5 111.549 6.32101   1
   2   1  -5 119.778 5.98165   4
  -1  -1   5 55.8995 3.58851   1
   1  -1  -5 51.4140 2.19996   1
  -1  -1   5 54.1153 3.17784   6
   1  -1  -5 52.1636 2.50190   6
  -1  -1   5 53.2984 3.70974   4
   1  -1  -5 52.4254 3.35971   5
   1  -1  -5 50.7802 1.97913   1
   1   1  -5 50.4795 2.90200   6
  -1   1   5 50.2602 3.71772   4
  -1   1   5 54.8899 3.13485   1
  -1   1   5 55.8317 2.92200   6
   1   1  -5 49.8457 3.30870   5
   1   1  -5 57.0175 3.20133   1
  -1   1   5 53.0523 3.23076   5
   1   1  -5 55.6321 3.62536   1
   1   1  -5 56.7317 3.88124   4
   0  -1   5 367.794 10.9868   4
   0  -1  -5 351.814 11.3940   5
   0  -1   5 369.281 10.3720   6
   0  -1   5 367.127 10.7643   1
   0  -1   5 357.549 10.7198   3
   0  -1   5 358.367 10.4558   6
   0  -1   5 369.956 10.4245   1
   0  -1   5 361.944 10.7555   5
   0   1   5 376.713 11.3835   5
   0   1   5 370.794 11.0977   4
   0   1   5 359.954 9.11999   6
   0   1  -5 350.078 11.0472   4
   0   1  -5 366.636 11.0957   5
   0   1   5 353.518 10.6443   3
   0   1  -5 355.774 10.3842   6
   0   1  -5 362.621 10.4129   1
   0   1  -5 367.308 10.9023   1
   0   1   5 361.657 11.5979   2
  -1  -1  -5 916.742 23.1531   6
   1  -1   5 927.096 24.4315   3
   1  -1   5 894.581 23.5444   4
  -1  -1  -5 875.275 23.7530   2
   1  -1   5 906.609 24.9646   1
  -1  -1  -5 930.664 22.6647   1
  -1  -1  -5 928.721 23.2215   4
  -1  -1  -5 938.895 24.1318   3
   1  -1   5 874.383 24.2929   6
   1  -1   5 930.616 24.6445   5
  -1  -1  -5 920.603 22.2295   1
   1   1   5 890.521 24.0456   3
  -1   1  -5 917.336 23.5414   1
   1   1   5 895.930 22.9865   4
  -1   1  -5 940.737 24.2965   3
   1   1   5 918.737 23.3347   2
   1   1   5 933.387 24.1143   1
   1   1   5 872.750 23.6318   6
  -1   1  -5 903.387 23.7907   4
  -1   1  -5 921.129 25.1722   1
  -1   1  -5 905.686 23.9325   6
  -2  -1  -5 1508.55 37.1936   2
  -2  -1  -5 1506.30 39.1611   1
   2  -1   5 1490.55 40.1318   6
   2  -1   5 1481.96 39.5532   3
  -2  -1  -5 1527.10 36.2535   4
  -2  -1  -5 1514.17 38.9481   6
  -2  -1  -5 1511.10 38.9824   3
   2  -1   5 1520.65 40.7931   1
  -2   1  -5 1419.04 40.6274   1
  -2   1  -5 1540.42 37.8456   4
   2   1   5 1443.41 39.4398   6
  -2   1  -5 1541.20 39.4411   6
   2   1   5 1563.45 40.5184   1
  -2   1  -5 1543.58 39.3526   3
   2   1   5 1469.52 39.1953   3
  -3  -1  -5 9.07550 2.80011   1
  -3  -1  -5 8.36286 2.28769   6
   3  -1   5 12.6494 2.81400   3
  -3  -1  -5 9.03301 2.12028   3
   3  -1   5 9.48554 2.76213   6
  -3  -1  -5 11.0545 1.39405   2
   3   1   5 18.3113 3.35072   3
   3   1   5 11.6627 3.18263   1
  -3   1  -5 9.68639 3.31759   1
   3   1   5 11.8618 2.80251   6
  -3   1  -5 11.8542 1.71409   4
  -3   1  -5 5.39920 2.00974   6
  -4  -1  -5 55.8035 6.07713   1
  -4  -1  -5 60.9524 2.64388   2
   4  -1   5 64.8918 5.66641   3
   4  -1   5 55.9590 6.60534   6
   4   1   5 59.9770 6.34197   6
  -4   1  -5 61.8544 3.41867   4
   4   1   5 59.6843 5.96516   3
  -4   1  -5 58.4930 7.04889   1
  -5  -1  -5 2.07860 2.76572   1
   5  -1   5 2.34612 2.39359   3
   5  -1   5 2.40196 2.89359   6
   5   1   5 3.09266 2.13249   3
   5   1   5 5.51050 3.02854   6
  -5   1  -5 1.85340 3.69016   1
  -5  -2   5 5.84758 3.33210   1
  -5  -2   5 8.60862 2.41633   4
  -5   2   5 18.6879 4.73316   1
   5   2  -5 11.7699 3.19540   6
  -5   2   5 14.2801 3.61605   4
  -4  -2   5 188.506 10.1954   1
   4  -2  -5 181.444 9.37618   6
  -4  -2   5 181.879 8.05982   4
  -4  -2   5 194.995 10.2536   6
  -4   2   5 180.535 10.8129   1
  -4   2   5 188.351 9.46998   4
  -4   2   5 182.829 9.64028   6
   4   2  -5 177.768 9.23555   6
  -3  -2   5 72.7057 5.83946   1
  -3  -2   5 84.7780 5.92229   6
   3  -2  -5 80.2969 5.53198   1
  -3  -2   5 79.3753 4.82729   4
  -3  -2   5 82.8196 5.09236   3
  -3   2   5 71.9484 6.06719   1
   3   2  -5 84.1863 5.21771   4
  -3   2   5 77.4276 5.39610   6
   3   2  -5 71.0135 6.02261   1
   3   2  -5 73.6335 5.24691   6
  -3   2   5 81.1470 5.36432   3
  -2  -2   5 204.470 8.56623   6
  -2  -2   5 205.104 8.05965   4
   2  -2  -5 218.520 7.96293   6
  -2  -2   5 204.364 8.70637   1
   2  -2  -5 213.362 7.81127   5
   2  -2  -5 209.068 7.57757   1
  -2   2   5 219.094 8.24410   6
   2   2  -5 206.480 9.15345   1
  -2   2   5 196.605 8.60489   1
   2   2  -5 216.751 8.25612   6
   2   2  -5 207.996 8.39281   4
  -2   2   5 204.673 9.61523   2
  -1  -2   5 419.889 12.5627   6
   1  -2  -5 383.494 12.2400   5
  -1  -2   5 406.302 12.6706   4
   1  -2  -5 415.899 11.0190   6
  -1  -2   5 435.632 12.8212   1
  -1   2   5 418.045 14.2104   2
  -1   2   5 400.595 12.0413   5
  -1   2   5 405.471 11.4769   1
  -1   2   5 416.330 11.5159   6
   1   2  -5 408.608 13.0213   1
   1   2  -5 413.724 12.5495   1
   1   2  -5 410.893 12.2422   6
   1   2  -5 386.552 12.2012   5
   1   2  -5 424.838 13.0611   4
   0  -2   5 757.853 19.7787   5
   0  -2   5 779.852 20.2127   1
   0  -2   5 744.821 20.4963   1
   0  -2   5 723.229 20.0195   6
   0  -2   5 736.267 20.2656   6
   0  -2   5 738.626 19.8929   3
   0  -2  -5 716.754 21.5753   2
   0   2   5 766.041 20.7221   5
   0   2  -5 755.899 20.0849   5
   0   2  -5 745.776 20.6515   4
   0   2  -5 788.428 20.2938   1
   0   2  -5 744.545 20.1891   6
   0   2   5 749.847 21.1802   2
   0   2  -5 745.081 20.2230   6
   0   2  -5 739.120 20.7613   1
  -1  -2  -5 326.613 9.46286   6
   1  -2   5 343.929 10.8538   3
   1  -2   5 334.421 10.6185   4
   1  -2   5 360.811 10.7054   5
   1  -2   5 336.616 11.3031   6
  -1  -2  -5 321.557 11.0373   2
   1  -2   5 337.520 11.6453   1
  -1  -2  -5 332.637 10.4091   3
  -1   2  -5 322.484 11.9058   1
  -1   2  -5 350.089 10.5886   1
  -1   2  -5 365.294 10.9298   4
   1   2   5 321.823 9.97557   6
   1   2   5 353.574 10.1838   1
   1   2   5 330.066 10.3673   3
   1   2   5 352.951 10.6440   2
  -1   2  -5 373.195 10.9118   3
  -1   2  -5 341.472 10.9038   6
   1   2   5 336.762 9.87911   4
   2  -2   5 499.250 16.8129   1
  -2  -2  -5 486.696 14.8991   6
   2  -2   5 502.212 15.8114   3
   2  -2   5 499.054 16.4668   6
  -2  -2  -5 499.622 14.9547   3
  -2  -2  -5 499.476 14.5231   2
  -2  -2  -5 492.042 14.2659   1
   2   2   5 481.976 16.0199   1
  -2   2  -5 503.697 17.3500   1
  -2   2  -5 516.194 15.7788   6
   2   2   5 506.479 15.2586   3
  -2   2  -5 500.193 14.6256   4
  -2   2  -5 518.800 15.5283   3
   2   2   5 480.776 15.3654   6
  -3  -2  -5 271.347 8.83922   2
   3  -2   5 260.880 10.9473   3
  -3  -2  -5 260.149 10.2625   1
  -3  -2  -5 249.497 9.88618   3
   3  -2   5 266.635 11.7797   6
  -3   2  -5 267.573 12.6193   1
   3   2   5 246.357 10.7492   6
   3   2   5 261.599 11.9268   1
  -3   2  -5 264.350 9.03442   4
   3   2   5 278.221 10.6856   3
  -3   2  -5 270.771 10.9577   6
  -4  -2  -5 30.7037 2.65755   2
  -4  -2  -5 28.4411 4.37928   1
   4  -2   5 34.8014 5.18595   6
   4  -2   5 30.0880 4.45775   3
   4   2   5 26.6066 4.12088   3
  -4   2  -5 26.2251 5.69779   1
  -4   2  -5 32.1230 3.08546   4
   4   2   5 23.6645 4.13243   6
   5  -2   5 86.0373 8.66019   6
   5  -2   5 69.3477 7.11518   3
  -5  -2  -5 86.1570 6.87110   1
   5   2   5 73.0015 6.22450   3
   5   2   5 69.5404 7.26349   6
  -5   2  -5 77.3998 8.80921   1
  -5  -3   5 3.70804 2.70926   1
  -5  -3   5 8.42250 3.34422   4
   5   3  -5 8.17077 2.77574   6
  -5   3   5 3.56143 3.31056   1
  -5   3   5 4.10191 2.78183   4
  -4  -3   5 32.1043 5.05743   6
   4  -3  -5 41.1878 5.12147   6
  -4  -3   5 27.4676 4.45934   1
  -4  -3   5 37.7176 3.90904   4
   4  -3  -5 29.0996 4.28913   1
   4  -3  -5 33.3321 4.01312   5
  -4   3   5 37.8709 5.92978   1
  -4   3   5 27.6982 4.14502   6
   4   3  -5 36.8867 4.90904   6
   3  -3  -5 116.832 6.36598   1
  -3  -3   5 122.788 7.27882   1
  -3  -3   5 118.801 5.95416   4
  -3  -3   5 121.100 7.38445   6
   3  -3  -5 118.247 5.81980   5
  -3  -3   5 115.527 6.00244   3
   3  -3  -5 118.898 6.59822   6
  -3   3   5 122.953 6.78922   6
  -3   3   5 126.710 7.78088   2
  -3   3   5 117.514 7.73868   1
   3   3  -5 118.375 6.67916   6
   3   3  -5 119.038 6.43612   4
   2  -3  -5 40.3105 2.92005   1
  -2  -3   5 40.1888 4.07442   1
   2  -3  -5 45.6818 3.50140   6
   2  -3  -5 50.8579 3.46954   5
  -2  -3   5 52.5193 4.29004   6
  -2  -3   5 47.8483 3.61122   4
   2   3  -5 44.0220 4.23036   4
  -2   3   5 45.3145 3.55052   6
   2   3  -5 46.2898 3.81279   6
  -2   3   5 47.3406 4.61567   1
  -2   3   5 52.8145 5.53491   2
   2   3  -5 55.3071 5.53048   1
  -1  -3   5 318.974 10.8897   1
  -1  -3   5 346.663 11.0860   6
  -1  -3   5 333.227 10.8997   4
  -1  -3   5 336.973 11.0763   6
   1  -3  -5 333.443 9.40130   6
   1  -3  -5 319.718 8.89689   6
   1  -3  -5 324.961 10.5742   5
   1   3  -5 318.186 11.3286   1
   1   3  -5 336.747 11.1390   1
   1   3  -5 332.476 10.5412   5
  -1   3   5 322.946 9.65061   6
   1   3  -5 346.491 10.8619   6
  -1   3   5 331.256 12.2631   2
   1   3  -5 341.710 11.3007   4
  -1   3   5 325.124 10.1533   5
  -1   3   5 321.902 9.76462   1
   0  -3   5 346.793 11.0181   1
   0  -3  -5 326.118 12.5067   2
   0  -3   5 345.194 10.9959   6
   0  -3   5 336.810 11.1439   4
   0  -3   5 346.020 11.3016   6
   0  -3   5 348.890 11.4326   1
   0  -3   5 329.445 10.2629   3
   0   3  -5 359.994 11.9499   1
   0   3   5 346.189 11.9288   2
   0   3  -5 364.800 10.4666   5
   0   3  -5 352.166 11.2451   6
   0   3   5 329.892 8.96902   6
   0   3  -5 344.175 11.1271   1
   0   3   5 345.084 9.07379   6
   0   3  -5 348.490 11.2526   6
   0   3   5 354.543 11.2936   5
   0   3   5 357.958 10.3367   3
   0   3  -5 368.404 11.5300   4
   1  -3   5 9.68061 1.53632   5
   1  -3   5 9.77802 2.18111   6
  -1  -3  -5 7.15609 2.20418   2
   1  -3   5 8.21519 1.69676   2
  -1  -3  -5 5.06151 1.07112   6
  -1  -3  -5 6.22145 1.47037   3
   1  -3   5 7.82932 1.96771   6
   1  -3   5 7.58972 1.87095   4
   1  -3   5 2.88442 1.35526   3
   1  -3   5 11.7501 2.51949   1
   1   3   5 5.17607 1.27869   3
   1   3   5 5.98792 1.64610   2
   1   3   5 9.14977 1.45767   6
  -1   3  -5 8.91963 2.71879   1
  -1   3  -5 9.80164 1.91891   1
  -1   3  -5 8.23242 2.03581   6
  -1   3  -5 3.91988 1.56462   4
  -1   3  -5 5.49603 1.42738   3
   1   3   5 6.26864 1.41445   1
   2  -3   5 184.540 8.80755   6
  -2  -3  -5 184.104 7.38364   6
   2  -3   5 204.299 7.04395   2
  -2  -3  -5 202.075 6.23158   1
  -2  -3  -5 198.642 7.36490   3
  -2  -3  -5 198.436 7.99074   2
   2  -3   5 194.947 8.30666   3
   2  -3   5 191.875 8.99846   1
  -2   3  -5 192.783 9.78561   1
   2   3   5 185.480 8.28722   1
  -2   3  -5 192.511 8.23129   6
  -2   3  -5 196.293 7.93540   3
   2   3   5 196.994 7.56602   3
   2   3   5 180.571 4.97499   4
   2   3   5 193.348 5.14940   4
  -2   3  -5 199.417 7.68310   4
   2   3   5 194.704 7.82566   6
   3  -3   5 3.77055 2.53835   6
  -3  -3  -5 6.34443 2.00803   2
  -3  -3  -5 8.31106 2.09793   1
   3  -3   5 7.05468 2.44914   3
  -3  -3  -5 2.96915 1.70572   3
  -3   3  -5 6.69017 2.37732   6
   3   3   5 5.36516 2.00978   3
  -3   3  -5 7.96164 3.52993   1
  -3   3  -5 7.53281 1.94648   4
   3   3   5 8.47103 2.47660   6
  -4  -3  -5 4.40689 1.79971   2
  -4  -3  -5 2.75976 2.18241   1
   4  -3   5 2.99486 2.42373   3
   4  -3   5 2.83043 2.44257   6
   4   3   5 4.98021 2.39141   6
  -4   3  -5 3.65584 3.51226   1
   4   3   5 8.58972 2.58781   3
  -5  -3  -5 27.7693 4.21332   1
   5  -3   5 28.5723 4.76958   3
   5   3   5 34.0738 5.01715   6
   5   3   5 31.3869 4.64955   3
  -5   3  -5 26.4153 5.97710   1
  -5  -4   5 1.64331 2.33414   1
   5  -4  -5 2.57493 1.72343   5
  -5   4   5 2.35680 3.08224   1
   5   4  -5 0.50889 1.92387   6
  -4  -4   5 171.438 7.21957   4
   4  -4  -5 163.843 7.41981   5
  -4  -4   5 155.425 8.91053   1
   4  -4  -5 149.495 8.14784   1
  -4   4   5 163.018 10.5305   1
   4   4  -5 154.145 7.71864   4
   4   4  -5 154.645 8.58446   6
  -3  -4   5 4.58151 2.28300   6
  -3  -4   5 3.49823 2.08403   1
   3  -4  -5 -0.2342 1.70074   1
  -3  -4   5 2.30965 1.64531   4
   3  -4  -5 2.08031 1.47978   5
   3  -4  -5 1.91055 1.71558   6
  -3  -4   5 2.04997 1.40388   3
   3   4  -5 0.01353 1.53056   4
   3   4  -5 3.29062 1.90503   6
  -3   4   5 -0.7116 1.53216   6
  -3   4   5 -1.9168 1.89347   1
   2  -4  -5 49.2236 3.47768   5
   2  -4  -5 59.1757 4.04093   6
  -2  -4   5 58.4716 4.42942   1
  -2  -4   5 57.8951 4.67390   6
   2  -4  -5 51.1411 2.86795   1
  -2  -4   5 53.3486 3.91860   4
   2   4  -5 52.9395 4.22170   4
  -2   4   5 50.8856 5.36268   2
   2   4  -5 54.7557 4.18497   6
  -2   4   5 49.9627 4.86771   1
  -2   4   5 57.4750 3.93375   6
   2   4  -5 59.6336 5.11129   1
  -2   4   5 56.4573 4.03538   3
  -1  -4   5 1.82015 1.29131   6
  -1  -4   5 2.02656 1.39812   4
   1  -4  -5 1.40211 0.68445   6
  -1  -4   5 0.86676 1.35185   1
  -1  -4   5 1.62157 0.93201   3
   1  -4  -5 1.19110 1.97983   2
   1  -4  -5 0.21094 0.94977   6
  -1  -4   5 0.06130 1.24820   6
   1  -4  -5 0.79765 1.32485   5
   1   4  -5 0.38786 1.47164   4
  -1   4   5 0.30486 1.79789   2
   1   4  -5 0.80728 1.24516   1
  -1   4   5 -0.7438 1.16070   1
   1   4  -5 1.88615 1.54151   1
  -1   4   5 2.43138 1.02222   6
   1   4  -5 -0.2212 0.99496   5
   1   4  -5 1.78944 1.33384   6
  -1   4   5 1.14102 1.05486   5
   0  -4  -5 19.2263 1.30510   6
   0  -4   5 18.5648 2.01582   3
   0  -4  -5 22.7768 1.39879   6
   0  -4   5 18.2004 2.75434   6
   0  -4   5 18.6126 2.81304   6
   0  -4  -5 18.9007 3.63867   2
   0  -4   5 21.7995 3.01671   1
   0  -4   5 19.2015 2.83136   4
   0   4  -5 21.5646 2.84638   1
   0   4   5 21.1820 1.73930   6
   0   4  -5 25.5931 3.17369   6
   0   4   5 18.0339 2.94133   2
   0   4   5 19.0499 2.59630   5
   0   4  -5 28.2279 3.37544   4
   0   4  -5 27.9713 3.75746   1
   0   4  -5 18.3736 2.59411   6
   0   4  -5 25.0287 2.33606   5
   0   4   5 21.6403 1.69178   6
   0   4   5 21.6997 2.12620   3
  -1  -4  -5 22.1645 2.05045   6
   1  -4   5 26.3817 2.79564   3
   1  -4   5 24.2669 3.07084   2
  -1  -4  -5 24.8940 3.78152   2
   1  -4   5 26.3390 3.47258   6
   1  -4   5 22.1801 1.76800   5
   1  -4   5 24.2828 3.14966   6
   1  -4   5 26.0803 3.46678   1
  -1  -4  -5 21.1184 1.72267   6
  -1   4  -5 21.6620 2.50299   3
   1   4   5 25.1682 3.24306   2
   1   4   5 21.3270 2.13380   3
  -1   4  -5 21.2341 2.90665   4
  -1   4  -5 24.1883 3.19733   6
   1   4   5 23.3827 2.21008   6
  -1   4  -5 25.9899 3.94539   1
   1   4   5 22.3185 2.36254   1
  -1   4  -5 25.7372 3.07583   1
   2  -4   5 92.4052 5.10493   2
  -2  -4  -5 102.295 4.79972   3
   2  -4   5 109.769 4.60727   5
   2  -4   5 90.1828 6.27509   6
   2  -4   5 99.0742 5.66531   3
  -2  -4  -5 97.7886 3.33064   1
  -2  -4  -5 94.0924 5.95554   2
   2   4   5 96.0152 3.47428   4
  -2   4  -5 93.8995 5.71814   6
   2   4   5 90.5132 5.02685   6
  -2   4  -5 92.8258 7.17596   1
   2   4   5 102.664 4.95582   3
  -2   4  -5 99.1057 5.44690   4
   2   4   5 98.7674 5.79681   1
  -2   4  -5 112.458 5.53914   3
   3  -4   5 242.466 11.5539   6
  -3  -4  -5 223.400 7.97976   1
  -3  -4  -5 241.743 9.73157   2
   3  -4   5 222.334 10.1236   3
  -3  -4  -5 228.449 8.84729   3
  -3   4  -5 217.008 9.99031   6
   3   4   5 235.203 9.31203   3
  -3   4  -5 251.154 12.7319   1
   3   4   5 222.870 9.75283   6
  -4  -4  -5 129.210 6.76087   2
   4  -4   5 120.817 8.93591   6
  -4  -4  -5 118.174 6.21961   1
   4  -4   5 114.077 7.64433   3
   4   4   5 135.944 7.35192   3
   4   4   5 128.761 7.72270   6
  -4   4  -5 126.860 10.1249   1
   4  -5  -5 -0.4246 1.40469   5
  -4  -5   5 4.64645 2.45925   1
  -4  -5   5 0.58060 1.33115   4
   4   5  -5 2.59098 1.97433   6
  -4   5   5 1.65250 2.78667   1
  -3  -5   5 63.8161 5.34936   1
  -3  -5   5 63.8860 4.06341   3
  -3  -5   5 56.0673 6.12365   6
   3  -5  -5 58.4694 3.94373   5
  -3  -5   5 59.0031 4.15068   4
   3  -5  -5 57.4348 4.05528   1
   3  -5  -5 60.7935 5.10265   6
  -3   5   5 53.8895 6.35083   1
  -3   5   5 66.8220 4.97203   6
   3   5  -5 55.4373 4.74799   4
   3   5  -5 61.3921 5.02265   6
  -2  -5   5 23.0966 3.51837   6
  -2  -5   5 28.0734 3.33968   4
   2  -5  -5 29.4755 2.98471   5
   2  -5  -5 34.2471 3.66149   6
  -2  -5   5 26.0675 2.56865   3
  -2  -5   5 25.2647 3.39779   1
  -2  -5   5 28.4485 3.84180   6
  -2   5   5 30.1875 4.04413   1
   2   5  -5 28.6717 3.84587   1
   2   5  -5 30.0233 3.67266   6
  -2   5   5 30.2158 3.29385   6
   2   5  -5 27.6486 3.62727   4
  -2   5   5 28.7517 3.24792   3
   1  -5  -5 357.212 10.7174   6
  -1  -5   5 348.238 9.94335   3
  -1  -5   5 328.510 12.0768   6
   1  -5  -5 344.425 9.88657   6
  -1  -5   5 349.676 12.1467   4
  -1  -5   5 351.901 12.0371   1
   1  -5  -5 327.060 14.4530   2
  -1  -5   5 346.715 12.3165   6
  -1   5   5 345.615 10.6911   6
  -1   5   5 336.023 14.4395   2
   1   5  -5 353.386 12.6600   1
   1   5  -5 339.890 11.0034   5
   1   5  -5 359.312 12.2231   6
   1   5  -5 342.778 13.6905   1
  -1   5   5 341.590 10.5169   5
   1   5  -5 363.206 12.5425   4
  -1   5   5 350.647 11.4362   1
   0  -5   5 141.304 7.11291   2
   0  -5   5 137.469 5.18459   3
   0  -5   5 137.293 6.82464   6
   0  -5   5 127.930 6.61472   4
   0  -5   5 141.219 6.58273   6
   0  -5  -5 136.897 4.78991   6
   0  -5  -5 131.350 4.67374   6
   0  -5  -5 132.312 8.17767   2
   0   5  -5 130.133 6.68899   6
   0   5   5 134.228 6.17704   5
   0   5   5 133.212 5.14938   6
   0   5  -5 122.601 7.14400   1
   0   5  -5 148.151 6.99125   4
   0   5   5 143.899 7.39173   2
   0   5  -5 139.570 6.76447   6
   0   5  -5 145.223 6.78972   1
   0   5   5 145.034 5.41710   1
   0   5   5 138.858 5.08135   1
   0   5   5 136.217 5.29447   6
   0   5   5 143.306 5.07646   3
   0   5  -5 137.160 5.11917   5
   1  -5   5 148.048 7.12561   2
   1  -5   5 150.058 7.36597   1
  -1  -5  -5 133.535 7.91725   2
   1  -5   5 140.354 6.12779   3
  -1  -5  -5 140.598 5.05811   6
   1  -5   5 156.097 7.72510   6
   1   5   5 136.882 5.11540   3
  -1   5  -5 153.591 8.49187   1
   1   5   5 147.201 5.97854   1
  -1   5  -5 131.956 6.87805   6
   1   5   5 144.705 5.58006   6
  -1   5  -5 154.857 6.06323   3
   2  -5   5 276.575 10.7298   2
   2  -5   5 281.532 10.6880   3
  -2  -5  -5 276.642 11.7548   2
   2  -5   5 271.227 10.8693   6
  -2  -5  -5 280.702 9.13853   3
  -2  -5  -5 287.420 9.27945   6
   2  -5   5 286.425 8.11188   5
   2  -5   5 296.819 12.2283   6
  -2   5  -5 278.643 10.1429   3
   2   5   5 269.642 10.8545   1
  -2   5  -5 265.833 10.9394   6
   2   5   5 282.294 9.92120   6
   2   5   5 272.563 9.23800   3
  -2   5  -5 299.401 13.4698   1
   2   5   5 269.928 8.41283   4
   3  -5   5 12.4830 2.51767   5
   3  -5   5 14.7775 3.06998   3
  -3  -5  -5 13.3646 2.37513   3
  -3  -5  -5 8.50368 2.75507   2
   3  -5   5 18.7790 3.08733   2
   3  -5   5 15.1702 3.77108   6
  -3  -5  -5 13.3282 1.79754   1
  -3   5  -5 9.88423 4.00056   1
   3   5   5 13.7542 2.70308   6
  -3   5  -5 16.3059 3.46873   6
   3   5   5 16.8831 2.69739   3
  -4  -5  -5 110.534 6.91904   2
   4  -5   5 107.303 7.39709   3
  -4  -5  -5 117.594 7.08957   1
   4   5   5 122.617 6.79230   3
  -4   5  -5 119.044 11.2187   1
   4   5   5 100.947 6.94775   6
  -4  -6   5 87.1584 4.99368   4
  -4  -6   5 68.0025 5.90779   1
  -4   6   5 55.0221 7.21932   1
   4   6  -5 75.1151 5.94654   6
  -3  -6   5 15.4455 3.05105   1
   3  -6  -5 15.8729 2.28048   5
  -3  -6   5 19.4942 3.50371   6
  -3  -6   5 20.4773 3.03643   4
  -3   6   5 11.2371 3.39405   1
   3   6  -5 17.5772 3.26239   6
   2  -6  -5 360.371 12.4504   6
  -2  -6   5 369.466 10.4620   3
  -2  -6   5 356.513 12.9171   1
  -2  -6   5 360.129 12.6933   4
   2  -6  -5 340.542 15.9467   2
  -2  -6   5 348.409 13.2178   6
  -2  -6   5 364.749 10.2647   3
  -2   6   5 348.025 12.1001   3
  -2   6   5 350.320 12.0981   6
   2   6  -5 368.211 13.1796   6
  -2   6   5 344.878 13.6472   1
   2   6  -5 362.318 13.7709   1
  -1  -6   5 9.50318 1.22462   3
   1  -6  -5 6.11477 1.62541   6
  -1  -6   5 5.13159 2.06615   6
  -1  -6   5 8.28004 2.29096   1
  -1  -6   5 6.79529 2.13731   4
  -1  -6   5 3.56793 1.98224   6
   1  -6  -5 3.30500 2.84110   2
  -1   6   5 6.26627 1.47104   5
  -1   6   5 6.92251 2.22373   1
  -1   6   5 4.37777 1.64008   6
   1   6  -5 7.50262 2.26841   6
  -1   6   5 8.65889 1.73605   3
   1   6  -5 5.37777 1.58221   5
   1   6  -5 5.93545 2.23922   1
   0  -6   5 58.4954 4.39385   6
   0  -6  -5 55.6795 3.08800   6
   0  -6  -5 45.4945 6.11723   2
   0  -6   5 56.1109 4.60427   6
   0  -6   5 54.8072 5.63183   2
   0  -6   5 57.5236 2.98563   3
   0   6   5 52.7416 3.36999   1
   0   6   5 48.6042 2.64252   3
   0   6  -5 61.6176 6.31752   1
   0   6   5 47.8316 3.51734   1
   0   6  -5 53.1481 2.87424   5
   0   6  -5 52.8819 5.23853   6
   0   6   5 45.5809 3.73207   5
  -1  -6  -5 88.0289 4.02207   6
   1  -6   5 94.7790 6.39237   6
   1  -6   5 88.6496 4.66709   3
   1  -6   5 89.5739 5.97030   2
  -1  -6  -5 86.7714 6.99658   2
   1  -6   5 84.2254 5.39084   6
   1   6   5 87.6679 4.40657   6
   1   6   5 87.8329 4.88084   1
  -1   6  -5 101.718 7.31647   1
  -1   6  -5 95.3284 5.94503   6
  -1   6  -5 90.9986 4.51641   3
   1   6   5 89.1344 4.85021   4
   1   6   5 88.7818 3.50608   3
  -2  -6  -5 14.6406 3.69862   2
   2  -6   5 14.1606 2.73288   3
   2  -6   5 15.1786 3.17286   2
   2  -6   5 17.8361 3.54716   6
  -2  -6  -5 10.6849 1.88087   6
  -2   6  -5 15.5179 4.19322   1
  -2   6  -5 14.4846 3.02268   6
  -2   6  -5 14.7234 2.53008   3
   2   6   5 14.0585 2.32303   6
   2   6   5 16.0617 1.99676   3
   2   6   5 14.5027 1.93753   4
  -3  -6  -5 110.661 7.45452   2
   3  -6   5 102.423 6.77340   2
   3  -6   5 106.904 11.6077   6
   3  -6   5 112.805 6.83276   3
   3   6   5 107.571 6.28965   6
  -3   6  -5 116.137 9.35651   1
   3   6   5 105.287 5.36394   3
  -4  -6  -5 4.27240 2.40131   2
   4  -6   5 4.84350 2.54145   3
  -4   6  -5 3.87675 3.59048   1
   4   6   5 1.72248 1.88584   6
  -3  -7   5 31.3367 4.07086   1
  -3  -7   5 36.6274 4.20047   4
  -3   7   5 44.5572 6.08967   1
   3   7  -5 35.2190 4.78527   1
   3   7  -5 43.1232 4.96421   6
  -2  -7   5 48.6205 4.99270   1
  -2  -7   5 50.7085 5.00975   4
   2  -7  -5 49.1744 6.89127   2
  -2   7   5 51.7781 5.82191   1
  -2   7   5 43.2416 3.54885   3
  -2   7   5 55.7056 4.28406   6
   2   7  -5 53.8986 5.30192   6
   2   7  -5 52.9075 5.65648   1
   1  -7  -5 333.558 10.9298   6
   1  -7  -5 316.366 15.2170   2
  -1  -7   5 307.249 13.3041   2
  -1  -7   5 322.101 12.4854   6
  -1   7   5 334.259 11.1044   6
  -1   7   5 314.145 9.88831   3
   1   7  -5 318.646 10.3946   5
   1   7  -5 316.811 12.4403   6
  -1   7   5 299.923 11.9013   1
  -1   7   5 315.066 9.52822   5
   1   7  -5 311.643 13.0344   1
   0  -7   5 63.1237 2.83332   3
   0  -7   5 48.6925 5.08275   6
   0  -7  -5 45.8411 6.15644   2
   0  -7   5 62.4198 5.56499   2
   0  -7  -5 56.1246 3.47617   6
   0   7  -5 48.4841 5.13391   6
   0   7   5 59.6658 2.44772   3
   0   7  -5 62.4631 2.85897   5
   0   7  -5 68.5486 6.89094   1
   0   7   5 54.0333 3.85607   1
   0   7   5 60.8061 2.37688   3
   0   7   5 61.3140 4.48995   1
   0   7   5 61.4326 4.17179   5
   1  -7   5 6.75938 1.59725   3
   1  -7   5 11.1695 2.92278   2
  -1  -7  -5 6.64263 1.56324   6
  -1  -7  -5 3.26457 2.98490   2
   1  -7   5 13.1796 3.20601   6
  -1   7  -5 11.8535 2.80931   6
   1   7   5 4.28411 2.10673   4
  -1   7  -5 8.62372 1.74944   3
  -1   7  -5 11.2798 3.69217   1
   1   7   5 11.3870 2.12056   6
   2  -7   5 52.6680 5.78819   2
   2  -7   5 53.0563 4.19316   3
  -2  -7  -5 48.3929 6.09732   2
   2   7   5 59.7051 4.19830   6
  -2   7  -5 54.8298 7.19821   1
  -2   7  -5 53.4728 4.01941   3
   3  -7   5 8.27235 2.55805   3
   3  -7   5 7.94339 2.86741   2
  -3  -7  -5 2.28139 2.55831   2
  -3   7  -5 7.49490 3.82146   1
   3   7   5 9.93527 2.51293   6
  -3  -8   5 3.39458 2.73101   2
  -3  -8   5 2.05551 1.99098   1
   3   8  -5 6.30929 2.56058   6
   3   8  -5 5.25852 2.27268   1
  -3   8   5 5.29053 3.38174   1
  -2  -8   5 11.9831 2.72258   1
   2  -8  -5 7.69266 3.80956   2
  -2  -8   5 7.00543 3.02928   2
   2   8  -5 6.53350 2.55328   1
   2   8  -5 4.65869 2.15379   6
  -2   8   5 12.6038 3.41420   1
  -1  -8   5 3.45187 2.38265   2
   1  -8  -5 7.95486 3.71145   2
   1   8  -5 6.98683 2.97569   1
  -1   8   5 8.50242 2.85860   1
   1   8  -5 9.18641 1.86157   5
   1   8  -5 6.20167 2.58031   6
   0  -8  -5 132.429 9.69801   2
   0  -8   5 134.331 8.54394   2
   0   8   5 138.156 7.19984   1
   0   8  -5 147.581 9.11788   1
   1  -8   5 61.5100 6.98917   2
  -1  -8  -5 55.4405 7.17975   2
   1   8   5 59.4921 4.29547   6
  -1   8  -5 49.8597 6.57903   1
   1   8   5 58.1520 4.55683   1
   2  -8   5 79.2690 6.75822   2
  -2  -8  -5 78.8331 8.34682   2
  -2   8  -5 75.3785 8.60293   1
   2   8   5 86.3336 5.18632   6
   1  -9  -5 130.166 10.7245   2
  -1  -9   5 111.163 8.51133   2
   1   9  -5 133.880 8.03213   6
  -1   9   5 136.207 8.39305   1
   1   9  -5 132.766 8.76279   1
   0  -9   5 78.5264 7.05704   2
   0  -9  -5 68.8079 8.71720   2
   0   9  -5 85.8921 8.31270   1
   0   9   5 95.1687 6.50515   1
  -1  -9  -5 1.37745 3.09751   2
   1  -9   5 0.51176 2.10254   2
  -1   9  -5 -1.9340 2.73328   1
   1   9   5 2.04103 1.63669   6
   1   9   5 4.50684 2.09930   1
  -5   0   6 87.6182 6.35606   4
  -5   0   6 96.8016 8.12993   1
  -4   0   6 119.026 8.00363   6
  -4   0   6 119.980 8.52828   1
  -4   0   6 141.011 7.64445   4
   4   0  -6 120.907 7.39726   6
  -3   0   6 329.483 12.1372   3
  -3   0   6 332.913 13.3263   1
   3   0  -6 329.275 12.1133   6
   3   0  -6 329.152 13.1536   1
  -3   0   6 338.587 12.4381   4
  -3   0   6 332.984 12.7972   6
   2   0  -6 33.8209 3.57439   5
  -2   0   6 42.5190 4.33582   1
   2   0  -6 25.4661 3.31799   1
  -2   0   6 34.7200 3.65539   6
  -2   0   6 30.0639 3.61902   4
   1   0  -6 1819.52 45.4692   6
  -1   0   6 1831.32 46.4621   1
   1   0  -6 1851.90 46.9183   5
   1   0  -6 1857.47 46.1926   1
  -1   0   6 1861.56 47.5260   4
  -1   0   6 1935.23 46.1117   6
  -1   0   6 1873.94 46.7864   5
   1   0  -6 1846.43 45.3847   1
   0   0  -6 28.3414 2.02002   1
   0   0   6 31.5590 2.66702   4
   0   0   6 31.5886 2.30847   1
   0   0  -6 24.4931 3.02285   5
   0   0  -6 25.1281 1.78529   1
   0   0   6 30.4224 1.95130   6
   0   0   6 29.7699 1.99361   1
   0   0   6 25.3879 1.94347   6
   0   0   6 25.5166 2.84256   5
   0   0   6 21.4544 2.30887   3
   0   0  -6 37.1795 3.10994   4
   1   0   6 2.24282 1.35510   3
  -1   0  -6 3.37588 1.55616   3
  -1   0  -6 2.12116 1.31114   4
  -1   0  -6 4.99078 1.71960   1
   1   0   6 3.43978 1.24629   2
   1   0   6 3.57284 1.34685   6
  -1   0  -6 2.99101 1.03708   1
  -1   0  -6 4.22667 1.21980   6
   1   0   6 4.23511 1.26458   4
   1   0   6 4.26289 1.69775   1
   1   0   6 7.71322 2.25098   5
  -2   0  -6 99.9217 5.31290   3
   2   0   6 117.804 6.48600   1
  -2   0  -6 102.774 4.23061   4
  -2   0  -6 111.474 5.36285   6
   2   0   6 112.554 5.93380   6
  -2   0  -6 93.9464 5.87859   1
   2   0   6 105.857 5.68704   3
   2   0   6 99.9443 3.95714   4
   3   0   6 13.9225 2.99736   6
  -3   0  -6 4.46531 2.70239   1
  -3   0  -6 6.45122 2.05195   6
  -4   0  -6 8.46457 3.36210   1
   4   0   6 9.80946 3.33443   6
   4   0   6 5.14472 2.52213   3
   5   0   6 104.703 7.69912   3
  -5   0  -6 83.7234 8.32811   1
   5   0   6 111.201 8.63456   6
  -5  -1   6 30.4184 5.51864   1
  -5  -1   6 17.1133 3.29976   4
  -5   1   6 27.4484 5.17345   1
  -5   1   6 32.8254 4.62319   4
  -4  -1   6 208.020 10.8390   6
  -4  -1   6 238.019 9.86823   4
  -4  -1   6 219.866 11.3457   1
   4  -1  -6 222.453 10.2068   6
  -4   1   6 202.046 10.4518   6
  -4   1   6 191.636 9.88956   4
   4   1  -6 233.522 10.3783   6
   3  -1  -6 34.5576 4.27952   1
  -3  -1   6 39.6217 4.40261   4
  -3  -1   6 38.3661 4.55561   1
  -3  -1   6 46.7228 5.07624   6
  -3  -1   6 42.0683 4.38396   3
   3  -1  -6 40.7871 4.23350   6
  -3   1   6 35.5261 4.31849   6
  -3   1   6 35.9622 4.37750   4
  -3   1   6 43.5361 5.32605   1
   3   1  -6 52.3262 5.66041   1
   3   1  -6 51.0522 4.29897   6
  -3   1   6 39.8767 4.21433   3
  -2  -1   6 33.2943 3.77494   1
  -2  -1   6 35.6169 3.70419   6
   2  -1  -6 37.2807 3.07736   6
   2  -1  -6 38.0630 3.58895   1
  -2  -1   6 33.9910 3.79082   4
   2  -1  -6 33.6478 3.45242   5
  -2   1   6 37.4489 3.72336   6
   2   1  -6 36.3515 4.10319   1
   2   1  -6 34.8764 3.45602   6
  -2   1   6 34.9385 4.17240   4
  -2   1   6 46.2013 4.52875   1
   2   1  -6 37.5631 4.06195   4
   1  -1  -6 368.254 10.0820   6
  -1  -1   6 379.263 11.3779   6
   1  -1  -6 368.930 11.8481   5
  -1  -1   6 385.585 11.7503   1
  -1  -1   6 380.146 12.2242   4
   1   1  -6 361.335 12.2396   4
  -1   1   6 398.562 12.6996   4
  -1   1   6 381.373 11.0618   1
   1   1  -6 373.100 11.1677   1
  -1   1   6 386.834 11.7353   5
  -1   1   6 370.332 10.7278   6
   1   1  -6 363.382 11.8042   1
   1   1  -6 358.475 11.6327   5
   0  -1   6 678.924 18.2756   1
   0  -1   6 660.649 18.7846   3
   0  -1   6 701.017 18.4676   6
   0  -1  -6 676.004 19.6781   5
   0  -1   6 730.667 19.2769   4
   0  -1   6 700.014 18.7552   1
   0  -1   6 700.777 18.9518   5
   0  -1   6 680.745 18.2374   6
   0   1   6 685.010 17.0376   6
   0   1  -6 706.926 18.9343   1
   0   1  -6 701.276 19.3842   4
   0   1  -6 681.291 18.3073   6
   0   1   6 682.926 17.0152   6
   0   1  -6 667.928 18.2637   1
   0   1   6 671.649 19.3975   5
   0   1   6 713.224 16.9905   1
   0   1   6 657.366 19.0208   4
   0   1   6 691.606 19.8874   2
   0   1  -6 662.963 19.2372   5
   0   1   6 703.178 18.8959   3
   1  -1   6 250.877 8.83898   3
   1  -1   6 251.359 9.11593   5
   1  -1   6 245.046 8.15939   4
  -1  -1  -6 235.261 7.93379   4
   1  -1   6 254.404 9.34514   1
   1  -1   6 243.759 8.74282   6
  -1  -1  -6 239.556 8.57129   3
  -1  -1  -6 244.945 7.44162   6
   1   1   6 264.672 8.62153   1
  -1   1  -6 268.355 8.89840   3
  -1   1  -6 252.103 8.02351   1
  -1   1  -6 260.292 8.44205   6
  -1   1  -6 257.497 8.51250   4
   1   1   6 252.809 8.03499   2
   1   1   6 247.999 8.63726   3
   1   1   6 242.047 8.08001   6
  -1   1  -6 255.610 9.47559   1
   1   1   6 251.105 7.77490   4
  -2  -1  -6 891.664 22.6754   4
   2  -1   6 912.029 26.6460   1
   2  -1   6 884.217 25.5258   3
   2  -1   6 890.471 26.0301   6
  -2  -1  -6 915.506 24.8217   1
  -2  -1  -6 886.483 24.5650   6
  -2  -1  -6 903.545 25.0601   3
   2   1   6 909.187 26.1938   1
  -2   1  -6 932.157 25.3839   3
   2   1   6 896.822 25.2848   3
   2   1   6 879.977 22.2827   4
  -2   1  -6 954.690 26.9620   1
  -2   1  -6 933.689 23.9945   4
   2   1   6 890.517 25.4080   6
  -2   1  -6 925.445 25.2149   6
  -3  -1  -6 43.3628 2.16023   2
   3  -1   6 49.5118 5.39768   6
  -3  -1  -6 48.4903 5.00301   1
   3  -1   6 47.6336 4.85817   3
  -3   1  -6 52.6227 3.21814   4
   3   1   6 60.1132 4.79966   3
   3   1   6 50.4158 5.13955   6
  -3   1  -6 51.0238 4.37908   6
  -3   1  -6 54.0422 6.31401   1
   4  -1   6 68.9028 7.23462   6
   4  -1   6 60.9234 6.22248   3
  -4  -1  -6 56.5306 5.97705   1
   4   1   6 57.3348 5.79977   3
  -4   1  -6 68.1589 4.08244   4
  -4   1  -6 70.9101 7.70876   1
   4   1   6 57.3734 6.31000   6
   5  -1   6 60.0386 6.51230   3
  -5  -1  -6 50.0528 6.16978   1
   5  -1   6 55.5312 7.23253   6
   5   1   6 55.1837 6.71641   6
   5   1   6 50.5884 6.06235   3
  -5   1  -6 52.0316 7.39422   1
  -5  -2   6 45.5676 6.39748   1
  -5  -2   6 41.9535 4.42497   4
  -5   2   6 40.6469 5.31625   4
  -5   2   6 40.1734 6.47119   1
  -4  -2   6 188.143 10.1771   6
   4  -2  -6 168.680 8.99925   6
   4  -2  -6 181.220 9.45483   1
  -4  -2   6 174.439 8.18047   4
  -4  -2   6 177.349 10.0107   1
  -4   2   6 181.716 10.6579   1
   4   2  -6 199.066 9.47357   6
  -4   2   6 178.552 9.53583   6
  -4   2   6 168.015 9.32911   4
   3  -2  -6 770.775 22.8110   1
  -3  -2   6 799.383 22.7417   3
   3  -2  -6 752.323 22.1804   5
   3  -2  -6 809.008 23.0157   6
  -3  -2   6 756.571 23.8898   6
  -3  -2   6 772.293 24.0605   1
  -3  -2   6 795.487 22.6801   4
  -3   2   6 771.535 24.4820   1
   3   2  -6 774.859 23.0601   6
   3   2  -6 714.387 24.4630   1
   3   2  -6 751.087 22.9460   4
  -3   2   6 749.556 23.1817   6
   2  -2  -6 36.8764 3.13311   6
  -2  -2   6 40.4507 4.19514   1
  -2  -2   6 54.2467 3.90770   4
   2  -2  -6 47.2545 3.55363   5
   2  -2  -6 43.9649 3.04267   1
  -2  -2   6 41.9263 4.10153   6
   2   2  -6 41.0755 4.56611   1
  -2   2   6 41.7375 3.46140   6
  -2   2   6 36.7109 3.88941   1
   2   2  -6 53.0222 3.79555   6
   2   2  -6 49.3738 3.96292   4
  -1  -2   6 694.418 19.3124   6
  -1  -2   6 717.939 19.9237   4
  -1  -2   6 702.951 19.5718   1
   1  -2  -6 694.347 17.2048   6
   1  -2  -6 661.745 19.4914   5
  -1  -2   6 677.920 19.3151   6
   1   2  -6 703.655 20.0222   1
  -1   2   6 684.562 18.0548   1
   1   2  -6 680.815 20.0756   4
  -1   2   6 704.850 21.4816   2
   1   2  -6 678.932 18.9962   6
   1   2  -6 680.310 19.3115   1
  -1   2   6 681.083 19.1283   5
  -1   2   6 690.494 18.0857   6
   1   2  -6 703.066 19.3793   5
   0  -2   6 195.043 7.25621   6
   0  -2   6 188.338 7.05043   1
   0  -2   6 182.642 6.95855   3
   0  -2   6 184.569 7.28480   4
   0  -2   6 205.286 6.99159   5
   0  -2   6 195.161 7.03256   6
   0  -2   6 194.206 7.43220   1
   0   2  -6 199.544 7.19891   1
   0   2  -6 191.303 7.12587   6
   0   2   6 200.727 7.79637   5
   0   2   6 207.598 8.22154   2
   0   2  -6 195.587 7.82162   1
   0   2  -6 198.729 7.32551   5
   0   2   6 190.397 6.96264   3
   0   2  -6 194.088 7.59816   4
   0   2   6 196.430 7.57269   4
   1  -2   6 289.453 9.73010   4
  -1  -2  -6 285.882 10.3324   2
   1  -2   6 280.782 9.95697   3
  -1  -2  -6 285.729 9.59241   3
   1  -2   6 289.958 10.6794   1
   1  -2   6 308.261 10.0015   5
  -1  -2  -6 287.681 8.17725   6
   1  -2   6 294.011 10.4073   6
   1   2   6 294.344 9.64577   3
  -1   2  -6 308.638 11.3042   1
  -1   2  -6 299.330 9.65279   1
   1   2   6 307.660 9.78440   2
   1   2   6 311.113 9.19095   4
  -1   2  -6 301.604 9.97817   6
  -1   2  -6 289.168 9.89721   4
   1   2   6 311.094 9.24928   1
  -1   2  -6 300.631 9.93850   3
   1   2   6 290.993 9.01368   6
  -2  -2  -6 437.238 13.3354   2
  -2  -2  -6 435.714 13.7166   3
   2  -2   6 446.912 15.5026   1
   2  -2   6 422.910 14.9971   6
   2  -2   6 414.142 14.3253   3
  -2  -2  -6 440.860 13.3780   6
   2  -2   6 461.899 11.4530   2
  -2  -2  -6 442.666 12.4665   1
   2   2   6 448.837 14.1546   6
  -2   2  -6 438.440 14.1432   3
   2   2   6 444.217 14.8025   1
  -2   2  -6 408.059 15.6130   1
   2   2   6 428.406 13.9125   3
  -2   2  -6 446.194 13.4659   4
  -2   2  -6 460.719 14.3808   6
   3  -2   6 262.590 11.9331   6
   3  -2   6 258.115 11.0854   3
  -3  -2  -6 272.156 10.2129   1
  -3  -2  -6 270.770 8.91607   2
   3   2   6 265.951 11.1397   6
  -3   2  -6 260.879 10.8403   6
   3   2   6 279.704 10.8986   3
  -3   2  -6 270.009 9.29764   4
  -3   2  -6 274.021 12.8971   1
  -4  -2  -6 30.2312 4.30655   1
  -4  -2  -6 32.2787 2.55647   2
   4  -2   6 34.0990 5.23416   6
   4  -2   6 33.0735 4.71050   3
   4   2   6 36.3745 4.86619   3
  -4   2  -6 42.0123 6.41039   1
   4   2   6 24.0439 4.18100   6
  -4   2  -6 31.6935 3.24066   4
   5  -2   6 3.59858 2.54745   3
   5  -2   6 5.01912 2.96651   6
  -5  -2  -6 5.62995 2.85329   1
   5   2   6 9.44536 3.41633   6
   5   2   6 5.72148 2.73705   3
  -5   2  -6 6.85989 4.47619   1
   5  -3  -6 95.5299 6.29572   5
  -5  -3   6 92.0408 5.68375   4
  -5  -3   6 100.549 7.90233   1
  -5   3   6 108.224 7.84758   4
  -5   3   6 84.5524 9.20913   1
  -4  -3   6 5.84253 2.15122   4
   4  -3  -6 7.35350 2.21016   5
   4  -3  -6 5.34063 2.66225   1
  -4  -3   6 10.3039 3.05967   6
  -4  -3   6 5.76491 2.64905   1
  -4   3   6 7.54223 3.41002   1
  -4   3   6 10.7060 3.06253   6
   4   3  -6 6.13556 2.47735   6
   3  -3  -6 0.94437 1.66802   1
   3  -3  -6 0.99265 1.66782   6
  -3  -3   6 3.73017 1.58630   3
  -3  -3   6 1.64966 2.08204   1
  -3  -3   6 7.75448 2.68797   6
  -3  -3   6 0.65373 1.67099   4
   3  -3  -6 2.13275 1.61890   5
  -3   3   6 1.08348 1.69747   6
   3   3  -6 2.41711 1.95711   4
   3   3  -6 2.13254 1.63565   6
  -3   3   6 2.86370 2.45225   1
  -2  -3   6 68.4325 4.51378   4
  -2  -3   6 70.1776 4.95034   6
   2  -3  -6 66.2954 3.03384   1
   2  -3  -6 67.4105 4.20437   5
   2  -3  -6 65.6283 3.94881   6
  -2  -3   6 64.1280 4.74767   1
  -2   3   6 71.9594 5.81932   2
   2   3  -6 66.8037 4.41576   6
   2   3  -6 71.4808 5.50703   1
  -2   3   6 72.1638 4.84630   1
   2   3  -6 62.7543 4.78604   4
  -2   3   6 61.4757 4.06329   6
   1  -3  -6 272.393 9.72182   5
  -1  -3   6 280.160 9.98347   4
   1  -3  -6 293.168 7.56575   6
  -1  -3   6 271.210 9.80753   1
  -1  -3   6 285.974 9.91432   6
  -1  -3   6 275.027 9.88208   6
   1  -3  -6 270.219 7.28418   6
   1   3  -6 279.469 9.59801   6
  -1   3   6 271.962 9.19576   5
   1   3  -6 274.674 9.94889   1
   1   3  -6 278.979 10.3245   1
  -1   3   6 300.645 11.4924   2
  -1   3   6 268.257 8.31193   1
   1   3  -6 275.376 10.2491   4
  -1   3   6 280.209 8.33377   6
   1   3  -6 275.395 9.47176   5
   0  -3   6 314.791 10.4946   6
   0  -3   6 295.568 10.0550   1
   0  -3  -6 281.456 11.6720   2
   0  -3   6 307.899 9.39980   5
   0  -3   6 295.898 10.2571   4
   0  -3   6 296.656 9.51931   3
   0  -3   6 304.889 10.0894   6
   0  -3   6 293.616 10.3812   1
   0   3  -6 294.530 10.9152   1
   0   3  -6 306.402 10.6964   4
   0   3   6 303.290 10.4909   5
   0   3   6 299.059 9.49737   3
   0   3   6 279.762 7.60345   6
   0   3  -6 334.277 10.5184   6
   0   3  -6 297.603 9.71799   5
   0   3  -6 295.949 10.1603   1
   0   3  -6 296.057 10.1921   6
   0   3   6 304.116 11.0555   2
   1  -3   6 298.450 10.9392   1
  -1  -3  -6 282.636 10.9218   2
   1  -3   6 296.090 9.24575   5
  -1  -3  -6 291.001 7.71558   6
   1  -3   6 288.545 10.6252   6
   1  -3   6 277.305 10.0605   6
   1  -3   6 295.958 9.96493   3
  -1  -3  -6 284.727 7.84901   6
   1  -3   6 285.349 10.0807   4
  -1   3  -6 304.959 10.0217   1
  -1   3  -6 297.134 11.6326   1
   1   3   6 302.487 8.87981   1
  -1   3  -6 273.016 10.0693   6
   1   3   6 275.261 8.61461   6
  -1   3  -6 294.435 10.2266   4
   1   3   6 278.156 9.25959   3
  -1   3  -6 288.055 9.76579   3
   1   3   6 279.374 10.0309   2
  -2  -3  -6 117.245 5.96470   2
  -2  -3  -6 103.974 5.00274   6
   2  -3   6 108.032 6.04659   3
   2  -3   6 117.687 6.82169   6
  -2  -3  -6 109.360 3.44687   1
  -2  -3  -6 105.278 5.26242   3
   2  -3   6 113.718 4.66684   2
   2  -3   6 110.866 5.45569   5
   2  -3   6 101.388 6.52557   1
   2   3   6 111.773 6.15697   1
  -2   3  -6 113.340 5.53803   4
  -2   3  -6 108.350 7.45804   1
   2   3   6 100.159 5.31629   3
   2   3   6 104.567 3.18359   4
   2   3   6 107.155 5.50811   6
   2   3   6 105.157 3.36982   4
  -2   3  -6 108.500 5.69196   3
  -2   3  -6 110.892 5.96732   6
  -3  -3  -6 39.8835 3.34910   1
  -3  -3  -6 30.5006 4.18066   3
   3  -3   6 53.2267 5.78522   3
  -3  -3  -6 38.8463 3.86065   2
   3  -3   6 57.0465 6.39828   6
   3   3   6 37.1405 4.46626   6
  -3   3  -6 34.4964 4.17897   6
  -3   3  -6 41.6665 4.08443   4
  -3   3  -6 45.3673 6.40163   1
   3   3   6 33.1456 3.96795   3
  -4  -3  -6 29.8367 3.73244   1
   4  -3   6 19.3073 3.62949   3
   4  -3   6 33.0895 5.32492   6
  -4  -3  -6 35.1722 3.54526   2
   4   3   6 32.1815 4.26763   3
  -4   3  -6 40.4661 6.53316   1
   4   3   6 27.8786 4.32178   6
  -5  -4   6 32.1900 4.85168   1
   5  -4  -6 37.6828 4.45758   5
  -5   4   6 27.0228 5.51597   1
  -4  -4   6 123.838 9.48525   6
   4  -4  -6 130.943 7.18940   1
   4  -4  -6 125.373 6.62814   5
  -4  -4   6 141.670 8.39452   1
  -4  -4   6 134.325 6.68112   4
  -4   4   6 133.564 9.39298   1
   4   4  -6 129.972 7.68820   6
   3  -4  -6 265.688 9.34472   1
  -3  -4   6 251.220 11.0358   1
   3  -4  -6 265.549 9.75213   5
  -3  -4   6 271.136 10.1094   4
   3  -4  -6 262.848 10.4821   6
  -3  -4   6 259.880 9.81473   3
  -3  -4   6 260.175 11.7421   6
  -3   4   6 284.337 10.9485   6
  -3   4   6 248.894 11.7563   1
   3   4  -6 251.073 10.6625   4
   3   4  -6 266.272 10.8930   6
  -2  -4   6 135.242 6.97339   1
  -2  -4   6 144.577 6.68787   4
   2  -4  -6 137.752 6.04042   6
  -2  -4   6 138.838 7.33622   6
   2  -4  -6 140.518 6.28548   5
  -2  -4   6 143.940 7.13059   6
   2   4  -6 135.483 7.04559   1
  -2   4   6 141.221 7.05705   1
  -2   4   6 138.070 6.23141   6
  -2   4   6 140.038 8.20034   2
   2   4  -6 136.851 8.59874   1
   2   4  -6 136.287 7.10804   4
   2   4  -6 140.590 6.86169   6
   1  -4  -6 348.360 11.9252   5
  -1  -4   6 368.206 12.3603   4
  -1  -4   6 344.444 12.1848   1
  -1  -4   6 375.805 11.0368   3
  -1  -4   6 371.752 12.5164   6
   1  -4  -6 377.405 10.0457   6
   1  -4  -6 332.056 14.4211   2
  -1  -4   6 366.052 12.5283   6
   1  -4  -6 357.599 9.55757   6
   1   4  -6 361.662 12.7651   4
  -1   4   6 378.215 13.8067   2
  -1   4   6 370.238 10.9869   1
   1   4  -6 369.305 11.7019   5
  -1   4   6 387.625 11.5337   5
   1   4  -6 358.631 12.1980   6
  -1   4   6 370.985 10.6028   6
   1   4  -6 356.015 12.8272   1
   1   4  -6 381.779 12.8411   1
   0  -4   6 16.2082 2.71997   1
   0  -4   6 20.6520 2.96633   4
   0  -4   6 14.7432 2.70141   6
   0  -4   6 20.6674 2.82146   1
   0  -4   6 19.6251 2.83923   6
   0  -4   6 20.2903 2.23642   3
   0  -4  -6 20.5625 3.75689   2
   0   4   6 20.5946 2.24375   3
   0   4   6 19.8680 2.82742   5
   0   4  -6 23.0076 3.00387   1
   0   4   6 20.5845 1.49973   6
   0   4   6 18.4426 2.98929   2
   0   4  -6 24.7303 3.32885   4
   0   4  -6 21.3099 2.91851   6
   0   4  -6 15.4493 2.39481   6
   0   4  -6 18.1815 2.23985   5
   0   4  -6 19.6557 3.28997   1
  -1  -4  -6 424.870 11.1640   6
   1  -4   6 433.358 12.2104   5
   1  -4   6 443.800 14.3915   4
   1  -4   6 430.776 13.6295   2
   1  -4   6 426.589 14.6724   6
   1  -4   6 463.747 13.6755   3
   1  -4   6 425.125 14.5923   1
   1  -4   6 460.272 14.3602   6
  -1  -4  -6 404.027 15.0634   2
  -1  -4  -6 418.614 11.4113   6
  -1   4  -6 418.851 15.6018   1
   1   4   6 417.240 12.0898   6
   1   4   6 432.112 12.4511   1
  -1   4  -6 442.265 13.9812   1
  -1   4  -6 429.785 13.2969   3
   1   4   6 408.956 12.5641   3
  -1   4  -6 447.985 14.2640   6
   1   4   6 442.638 14.3623   2
  -1   4  -6 448.852 14.3335   4
   2  -4   6 5.33812 1.47194   5
  -2  -4  -6 4.09717 2.10034   2
   2  -4   6 3.13944 2.07345   6
   2  -4   6 1.79451 1.60047   3
   2  -4   6 3.11442 1.47266   2
  -2  -4  -6 3.72522 1.51559   3
   2   4   6 5.72607 1.70132   6
  -2   4  -6 2.65467 1.43013   3
  -2   4  -6 2.50177 1.69457   6
  -2   4  -6 5.64904 1.91284   4
   2   4   6 2.04244 1.35353   3
   2   4   6 2.35219 1.79597   1
  -2   4  -6 5.00885 2.81906   1
   2   4   6 3.14577 0.79788   4
   2   4   6 2.98648 1.06615   4
   3  -4   6 43.4024 5.75337   6
   3  -4   6 42.7402 4.13643   5
  -3  -4  -6 33.5309 4.20105   2
   3  -4   6 35.1189 4.56643   3
  -3  -4  -6 35.5231 2.64077   1
  -3  -4  -6 36.7748 3.78470   3
   3   4   6 44.1379 4.42266   3
   3   4   6 32.6009 3.93290   6
  -3   4  -6 44.3814 6.50520   1
  -3   4  -6 31.2438 4.13564   6
   4  -4   6 75.5179 8.16321   6
  -4  -4  -6 78.2099 4.66887   1
   4  -4   6 78.7566 6.41124   3
  -4  -4  -6 82.7845 5.44337   2
   4   4   6 76.1809 6.03120   6
  -4   4  -6 85.7099 9.15552   1
   4   4   6 75.4101 5.73535   3
  -4  -5   6 77.0823 6.26997   1
  -4  -5   6 88.9406 5.24562   4
   4  -5  -6 80.3715 5.14327   5
   4   5  -6 81.5198 6.28573   6
  -4   5   6 94.2348 8.02965   1
  -3  -5   6 97.8999 7.02866   6
  -3  -5   6 98.6967 6.49783   1
  -3  -5   6 97.8387 5.21766   3
   3  -5  -6 100.157 4.65120   1
   3  -5  -6 98.2716 5.27069   5
   3  -5  -6 95.0532 5.97112   6
  -3  -5   6 91.1417 5.48067   4
  -3   5   6 107.222 7.59200   1
   3   5  -6 100.991 6.30063   6
  -3   5   6 89.9751 5.82430   6
  -2  -5   6 25.4683 3.59190   6
   2  -5  -6 21.9255 2.79691   5
  -2  -5   6 23.9856 3.29456   4
  -2  -5   6 18.1591 3.38501   6
   2  -5  -6 26.8277 3.02581   6
  -2  -5   6 24.4360 3.45623   1
  -2   5   6 16.7421 2.61307   3
   2   5  -6 18.7925 3.01213   6
   2   5  -6 19.0813 3.35108   4
  -2   5   6 18.2743 2.63214   6
  -2   5   6 23.4531 3.51112   1
   2   5  -6 27.6123 4.02670   1
  -1  -5   6 67.5860 4.70189   6
   1  -5  -6 59.2023 6.76903   2
  -1  -5   6 63.4320 4.55797   1
  -1  -5   6 58.9604 4.61882   6
  -1  -5   6 63.9006 3.30512   3
   1  -5  -6 64.5848 3.14651   6
  -1  -5   6 62.0271 4.44522   4
   1  -5  -6 62.0594 2.89234   6
   1   5  -6 55.2191 3.73198   5
   1   5  -6 66.1150 5.09426   4
  -1   5   6 54.7363 3.81823   1
   1   5  -6 55.1400 4.30066   6
  -1   5   6 62.5354 3.67776   5
  -1   5   6 58.3250 3.32598   6
   1   5  -6 52.6011 4.60739   1
   0  -5   6 269.671 10.4026   4
   0  -5   6 276.629 10.5640   1
   0  -5  -6 258.095 12.1621   2
   0  -5   6 256.108 10.3173   6
   0  -5   6 269.210 8.67439   3
   0  -5   6 255.205 9.93057   6
   0   5   6 270.729 8.53152   3
   0   5  -6 261.150 11.0670   1
   0   5   6 265.965 9.85136   5
   0   5   6 269.852 7.98151   1
   0   5   6 247.198 10.7372   2
   0   5  -6 264.226 8.67919   5
   1  -5   6 48.6731 4.72920   2
   1  -5   6 36.2766 3.94574   6
   1  -5   6 47.3052 4.97934   6
  -1  -5  -6 35.0246 2.01723   6
   1  -5   6 37.6661 3.23308   3
  -1  -5  -6 36.2154 4.79187   2
  -1   5  -6 40.1572 5.50606   1
  -1   5  -6 33.8773 4.03413   6
  -1   5  -6 33.4959 2.91074   3
   1   5   6 37.4273 2.88650   1
   1   5   6 35.6255 2.57213   3
   1   5   6 30.6036 4.04089   2
   1   5   6 35.4333 2.56721   6
   2  -5   6 185.290 8.55419   6
  -2  -5  -6 191.777 9.48236   2
   2  -5   6 197.275 8.27320   2
   2  -5   6 187.268 9.52686   6
  -2  -5  -6 185.503 6.59883   6
   2  -5   6 177.766 6.09708   5
   2  -5   6 173.619 8.11461   3
   2   5   6 176.234 6.04100   4
  -2   5  -6 161.891 10.1354   1
   2   5   6 180.775 7.11151   3
   2   5   6 187.837 7.42902   6
  -2   5  -6 181.179 7.80656   3
   2   5   6 178.363 8.25029   1
  -3  -5  -6 80.8804 4.88942   3
   3  -5   6 103.177 5.79735   2
  -3  -5  -6 91.0916 3.54152   1
   3  -5   6 99.2861 7.76251   6
  -3  -5  -6 94.0260 6.43843   2
   3  -5   6 94.5615 6.28665   3
   3   5   6 82.6092 5.55394   6
  -3   5  -6 88.4277 6.34521   6
   3   5   6 85.5013 5.20195   3
  -3   5  -6 78.8143 8.92423   1
   4  -5   6 82.2494 6.64601   3
  -4  -5  -6 78.5171 5.93989   2
   4   5   6 91.9692 6.39517   6
   4   5   6 83.2392 5.77411   3
  -4   5  -6 84.6646 9.74936   1
  -4  -6   6 14.5929 2.66444   4
  -4  -6   6 17.3215 3.62390   1
  -4   6   6 12.1062 3.80149   1
   4   6  -6 16.6544 3.35806   6
  -3  -6   6 8.34781 2.53310   6
  -3  -6   6 12.7330 2.57676   4
   3  -6  -6 11.6962 2.23481   5
  -3  -6   6 11.8980 2.86851   1
   3   6  -6 12.8931 2.77103   6
  -3   6   6 13.5565 3.61456   1
  -2  -6   6 25.1167 2.19025   3
  -2  -6   6 35.5094 2.59265   3
   2  -6  -6 31.3488 3.47723   6
  -2  -6   6 32.0265 4.09417   1
  -2  -6   6 27.2741 3.73546   4
  -2  -6   6 35.8896 4.39513   6
  -2   6   6 33.9994 3.53606   6
   2   6  -6 42.5037 4.72019   6
  -2   6   6 35.3355 3.68295   3
  -2   6   6 29.7349 4.18786   1
   2   6  -6 33.2302 4.35696   1
  -1  -6   6 722.066 22.2554   4
   1  -6  -6 690.376 25.4034   2
  -1  -6   6 743.040 21.9859   1
  -1  -6   6 749.124 19.2119   3
  -1  -6   6 729.112 22.4108   6
   1  -6  -6 735.568 19.7241   6
  -1  -6   6 767.886 22.6876   6
  -1   6   6 703.855 21.0613   1
   1   6  -6 735.004 20.5687   5
   1   6  -6 707.314 22.9326   1
  -1   6   6 736.790 20.1446   5
   1   6  -6 772.190 22.5772   6
  -1   6   6 728.028 20.1657   6
   0  -6   6 81.8969 5.86646   2
   0  -6  -6 78.2093 8.06187   2
   0  -6   6 89.7020 5.93166   6
   0  -6  -6 89.2768 3.48765   6
   0  -6   6 81.7601 5.37776   6
   0  -6   6 89.3051 4.11754   3
   0  -6   6 88.2233 5.80078   4
   0   6   6 86.2700 4.17382   1
   0   6   6 91.4818 4.52817   1
   0   6   6 84.1957 5.13842   5
   0   6  -6 91.5374 4.18282   5
   0   6  -6 82.5866 6.39807   1
   0   6  -6 86.0126 5.71570   6
   0   6   6 89.2552 3.93880   3
   1  -6   6 -0.3928 1.74250   6
   1  -6   6 0.15821 1.48696   2
  -1  -6  -6 0.80977 0.90699   6
  -1  -6  -6 1.65319 2.53243   2
   1  -6   6 1.18165 1.55154   6
   1  -6   6 0.39323 1.10047   3
  -1   6  -6 4.04982 1.94265   6
   1   6   6 0.90035 1.07988   6
  -1   6  -6 2.69940 1.30828   3
   1   6   6 2.94314 1.42045   1
   1   6   6 2.18173 1.78520   5
   1   6   6 1.79870 0.96567   3
  -1   6  -6 2.01291 2.36473   1
   2  -6   6 15.4304 2.81444   3
  -2  -6  -6 13.9375 3.63258   2
  -2  -6  -6 12.2192 1.86994   6
   2  -6   6 10.9197 2.69847   2
   2  -6   6 12.9504 4.64089   6
   2  -6   6 16.4978 3.66070   6
  -2   6  -6 12.7631 2.94673   6
  -2   6  -6 10.5068 3.81145   1
   2   6   6 13.1286 1.96428   3
   2   6   6 12.0892 2.23533   6
   2   6   6 15.5357 1.98214   4
   3  -6   6 12.6756 3.01352   2
   3  -6   6 11.4310 3.02900   3
  -3  -6  -6 14.3063 3.76120   2
   3   6   6 11.2757 2.21904   3
  -3   6  -6 8.37262 4.20871   1
   3   6   6 13.4039 2.66739   6
  -3  -7   6 41.0150 4.52508   4
  -3  -7   6 36.5205 4.44376   1
   3   7  -6 41.1509 5.13188   1
  -3   7   6 32.8855 5.32562   1
   3   7  -6 36.3442 4.62726   6
  -2  -7   6 4.57012 2.06827   1
  -2  -7   6 3.72686 1.81918   4
  -2   7   6 0.94988 1.28507   3
   2   7  -6 2.80764 1.96069   6
   2   7  -6 4.02111 2.13654   1
  -2   7   6 1.76006 2.22430   1
  -2   7   6 -0.3293 1.35380   6
  -1  -7   6 77.4685 5.63217   4
  -1  -7   6 82.4652 6.54622   2
   1  -7  -6 69.9991 7.88271   2
  -1  -7   6 85.3868 3.14967   3
   1  -7  -6 79.2870 4.21346   6
  -1  -7   6 81.2892 5.93288   6
  -1   7   6 89.8402 5.75598   1
  -1   7   6 81.2532 4.64651   6
   1   7  -6 79.6512 4.42120   5
   1   7  -6 79.6661 6.30114   1
  -1   7   6 84.3168 4.19394   5
   1   7  -6 76.4916 5.91924   6
  -1   7   6 89.2147 4.30091   3
   0  -7   6 244.756 10.9387   6
   0  -7   6 245.175 11.4138   2
   0  -7  -6 248.268 13.2045   2
   0  -7  -6 266.826 8.55406   6
   0  -7   6 262.830 8.19374   3
   0   7   6 260.802 9.07945   1
   0   7  -6 244.529 11.7791   1
   0   7  -6 266.164 8.04704   5
   0   7  -6 259.313 11.1158   6
   0   7   6 253.469 9.66254   5
   0   7   6 256.186 7.61713   3
   0   7   6 243.935 9.34570   1
   1  -7   6 114.277 5.36800   3
   1  -7   6 112.158 7.32699   6
  -1  -7  -6 92.9795 7.90986   2
   1  -7   6 102.328 6.89991   2
  -1  -7  -6 102.885 4.99444   6
  -1   7  -6 103.619 8.10918   1
   1   7   6 105.998 5.91471   1
   1   7   6 107.851 3.81826   3
  -1   7  -6 122.848 7.53581   6
   1   7   6 108.672 5.17726   6
  -1   7  -6 110.459 5.10646   3
  -2  -7  -6 87.9081 7.48056   2
   2  -7   6 91.7769 5.61568   3
   2  -7   6 95.5727 6.65766   2
   2   7   6 104.446 5.34153   6
  -2   7  -6 93.2911 9.12990   1
  -3  -7  -6 48.7969 6.24689   2
   3  -7   6 50.1020 5.28420   3
  -3   7  -6 58.4208 8.18235   1
   3   7   6 52.9240 4.30695   6
  -2  -8   6 2.07770 2.41797   2
  -2  -8   6 0.31307 1.53727   1
   2  -8  -6 0.43173 2.88969   2
   2   8  -6 2.87248 1.52804   5
   2   8  -6 1.50334 1.85840   6
   2   8  -6 1.40293 1.95852   1
  -2   8   6 3.49730 2.53748   1
   1  -8  -6 216.528 13.2574   2
  -1  -8   6 215.475 11.1760   2
   1   8  -6 229.563 10.5405   6
   1   8  -6 230.274 11.2781   1
  -1   8   6 204.517 9.77369   1
   0  -8   6 48.7780 6.11206   2
   0  -8  -6 34.4537 5.72126   2
   0   8  -6 61.6165 7.19996   1
   0   8   6 53.5951 4.94416   1
  -1  -8  -6 63.7394 7.55515   2
   1  -8   6 73.2008 6.30962   2
   1   8   6 59.7601 4.64996   1
  -1   8  -6 74.7399 8.23934   1
   1   8   6 67.0111 4.36264   6
   2  -8   6 19.4488 4.24210   2
  -2  -8  -6 21.8327 5.00000   2
  -2   8  -6 17.3790 4.69107   1
   2   8   6 24.4575 3.01178   6
   1  -9  -6 7.25942 3.89405   2
  -1  -9   6 9.63765 3.31794   2
   1   9  -6 10.5236 3.09747   6
   1   9  -6 7.91365 3.35090   1
   0  -9   6 31.2818 5.34124   2
   0  -9  -6 33.3995 6.53812   2
   0   9  -6 26.0920 5.07079   1
  -5   0   7 10.9108 3.01832   4
  -5   0   7 12.4108 3.98411   1
   4   0  -7 210.384 9.90197   6
  -4   0   7 204.692 10.5944   6
  -4   0   7 227.341 10.2942   4
  -4   0   7 227.704 11.6281   1
   3   0  -7 6.74182 2.48969   1
   3   0  -7 11.1450 2.38373   6
  -3   0   7 11.1848 3.06667   1
  -3   0   7 9.41657 2.49855   6
  -3   0   7 5.54001 2.20932   4
   2   0  -7 59.3356 4.26712   5
  -2   0   7 56.0382 4.50895   1
   2   0  -7 67.3590 3.89195   6
  -2   0   7 61.7983 4.61670   4
   2   0  -7 64.0498 4.52477   1
  -2   0   7 63.1450 4.35522   6
   1   0  -7 265.920 7.85217   1
  -1   0   7 260.763 8.34520   6
   1   0  -7 260.347 8.39359   1
   1   0  -7 240.672 9.21547   5
  -1   0   7 265.342 9.80193   4
   1   0  -7 257.299 7.84702   6
  -1   0   7 264.679 9.19620   5
  -1   0   7 253.554 8.71702   1
   1   0  -7 267.383 9.93898   4
   0   0   7 511.981 13.9137   6
   0   0   7 515.088 15.2989   4
   0   0  -7 477.917 15.6298   5
   0   0  -7 530.245 13.3998   1
   0   0   7 489.826 13.7473   1
   0   0  -7 530.584 15.5957   4
   0   0   7 521.971 15.4202   5
   0   0   7 502.212 15.0353   3
   0   0   7 527.298 13.8223   6
   0   0   7 526.913 14.2899   1
   0   0  -7 520.396 13.5497   1
  -1   0  -7 10.9055 1.64595   6
  -1   0  -7 11.8881 1.49485   1
  -1   0  -7 15.1220 2.24560   1
   1   0   7 11.5404 2.20097   1
   1   0   7 7.97077 1.84950   3
   1   0   7 15.0525 2.01981   2
  -1   0  -7 10.6780 1.95195   3
   1   0   7 13.2881 1.86465   4
   1   0   7 10.6836 1.86243   6
   1   0   7 14.7949 2.74479   5
  -1   0  -7 12.0894 1.97847   4
   2   0   7 0.07654 0.78401   4
   2   0   7 -0.8715 1.47138   1
  -2   0  -7 1.47731 1.78492   1
  -2   0  -7 -0.7657 1.17275   6
  -2   0  -7 -0.5917 1.08595   3
  -2   0  -7 -0.4581 0.96295   4
   2   0   7 -0.2074 1.24719   3
   2   0   7 0.69815 1.36357   6
   3   0   7 7.57700 2.58886   3
  -3   0  -7 8.09363 1.47762   4
  -3   0  -7 6.77302 3.01079   1
   3   0   7 10.7975 2.86866   6
   4   0   7 39.8547 5.29036   3
   4   0   7 40.1374 5.65951   6
  -4   0  -7 38.1381 5.34906   1
   5   0   7 4.67547 3.21078   6
   5   0   7 2.23992 2.53006   3
  -5   0  -7 4.96548 3.22112   1
  -5  -1   7 36.8164 4.65436   4
  -5  -1   7 53.2172 7.02506   1
  -5   1   7 53.4402 6.99859   1
   4  -1  -7 133.928 7.61622   6
  -4  -1   7 128.983 8.59052   1
  -4  -1   7 130.114 8.38050   6
   4  -1  -7 124.762 8.67000   1
  -4  -1   7 130.950 7.42064   4
  -4   1   7 130.147 8.96369   1
  -4   1   7 131.755 8.11350   6
   4   1  -7 139.512 7.80857   6
  -4   1   7 141.252 8.31872   4
  -3  -1   7 97.2607 6.79120   1
  -3  -1   7 111.955 6.48137   4
   3  -1  -7 110.876 6.07393   5
  -3  -1   7 111.307 6.74747   6
   3  -1  -7 110.197 6.52729   1
   3   1  -7 109.529 6.15418   6
  -3   1   7 103.964 6.64970   4
  -3   1   7 105.555 6.48852   6
  -3   1   7 103.485 7.06867   1
   3   1  -7 99.6603 6.93107   1
   2  -1  -7 466.474 14.0544   1
  -2  -1   7 481.818 15.5178   1
   2  -1  -7 455.792 13.7749   6
  -2  -1   7 484.031 15.1216   6
  -2  -1   7 467.323 15.3918   4
   2  -1  -7 460.741 14.6911   5
   2   1  -7 482.108 14.3024   6
  -2   1   7 454.843 15.1235   1
   2   1  -7 442.130 15.4068   1
   2   1  -7 456.604 15.5129   4
  -2   1   7 476.182 15.9452   4
  -2   1   7 469.239 14.6449   6
   2   1  -7 472.241 14.8968   5
   1  -1  -7 8.54898 1.12942   6
  -1  -1   7 6.73950 1.56108   6
  -1  -1   7 9.42167 1.88660   5
   1  -1  -7 7.71742 1.92834   5
  -1  -1   7 7.36421 2.26179   4
  -1  -1   7 9.33118 1.96742   1
   1   1  -7 7.19907 2.27296   4
  -1   1   7 10.9264 1.81146   1
  -1   1   7 5.71681 1.76463   5
  -1   1   7 5.21661 2.03200   4
   1   1  -7 6.42967 1.79647   5
   1   1  -7 6.37792 1.65930   1
  -1   1   7 6.75513 1.37821   6
   1   1  -7 5.43925 1.80302   1
   0  -1   7 91.4629 4.66587   5
   0  -1  -7 87.6379 4.87113   4
   0  -1  -7 94.9147 5.45248   5
   0  -1   7 88.4185 4.26147   6
   0  -1   7 85.7557 3.99026   6
   0  -1   7 87.1996 4.71900   4
   0  -1   7 84.9316 4.05320   1
   0  -1   7 91.1414 4.68186   3
   0  -1   7 82.0199 4.35932   1
   0   1   7 87.8620 3.27679   1
   0   1   7 86.3358 4.55469   3
   0   1   7 86.4711 3.03874   1
   0   1  -7 87.4215 5.04798   5
   0   1   7 83.6925 4.67268   4
   0   1  -7 91.2404 4.10368   6
   0   1   7 89.8667 5.11206   5
   0   1  -7 86.4064 4.06707   1
   0   1   7 88.5527 5.27084   2
   0   1   7 88.8045 3.15186   6
   0   1  -7 87.0709 5.01724   4
   0   1  -7 87.3648 4.61478   1
   0   1   7 82.7004 3.05234   6
  -1  -1  -7 575.652 15.0302   6
   1  -1   7 562.046 16.8533   3
   1  -1   7 581.570 16.2208   4
  -1  -1  -7 585.227 16.1671   4
   1  -1   7 578.482 17.3241   1
  -1  -1  -7 568.863 16.6488   3
   1  -1   7 580.894 17.2679   5
   1  -1   7 564.769 16.7278   6
  -1   1  -7 575.106 16.8244   3
  -1   1  -7 571.970 16.5300   4
  -1   1  -7 546.152 17.1589   1
   1   1   7 541.747 16.5930   3
  -1   1  -7 586.321 16.1978   6
   1   1   7 582.593 17.9304   5
   1   1   7 541.285 15.8092   6
  -1   1  -7 574.125 15.7561   1
   1   1   7 574.745 15.7874   4
   1   1   7 594.809 16.1011   2
   1   1   7 559.524 16.2914   1
   2  -1   7 57.9790 4.87481   1
   2  -1   7 67.6567 4.66813   3
  -2  -1  -7 66.6602 3.11441   4
  -2  -1  -7 72.4297 4.46853   3
   2  -1   7 61.2682 3.52970   4
  -2  -1  -7 64.8045 4.05369   1
  -2  -1  -7 60.5647 3.81738   6
   2  -1   7 62.7030 4.82768   6
   2   1   7 69.9181 4.98923   1
  -2   1  -7 65.6061 4.33312   6
   2   1   7 56.5911 4.28245   3
   2   1   7 61.6270 2.64633   4
  -2   1  -7 63.3666 4.38659   3
   2   1   7 65.2830 4.50139   6
  -2   1  -7 64.7291 3.79033   4
  -2   1  -7 63.4203 5.27502   1
   3  -1   7 10.2318 2.77890   3
  -3  -1  -7 4.49443 2.28650   1
   3  -1   7 2.56727 2.06350   6
   3   1   7 3.98936 2.04758   3
   3   1   7 9.63551 2.78363   6
  -3   1  -7 3.02833 2.79736   1
  -3   1  -7 6.12771 1.61413   4
  -4  -1  -7 8.96462 3.02731   1
   4  -1   7 7.72633 2.55477   3
   4  -1   7 5.41366 2.68509   6
   4   1   7 10.3474 3.26597   6
   4   1   7 6.97496 2.59200   3
  -4   1  -7 4.01205 3.55888   1
  -5  -1  -7 1.45769 2.65556   1
   5  -1   7 -1.7495 1.61796   3
   5  -1   7 -2.1057 1.98292   6
   5   1   7 -0.6813 2.31953   6
   5   1   7 4.38136 2.66026   3
  -5   1  -7 2.29162 3.14919   1
  -5  -2   7 8.51326 3.23750   1
  -5  -2   7 6.62105 2.24832   4
   5  -2  -7 12.4979 2.87282   5
  -5   2   7 7.65614 3.71881   1
  -5   2   7 8.65449 3.28366   4
   4  -2  -7 0.38387 0.68292   6
  -4  -2   7 2.76976 2.25531   6
   4  -2  -7 -0.4378 1.45265   5
  -4  -2   7 0.43932 1.86268   4
   4  -2  -7 1.46775 2.23407   1
  -4  -2   7 0.27728 2.33806   1
   4   2  -7 1.56050 1.78162   6
  -4   2   7 0.96822 2.56334   1
  -4   2   7 2.14440 1.95018   6
  -4   2   7 -2.4427 2.04308   4
   3  -2  -7 35.9210 3.86066   6
   3  -2  -7 40.1321 4.15043   1
   3  -2  -7 31.5259 3.72629   5
  -3  -2   7 41.2099 4.35179   4
  -3  -2   7 38.5949 4.86069   1
  -3  -2   7 34.7813 4.63541   6
  -3   2   7 41.6705 4.37352   6
   3   2  -7 38.7684 5.14612   1
   3   2  -7 46.1702 4.58660   6
   3   2  -7 35.8901 4.44797   4
  -3   2   7 34.2748 4.71696   4
  -3   2   7 36.5198 4.79639   1
   2  -2  -7 538.692 15.6446   6
   2  -2  -7 532.787 16.6084   5
   2  -2  -7 520.283 14.7165   1
  -2  -2   7 534.576 17.0864   4
  -2  -2   7 536.627 17.3621   1
  -2  -2   7 559.798 17.3989   6
   2   2  -7 577.788 17.8090   4
   2   2  -7 564.779 17.0843   5
  -2   2   7 562.070 16.5425   6
  -2   2   7 563.546 18.2716   4
   2   2  -7 541.426 16.5413   6
   2   2  -7 572.115 18.1871   1
  -2   2   7 558.552 17.1836   1
  -1  -2   7 602.377 17.5994   1
  -1  -2   7 594.171 18.0683   4
  -1  -2   7 618.967 17.5101   6
   1  -2  -7 582.054 17.9201   5
  -1  -2   7 594.116 17.3851   6
   1  -2  -7 601.856 14.8206   6
   1   2  -7 600.566 17.0823   6
   1   2  -7 631.713 17.6904   5
  -1   2   7 612.945 19.7274   2
   1   2  -7 599.602 17.4989   1
  -1   2   7 611.096 16.0797   1
  -1   2   7 615.816 16.0793   6
   1   2  -7 600.706 18.0752   1
  -1   2   7 596.264 17.4323   5
   1   2  -7 613.475 18.5196   4
  -1   2   7 574.476 18.5549   4
   0  -2   7 314.625 10.3208   3
   0  -2   7 324.110 10.6802   1
   0  -2   7 325.533 10.2271   6
   0  -2   7 309.430 10.3308   6
   0  -2   7 329.151 10.2800   1
   0  -2   7 318.631 10.1636   5
   0  -2   7 318.290 10.7108   4
   0   2  -7 304.178 10.6130   5
   0   2  -7 313.098 10.2298   6
   0   2   7 318.131 10.8675   4
   0   2   7 293.641 10.1227   3
   0   2   7 314.123 11.4202   2
   0   2   7 325.692 11.1308   5
   0   2  -7 308.365 10.1948   1
   0   2  -7 305.723 10.8867   1
   0   2  -7 309.581 10.8646   4
   1  -2   7 27.8446 3.50495   1
  -1  -2  -7 30.4626 3.06958   3
  -1  -2  -7 27.9849 3.44960   2
  -1  -2  -7 28.1669 1.62313   6
   1  -2   7 32.9983 3.56298   3
   1  -2   7 46.7574 4.29006   6
   1  -2   7 34.4966 2.85055   4
   1  -2   7 33.2454 3.36861   5
   1   2   7 41.9280 4.55317   5
   1   2   7 31.0829 3.09870   3
  -1   2  -7 30.6294 3.22212   3
   1   2   7 31.9791 2.87987   2
   1   2   7 30.7665 2.35931   6
  -1   2  -7 36.0282 4.29674   1
  -1   2  -7 40.3594 3.83794   4
   1   2   7 32.0434 2.52941   4
   1   2   7 32.7717 2.54870   1
  -1   2  -7 32.3155 3.16607   6
  -1   2  -7 33.7573 2.87834   1
  -2  -2  -7 379.639 12.8092   3
   2  -2   7 399.828 13.6410   3
   2  -2   7 395.893 14.1760   6
  -2  -2  -7 383.420 10.7615   1
   2  -2   7 401.458 14.5382   1
   2  -2   7 387.330 13.4031   5
  -2  -2  -7 386.789 12.0309   6
  -2  -2  -7 382.980 12.4731   2
  -2   2  -7 396.291 13.1770   6
  -2   2  -7 402.396 12.6021   4
   2   2   7 400.288 13.7877   1
  -2   2  -7 418.243 13.5034   3
  -2   2  -7 416.184 15.1822   1
   2   2   7 394.684 13.1338   3
   2   2   7 389.478 13.0072   6
   2   2   7 392.293 10.2077   4
  -3  -2  -7 159.471 7.05919   1
   3  -2   7 156.492 8.87925   6
  -3  -2  -7 158.033 6.19109   2
   3  -2   7 175.669 8.61226   3
  -3   2  -7 140.355 9.41586   1
   3   2   7 148.499 8.01790   6
  -3   2  -7 155.372 6.68358   4
   3   2   7 156.275 7.98204   3
  -4  -2  -7 -0.5709 1.82211   1
   4  -2   7 0.27260 1.82840   3
   4  -2   7 -0.3993 2.06047   6
  -4   2  -7 -4.4151 2.72567   1
   4   2   7 0.88195 2.24050   6
   4   2   7 0.13245 1.83376   3
  -5  -3   7 27.6028 3.84680   4
   5  -3  -7 38.7602 4.84960   5
  -5  -3   7 37.0636 5.38917   1
  -5   3   7 27.9249 5.76555   1
  -5   3   7 39.6680 5.74910   4
  -4  -3   7 148.366 7.58167   4
  -4  -3   7 153.414 9.21768   6
   4  -3  -7 138.092 7.72917   1
   4  -3  -7 146.602 7.56679   5
  -4  -3   7 144.321 8.80718   1
   4   3  -7 158.589 8.42087   6
  -4   3   7 157.615 10.0255   1
  -4   3   7 150.724 11.2451   6
  -3  -3   7 12.2379 2.83358   4
  -3  -3   7 9.10121 2.75402   1
   3  -3  -7 10.0463 2.36299   5
   3  -3  -7 12.7866 2.49223   6
   3  -3  -7 9.06846 2.23004   1
  -3  -3   7 11.5358 3.01382   6
  -3   3   7 10.2445 3.01695   1
   3   3  -7 9.98407 2.78231   4
  -3   3   7 14.0543 2.85674   6
   3   3  -7 12.6840 2.75603   6
  -2  -3   7 37.7394 4.14938   1
  -2  -3   7 40.1253 4.32387   4
  -2  -3   7 39.8482 4.24897   6
   2  -3  -7 47.6393 3.80011   5
   2  -3  -7 33.6968 2.83062   6
   2   3  -7 42.9273 3.77058   5
  -2   3   7 41.5964 3.36301   6
   2   3  -7 35.9417 3.99079   1
   2   3  -7 38.2304 4.46105   1
  -2   3   7 40.4313 4.12467   1
   2   3  -7 45.6215 3.65780   6
  -2   3   7 33.4799 4.78359   2
   2   3  -7 37.7517 4.45472   4
  -1  -3   7 133.032 6.29941   6
   1  -3  -7 135.835 6.54162   5
  -1  -3   7 141.415 6.41366   1
  -1  -3   7 141.228 6.47339   6
  -1  -3   7 141.646 6.56555   4
   1   3  -7 129.832 6.47958   1
  -1   3   7 135.460 5.96125   5
  -1   3   7 137.447 7.63360   2
   1   3  -7 139.129 6.16878   6
   1   3  -7 132.350 6.66474   1
   1   3  -7 153.104 7.11510   4
  -1   3   7 129.733 4.78135   1
  -1   3   7 142.546 4.87921   6
   1   3  -7 141.691 6.17956   5
   0  -3   7 3.32745 1.60477   4
   0  -3   7 1.61742 1.32287   6
   0  -3   7 2.52634 1.46155   1
   0  -3   7 0.83935 1.38724   6
   0  -3   7 0.84054 1.11473   3
   0  -3   7 1.79503 1.38302   1
   0  -3   7 -0.2073 0.89729   5
   0  -3  -7 1.40476 2.10203   2
   0   3  -7 2.56384 1.88916   1
   0   3   7 0.92253 1.60541   2
   0   3  -7 0.19965 1.10890   6
   0   3  -7 -0.0093 1.21475   5
   0   3   7 -0.0212 1.07171   3
   0   3   7 -0.8312 1.37791   5
   0   3  -7 -0.4306 1.12454   1
   0   3  -7 2.22539 1.62887   4
  -1  -3  -7 618.920 19.7859   2
   1  -3   7 657.083 18.7198   3
   1  -3   7 641.790 19.3965   6
   1  -3   7 638.225 19.5948   1
   1  -3   7 623.813 18.7510   6
   1  -3   7 622.502 17.8715   5
   1  -3   7 629.468 18.7266   4
   1   3   7 648.925 18.0701   4
  -1   3  -7 633.192 18.7041   6
   1   3   7 634.612 18.7653   2
  -1   3  -7 669.203 18.6541   1
   1   3   7 606.751 17.9249   3
   1   3   7 649.078 17.1521   1
  -1   3  -7 626.515 18.8413   4
  -1   3  -7 623.045 18.3931   3
  -1   3  -7 639.884 20.3657   1
   1   3   7 646.850 16.9852   6
  -2  -3  -7 12.0274 2.62204   2
   2  -3   7 6.10952 2.00170   3
   2  -3   7 10.9910 1.69734   2
   2  -3   7 13.1451 3.06435   6
  -2  -3  -7 8.54821 2.01711   3
   2  -3   7 10.2559 2.24348   5
   2   3   7 8.33253 2.18724   1
  -2   3  -7 10.5832 2.34527   4
  -2   3  -7 9.59093 2.25328   3
  -2   3  -7 9.33020 2.00946   1
   2   3   7 12.7312 2.29007   6
  -2   3  -7 11.3258 2.47970   6
   2   3   7 10.6918 2.17241   3
  -2   3  -7 9.56762 3.38831   1
   2   3   7 8.04831 1.05682   4
  -3  -3  -7 209.658 8.48062   2
   3  -3   7 211.382 9.92169   3
  -3  -3  -7 211.132 7.29038   1
   3  -3   7 222.858 10.9819   6
  -3   3  -7 203.780 11.5713   1
  -3   3  -7 206.716 8.47191   4
   3   3   7 220.008 9.38983   3
   3   3   7 200.362 9.33305   6
  -3   3  -7 191.366 13.3813   6
   4  -3   7 21.1351 4.54695   6
  -4  -3  -7 22.3713 3.05865   1
   4  -3   7 13.2129 3.16332   3
   4   3   7 26.4216 3.96725   3
   4   3   7 24.0287 4.24782   6
  -4   3  -7 16.8140 5.01657   1
   5  -4  -7 25.8497 3.83362   5
  -5  -4   7 19.2397 4.04112   1
  -5   4   7 22.7907 4.67212   4
  -5   4   7 19.4066 5.17836   1
  -4  -4   7 15.8762 3.57540   1
   4  -4  -7 14.5447 2.95277   5
  -4  -4   7 11.9179 3.30935   6
  -4  -4   7 11.9956 2.70620   4
   4   4  -7 14.4564 3.13098   6
  -4   4   7 18.8165 4.32335   1
  -3  -4   7 53.4309 5.63206   1
   3  -4  -7 49.7716 3.39563   1
  -3  -4   7 46.9077 4.60463   4
   3  -4  -7 49.7774 4.25059   6
  -3  -4   7 54.1446 4.13486   3
   3  -4  -7 50.0100 4.17927   5
  -3  -4   7 45.9562 5.33161   6
  -3   4   7 53.8597 4.50979   6
  -3   4   7 52.2604 6.05862   1
   3   4  -7 44.1596 4.53103   6
  -2  -4   7 179.078 8.33736   6
  -2  -4   7 186.330 8.43492   1
   2  -4  -7 187.548 7.87989   5
  -2  -4   7 187.176 8.08346   4
   2  -4  -7 177.238 6.82498   6
  -2  -4   7 193.243 8.91085   6
   2   4  -7 181.231 8.01675   6
  -2   4   7 185.098 7.37090   6
   2   4  -7 189.586 8.81421   4
   2   4  -7 172.602 8.32894   1
  -2   4   7 183.145 8.16705   1
  -1  -4   7 89.6590 5.30612   6
  -1  -4   7 82.8534 4.23229   3
  -1  -4   7 86.8469 5.16298   6
  -1  -4   7 81.4947 5.14048   4
   1  -4  -7 86.7604 5.22850   5
  -1  -4   7 93.1717 5.20490   1
   1   4  -7 85.8488 5.44551   1
   1   4  -7 82.1258 5.38236   1
   1   4  -7 84.2257 5.41368   4
   1   4  -7 76.4473 4.52261   5
  -1   4   7 74.5648 4.39315   5
  -1   4   7 79.9169 3.78641   1
   1   4  -7 82.9931 4.94984   6
  -1   4   7 81.5895 5.92636   2
  -1   4   7 82.2627 3.51165   6
   0  -4   7 299.181 10.8012   1
   0  -4  -7 289.122 12.8885   2
   0  -4   7 321.490 11.0427   6
   0  -4   7 310.020 11.1845   4
   0  -4   7 309.860 11.2703   6
   0  -4   7 295.054 11.2031   1
   0  -4   7 322.540 10.1884   3
   0   4   7 310.093 10.0311   3
   0   4   7 318.786 11.2979   5
   0   4  -7 317.206 12.0944   1
   0   4   7 301.773 11.8007   2
   0   4  -7 311.822 11.1395   1
   0   4  -7 327.923 11.3131   6
   0   4  -7 296.137 11.3665   4
   0   4  -7 315.302 10.3688   5
  -1  -4  -7 23.3686 3.95675   2
   1  -4   7 25.1489 3.07364   3
   1  -4   7 18.1863 3.07820   6
   1  -4   7 29.4388 3.78913   4
   1  -4   7 24.1748 3.05839   2
   1  -4   7 23.1639 3.76174   1
   1  -4   7 25.9274 2.47365   5
   1  -4   7 18.9681 2.80079   6
  -1   4  -7 13.9313 3.22568   1
   1   4   7 21.8534 3.15602   2
  -1   4  -7 23.9860 2.93632   3
   1   4   7 23.2902 1.94183   6
  -1   4  -7 23.2032 3.29075   4
   1   4   7 23.4139 2.32447   1
  -1   4  -7 20.5739 3.05458   6
   1   4   7 21.8795 2.50910   3
   1   4   7 24.4115 3.57952   5
  -1   4  -7 25.9860 3.32123   1
   2  -4   7 184.716 8.41966   3
   2  -4   7 188.149 7.28226   5
   2  -4   7 187.347 7.28274   2
  -2  -4  -7 178.931 8.77315   2
  -2  -4  -7 182.045 7.39269   3
   2  -4   7 192.114 9.43268   6
   2   4   7 176.673 7.33886   6
  -2   4  -7 182.667 8.44461   6
   2   4   7 191.284 6.21908   4
   2   4   7 170.860 7.38190   3
  -2   4  -7 187.675 10.3640   1
   2   4   7 190.274 8.36130   1
   3  -4   7 41.6331 5.61795   6
  -3  -4  -7 30.2244 1.83107   1
  -3  -4  -7 38.6974 4.37767   2
   3  -4   7 30.6731 3.62492   5
   3  -4   7 33.4039 4.31981   3
   3   4   7 33.8716 4.09288   3
  -3   4  -7 35.1580 5.90121   1
   3   4   7 29.0318 3.79840   6
   4  -4   7 1.29519 2.51563   6
   4  -4   7 0.74317 1.90942   3
   4   4   7 3.91379 2.22590   6
   4   4   7 1.63752 1.72143   3
  -4   4  -7 0.42870 3.64251   1
   4  -5  -7 118.049 6.33372   5
  -4  -5   7 104.943 6.08108   4
  -4  -5   7 100.543 7.21962   1
  -4   5   7 101.856 8.39136   1
   4   5  -7 99.4408 6.87625   6
  -3  -5   7 14.6973 3.43966   6
   3  -5  -7 15.5485 2.71991   5
   3  -5  -7 17.6080 2.86220   6
   3  -5  -7 14.7051 2.30050   1
  -3  -5   7 16.0739 2.56605   3
  -3  -5   7 19.6210 3.11186   4
  -3  -5   7 15.4564 3.20578   1
  -3  -5   7 14.2963 3.06944   6
  -3   5   7 13.5123 2.74119   6
  -3   5   7 18.2229 3.93004   1
   3   5  -7 10.2737 2.60629   6
  -2  -5   7 230.273 9.39034   4
  -2  -5   7 222.656 9.62327   1
   2  -5  -7 229.804 8.97571   5
   2  -5  -7 227.408 8.06307   6
  -2  -5   7 211.800 9.70904   6
   2   5  -7 227.488 9.55230   6
   2   5  -7 229.129 9.99644   1
   2   5  -7 214.462 9.05355   5
  -2   5   7 222.315 9.53524   1
  -2   5   7 228.138 8.51355   6
  -1  -5   7 218.592 9.26987   6
   1  -5  -7 191.911 11.1721   2
  -1  -5   7 222.583 7.60416   3
  -1  -5   7 227.341 9.16875   1
  -1  -5   7 212.655 9.11041   4
  -1  -5   7 229.584 9.48253   6
   1   5  -7 216.298 9.09645   6
  -1   5   7 220.979 8.11634   5
   1   5  -7 217.028 8.22576   5
  -1   5   7 204.105 7.03916   6
   1   5  -7 214.525 9.67693   1
  -1   5   7 212.313 7.71179   1
   0  -5  -7 46.5641 6.05094   2
   0  -5   7 48.9438 4.90208   4
   0  -5   7 57.8233 4.62515   6
   0  -5   7 48.4071 3.24937   3
   0  -5   7 48.9680 4.04126   6
   0   5  -7 45.1559 3.33984   5
   0   5   7 48.1035 2.47099   1
   0   5   7 47.9233 4.06419   5
   0   5  -7 50.1216 4.97365   6
   0   5   7 52.3433 3.31919   3
   0   5  -7 59.2890 6.03506   1
   1  -5   7 25.7405 3.50327   2
  -1  -5  -7 23.4057 4.35354   2
   1  -5   7 20.7659 2.81245   3
   1  -5   7 24.7638 3.33321   6
   1  -5   7 29.6706 4.22715   6
  -1   5  -7 19.7355 3.15827   6
   1   5   7 26.2491 2.14634   6
  -1   5  -7 26.1685 4.38574   1
   1   5   7 27.0319 2.69275   3
   1   5   7 20.9164 3.41054   5
  -1   5  -7 27.0556 3.12920   3
   1   5   7 28.2098 2.77743   1
   2  -5   7 54.3540 3.18158   5
   2  -5   7 64.2091 5.88828   6
   2  -5   7 60.4415 4.66649   3
   2  -5   7 47.7913 5.47404   6
   2  -5   7 60.4525 4.38548   2
  -2  -5  -7 53.0121 3.04180   6
  -2  -5  -7 54.9398 5.85228   2
   2   5   7 62.8082 4.01654   3
   2   5   7 49.0694 4.85565   1
   2   5   7 56.9502 2.88800   4
   2   5   7 51.9755 3.69412   6
   2   5   7 54.2450 3.43812   4
  -2   5  -7 57.4437 4.89807   6
  -2   5  -7 71.7279 7.66468   1
   3  -5   7 15.7324 2.59118   2
  -3  -5  -7 19.7993 3.66827   2
   3  -5   7 12.5682 3.71923   6
   3  -5   7 16.4623 3.35067   3
   3   5   7 14.6692 2.71194   3
  -3   5  -7 14.2784 4.61795   1
   3   5   7 16.5917 2.82492   6
   4  -5   7 18.1692 3.72638   3
   4   5   7 18.0138 3.24387   6
   4   5   7 24.5564 3.72300   3
  -4   5  -7 17.6039 4.90108   1
  -4  -6   7 14.5230 2.79081   4
  -4  -6   7 10.4654 3.16043   1
  -4   6   7 16.4707 4.36028   1
   4   6  -7 15.0670 3.11665   6
   3  -6  -7 10.7887 2.37958   5
  -3  -6   7 15.2496 3.08538   1
  -3  -6   7 11.6123 3.03787   6
  -3  -6   7 9.54085 2.47295   4
  -3   6   7 9.48272 3.18262   1
   3   6  -7 7.96718 2.49790   6
   3   6  -7 9.08062 2.79516   1
  -2  -6   7 87.5811 4.15743   3
  -2  -6   7 89.7838 6.50460   6
   2  -6  -7 81.2099 4.50078   6
  -2  -6   7 92.1283 5.73050   4
  -2  -6   7 89.9809 5.91934   1
  -2  -6   7 83.6147 5.98324   6
  -2   6   7 84.0233 5.95874   1
  -2   6   7 82.6288 4.81757   6
   2   6  -7 84.1180 6.20890   1
  -2   6   7 92.9890 5.30482   3
   2   6  -7 81.9232 5.20465   5
   2   6  -7 82.2852 5.77035   6
   1  -6  -7 60.2357 7.59029   2
  -1  -6   7 57.7426 4.68416   1
  -1  -6   7 63.6284 4.85910   4
  -1  -6   7 55.9959 5.41404   6
  -1  -6   7 56.3486 3.14062   3
  -1  -6   7 56.3156 4.69781   6
   1   6  -7 57.9466 5.88265   1
   1   6  -7 61.3156 5.01718   6
  -1   6   7 48.5515 3.55719   5
  -1   6   7 53.8420 3.42826   6
  -1   6   7 55.8012 4.18366   1
   1   6  -7 50.8112 3.73478   5
   0  -6   7 357.883 13.0962   6
   0  -6  -7 325.359 15.4136   2
   0  -6   7 369.347 13.6536   6
   0  -6   7 362.374 13.7276   2
   0  -6   7 351.788 11.1454   3
   0  -6   7 366.854 13.6054   4
   0   6   7 347.289 10.6819   1
   0   6  -7 358.470 14.4183   1
   0   6  -7 385.272 13.6619   6
   0   6   7 360.603 10.9991   1
   0   6   7 354.163 10.9207   3
   0   6   7 362.332 12.6430   5
   0   6  -7 369.688 11.3216   5
   1  -6   7 31.6053 4.38247   6
   1  -6   7 24.5041 3.67411   2
   1  -6   7 32.3695 3.91583   6
  -1  -6  -7 25.2203 5.03173   2
   1  -6   7 33.4107 3.47258   3
  -1   6  -7 33.9568 4.40274   6
   1   6   7 21.8829 2.34703   3
  -1   6  -7 28.9035 3.21809   3
   1   6   7 29.3689 2.47319   6
  -1   6  -7 27.4844 4.70764   1
   1   6   7 26.7106 2.98211   1
  -2  -6  -7 7.53857 3.24300   2
   2  -6   7 7.56384 2.34887   2
   2  -6   7 7.44644 2.53395   6
   2  -6   7 7.89445 2.23851   3
   2  -6   7 7.97674 2.86109   6
  -2  -6  -7 4.80288 1.25228   6
   2   6   7 3.49391 1.49737   6
   2   6   7 7.18150 1.68446   3
  -2   6  -7 5.28730 2.42407   6
  -2   6  -7 9.62334 3.92328   1
   3  -6   7 8.41787 2.58342   3
  -3  -6  -7 6.25950 2.88516   2
   3   6   7 10.1710 2.14870   3
   3   6   7 6.35691 2.04041   6
  -3   6  -7 13.0587 4.46204   1
  -3  -7   7 32.8425 4.05211   4
  -3  -7   7 34.6951 4.42448   1
   3   7  -7 34.1619 4.54336   6
   3   7  -7 21.9725 3.95784   1
  -3   7   7 36.6981 5.41068   1
  -2  -7   7 20.7125 3.55046   4
  -2  -7   7 17.3973 3.12780   1
  -2   7   7 16.1552 2.61218   6
   2   7  -7 14.3343 2.61570   5
  -2   7   7 26.8910 4.18158   1
   2   7  -7 15.5307 3.01077   6
   2   7  -7 26.3859 4.23479   1
  -1  -7   7 0.08508 1.66778   6
   1  -7  -7 -0.4334 3.01205   2
  -1  -7   7 -1.3250 1.41380   4
  -1  -7   7 0.90236 0.76428   3
  -1   7   7 -0.2018 0.94842   3
  -1   7   7 0.64097 1.21669   6
   1   7  -7 -1.2143 1.57806   6
  -1   7   7 0.15209 1.13500   5
   1   7  -7 -0.9560 1.94639   1
   1   7  -7 0.64698 1.16680   5
  -1   7   7 -0.5169 1.79929   1
   0  -7   7 95.0708 4.38047   3
   0  -7   7 83.0621 6.21339   6
   0  -7  -7 99.7629 8.67413   2
   0  -7   7 90.6103 6.57453   2
   0   7  -7 99.1784 7.53555   1
   0   7   7 95.9142 5.10353   1
   0   7   7 89.7856 4.64504   1
   0   7   7 100.585 5.62914   5
   0   7   7 89.5751 4.03040   3
   0   7  -7 92.9563 6.37945   6
   0   7  -7 98.3001 4.36427   5
   1  -7   7 4.01172 2.33336   6
  -1  -7  -7 6.66471 3.64254   2
   1  -7   7 7.42337 2.49047   2
   1  -7   7 3.41319 1.44557   3
  -1   7  -7 6.13651 3.24549   1
   1   7   7 3.89105 1.57621   1
   1   7   7 5.22559 1.19997   3
   1   7   7 3.45343 1.39717   6
  -2  -7  -7 3.42272 3.15681   2
   2  -7   7 2.16129 1.68952   3
   2  -7   7 0.64093 1.72195   2
  -2   7  -7 3.97774 3.29968   1
   2   7   7 1.11096 1.27091   6
   3  -7   7 25.8526 3.82156   3
  -3  -7  -7 26.8909 4.87766   2
   3   7   7 26.0182 3.31505   6
  -3   7  -7 23.3250 5.71857   1
  -2  -8   7 63.7079 7.21419   2
  -2  -8   7 42.8037 4.74484   1
   2   8  -7 67.5216 4.65339   5
   2   8  -7 59.2522 6.48533   1
   2   8  -7 55.1259 5.86881   6
  -2   8   7 53.6177 6.05126   1
  -1  -8   7 23.3537 4.63150   2
   1  -8  -7 21.2366 5.36961   2
   1   8  -7 25.2485 4.38652   1
  -1   8   7 27.0789 4.04015   1
   1   8  -7 18.9036 3.69597   6
   0  -8   7 74.8961 6.34526   2
   0  -8  -7 65.0635 8.13633   2
   0   8  -7 76.2958 7.88986   1
   0   8   7 60.6634 4.73989   1
   1  -8   7 148.428 8.77538   2
  -1  -8  -7 134.603 10.2113   2
   1   8   7 140.018 6.30065   6
  -1   8  -7 145.481 10.0923   1
   1   8   7 151.498 8.58613   1
   2  -8   7 106.974 7.52497   2
  -2  -8  -7 109.815 8.95615   2
   2   8   7 108.900 5.58019   6
  -2   8  -7 123.252 11.4071   1
  -5   0   8 1.59658 2.29851   4
  -5   0   8 2.91837 2.99875   1
  -4   0   8 497.629 18.9515   1
  -4   0   8 509.931 17.8749   4
  -4   0   8 503.420 18.5728   6
   4   0  -8 488.924 17.1038   6
   3   0  -8 1.23887 1.63151   5
  -3   0   8 -0.0168 1.64526   6
  -3   0   8 0.08351 1.86229   1
  -3   0   8 0.04463 1.73979   4
   3   0  -8 -2.5745 1.50993   1
   3   0  -8 0.79670 0.87955   6
  -2   0   8 78.2024 5.10437   1
  -2   0   8 76.3081 4.76143   6
  -2   0   8 90.5989 5.65793   4
   2   0  -8 75.9648 4.12485   6
   2   0  -8 70.8777 4.78790   5
   2   0  -8 72.3429 3.90829   1
   2   0  -8 78.3136 4.90920   1
   1   0  -8 278.343 8.44593   6
   1   0  -8 282.330 8.38828   1
   1   0  -8 274.421 10.1690   5
   1   0  -8 291.268 8.87302   1
  -1   0   8 271.830 10.4572   4
  -1   0   8 286.763 9.39242   1
  -1   0   8 291.792 9.06326   6
   1   0  -8 266.040 10.5385   4
  -1   0   8 271.892 9.90374   5
   0   0   8 7.32569 2.03287   5
   0   0   8 5.72507 1.87016   3
   0   0  -8 6.11285 2.11524   5
   0   0   8 4.98530 1.20745   6
   0   0   8 5.68924 1.48526   1
   0   0   8 6.42754 1.34326   6
   0   0  -8 7.97044 1.17438   1
   0   0  -8 6.25041 1.22145   1
   0   0   8 3.78146 1.65606   4
   0   0   8 7.40510 1.36590   1
   0   0  -8 5.64037 1.86683   4
  -1   0  -8 318.743 9.71440   6
  -1   0  -8 326.586 10.1660   1
  -1   0  -8 323.945 10.6891   4
   1   0   8 314.314 10.3771   6
   1   0   8 322.990 11.7639   5
   1   0   8 321.191 10.2341   2
   1   0   8 321.811 10.1784   4
  -1   0  -8 316.941 9.13069   1
  -1   0  -8 322.391 10.9698   3
   1   0   8 319.216 10.9252   1
   1   0   8 312.688 10.9772   3
  -2   0  -8 183.098 6.88768   4
   2   0   8 175.900 8.07673   3
  -2   0  -8 195.529 7.45341   6
   2   0   8 172.044 8.09824   6
  -2   0  -8 194.145 8.13651   3
  -2   0  -8 192.061 6.64384   1
   2   0   8 179.797 8.61531   1
  -2   0  -8 193.278 8.27844   1
   2   0   8 181.914 6.35650   4
  -3   0  -8 39.9386 2.76522   4
   3   0   8 40.2999 5.01515   6
  -3   0  -8 28.7315 4.41924   1
   3   0   8 33.9888 4.31958   3
  -4   0  -8 22.5019 4.47280   1
   4   0   8 23.9065 4.45064   3
   4   0   8 15.6429 3.74231   6
  -5  -1   8 99.4070 8.30332   1
   5  -1  -8 125.116 7.60269   5
  -5  -1   8 114.622 7.39581   4
  -5   1   8 114.104 7.85845   4
  -5   1   8 114.549 8.97831   1
   4  -1  -8 23.7510 4.01464   1
   4  -1  -8 28.4210 3.88985   6
  -4  -1   8 23.7253 3.99439   4
  -4  -1   8 25.8135 4.64545   1
   4  -1  -8 29.7277 4.13384   5
  -4  -1   8 30.3083 4.65156   6
  -4   1   8 19.9688 3.83683   6
  -4   1   8 28.4942 4.88068   1
  -4   1   8 38.6325 5.37048   4
   4   1  -8 28.8883 4.07082   6
   3  -1  -8 39.9019 4.03343   6
  -3  -1   8 36.5654 4.49031   6
  -3  -1   8 38.4929 4.77806   1
  -3  -1   8 31.5227 4.09036   4
   3  -1  -8 37.4502 4.38451   5
   3  -1  -8 37.7329 4.20151   1
   3   1  -8 31.6697 3.98119   5
  -3   1   8 31.0856 4.55025   4
   3   1  -8 39.3901 4.13003   6
  -3   1   8 30.2396 4.06118   6
  -3   1   8 39.5197 4.99238   1
   3   1  -8 30.1136 4.28295   1
  -2  -1   8 184.265 7.96055   6
   2  -1  -8 173.394 6.79947   1
  -2  -1   8 196.784 8.65700   4
   2  -1  -8 190.698 8.03720   5
   2  -1  -8 184.204 6.16147   1
  -2  -1   8 192.227 8.37636   1
   2  -1  -8 178.688 6.71742   6
   2   1  -8 197.331 8.60454   1
   2   1  -8 174.756 8.49017   4
  -2   1   8 196.887 8.96406   4
   2   1  -8 160.977 7.72140   5
   2   1  -8 176.373 7.16162   1
  -2   1   8 193.660 7.72295   6
  -2   1   8 188.167 8.10052   1
  -1  -1   8 35.7022 2.93279   6
   1  -1  -8 37.3099 2.01436   6
  -1  -1   8 38.9071 3.32225   5
   1  -1  -8 33.1666 3.90273   5
  -1  -1   8 40.4301 4.17749   4
  -1  -1   8 36.8330 3.00793   6
  -1  -1   8 35.5818 3.37854   1
  -1   1   8 43.5683 4.09445   5
   1   1  -8 30.3598 3.73739   4
   1   1  -8 29.3818 3.26508   5
  -1   1   8 35.6569 2.48676   6
   1   1  -8 35.1765 2.95264   1
  -1   1   8 33.9850 2.77119   1
   1   1  -8 38.7148 3.62567   1
   1   1  -8 33.4971 2.60939   6
   0  -1   8 12.6901 1.95916   1
   0  -1  -8 12.9259 2.80814   5
   0  -1  -8 11.7759 2.41502   4
   0  -1   8 13.9282 2.36702   3
   0  -1   8 10.8679 2.41268   4
   0  -1   8 11.0456 2.05553   1
   0  -1   8 9.68366 1.79873   6
   0  -1   8 11.7320 2.20848   5
   0  -1   8 10.7332 1.77787   6
   0   1   8 19.7107 2.84294   4
   0   1   8 10.9698 1.30733   6
   0   1   8 9.81722 2.28956   5
   0   1  -8 10.5942 2.36899   4
   0   1  -8 16.5484 2.13284   1
   0   1   8 11.8676 1.30897   1
   0   1   8 15.2444 1.62304   1
   0   1   8 13.2592 2.67737   2
   0   1   8 13.2198 1.31574   6
   0   1   8 15.3964 2.40318   3
   0   1  -8 16.4533 2.84850   5
   0   1  -8 9.46445 1.71674   6
   0   1  -8 13.3501 2.23152   1
  -1  -1  -8 51.7183 2.62569   6
   1  -1   8 54.7670 3.98049   3
   1  -1   8 49.4125 3.38893   4
  -1  -1  -8 50.9722 3.79579   3
  -1  -1  -8 57.6131 3.66072   4
   1  -1   8 54.6534 3.81019   6
   1  -1   8 57.4410 4.29628   5
   1  -1   8 51.1330 4.11594   1
   1   1   8 51.8472 3.47348   2
   1   1   8 51.7819 3.21078   6
   1   1   8 53.0070 3.24723   4
  -1   1  -8 49.1592 3.32385   6
  -1   1  -8 53.7012 3.18061   1
  -1   1  -8 58.0108 3.96517   4
   1   1   8 45.2233 3.65616   3
  -1   1  -8 50.4278 4.23771   1
   1   1   8 51.4059 3.53791   1
  -1   1  -8 49.6154 3.74948   3
   1   1   8 49.1225 4.37901   5
   2  -1   8 39.9328 4.22256   6
   2  -1   8 44.6318 3.07406   4
  -2  -1  -8 41.8104 3.19552   1
   2  -1   8 39.8684 4.58623   1
   2  -1   8 39.6054 4.11292   3
  -2  -1  -8 43.9795 2.49552   1
   2  -1   8 51.6751 5.25667   5
  -2  -1  -8 45.2719 3.85249   3
  -2  -1  -8 47.3104 3.34377   6
  -2  -1  -8 45.8890 2.87064   4
  -2   1  -8 45.6669 3.70627   6
  -2   1  -8 48.0578 5.05895   1
   2   1   8 46.3704 4.80971   1
  -2   1  -8 52.4892 4.12844   3
   2   1   8 43.1690 2.35790   4
  -2   1  -8 46.2615 3.41350   4
   2   1   8 46.3284 3.88695   6
   2   1   8 36.0239 3.89838   3
  -2   1  -8 39.0958 3.03600   1
   3  -1   8 57.4034 5.86779   3
   3  -1   8 66.1929 6.55178   6
  -3  -1  -8 49.6991 4.75892   1
  -3   1  -8 60.2372 6.34141   1
  -3   1  -8 49.5275 3.55208   4
   3   1   8 57.5805 5.75691   6
   3   1   8 60.5790 5.12526   3
   4  -1   8 106.135 7.36214   3
  -4  -1  -8 113.300 7.25656   1
   4  -1   8 99.3997 7.74547   6
   4   1   8 97.3146 7.48140   6
   4   1   8 116.793 7.44151   3
  -4   1  -8 104.102 8.41850   1
  -5  -2   8 4.45400 3.08158   1
   5  -2  -8 7.48353 2.78211   5
  -5  -2   8 4.58357 2.35922   4
  -5   2   8 7.54195 3.67596   1
  -5   2   8 5.28138 3.15868   4
  -4  -2   8 92.0116 7.32043   6
  -4  -2   8 84.6702 6.07405   4
   4  -2  -8 97.6840 6.59841   1
   4  -2  -8 85.6239 6.60259   6
   4  -2  -8 88.8043 6.04773   5
  -4  -2   8 104.527 7.46457   1
  -4   2   8 100.011 6.94493   6
  -4   2   8 100.392 7.20752   4
  -4   2   8 106.044 8.08112   1
   4   2  -8 94.2850 6.33876   6
   3  -2  -8 360.704 12.4513   6
  -3  -2   8 358.540 13.3163   4
   3  -2  -8 359.838 12.2568   1
   3  -2  -8 362.820 12.9210   5
  -3  -2   8 365.337 14.1354   1
  -3   2   8 340.663 13.1375   6
  -3   2   8 377.060 14.4467   1
   3   2  -8 390.421 13.1817   6
   3   2  -8 352.436 14.6368   1
  -2  -2   8 30.8711 3.79391   4
  -2  -2   8 48.0715 4.84455   1
   2  -2  -8 33.7776 2.61060   6
   2  -2  -8 43.3258 4.25990   5
  -2  -2   8 30.8980 3.78924   6
  -2   2   8 34.7914 4.41089   4
   2   2  -8 38.0056 4.46924   1
   2   2  -8 30.8075 3.45887   1
   2   2  -8 47.6890 4.99714   4
  -2   2   8 30.9889 3.65486   1
  -2   2   8 39.8815 3.75705   6
   2   2  -8 34.1685 3.75473   5
   2   2  -8 36.3765 3.66485   6
  -1  -2   8 60.0152 4.00601   6
  -1  -2   8 53.3162 4.24683   4
  -1  -2   8 46.6512 3.69661   1
   1  -2  -8 55.2852 4.40795   5
  -1  -2   8 53.1715 3.68279   6
   1   2  -8 57.1299 4.01070   1
  -1   2   8 55.0928 2.93594   1
   1   2  -8 51.5532 3.51760   6
   1   2  -8 54.8018 5.04465   4
   1   2  -8 56.7804 4.06410   5
  -1   2   8 55.6925 2.89939   6
  -1   2   8 61.0167 4.69993   4
  -1   2   8 59.8930 3.96304   5
  -1   2   8 62.5760 5.24172   2
   1   2  -8 44.2751 3.86141   1
   0  -2   8 118.361 5.66760   6
   0  -2   8 119.105 5.82942   1
   0  -2   8 118.642 5.53762   5
   0  -2   8 128.378 6.01002   4
   0  -2   8 122.669 5.54258   1
   0  -2   8 116.975 5.68058   3
   0  -2   8 123.232 5.45792   6
   0   2  -8 111.254 5.90262   5
   0   2   8 131.589 6.44995   5
   0   2   8 127.722 6.65224   2
   0   2   8 118.238 5.99619   4
   0   2   8 131.252 5.79845   3
   0   2  -8 120.606 5.46670   6
   0   2  -8 119.316 6.12114   1
   0   2  -8 113.722 5.43635   1
   0   2   8 118.706 3.52042   6
   0   2  -8 135.116 6.47193   4
   1  -2   8 276.220 10.4555   1
   1  -2   8 264.351 9.41259   4
   1  -2   8 267.789 9.53556   6
   1  -2   8 254.334 9.86950   6
   1  -2   8 272.297 9.84665   5
   1  -2   8 274.463 9.92614   3
  -1  -2  -8 261.611 7.08056   6
  -1   2  -8 271.053 9.87621   4
  -1   2  -8 278.047 9.82430   3
  -1   2  -8 271.189 10.6949   1
  -1   2  -8 262.726 9.35579   6
   1   2   8 255.119 9.43956   3
   1   2   8 263.164 8.43680   6
  -1   2  -8 271.362 9.15021   1
   1   2   8 261.849 8.74317   1
   1   2   8 250.836 8.83454   4
   1   2   8 280.118 10.9868   5
   1   2   8 265.160 9.43197   2
   2  -2   8 143.009 7.70422   6
   2  -2   8 157.281 7.45739   5
  -2  -2  -8 140.265 6.79221   3
   2  -2   8 150.193 10.4140   1
   2  -2   8 156.198 6.57668   4
   2  -2   8 152.120 7.41423   3
  -2   2  -8 152.563 6.48582   1
  -2   2  -8 155.323 6.79535   4
   2   2   8 148.666 7.40950   1
   2   2   8 143.442 6.91876   3
  -2   2  -8 147.651 6.94155   6
   2   2   8 133.978 6.65139   6
  -2   2  -8 140.107 8.29254   1
   2   2   8 142.650 4.73551   4
   3  -2   8 852.598 26.2985   3
  -3  -2  -8 865.496 23.5363   1
   3  -2   8 876.852 27.3235   6
  -3   2  -8 888.083 24.1288   4
   3   2   8 839.351 25.8258   6
   3   2   8 837.119 25.5886   3
  -3   2  -8 845.949 27.7779   1
   4  -2   8 63.0430 7.24919   6
  -4  -2  -8 72.1432 5.24107   1
   4  -2   8 69.2625 6.07433   3
   4   2   8 64.1333 6.58162   6
   4   2   8 67.5770 5.75362   3
  -4   2  -8 77.3685 8.39702   1
   5  -3  -8 41.4024 4.93126   5
  -5  -3   8 34.8045 5.15993   1
  -5  -3   8 39.0408 4.61481   4
  -5   3   8 45.2980 6.16171   4
  -5   3   8 52.1239 7.34728   1
   4  -3  -8 -0.3083 1.86908   1
  -4  -3   8 2.55405 2.29162   4
  -4  -3   8 0.96777 2.25604   6
  -4  -3   8 4.08594 2.44578   1
   4  -3  -8 0.31113 1.78901   5
   4   3  -8 0.64398 1.64664   6
  -4   3   8 2.14683 2.64440   1
  -4   3   8 2.13506 2.29084   4
  -3  -3   8 598.053 20.3478   6
  -3  -3   8 615.264 20.0737   1
   3  -3  -8 602.496 18.1823   6
  -3  -3   8 570.855 18.9825   4
   3  -3  -8 569.970 18.4602   5
   3  -3  -8 589.424 16.8805   1
   3   3  -8 624.247 19.2610   6
  -3   3   8 593.850 20.3162   1
  -3   3   8 627.831 19.3271   6
  -2  -3   8 76.3008 5.37401   6
   2  -3  -8 72.3625 3.63239   6
   2  -3  -8 72.0893 4.95430   5
  -2  -3   8 72.7551 5.14978   1
  -2  -3   8 79.7858 5.29629   4
  -2   3   8 66.2871 4.69138   1
   2   3  -8 78.8494 5.02243   5
   2   3  -8 74.4497 4.80564   6
   2   3  -8 74.7833 5.56819   4
   2   3  -8 71.3113 5.60294   1
  -2   3   8 74.0719 8.39803   2
  -2   3   8 77.1434 4.40741   6
   2   3  -8 74.0034 5.00721   1
  -1  -3   8 540.646 17.5045   4
  -1  -3   8 549.479 17.2236   6
  -1  -3   8 568.959 17.3728   6
  -1  -3   8 561.211 17.2473   1
   1  -3  -8 572.710 17.7863   5
   1   3  -8 569.675 16.9955   6
  -1   3   8 592.654 19.5060   2
   1   3  -8 576.504 17.2223   5
   1   3  -8 592.525 18.4207   4
  -1   3   8 548.065 15.0175   1
   1   3  -8 570.127 17.5717   1
  -1   3   8 584.157 15.0871   6
  -1   3   8 569.716 17.0430   5
   1   3  -8 580.884 17.9847   1
   0  -3   8 1206.62 32.5276   6
   0  -3   8 1217.74 32.6115   1
   0  -3   8 1192.40 32.2832   3
   0  -3   8 1273.65 33.1091   6
   0  -3   8 1214.61 33.1035   4
   0  -3   8 1244.74 32.1730   5
   0  -3   8 1274.84 33.2568   1
   0   3   8 1230.41 33.5077   5
   0   3  -8 1232.50 32.7538   6
   0   3  -8 1281.99 34.0236   1
   0   3  -8 1186.99 33.4340   4
   0   3  -8 1243.08 32.8105   1
   0   3  -8 1180.78 32.7206   5
   0   3   8 1216.33 33.4280   4
   0   3   8 1183.11 32.2081   3
   0   3   8 1243.99 34.1380   2
   1  -3   8 198.207 8.86280   1
  -1  -3  -8 194.772 9.21787   2
   1  -3   8 209.430 8.37297   6
   1  -3   8 204.251 8.28433   4
   1  -3   8 198.447 8.68067   6
   1  -3   8 205.200 8.31525   3
   1  -3   8 199.355 7.69230   5
  -1   3  -8 215.241 9.76834   1
   1   3   8 200.873 6.85152   1
   1   3   8 194.228 7.62955   4
  -1   3  -8 200.946 8.56340   4
  -1   3  -8 203.987 8.11523   3
   1   3   8 195.145 7.73185   3
   1   3   8 201.549 6.61007   6
  -1   3  -8 210.800 8.30664   6
   1   3   8 197.294 9.16392   5
  -1   3  -8 199.974 7.91147   1
   1   3   8 206.937 8.28399   2
  -2  -3  -8 206.406 8.48229   3
  -2  -3  -8 209.895 9.08749   2
   2  -3   8 206.661 9.17692   3
   2  -3   8 218.597 7.03244   2
   2  -3   8 217.922 8.75972   5
   2  -3   8 211.137 9.87320   6
   2   3   8 212.770 6.46063   4
  -2   3  -8 221.031 8.63696   1
   2   3   8 220.558 8.76257   3
   2   3   8 204.277 8.24207   6
  -2   3  -8 216.062 9.03495   6
  -2   3  -8 208.793 8.70095   4
  -2   3  -8 204.380 10.6640   1
   2   3   8 219.406 9.17322   1
  -3  -3  -8 14.3789 1.64746   1
   3  -3   8 13.4039 2.70509   5
   3  -3   8 16.6694 3.49078   3
   3  -3   8 17.8773 4.18954   6
  -3  -3  -8 14.6430 2.64732   2
   3   3   8 15.3278 3.08249   3
  -3   3  -8 20.2103 4.83024   1
  -3   3  -8 15.6449 3.17230   4
   3   3   8 17.1763 3.33280   6
   4  -3   8 76.1634 8.02367   6
   4  -3   8 58.1776 6.16810   3
  -4  -3  -8 77.0538 5.76515   1
   4   3   8 71.7045 6.12482   6
  -4   3  -8 70.7942 8.27811   1
   4   3   8 78.2860 6.11248   3
   5  -4  -8 22.1681 3.80383   5
  -4  -4   8 39.6248 5.20999   1
   4  -4  -8 47.1992 4.95581   5
  -4  -4   8 43.0194 4.60630   4
   4   4  -8 41.7146 5.05948   6
  -4   4   8 39.5759 5.89869   1
   3  -4  -8 117.270 4.33451   1
  -3  -4   8 123.476 7.44844   1
   3  -4  -8 121.537 6.17904   6
   3  -4  -8 130.454 6.71939   5
  -3  -4   8 120.712 7.75017   6
  -3  -4   8 125.402 6.83892   4
   3   4  -8 121.714 6.84568   6
  -3   4   8 116.607 7.73433   1
  -3   4   8 113.733 6.56047   6
  -2  -4   8 120.247 6.66375   1
   2  -4  -8 117.545 4.77707   6
   2  -4  -8 112.126 6.29032   5
  -2  -4   8 125.137 7.08683   6
  -2  -4   8 114.053 6.34399   4
  -2  -4   8 118.596 6.62351   6
  -2   4   8 113.333 5.47134   6
   2   4  -8 116.781 6.27444   5
  -2   4   8 115.206 6.24043   1
   2   4  -8 114.887 6.55389   1
   2   4  -8 116.109 6.26488   6
  -1  -4   8 74.4825 4.14222   3
  -1  -4   8 64.8667 4.58318   6
  -1  -4   8 63.4550 4.73948   6
  -1  -4   8 62.9690 4.61098   4
  -1  -4   8 57.3712 4.37751   1
   1  -4  -8 71.7361 5.06649   5
  -1   4   8 71.8629 7.70970   2
   1   4  -8 63.5413 4.31036   5
  -1   4   8 62.5517 4.19911   5
   1   4  -8 68.1034 4.58481   6
   1   4  -8 67.7317 5.09037   4
  -1   4   8 65.0591 3.24201   1
  -1   4   8 60.6024 2.86845   6
   1   4  -8 71.8026 5.12369   1
   0  -4   8 95.8758 5.66074   4
   0  -4   8 95.5677 5.37228   6
   0  -4   8 93.2509 5.68910   6
   0  -4  -8 78.7069 6.64920   2
   0  -4   8 91.6625 5.64261   1
   0  -4   8 108.040 5.67944   1
   0  -4   8 101.617 5.01030   3
   0   4   8 100.227 4.95144   3
   0   4   8 99.6472 5.82516   5
   0   4  -8 98.8246 6.42527   1
   0   4  -8 102.243 5.70114   6
   0   4  -8 108.321 5.84937   1
   0   4   8 106.200 6.38907   2
   0   4  -8 86.6039 5.88681   4
   0   4  -8 99.9688 5.28934   5
  -1  -4  -8 93.8364 6.82304   2
   1  -4   8 87.2452 4.42191   5
   1  -4   8 93.4816 5.55717   6
   1  -4   8 98.6572 5.36345   3
   1  -4   8 86.0285 5.51174   4
   1  -4   8 81.7822 5.79476   6
   1   4   8 98.5829 5.72832   2
   1   4   8 97.7448 4.24113   1
  -1   4  -8 105.907 5.86258   6
  -1   4  -8 101.841 7.17882   1
  -1   4  -8 92.3713 5.37666   1
  -1   4  -8 92.9164 5.09996   3
   1   4   8 94.1259 3.77037   6
   1   4   8 107.187 5.40104   4
   1   4   8 96.6165 6.26401   5
   1   4   8 93.4709 4.82890   3
   2  -4   8 6.98060 2.26198   6
  -2  -4  -8 8.43229 2.79723   2
   2  -4   8 6.41034 1.70498   2
   2  -4   8 7.24705 1.89436   5
   2  -4   8 4.60474 2.54279   6
   2  -4   8 3.97219 2.01349   3
  -2  -4  -8 8.46579 2.06880   3
  -2   4  -8 5.95173 3.25849   1
   2   4   8 6.60907 1.78517   6
   2   4   8 7.80560 2.21244   1
   2   4   8 6.02740 1.32476   4
   2   4   8 6.39377 1.88996   3
  -2   4  -8 3.42854 2.02770   6
   3  -4   8 145.819 7.17978   5
   3  -4   8 158.843 8.54151   3
   3  -4   8 168.360 9.81583   6
  -3  -4  -8 153.003 7.85772   2
  -3   4  -8 160.595 10.6425   1
   3   4   8 152.373 7.68558   6
   3   4   8 159.998 7.83398   3
   4  -4   8 4.01667 2.24480   3
   4  -4   8 3.62649 2.70648   6
   4   4   8 5.92161 2.39522   3
   4   4   8 5.27726 2.56660   6
  -4   4  -8 10.0964 4.43243   1
  -4  -5   8 4.05409 2.38286   1
   4  -5  -8 7.42627 2.54566   5
  -4  -5   8 6.64898 2.25200   4
  -4   5   8 12.8217 3.84019   1
   4   5  -8 5.46313 2.26302   6
  -3  -5   8 112.354 7.59377   6
  -3  -5   8 107.247 5.79293   3
  -3  -5   8 110.094 6.98140   6
  -3  -5   8 121.126 6.63493   4
   3  -5  -8 100.383 6.03812   5
  -3  -5   8 99.2957 6.81308   1
   3  -5  -8 101.885 5.94442   6
  -3   5   8 95.0024 7.22889   1
   3   5  -8 107.662 6.96235   1
  -3   5   8 98.6863 5.97192   6
   3   5  -8 100.886 6.47566   6
   2  -5  -8 20.9585 3.27175   5
  -2  -5   8 20.7343 3.33408   4
  -2  -5   8 15.1529 2.95205   6
  -2  -5   8 17.5734 3.23606   1
   2  -5  -8 18.5995 2.11088   6
  -2  -5   8 19.5430 3.82662   6
   2   5  -8 20.9421 3.14113   5
  -2   5   8 19.4970 2.52308   6
  -2   5   8 18.5264 3.24119   1
   2   5  -8 18.2014 3.21830   6
   2   5  -8 13.3896 2.89303   1
  -1  -5   8 87.3082 5.84411   6
  -1  -5   8 80.1535 5.48366   6
  -1  -5   8 84.3359 5.46545   4
  -1  -5   8 81.5175 4.42780   3
  -1  -5   8 82.7367 5.50350   1
   1   5  -8 91.3855 6.25460   1
  -1   5   8 87.3284 4.92201   5
  -1   5   8 86.6029 4.31333   1
  -1   5   8 88.5310 3.77441   6
   1   5  -8 91.2856 5.08515   5
   1   5  -8 94.4733 5.89333   6
   0  -5   8 44.5046 3.28685   3
   0  -5   8 52.7947 5.17422   6
   0  -5  -8 39.5330 5.52131   2
   0  -5   8 34.7254 3.76970   6
   0  -5   8 52.0358 4.38156   4
   0   5  -8 42.7611 3.48614   5
   0   5  -8 39.8834 4.99274   1
   0   5  -8 51.1737 4.96608   6
   0   5   8 42.5683 4.41826   5
   0   5   8 41.4932 3.26693   3
   1  -5   8 23.4581 2.39326   5
   1  -5   8 25.2954 4.13227   6
   1  -5   8 20.2962 3.09698   2
   1  -5   8 22.5889 2.94026   3
  -1  -5  -8 16.3916 4.02607   2
   1  -5   8 14.1299 2.62177   6
   1  -5   8 16.6098 3.23769   4
   1   5   8 16.8518 2.33077   3
  -1   5  -8 15.2172 3.09910   6
   1   5   8 20.6226 2.36097   1
  -1   5  -8 19.2989 2.76351   3
  -1   5  -8 21.8110 4.36354   1
   1   5   8 20.5941 1.88847   6
   2  -5   8 6.28093 1.95766   2
   2  -5   8 7.98064 2.79187   6
   2  -5   8 3.68567 2.05576   6
  -2  -5  -8 4.95239 2.86494   2
  -2  -5  -8 5.65063 1.16776   6
   2  -5   8 5.75437 2.16591   3
   2  -5   8 4.60131 1.46320   5
  -2   5  -8 9.74001 3.70483   1
   2   5   8 7.10006 1.87526   3
   2   5   8 4.27921 1.13009   4
  -2   5  -8 4.93222 2.00117   6
   2   5   8 6.74169 1.68512   6
   2   5   8 6.66859 1.59293   4
   2   5   8 3.42245 1.75551   1
   3  -5   8 11.0203 3.55770   6
  -3  -5  -8 11.4015 3.12260   2
   3  -5   8 17.2326 3.40257   3
   3   5   8 16.7651 2.87249   3
  -3   5  -8 14.9279 4.77339   1
   3   5   8 18.8863 3.09069   6
  -4   5  -8 65.4591 8.56243   1
   4   5   8 57.1386 5.81889   6
   4   5   8 71.6254 5.59335   3
  -4  -6   8 -1.7610 1.75231   1
  -4  -6   8 2.13452 1.51665   4
  -4   6   8 0.03974 2.47420   1
  -3  -6   8 9.92476 2.76139   6
  -3  -6   8 6.77872 2.46072   1
   3  -6  -8 6.98274 2.17998   5
  -3  -6   8 6.87812 2.37934   4
   3   6  -8 6.09059 2.26870   6
  -3   6   8 9.70276 3.20333   1
   3   6  -8 6.56388 2.56342   1
  -2  -6   8 175.149 9.07584   6
  -2  -6   8 173.413 6.52980   3
  -2  -6   8 137.069 7.69022   4
  -2  -6   8 161.215 8.19310   1
  -2  -6   8 155.214 8.34261   6
   2  -6  -8 150.823 5.90472   6
   2   6  -8 175.169 8.49076   6
  -2   6   8 148.849 7.95770   1
   2   6  -8 174.121 8.94768   1
  -2   6   8 158.421 6.72136   6
   2   6  -8 173.351 7.84817   5
  -1  -6   8 2.00431 2.07101   4
  -1  -6   8 2.98926 1.90829   1
  -1  -6   8 3.22684 1.98227   6
   1  -6  -8 -0.8124 2.88299   2
  -1  -6   8 3.01160 1.17839   3
  -1  -6   8 -0.2624 1.38079   6
   1   6  -8 1.45254 2.15748   1
  -1   6   8 1.74070 1.60963   1
   1   6  -8 0.51028 1.29343   5
   1   6  -8 3.17594 2.01775   6
  -1   6   8 2.00441 1.24299   6
  -1   6   8 2.64304 1.53673   5
   0  -6   8 9.83451 2.62500   4
   0  -6   8 10.5245 1.91305   3
   0  -6  -8 15.4486 4.39259   2
   0  -6   8 7.73566 2.18535   6
   0  -6   8 9.72128 2.68299   6
   0   6  -8 13.9933 3.14723   6
   0   6   8 8.70037 1.51501   1
   0   6  -8 9.86313 1.93008   5
   0   6   8 10.1479 2.48017   5
   0   6   8 6.50672 1.49990   1
   0   6   8 7.44303 1.76835   3
   0   6  -8 9.76546 3.29265   1
   1  -6   8 205.655 9.30271   2
   1  -6   8 196.281 9.15282   6
  -1  -6  -8 207.503 11.4500   2
   1  -6   8 210.683 8.49970   3
   1   6   8 194.250 6.80854   6
  -1   6  -8 212.837 9.67876   6
  -1   6  -8 218.105 8.33887   3
   1   6   8 204.074 7.45472   3
  -1   6  -8 203.321 11.1036   1
   1   6   8 203.165 7.70134   1
  -2  -6  -8 17.9761 4.22988   2
   2  -6   8 22.0415 3.34998   3
   2  -6   8 19.1823 3.78643   6
   2  -6   8 21.0574 3.37103   6
   2  -6   8 22.5742 3.46305   2
   2   6   8 16.6463 2.48857   4
   2   6   8 17.5317 2.42099   6
   2   6   8 21.4133 2.69169   3
  -2   6  -8 17.6490 3.41187   6
  -2   6  -8 22.8238 5.35551   1
  -3  -6  -8 27.3262 4.73025   2
   3  -6   8 24.9430 3.85540   3
   3   6   8 38.3682 4.02479   3
   3   6   8 31.2485 3.72124   6
  -3   6  -8 32.0929 6.23408   1
  -3  -7   8 50.6857 5.09595   4
  -3  -7   8 38.9907 4.78690   1
   3   7  -8 47.0731 5.20589   6
  -3   7   8 40.3187 5.63802   1
   3   7  -8 52.2637 5.95913   1
   3   7  -8 47.7945 5.16056   5
  -2  -7   8 54.6422 5.32765   1
  -2  -7   8 63.4844 5.10458   4
   2   7  -8 68.4439 5.41203   6
  -2   7   8 57.9035 4.11803   6
   2   7  -8 63.3509 4.69183   5
  -2   7   8 59.9273 5.80612   1
   2   7  -8 51.2520 5.69943   1
  -1  -7   8 47.4178 5.46691   6
   1  -7  -8 43.3561 7.03547   2
  -1  -7   8 53.7760 3.03876   3
  -1  -7   8 51.6828 5.42983   4
   1   7  -8 40.1962 4.79681   6
  -1   7   8 43.6960 4.32823   1
   1   7  -8 47.3983 5.80803   1
   1   7  -8 46.3627 3.67410   5
  -1   7   8 48.9133 3.36652   6
   0  -7   8 135.870 7.97010   6
   0  -7   8 153.916 6.00192   3
   0  -7  -8 122.987 9.73740   2
   0  -7   8 143.273 8.16783   2
   0   7   8 132.057 6.25054   1
   0   7   8 131.513 5.41255   3
   0   7  -8 136.525 5.74478   5
   0   7   8 138.431 5.99777   1
   0   7   8 132.845 6.92967   5
   0   7  -8 113.712 8.29391   1
   0   7  -8 133.455 8.35733   6
   1  -7   8 48.8617 3.83350   3
   1  -7   8 55.1760 5.02746   2
   1  -7   8 57.0209 6.00818   6
  -1  -7  -8 62.2638 7.54255   2
  -1   7  -8 50.5757 7.04381   1
   1   7   8 56.0716 3.42034   6
   1   7   8 54.2386 3.55878   3
  -2  -7  -8 17.7955 4.36581   2
   2  -7   8 30.9749 4.33721   2
   2  -7   8 33.3135 4.21660   3
  -2   7  -8 32.1410 6.17266   1
   2   7   8 21.6618 2.68664   6
  -2  -8   8 18.4976 3.63125   4
  -2  -8   8 20.2743 3.64149   1
   2   8  -8 18.1757 3.52376   6
   2   8  -8 18.3892 4.19897   1
   2   8  -8 21.8625 3.34006   5
  -1  -8   8 17.4058 3.96642   2
   1  -8  -8 15.2474 5.13077   2
   1   8  -8 16.2609 3.40009   6
   1   8  -8 13.9943 3.84351   1
   0  -8   8 15.3479 3.76832   2
   0  -8  -8 16.2371 4.88375   2
   0   8  -8 9.39543 3.56157   1
  -1  -8  -8 159.081 11.0331   2
   1  -8   8 160.798 9.25034   2
  -1   8  -8 183.760 11.2224   1
   1   8   8 163.044 6.61699   6
  -5   0   9 90.1683 6.93371   4
   5   0  -9 85.4108 6.58696   5
  -5   0   9 82.6977 8.46351   1
  -4   0   9 320.264 13.9762   6
   4   0  -9 337.649 13.2911   5
   4   0  -9 328.744 12.7610   6
  -4   0   9 340.551 14.6215   1
  -4   0   9 335.637 13.7612   4
   3   0  -9 658.492 19.7936   6
   3   0  -9 664.306 21.1267   1
  -3   0   9 713.271 21.9496   4
  -3   0   9 637.526 21.3972   1
  -3   0   9 668.272 21.2023   6
   3   0  -9 641.811 20.6832   5
  -2   0   9 14.5011 2.82730   1
   2   0  -9 16.0936 2.63817   1
   2   0  -9 10.5928 1.85183   1
   2   0  -9 13.5210 2.70841   5
  -2   0   9 9.19740 2.63869   4
  -2   0   9 11.3432 2.32136   6
   2   0  -9 12.3043 1.94645   6
  -1   0   9 368.003 13.0830   4
   1   0  -9 370.757 10.8081   1
  -1   0   9 369.916 11.6192   1
   1   0  -9 373.817 12.9675   5
  -1   0   9 354.811 12.3833   5
   1   0  -9 375.064 10.4977   1
  -1   0   9 386.758 11.3829   6
   1   0  -9 361.276 10.6707   6
   0   0   9 212.432 8.57178   5
   0   0   9 203.250 6.82043   6
   0   0  -9 205.940 9.05915   5
   0   0   9 205.855 6.89648   1
   0   0  -9 205.359 5.88074   1
   0   0   9 210.259 8.34974   4
   0   0   9 212.121 8.33632   3
   0   0   9 208.144 7.35315   1
   0   0   9 201.337 6.97061   6
   0   0  -9 208.378 8.64454   4
  -1   0  -9 25.4255 3.30426   3
   1   0   9 19.6819 2.76978   3
  -1   0  -9 21.6008 1.89253   1
   1   0   9 24.3429 2.95771   2
   1   0   9 21.3768 2.65790   4
   1   0   9 24.9693 3.60013   5
  -1   0  -9 21.7877 2.89752   4
  -1   0  -9 20.0350 2.42198   1
  -1   0  -9 20.2886 2.19063   6
   1   0   9 23.9904 3.10702   1
   1   0   9 18.1821 2.41994   6
   2   0   9 27.9479 2.56651   4
   2   0   9 26.5632 3.66207   6
   2   0   9 21.6455 4.03730   5
   2   0   9 22.9515 3.60672   1
  -2   0  -9 25.6043 3.38807   1
  -2   0  -9 25.9060 2.49972   1
  -2   0  -9 24.4125 2.76942   4
   2   0   9 24.1454 3.50879   3
  -3   0  -9 26.1632 2.64793   4
   3   0   9 33.2182 4.65100   3
   3   0   9 32.6136 4.52507   6
  -3   0  -9 33.8452 4.46336   1
   4   0   9 4.48500 2.22184   3
  -4   0  -9 6.41146 3.10323   1
   4   0   9 3.95461 2.54041   6
  -5  -1   9 26.2673 4.27065   4
  -5  -1   9 31.9914 5.36536   1
   5  -1  -9 29.9334 4.48501   5
  -5   1   9 25.4062 4.52847   4
  -5   1   9 27.6417 5.19759   1
   4  -1  -9 41.0590 5.17882   1
  -4  -1   9 46.9763 5.88710   6
  -4  -1   9 38.3524 4.98488   4
   4  -1  -9 41.5776 4.99349   5
  -4  -1   9 31.6942 5.11632   1
  -4   1   9 33.6817 5.26312   1
   4   1  -9 40.6265 4.60094   6
  -4   1   9 41.8848 5.39650   6
   4   1  -9 43.6669 5.02193   5
   3  -1  -9 225.499 8.86572   6
  -3  -1   9 216.047 10.3554   1
   3  -1  -9 224.769 9.71266   5
  -3  -1   9 230.417 10.3942   4
  -3  -1   9 220.872 10.2176   6
   3  -1  -9 241.390 9.57027   1
   3   1  -9 219.299 9.74334   5
   3   1  -9 225.397 10.6221   1
  -3   1   9 227.696 10.5809   1
   3   1  -9 217.430 9.09150   6
  -3   1   9 214.412 10.5509   4
  -3   1   9 229.146 10.0084   6
   2  -1  -9 351.238 10.7597   1
   2  -1  -9 350.235 12.7517   5
   2  -1  -9 360.699 10.9992   6
  -2  -1   9 381.069 12.8394   6
  -2  -1   9 376.490 13.0608   1
   2  -1  -9 369.508 10.2222   1
  -2  -1   9 362.873 13.3655   4
  -2   1   9 383.552 12.3157   6
   2   1  -9 363.320 11.6909   1
  -2   1   9 360.298 12.6634   1
   2   1  -9 390.217 13.3509   1
   2   1  -9 341.824 13.4709   4
  -2   1   9 337.740 13.4903   4
   2   1  -9 355.090 12.7306   5
   1  -1  -9 13.6816 2.80071   5
  -1  -1   9 12.7591 2.10043   6
  -1  -1   9 13.6817 2.15855   6
  -1  -1   9 19.7839 2.58369   1
  -1  -1   9 21.1722 2.90546   5
  -1  -1   9 17.0571 3.00767   4
   1  -1  -9 15.0404 1.47458   6
  -1   1   9 21.2191 2.41267   1
   1   1  -9 17.8535 2.53791   1
  -1   1   9 17.6133 2.81954   5
  -1   1   9 20.3933 2.14672   6
   1   1  -9 23.1679 3.36998   5
   1   1  -9 18.2992 3.07875   4
   1   1  -9 20.4406 2.54790   1
  -1   1   9 14.6490 2.98448   4
   1   1  -9 18.5157 2.20781   6
   0  -1   9 768.135 21.7928   5
   0  -1   9 737.008 21.8260   4
   0  -1  -9 744.189 22.0394   4
   0  -1   9 752.996 20.7764   6
   0  -1   9 751.043 20.5878   1
   0  -1   9 763.599 20.5851   6
   0  -1  -9 752.903 22.8318   5
   0  -1   9 732.848 21.5619   3
   0  -1   9 779.076 21.1914   1
   0   1   9 772.526 19.3616   1
   0   1   9 772.294 19.3395   6
   0   1   9 744.312 19.4157   6
   0   1   9 750.541 22.1899   5
   0   1   9 752.889 19.7671   1
   0   1  -9 760.589 21.0446   1
   0   1   9 752.941 21.9339   4
   0   1  -9 746.995 22.2762   4
   0   1   9 763.421 21.6534   3
   0   1   9 751.815 22.7757   2
   0   1  -9 773.693 20.5525   1
   0   1  -9 762.815 22.4830   5
   1  -1   9 108.380 5.91238   1
   1  -1   9 95.2754 5.05956   4
   1  -1   9 100.364 5.91153   5
   1  -1   9 99.6949 5.59841   3
  -1  -1  -9 111.864 5.68935   3
   1  -1   9 110.598 5.56546   6
  -1  -1  -9 101.022 5.22700   4
  -1  -1  -9 104.787 3.98733   6
  -1   1  -9 117.653 4.82339   1
  -1   1  -9 109.725 5.87331   1
  -1   1  -9 99.3978 5.54879   4
   1   1   9 114.106 5.37129   2
   1   1   9 99.1463 5.51789   3
  -1   1  -9 104.372 4.93349   6
  -1   1  -9 107.540 5.63301   3
   1   1   9 106.142 6.32368   5
   1   1   9 100.812 4.75229   6
   1   1   9 105.166 5.16791   1
   1   1   9 107.574 4.99964   4
   2  -1   9 153.803 7.85707   5
   2  -1   9 140.468 5.95709   4
  -2  -1  -9 143.446 5.48364   1
   2  -1   9 147.276 7.39560   3
   2  -1   9 139.052 7.40621   6
  -2  -1  -9 147.346 4.81780   1
  -2  -1  -9 144.366 5.78210   4
   2  -1   9 147.475 7.88665   1
   2   1   9 138.133 6.86084   6
   2   1   9 137.899 7.33269   1
   2   1   9 141.694 5.18310   4
  -2   1  -9 143.805 7.82931   1
  -2   1  -9 134.376 6.31930   4
   2   1   9 135.390 7.00272   3
  -2   1  -9 131.582 5.88686   1
   3  -1   9 101.063 6.73951   3
  -3  -1  -9 100.518 5.83601   1
   3  -1   9 93.4014 6.90040   6
  -3   1  -9 102.567 7.39306   1
  -3   1  -9 101.649 5.12646   4
   3   1   9 112.161 7.00480   6
   3   1   9 95.1134 6.36619   3
   4  -1   9 43.2323 5.82270   6
   4  -1   9 43.3807 5.53730   3
  -4  -1  -9 56.3276 5.51765   1
  -4   1  -9 50.5175 6.52043   1
   4   1   9 35.9639 4.85539   3
   4   1   9 41.4471 5.48449   6
  -5  -2   9 61.0892 5.99905   4
   5  -2  -9 61.4047 5.45043   5
  -5  -2   9 58.8250 6.99533   1
  -5   2   9 52.5331 7.11906   1
  -5   2   9 71.9685 7.36522   4
   4  -2  -9 77.7868 5.79525   1
   4  -2  -9 86.8858 6.02029   5
  -4  -2   9 86.0538 6.20476   4
  -4  -2   9 86.0129 6.96253   1
  -4   2   9 76.4003 7.64260   1
  -4   2   9 81.4495 7.86000   4
   4   2  -9 80.5562 5.89217   6
   3  -2  -9 69.4483 4.48079   6
   3  -2  -9 70.5089 4.34979   1
  -3  -2   9 70.7698 5.32160   4
  -3  -2   9 75.6873 5.87989   6
   3  -2  -9 57.7735 4.96723   5
  -3  -2   9 67.4740 5.76255   1
  -3   2   9 70.3527 6.86013   4
  -3   2   9 70.2158 5.25866   6
   3   2  -9 75.0166 6.33337   1
   3   2  -9 77.8925 5.53479   5
   3   2  -9 77.9340 5.13880   6
  -3   2   9 66.3953 5.76530   1
  -2  -2   9 237.604 9.71242   6
   2  -2  -9 216.321 9.46606   5
  -2  -2   9 235.516 9.96434   4
  -2  -2   9 236.671 9.74504   1
   2  -2  -9 246.044 7.70634   6
  -2   2   9 228.738 9.26978   1
   2   2  -9 236.448 9.09284   1
   2   2  -9 248.428 9.07354   6
   2   2  -9 242.591 9.73752   5
   2   2  -9 221.244 10.0353   1
  -2   2   9 230.253 8.81125   6
  -2   2   9 246.960 10.8499   4
  -1  -2   9 100.678 5.42180   1
   1  -2  -9 115.911 6.42495   5
  -1  -2   9 99.4900 5.25796   6
  -1  -2   9 106.749 6.01131   4
  -1  -2   9 105.200 5.38859   6
  -1   2   9 106.623 6.48345   4
  -1   2   9 100.745 5.47860   5
  -1   2   9 102.809 4.14210   6
   1   2  -9 106.887 5.55465   1
  -1   2   9 111.599 7.13554   2
   1   2  -9 102.351 6.30199   4
  -1   2   9 106.215 4.33990   1
   1   2  -9 97.8440 5.60037   1
   1   2  -9 100.460 4.98508   6
   1   2  -9 96.6150 5.65321   5
   0  -2   9 112.227 5.56151   6
   0  -2   9 110.707 5.79418   1
   0  -2   9 121.821 5.57954   1
   0  -2   9 112.991 5.34077   6
   0  -2   9 108.793 5.66890   3
   0  -2   9 122.413 6.11987   4
   0  -2   9 115.114 5.60534   5
   0   2  -9 117.019 6.18897   5
   0   2  -9 117.157 6.18017   1
   0   2  -9 120.159 6.46266   4
   0   2   9 117.161 5.80540   3
   0   2   9 110.696 3.59447   6
   0   2   9 122.672 6.76076   2
   0   2  -9 115.693 5.42739   6
   0   2   9 98.2481 5.68773   4
   0   2   9 116.594 3.49822   6
   0   2  -9 124.302 5.61254   1
   0   2   9 114.444 6.32427   5
   1  -2   9 149.370 7.29688   1
   1  -2   9 141.968 6.43728   6
   1  -2   9 150.065 6.87872   5
   1  -2   9 135.836 6.81745   6
   1  -2   9 132.981 6.66400   3
   1  -2   9 138.680 6.33141   4
   1   2   9 138.084 6.04076   4
  -1   2  -9 145.308 6.39524   6
  -1   2  -9 141.037 6.82933   4
  -1   2  -9 147.317 6.78041   3
  -1   2  -9 143.360 6.12133   1
   1   2   9 141.999 6.51198   2
   1   2   9 141.582 6.63800   3
   1   2   9 142.431 5.51177   6
  -1   2  -9 143.730 7.51954   1
   1   2   9 149.961 7.78168   5
   1   2   9 139.239 5.80671   1
   2  -2   9 28.0702 3.95196   5
  -2  -2  -9 23.3398 4.26355   3
   2  -2   9 29.5984 3.33305   4
   2  -2   9 30.8719 4.12437   3
   2  -2   9 21.2433 3.49662   6
  -2   2  -9 26.5280 3.13843   1
  -2   2  -9 34.6751 5.85945   6
  -2   2  -9 32.7073 3.78727   4
  -2   2  -9 21.1663 4.17183   1
   2   2   9 25.9063 3.45410   3
   2   2   9 27.7056 3.80872   1
   2   2   9 29.5146 3.52169   6
   2   2   9 27.4517 2.00131   4
   3  -2   9 125.400 8.10079   6
  -3  -2  -9 113.552 4.31778   1
   3  -2   9 109.410 7.17810   3
  -3  -2  -9 107.485 4.87572   1
  -3   2  -9 107.425 8.10695   1
  -3   2  -9 111.015 5.92592   4
   3   2   9 117.834 7.01999   3
   3   2   9 108.257 6.85225   6
   4  -2   9 92.2519 7.61067   6
   4  -2   9 89.1411 6.86997   3
  -4  -2  -9 83.4740 5.22054   1
   4   2   9 94.1682 6.96541   6
  -4   2  -9 94.4906 8.93007   1
   4   2   9 75.4884 6.32946   3
  -5  -3   9 25.5672 4.78850   1
   5  -3  -9 24.2370 4.05145   5
  -5  -3   9 22.5601 3.75651   4
  -5   3   9 25.2084 4.97742   4
  -5   3   9 23.9099 5.16339   1
  -4  -3   9 5.55555 2.59581   1
   4  -3  -9 13.5440 3.03891   5
  -4  -3   9 12.6238 3.10513   4
  -4   3   9 10.1289 3.58043   1
   4   3  -9 9.99190 2.51125   6
  -4   3   9 12.4404 3.60479   4
   3  -3  -9 19.7526 2.68687   6
  -3  -3   9 20.0831 3.72773   4
  -3  -3   9 19.0166 3.50796   1
   3  -3  -9 18.5238 3.21653   5
  -3  -3   9 24.1876 4.27540   6
   3  -3  -9 20.3819 2.03732   1
  -3   3   9 17.1136 3.05084   6
   3   3  -9 21.0197 3.26411   6
  -3   3   9 18.2750 3.98880   4
  -3   3   9 28.3569 4.29613   1
   3   3  -9 16.1882 3.18016   5
   2  -3  -9 248.003 10.4507   5
  -2  -3   9 284.149 11.1430   6
  -2  -3   9 271.859 10.7896   1
   2  -3  -9 281.207 8.23128   6
  -2  -3   9 285.755 11.0484   4
  -2  -3   9 266.265 10.5733   6
   2   3  -9 269.725 10.1330   6
   2   3  -9 280.893 10.6529   1
  -2   3   9 265.439 10.1483   1
   2   3  -9 274.643 10.6680   5
   2   3  -9 254.922 11.3329   1
  -2   3   9 252.217 11.6295   4
  -2   3   9 271.277 9.53395   6
  -1  -3   9 1.56677 1.46850   1
  -1  -3   9 2.68449 1.40215   3
  -1  -3   9 1.62841 1.54048   6
   1  -3  -9 3.08942 2.00444   5
  -1  -3   9 -0.2354 1.55764   4
  -1  -3   9 -0.4938 1.16622   6
   1   3  -9 0.35032 1.73517   4
  -1   3   9 -0.3629 1.30403   5
  -1   3   9 -0.0770 0.75676   1
  -1   3   9 3.93805 2.09827   4
  -1   3   9 0.76649 1.99904   2
   1   3  -9 2.18545 1.52574   1
   1   3  -9 1.39940 1.26921   6
   1   3  -9 3.49185 1.87253   1
   1   3  -9 0.89766 1.51601   5
  -1   3   9 1.36583 0.78516   6
   0  -3   9 157.506 6.83145   6
   0  -3   9 150.140 6.55532   5
   0  -3   9 151.296 7.03548   6
   0  -3   9 134.107 6.82029   4
   0  -3   9 158.995 6.86272   3
   0  -3   9 150.878 7.13870   1
   0  -3   9 142.088 6.69288   1
   0   3  -9 154.185 7.73248   1
   0   3   9 151.050 7.44955   5
   0   3  -9 163.763 7.09915   1
   0   3   9 145.886 6.58570   3
   0   3  -9 153.571 6.88795   6
   0   3  -9 158.779 7.60968   4
   0   3   9 146.724 7.70352   2
   0   3  -9 150.632 7.11734   5
   0   3   9 146.380 7.30554   4
   1  -3   9 61.0797 4.13251   5
   1  -3   9 60.0800 4.42208   4
   1  -3   9 59.6540 4.39099   6
   1  -3   9 62.3800 4.52973   3
   1  -3   9 67.3030 4.98310   6
   1   3   9 69.8964 3.29030   6
   1   3   9 64.5536 4.10129   4
  -1   3  -9 58.7099 4.31514   3
   1   3   9 73.6919 5.58094   5
  -1   3  -9 68.6352 4.59981   6
  -1   3  -9 62.5410 4.84661   4
  -1   3  -9 70.8752 5.87648   1
   1   3   9 72.3733 4.45516   3
  -1   3  -9 67.3067 4.40567   1
   1   3   9 70.8046 4.64192   2
   1   3   9 69.8486 3.63432   1
   2  -3   9 65.6814 5.17794   3
   2  -3   9 71.2760 5.68002   6
   2  -3   9 78.6777 3.53194   2
  -2  -3  -9 69.2331 4.87919   3
   2  -3   9 73.3871 4.91458   4
   2  -3   9 78.7742 5.13019   5
  -2  -3  -9 67.9174 5.35295   2
  -2   3  -9 71.7938 7.22708   1
  -2   3  -9 75.6753 5.30620   1
   2   3   9 77.7641 5.27120   1
   2   3   9 72.5540 4.57789   6
   2   3   9 76.0874 3.35189   4
  -2   3  -9 72.8765 5.11708   4
   2   3   9 78.3186 5.14412   3
   3  -3   9 1.43333 1.75192   3
  -3  -3  -9 4.56550 1.90538   2
   3  -3   9 6.78684 2.85277   6
  -3   3  -9 7.50487 3.52405   1
   3   3   9 1.73140 1.81916   6
   3   3   9 4.14563 2.10060   3
   4  -3   9 21.4702 4.17052   3
   4  -3   9 30.7418 5.38281   6
   4   3   9 28.4327 4.28309   3
  -4   3  -9 24.7861 5.53675   1
   4   3   9 20.0561 3.79845   6
  -4  -4   9 34.4396 4.73732   1
   4  -4  -9 47.7669 4.96622   5
  -4  -4   9 51.8192 5.24221   4
  -4   4   9 47.2396 6.17309   4
  -4   4   9 48.3282 6.35313   1
  -3  -4   9 215.615 10.2753   1
  -3  -4   9 245.666 11.3817   6
  -3  -4   9 224.786 9.82496   4
   3  -4  -9 222.652 8.58254   6
   3  -4  -9 235.897 9.84349   5
  -3   4   9 217.986 9.48519   6
   3   4  -9 232.328 10.1861   5
   3   4  -9 226.635 10.2739   1
   3   4  -9 236.213 10.0755   6
  -3   4   9 226.041 10.8395   1
  -2  -4   9 215.713 9.50498   1
   2  -4  -9 209.617 9.37643   5
   2  -4  -9 216.201 6.59859   6
  -2  -4   9 220.130 9.57999   6
  -2  -4   9 212.571 9.47835   4
  -2  -4   9 224.868 10.0348   6
   2   4  -9 214.133 9.52270   1
  -2   4   9 211.577 7.99442   6
   2   4  -9 219.323 9.37536   5
   2   4  -9 216.777 9.11388   6
  -2   4   9 211.739 8.85754   1
  -1  -4   9 24.1717 3.42183   1
  -1  -4   9 22.4094 3.25101   6
   1  -4  -9 23.3929 3.63028   5
  -1  -4   9 29.0791 3.19602   3
  -1  -4   9 29.6739 3.91704   4
  -1  -4   9 19.4622 3.07836   6
  -1   4   9 14.4221 2.58209   5
   1   4  -9 22.2239 3.08198   6
   1   4  -9 25.8134 3.38672   5
   1   4  -9 26.5259 3.90595   1
  -1   4   9 24.4869 1.68023   6
  -1   4   9 19.4001 1.96039   1
   1   4  -9 24.3545 3.70650   1
   0  -4   9 18.8381 2.86696   6
   0  -4   9 16.5559 2.93886   6
   0  -4   9 16.7102 2.93012   4
   0  -4   9 13.5186 2.32391   3
   0  -4   9 14.1212 2.49999   1
   0   4  -9 16.2786 3.60740   1
   0   4   9 15.7940 2.46527   3
   0   4   9 14.3926 3.02333   2
   0   4  -9 17.9709 2.78253   6
   0   4  -9 14.7754 2.75122   1
   0   4  -9 13.1356 2.53221   5
   0   4   9 16.9590 3.02385   4
   0   4   9 10.9247 2.57931   5
   1  -4   9 77.2043 5.19651   4
   1  -4   9 95.8972 6.20339   6
  -1  -4  -9 79.5626 6.61604   2
   1  -4   9 82.3078 5.10663   3
   1  -4   9 86.0660 4.51408   5
   1  -4   9 81.8913 5.28734   6
  -1   4  -9 77.1853 5.27167   6
   1   4   9 77.9989 3.32935   6
  -1   4  -9 91.8100 5.21403   3
   1   4   9 71.9246 4.79965   4
   1   4   9 82.7536 4.74128   3
  -1   4  -9 90.7799 6.97306   1
   1   4   9 81.7846 3.91353   1
   1   4   9 79.4035 5.37853   2
   2  -4   9 11.0048 2.57413   6
   2  -4   9 10.2192 2.66396   3
   2  -4   9 8.23634 2.78601   6
   2  -4   9 12.7557 2.08419   2
  -2  -4  -9 13.8098 3.42014   2
   2  -4   9 10.0196 2.13841   5
   2   4   9 10.9876 2.29701   3
   2   4   9 9.32689 1.96272   6
  -2   4  -9 11.5576 3.82174   1
   2   4   9 9.69635 2.43156   1
   2   4   9 9.53567 1.59639   4
   3  -4   9 16.8566 4.23288   6
   3  -4   9 18.9692 3.23880   5
  -3  -4  -9 17.1723 3.26674   2
   3  -4   9 15.0366 3.30269   3
   3   4   9 18.2693 3.33850   3
  -3   4  -9 22.1308 5.05227   1
   3   4   9 25.0081 3.54995   6
   4  -4   9 42.9380 6.19893   6
   4  -4   9 51.2544 6.12954   3
   4   4   9 41.6754 5.10339   6
   4   4   9 42.3063 5.16771   3
  -4   4  -9 41.4173 7.06847   1
   4  -5  -9 7.07960 2.64436   5
  -4  -5   9 12.7587 2.86220   4
  -4  -5   9 3.02628 2.41853   1
  -4   5   9 9.13052 3.28541   1
  -3  -5   9 -0.5630 1.47547   4
   3  -5  -9 0.22475 1.85879   5
  -3  -5   9 2.63991 2.12436   6
  -3  -5   9 1.23829 1.94420   6
  -3  -5   9 0.53162 1.81734   1
  -3   5   9 0.79732 1.49014   6
  -3   5   9 -1.5450 1.80033   1
   3   5  -9 3.05599 1.87254   1
   3   5  -9 -0.5882 1.38780   5
   3   5  -9 0.12423 1.37037   6
  -2  -5   9 168.473 8.32805   1
  -2  -5   9 177.679 8.74909   6
  -2  -5   9 179.585 9.09262   6
   2  -5  -9 172.780 8.20290   5
  -2  -5   9 176.659 8.37553   4
   2  -5  -9 165.219 5.42318   6
   2   5  -9 165.456 8.51009   1
  -2   5   9 173.895 7.91931   1
   2   5  -9 155.452 7.95536   6
  -2   5   9 161.479 6.66575   6
   2   5  -9 149.940 7.69029   5
  -1  -5   9 218.399 9.63811   6
  -1  -5   9 224.030 8.37518   3
  -1  -5   9 208.170 9.57660   6
  -1  -5   9 198.706 9.15628   1
  -1  -5   9 226.943 9.69036   4
  -1   5   9 222.272 7.57495   1
  -1   5   9 218.750 8.87721   5
   1   5  -9 228.072 10.3164   1
  -1   5   9 229.198 6.85440   6
   1   5  -9 222.635 8.95803   5
   1   5  -9 258.906 10.1691   6
   0  -5   9 419.115 14.5583   6
   0  -5  -9 394.222 17.1038   2
   0  -5   9 419.344 13.5116   3
   0  -5   9 437.305 15.1736   6
   0  -5   9 394.659 14.6257   4
   0   5  -9 424.426 16.0623   1
   0   5  -9 457.621 14.0339   5
   0   5  -9 432.300 14.9456   6
   0   5   9 422.879 14.8110   5
   0   5   9 438.651 13.5353   3
   1  -5   9 208.105 9.41126   4
   1  -5   9 219.531 8.93607   2
   1  -5   9 205.462 9.89929   6
   1  -5   9 211.018 9.16218   6
  -1  -5  -9 197.804 10.9307   2
   1  -5   9 204.111 8.64900   3
   1  -5   9 217.477 7.60916   5
  -1   5  -9 210.655 9.40410   6
   1   5   9 209.352 7.35291   1
   1   5   9 216.624 8.10469   3
  -1   5  -9 207.571 8.49160   3
   1   5   9 197.965 6.36711   6
   1   5   9 198.253 8.71551   4
  -1   5  -9 183.995 10.5654   1
   2  -5   9 128.202 8.13535   6
  -2  -5  -9 111.226 7.89734   2
   2  -5   9 125.545 6.19682   2
   2  -5   9 128.470 5.63292   5
   2  -5   9 127.325 7.13689   3
   2   5   9 128.680 5.65206   6
  -2   5  -9 128.351 9.15074   1
   2   5   9 127.166 6.80595   1
   2   5   9 120.364 6.11162   3
   2   5   9 121.992 5.35283   4
   3  -5   9 32.8997 5.34253   6
   3  -5   9 37.8750 5.00084   3
  -3  -5  -9 25.0059 4.20955   2
   3   5   9 32.1321 4.04077   3
   3   5   9 36.9190 4.14823   6
  -3   5  -9 40.7921 6.64043   1
  -3  -6   9 132.487 7.79011   1
   3  -6  -9 124.987 6.89130   5
  -3  -6   9 122.373 7.81015   6
  -3  -6   9 136.958 7.43055   4
   3   6  -9 124.516 7.35706   5
   3   6  -9 137.050 7.73548   6
  -3   6   9 129.052 8.36159   1
   3   6  -9 151.634 8.51328   1
  -2  -6   9 17.7463 3.25046   1
  -2  -6   9 17.8973 3.29360   4
  -2  -6   9 18.0099 2.48618   3
  -2  -6   9 15.5476 3.17964   6
  -2  -6   9 21.2810 4.05470   6
   2   6  -9 18.2909 3.19099   5
   2   6  -9 19.4120 3.61820   1
   2   6  -9 23.5603 3.72875   6
  -2   6   9 20.7519 2.57476   6
  -2   6   9 16.0551 3.08338   1
  -1  -6   9 71.3767 4.04256   3
  -1  -6   9 68.8087 5.35808   6
  -1  -6   9 67.9072 5.16916   1
  -1  -6   9 69.5302 5.34845   4
  -1  -6   9 75.1761 5.76493   6
   1   6  -9 56.7768 6.17118   1
   1   6  -9 70.3145 4.71310   5
   1   6  -9 67.2091 5.34122   6
  -1   6   9 64.5449 4.09531   1
  -1   6   9 68.2138 4.57733   5
  -1   6   9 69.5669 3.42266   6
   0  -6   9 132.425 7.63502   6
   0  -6   9 130.648 5.94112   3
   0  -6  -9 126.521 9.50741   2
   0  -6   9 143.003 7.71604   4
   0  -6   9 125.757 7.03365   6
   0   6  -9 126.638 7.36389   6
   0   6   9 124.229 4.87728   1
   0   6  -9 127.434 6.05938   5
   0   6  -9 124.436 8.41523   1
   0   6   9 120.716 4.71100   1
   0   6   9 122.641 5.77383   3
  -1  -6  -9 51.2558 6.75766   2
   1  -6   9 40.6157 4.97042   6
   1  -6   9 46.4387 4.45214   3
   1  -6   9 44.4880 4.76636   6
   1  -6   9 43.1959 4.67833   2
  -1   6  -9 32.1919 5.37339   1
   1   6   9 39.9528 3.14194   1
   1   6   9 42.0965 3.26523   3
  -1   6  -9 37.2223 4.44634   6
   1   6   9 40.7761 2.52012   6
   2  -6   9 18.4035 3.21824   3
  -2  -6  -9 15.3546 4.09450   2
   2  -6   9 18.5478 4.02486   6
   2  -6   9 18.5918 3.16809   2
   2   6   9 19.3953 3.86101   4
   2   6   9 17.0996 2.28120   6
   2   6   9 21.0525 2.81114   3
  -2   6  -9 20.5691 5.05548   1
  -3  -6  -9 44.3444 5.79893   2
   3  -6   9 43.8898 5.09010   3
   3   6   9 43.8834 4.23116   6
  -3   6  -9 58.5901 8.13532   1
   3   6   9 58.9584 6.01863   3
  -3  -7   9 23.8709 3.77704   4
  -3  -7   9 20.6014 3.62208   1
   3   7  -9 35.0636 4.50391   5
   3   7  -9 18.8685 3.78729   1
  -3   7   9 22.5265 4.39666   1
  -2  -7   9 19.5180 3.50539   1
  -2  -7   9 25.5225 4.17932   4
  -2   7   9 20.1507 3.59914   1
   2   7  -9 23.1215 3.50121   5
  -2   7   9 15.9719 2.45350   6
   2   7  -9 20.5012 4.15649   1
   2   7  -9 19.9102 3.60253   6
  -1  -7   9 14.7733 3.28799   4
  -1  -7   9 23.8166 3.95746   6
  -1  -7   9 24.0192 2.57643   3
   1   7  -9 19.1913 3.45874   6
  -1   7   9 19.6060 2.25353   6
  -1   7   9 14.1311 2.73390   1
   1   7  -9 15.0448 3.64928   1
   1   7  -9 22.7830 3.15201   5
   0  -7   9 221.702 10.4671   2
   0  -7   9 209.857 7.98486   3
   0  -7   9 213.812 10.3810   6
   0  -7  -9 205.683 12.6778   2
   0  -7   9 210.681 10.2021   4
   0   7  -9 218.809 11.5374   1
   0   7   9 202.474 7.59844   3
   0   7  -9 207.865 7.99884   5
   1  -7   9 34.4777 4.65787   2
   1  -7   9 26.8697 3.39734   3
  -1  -7  -9 30.0177 5.62226   2
   1  -7   9 37.1094 5.10663   6
   1   7   9 28.9253 2.47309   6
  -1   7  -9 33.6504 5.68115   1
  -2  -7  -9 51.6143 6.89181   2
   2  -7   9 53.4936 4.60141   3
   2  -7   9 45.0305 5.16139   2
   2   7   9 53.2873 3.45465   6
  -2   7  -9 56.7592 7.72078   1
  -2  -8   9 157.098 8.64141   1
  -2  -8   9 177.143 9.27247   4
   2   8  -9 181.736 10.1615   1
  -1  -8   9 5.49019 3.12937   2
  -1  -8   9 3.33045 2.49502   4
   1  -8  -9 -0.1987 3.26663   2
   1   8  -9 -0.7622 2.07665   1
   1   8  -9 4.98519 2.33673   6
   0  -8   9 2.31244 2.27128   2
   0  -8  -9 -0.5174 3.52249   2
   0   8  -9 -0.0310 2.56606   1
   1  -8   9 38.4527 5.34644   2
  -1  -8  -9 36.6238 6.64352   2
  -1   8  -9 38.0408 6.28239   1
  -5   0  10 2.08177 2.46408   4
   5   0 -10 0.44917 2.07643   5
  -5   0  10 0.25507 2.29647   1
   4   0 -10 -0.6846 1.86450   5
  -4   0  10 3.32256 2.61001   1
  -4   0  10 1.48608 2.34382   4
   3   0 -10 690.887 21.7830   1
  -3   0  10 670.526 22.3586   1
   3   0 -10 697.567 21.9282   5
  -3   0  10 711.040 22.9594   4
  -3   0  10 704.763 22.1816   6
   3   0 -10 720.385 20.6596   6
   2   0 -10 107.086 4.94456   6
  -2   0  10 108.327 6.11392   1
  -2   0  10 107.990 6.70104   4
   2   0 -10 109.186 6.38463   5
   2   0 -10 111.548 5.62949   1
  -2   0  10 110.508 5.83562   6
   2   0 -10 105.303 4.79100   1
   1   0 -10 116.599 6.71942   5
   1   0 -10 133.701 4.59534   1
  -1   0  10 129.465 5.37907   6
  -1   0  10 124.399 6.84375   4
  -1   0  10 134.825 5.52039   6
  -1   0  10 122.928 6.31589   5
   1   0 -10 128.358 7.22402   4
  -1   0  10 120.257 5.55028   1
   1   0 -10 130.096 5.01148   6
   1   0 -10 125.067 4.65771   1
   0   0  10 102.117 5.56261   4
   0   0  10 99.1308 4.78073   1
   0   0 -10 87.8192 6.00431   5
   0   0  10 93.0881 5.62332   5
   0   0  10 98.0458 4.41884   6
   0   0 -10 96.4258 5.76652   4
   0   0  10 95.3371 4.24297   6
   0   0  10 97.1100 4.30634   1
   0   0  10 98.4484 5.51820   3
   1   0  10 57.4728 3.84131   6
   1   0  10 58.3340 4.04093   2
  -1   0 -10 60.2854 3.29191   1
  -1   0 -10 56.4054 2.70981   1
   1   0  10 60.7040 3.91013   4
   1   0  10 66.3527 4.63022   3
  -1   0 -10 52.0729 4.16844   4
   1   0  10 64.0866 5.04021   5
   1   0  10 56.7714 4.19665   1
  -1   0 -10 53.1606 3.21838   6
  -1   0 -10 59.4133 4.34853   3
  -2   0 -10 82.1909 5.09811   1
  -2   0 -10 76.5649 3.82085   1
   2   0  10 87.3507 4.25719   4
   2   0  10 86.8125 5.67916   3
   2   0  10 82.1062 2.84254   2
   2   0  10 77.4287 5.69993   1
  -2   0 -10 80.5138 4.68808   4
   2   0  10 79.4769 5.45600   6
   3   0  10 31.8235 4.51622   3
  -3   0 -10 28.4395 2.98512   1
   3   0  10 30.8209 4.56883   6
  -3   0 -10 39.2781 4.70881   1
  -3   0 -10 30.0774 2.90216   4
   4   0  10 10.2060 3.01637   3
  -4   0 -10 11.8659 3.36772   1
   4   0  10 8.58422 3.27307   6
   5  -1 -10 58.6879 6.23952   5
  -5  -1  10 42.8952 6.11340   1
  -5  -1  10 40.3019 5.16744   4
   5   1 -10 49.9172 5.64725   5
  -5   1  10 48.5122 6.12082   4
  -5   1  10 48.6708 6.53488   1
   4  -1 -10 77.9237 5.91308   5
  -4  -1  10 73.6039 6.19707   4
  -4  -1  10 54.0425 6.31932   1
   4  -1 -10 55.2083 5.66290   1
  -4   1  10 82.6750 8.15677   1
  -4   1  10 85.4503 6.96049   4
   4   1 -10 78.2516 6.00245   5
   3  -1 -10 11.2704 2.90570   5
  -3  -1  10 6.44587 2.40587   6
   3  -1 -10 13.1139 2.28440   6
  -3  -1  10 9.28691 3.01148   4
   3  -1 -10 7.59858 2.20750   1
  -3  -1  10 4.15752 2.56224   1
  -3   1  10 11.4773 2.70065   6
   3   1 -10 11.1861 2.32217   6
   3   1 -10 7.14493 2.71948   1
  -3   1  10 15.8718 3.36446   1
  -3   1  10 9.07750 2.95896   4
   3   1 -10 10.6489 2.91301   5
   2  -1 -10 13.6436 1.86629   6
   2  -1 -10 14.1054 2.94878   5
  -2  -1  10 13.9217 3.06019   4
  -2  -1  10 12.5513 2.46026   6
   2  -1 -10 16.8038 1.55968   1
   2  -1 -10 12.7227 1.50891   1
  -2  -1  10 14.8068 2.88529   1
   2   1 -10 15.4972 2.36407   1
  -2   1  10 16.7524 2.58916   6
  -2   1  10 14.5514 2.69785   1
   2   1 -10 15.1894 3.02057   5
   2   1 -10 12.4727 2.11968   6
  -2   1  10 16.1978 3.34347   4
   2   1 -10 16.6601 3.30940   4
   2   1 -10 10.8934 2.62599   1
  -1  -1  10 91.8790 5.70083   4
  -1  -1  10 96.8103 4.82731   6
  -1  -1  10 91.2685 4.93676   1
  -1  -1  10 84.5971 5.18638   5
  -1  -1  10 88.5419 4.70309   6
   1  -1 -10 87.7876 5.89579   5
  -1   1  10 91.1499 4.15730   6
   1   1 -10 90.4978 4.89092   1
  -1   1  10 86.5027 4.38330   1
  -1   1  10 76.3194 5.11788   5
   1   1 -10 93.4983 4.48977   6
   1   1 -10 93.7966 5.74164   5
  -1   1  10 94.1882 5.95781   4
   1   1 -10 92.0779 4.80961   1
   0  -1  10 58.7765 4.33482   5
   0  -1  10 64.3576 4.46153   3
   0  -1  10 63.0326 3.91564   6
   0  -1 -10 59.4455 5.16248   5
   0  -1  10 56.9936 3.91482   1
   0  -1  10 58.4042 4.35595   4
   0  -1  10 52.3860 3.54857   1
   0  -1 -10 64.2602 4.73604   4
   0  -1  10 61.8473 3.61950   6
   0   1 -10 60.2913 3.58319   1
   0   1  10 62.2168 3.34148   1
   0   1 -10 56.7301 4.52852   4
   0   1  10 60.1819 4.36399   3
   0   1 -10 58.8299 3.95959   1
   0   1 -10 61.4590 4.96504   5
   0   1  10 64.1191 2.92820   6
   0   1  10 62.4634 4.71836   5
   0   1  10 61.3775 4.48080   4
   0   1  10 62.7522 5.05026   2
   0   1  10 62.5083 3.03847   6
   0   1  10 62.7684 2.98363   1
   1  -1  10 166.794 7.79777   1
  -1  -1 -10 165.568 7.31236   4
   1  -1  10 172.622 7.04432   6
   1  -1  10 169.661 7.75931   3
   1  -1  10 170.347 7.44011   6
  -1  -1 -10 169.871 5.63679   6
   1  -1  10 168.280 7.20529   4
   1  -1  10 186.302 8.37055   5
  -1   1 -10 176.428 6.47882   1
  -1   1 -10 175.930 7.85650   4
  -1   1 -10 173.282 7.63897   1
  -1   1 -10 180.700 6.88121   6
   1   1  10 165.883 6.91480   4
   1   1  10 161.419 7.01102   1
   1   1  10 169.913 7.74013   3
  -1   1 -10 172.440 7.72094   3
   1   1  10 170.854 6.69791   6
   1   1  10 163.269 8.35999   5
   1   1  10 174.152 7.30541   2
  -2  -1 -10 39.2908 2.26229   1
   2  -1  10 30.6336 4.01196   6
   2  -1  10 35.3748 4.26923   3
   2  -1  10 36.4311 3.06974   4
  -2  -1 -10 34.8945 1.89211   1
  -2  -1 -10 41.9131 3.21806   4
   2   1  10 33.5589 3.95183   3
  -2   1 -10 42.0487 3.23908   1
  -2   1 -10 42.6298 4.78733   1
   2   1  10 35.6507 4.39924   1
   2   1  10 38.4747 2.42795   2
   2   1  10 36.8350 4.02701   6
  -2   1 -10 38.3937 3.86316   4
   2   1  10 39.9946 2.73599   4
   3  -1  10 41.2832 5.25731   6
  -3  -1 -10 49.3870 3.09397   1
   3  -1  10 59.9433 6.24090   3
  -3  -1 -10 59.4679 4.22520   1
  -3   1 -10 53.9228 3.86634   4
  -3   1 -10 51.7861 3.85705   1
   3   1  10 46.7070 5.08224   3
  -3   1 -10 51.1506 5.82233   1
   3   1  10 55.4288 5.48667   6
   4  -1  10 32.0090 5.21572   6
   4  -1  10 38.5529 5.50691   3
  -4  -1 -10 36.6206 4.34874   1
   4   1  10 36.0493 5.18541   6
   4   1  10 39.1908 5.19346   3
  -4   1 -10 36.2978 5.45672   1
   5  -2 -10 14.7238 3.70414   5
  -5  -2  10 7.76894 3.20461   1
  -5  -2  10 13.3326 3.15554   4
  -5   2  10 11.1853 3.72652   4
   5   2 -10 8.73755 2.78715   5
  -5   2  10 13.7306 4.11687   1
   4  -2 -10 74.6780 5.77985   5
  -4  -2  10 65.9961 5.53108   4
  -4  -2  10 75.9938 6.50434   1
  -4   2  10 78.0192 7.72938   4
  -4   2  10 70.3461 7.47952   1
   4   2 -10 63.9802 5.55239   5
   3  -2 -10 6.21348 2.42018   5
   3  -2 -10 7.87472 1.89642   6
   3  -2 -10 8.04285 1.52403   1
   3  -2 -10 6.38091 1.65902   1
  -3  -2  10 10.2430 2.87941   4
  -3  -2  10 8.44690 2.61977   6
  -3  -2  10 6.75869 2.66551   1
   3   2 -10 6.01052 2.19290   1
  -3   2  10 6.68190 2.31706   6
   3   2 -10 5.41892 2.26761   5
   3   2 -10 4.99955 2.73510   1
   3   2 -10 6.59204 2.02415   6
  -3   2  10 10.1066 3.36271   4
  -3   2  10 5.09502 2.48174   1
   2  -2 -10 253.068 7.66299   6
  -2  -2  10 239.606 9.98816   1
   2  -2 -10 242.846 10.2082   5
  -2  -2  10 250.324 10.4865   4
  -2  -2  10 254.947 10.1805   6
  -2   2  10 244.857 11.2949   4
   2   2 -10 223.963 9.16400   1
   2   2 -10 241.422 10.4891   1
  -2   2  10 243.311 9.62528   1
   2   2 -10 238.809 9.12506   6
   2   2 -10 246.336 10.1035   5
  -2   2  10 252.832 9.18995   6
  -1  -2  10 358.088 13.0030   4
  -1  -2  10 354.480 11.9844   6
  -1  -2  10 352.270 11.9298   6
  -1  -2  10 341.544 11.8953   1
   1  -2 -10 343.657 13.0769   5
  -1   2  10 358.851 12.4657   5
   1   2 -10 343.764 12.6315   5
  -1   2  10 355.501 14.4307   2
   1   2 -10 370.319 12.5666   1
   1   2 -10 353.555 12.1069   1
  -1   2  10 344.027 13.3778   4
  -1   2  10 364.181 10.6386   1
  -1   2  10 366.385 10.3961   6
   1   2 -10 340.446 13.2441   4
   0  -2  10 42.8507 3.37738   6
   0  -2  10 42.5577 4.23342   4
   0  -2  10 36.2289 3.77352   3
   0  -2  10 40.2724 4.03123   1
   0  -2  10 34.5270 3.60913   5
   0  -2  10 43.5849 3.49362   1
   0  -2  10 39.8411 3.80787   6
   0   2 -10 41.0495 4.28810   1
   0   2  10 49.2749 4.86581   5
   0   2 -10 39.9259 4.46941   4
   0   2  10 40.1982 2.00508   6
   0   2  10 42.0823 4.88834   2
   0   2 -10 45.2093 4.75808   5
   0   2 -10 45.2392 3.50292   1
   0   2 -10 42.7804 3.32857   6
   0   2  10 41.2295 4.02942   3
   0   2  10 42.6657 1.92095   6
   0   2  10 38.8316 2.13721   1
   0   2  10 40.8596 1.92466   1
   0   2  10 49.5579 4.78914   4
   1  -2  10 96.5717 5.69620   5
   1  -2  10 107.708 5.59753   6
   1  -2  10 101.322 6.04724   1
   1  -2  10 106.309 5.95599   6
   1  -2  10 99.9235 5.49321   4
   1  -2  10 100.007 5.81196   3
  -1   2 -10 112.568 6.12072   4
   1   2  10 101.455 5.57810   2
   1   2  10 97.6041 5.59474   3
  -1   2 -10 102.302 5.38277   6
  -1   2 -10 105.197 6.54063   1
  -1   2 -10 93.3709 4.97281   1
   1   2  10 100.526 4.91855   1
   1   2  10 108.245 5.27113   4
  -1   2 -10 99.2373 5.74344   3
   1   2  10 93.9641 4.46026   6
   2  -2  10 44.6233 4.82297   5
   2  -2  10 48.4015 2.09332   2
   2  -2  10 62.0002 6.05621   6
   2  -2  10 60.1788 4.91388   3
   2  -2  10 50.3405 3.88589   4
   2   2  10 48.1401 4.73938   3
  -2   2 -10 46.5213 3.75070   1
   2   2  10 50.3153 3.26412   2
   2   2  10 48.5490 2.84132   4
   2   2  10 50.4126 4.09507   6
  -2   2 -10 47.6372 5.68936   1
   2   2  10 48.8196 5.02161   1
  -2   2 -10 48.4090 4.15643   4
   3  -2  10 68.5167 6.96624   6
   3  -2  10 65.0943 6.45128   3
  -3  -2 -10 68.2898 3.02501   1
  -3   2 -10 75.3023 7.53448   1
   3   2  10 70.0000 5.58073   6
   3   2  10 73.5973 5.63167   3
  -3   2 -10 65.6499 4.69189   4
   4  -2  10 113.732 8.59835   6
   4  -2  10 127.805 8.40722   3
  -4   2 -10 136.783 9.60988   1
   4   2  10 120.653 7.94696   6
   4   2  10 113.747 7.75828   3
   5  -3 -10 35.5907 4.88456   5
   4  -3 -10 20.5806 3.65628   5
  -4  -3  10 21.1081 3.97898   1
  -4  -3  10 19.4798 3.72740   4
  -4   3  10 24.2594 4.71407   1
   4   3 -10 32.1818 4.73279   5
  -4   3  10 24.7997 4.80288   4
   3  -3 -10 13.2627 3.16902   5
  -3  -3  10 15.0926 3.37033   1
   3  -3 -10 10.1846 2.01023   6
  -3  -3  10 5.10965 2.34234   6
  -3  -3  10 11.2994 2.98498   4
   3   3 -10 9.37325 2.33129   6
   3   3 -10 15.2207 3.28031   5
  -3   3  10 11.7967 3.49725   4
  -3   3  10 11.6752 3.37974   1
   3   3 -10 10.3194 2.72547   1
  -3   3  10 8.96095 2.27005   6
  -2  -3  10 174.310 8.52485   6
   2  -3 -10 175.666 5.47220   6
   2  -3 -10 170.215 8.54513   5
  -2  -3  10 166.892 8.52484   4
  -2  -3  10 160.909 7.94056   6
  -2  -3  10 184.774 8.47165   1
   2   3 -10 160.999 7.80119   1
  -2   3  10 174.856 9.51739   4
   2   3 -10 187.657 8.48564   5
  -2   3  10 178.978 7.76969   1
   2   3 -10 176.475 9.01696   1
  -2   3  10 176.171 7.09888   6
   2   3 -10 171.070 7.65216   6
  -1  -3  10 157.857 7.20513   1
   1  -3 -10 131.618 7.62402   5
  -1  -3  10 146.064 6.78265   3
  -1  -3  10 141.290 6.98738   6
  -1  -3  10 143.235 6.95598   6
  -1  -3  10 137.598 7.22902   4
   1   3 -10 149.085 7.46556   1
  -1   3  10 138.676 6.95179   5
   1   3 -10 146.336 7.25798   5
  -1   3  10 144.176 5.13258   1
   1   3 -10 130.055 7.10298   1
  -1   3  10 149.128 8.07218   4
   1   3 -10 150.005 6.89661   6
  -1   3  10 159.442 4.99342   6
  -1   3  10 154.854 10.0297   2
   0  -3  10 21.4145 3.05522   1
   0  -3  10 18.3809 3.33320   1
   0  -3  10 14.8615 2.63437   6
   0  -3  10 13.3944 2.81791   4
   0  -3  10 11.6638 2.33951   3
   0  -3  10 15.6262 2.58340   5
   0  -3  10 17.8040 2.83654   6
   0   3  10 17.9967 3.10120   4
   0   3 -10 15.5568 2.96394   5
   0   3 -10 14.4829 2.47993   1
   0   3 -10 19.7004 3.49750   1
   0   3 -10 15.5831 2.60903   6
   0   3  10 13.0526 2.84578   5
   0   3  10 12.8642 2.46628   3
   0   3  10 15.2135 3.18637   2
   0   3 -10 15.7152 3.52162   4
   1  -3  10 5.12945 1.77376   5
   1  -3  10 2.35227 1.82429   4
   1  -3  10 2.40767 1.59291   6
   1  -3  10 3.19965 1.89870   6
   1  -3  10 3.94655 1.74495   3
   1   3  10 4.64496 1.80552   3
  -1   3 -10 4.19077 2.43013   4
  -1   3 -10 2.72201 1.69380   1
   1   3  10 4.16181 1.36273   1
   1   3  10 4.94841 1.96251   2
  -1   3 -10 4.14574 1.87848   6
   1   3  10 3.03332 1.64516   4
  -1   3 -10 1.26026 2.39117   1
   1   3  10 3.87575 1.13691   6
   2  -3  10 125.127 7.05884   3
   2  -3  10 121.899 6.37136   4
   2  -3  10 116.017 4.52799   2
   2  -3  10 114.322 6.42039   5
   2  -3  10 116.268 7.30054   6
   2   3  10 129.743 6.81456   1
   2   3  10 115.577 6.42777   3
  -2   3 -10 97.2177 7.79778   1
   2   3  10 115.674 5.81718   6
   2   3  10 114.616 4.64375   4
   3  -3  10 22.3561 4.04502   3
   3  -3  10 12.2439 3.45433   6
  -3   3 -10 13.6593 4.29963   1
   3   3  10 13.5765 3.16201   3
   3   3  10 11.6019 2.73332   6
   4  -3  10 135.719 9.49377   6
   4  -3  10 127.175 8.37530   3
   4   3  10 123.727 7.96372   3
   4   3  10 129.115 8.08570   6
  -4   3 -10 124.373 9.91680   1
  -4  -4  10 71.6117 5.69593   4
   4  -4 -10 74.7426 5.81938   5
  -4  -4  10 78.8391 6.47450   1
   4   4 -10 80.0565 6.27261   5
  -4   4  10 80.7702 8.55468   4
  -4   4  10 81.4190 8.27577   1
   3  -4 -10 42.5739 4.91642   5
  -3  -4  10 37.0297 4.56974   6
  -3  -4  10 35.3654 4.56719   1
  -3  -4  10 46.1726 5.72219   6
   3  -4 -10 50.6990 3.40984   6
  -3  -4  10 40.3225 4.73840   4
   3   4 -10 44.9420 4.83245   6
  -3   4  10 45.0459 5.96287   4
   3   4 -10 40.8134 4.69097   5
   3   4 -10 45.5462 4.96387   1
  -3   4  10 43.4173 4.42875   6
  -3   4  10 41.3775 5.06704   1
  -2  -4  10 109.907 6.58523   1
   2  -4 -10 101.230 6.54174   5
  -2  -4  10 113.230 7.01146   6
  -2  -4  10 99.8963 6.46056   4
  -2  -4  10 101.428 6.38006   6
  -2   4  10 104.936 5.08071   6
   2   4 -10 100.190 6.25378   5
   2   4 -10 95.5650 6.29032   1
  -2   4  10 100.618 5.74913   1
   2   4 -10 113.339 6.22347   6
  -1  -4  10 660.115 20.7566   6
   1  -4 -10 667.765 21.4284   5
  -1  -4  10 674.805 20.8231   6
  -1  -4  10 681.559 20.6637   1
  -1  -4  10 720.829 21.3156   4
  -1  -4  10 672.793 19.9113   3
  -1   4  10 657.421 17.0110   6
  -1   4  10 672.918 17.7322   1
   1   4 -10 676.189 21.4001   1
  -1   4  10 674.219 20.4455   5
   1   4 -10 698.314 20.7348   6
  -1   4  10 709.659 22.4747   4
   1   4 -10 645.951 20.3879   5
   0  -4  10 0.43286 1.45706   1
   0  -4  10 -0.3455 1.07346   3
   0  -4  10 2.29644 1.86527   4
   0  -4  10 0.19955 1.19530   6
   0  -4  10 1.38679 1.78620   6
   0   4 -10 0.51672 2.00166   1
   0   4 -10 1.82651 1.59525   6
   0   4  10 0.43872 1.71411   4
   0   4 -10 -0.0169 1.47635   5
   0   4 -10 2.05193 1.67651   1
   0   4  10 2.35728 1.66975   3
   1  -4  10 367.152 11.9326   5
   1  -4  10 360.200 13.1240   4
   1  -4  10 380.444 13.0873   6
   1  -4  10 356.547 12.7870   3
   1  -4  10 350.787 13.6149   6
  -1   4 -10 342.121 15.1647   6
   1   4  10 355.952 9.90890   6
   1   4  10 355.530 13.1055   2
   1   4  10 371.549 10.9489   1
  -1   4 -10 351.251 14.6817   1
   1   4  10 362.989 12.5003   4
   1   4  10 341.719 12.1371   3
  -2  -4 -10 103.369 7.14768   2
   2  -4  10 95.5130 5.42421   5
   2  -4  10 93.9535 6.21859   6
   2  -4  10 96.6157 7.00301   6
   2  -4  10 95.4960 6.28906   3
   2  -4  10 100.621 4.79698   2
   2   4  10 97.8117 5.94902   1
   2   4  10 96.9880 4.37511   4
   2   4  10 97.6954 5.80929   3
  -2   4 -10 102.331 8.18480   1
   2   4  10 101.219 5.05628   6
  -3  -4 -10 23.9381 3.67213   2
   3  -4  10 26.3674 4.91380   6
   3  -4  10 31.8505 4.78333   3
  -3   4 -10 33.6714 6.05217   1
   3   4  10 22.9429 3.38228   6
   3   4  10 26.0657 3.92623   3
   4  -5 -10 28.1436 4.09555   5
  -4  -5  10 31.0147 4.18261   4
  -4  -5  10 29.0607 4.49978   1
  -4   5  10 30.9060 5.36499   4
  -4   5  10 26.2719 4.89898   1
   4   5 -10 28.3337 4.35916   1
   4   5 -10 29.6059 4.64010   5
  -3  -5  10 18.7398 3.40062   4
   3  -5 -10 20.2021 3.61490   5
  -3  -5  10 17.3140 3.57728   1
  -3  -5  10 19.6392 3.67445   6
  -3   5  10 13.8900 3.46316   1
  -3   5  10 16.0400 2.77875   6
   3   5 -10 18.1776 3.50400   1
   3   5 -10 21.9137 3.87388   5
   3   5 -10 12.8839 2.84213   6
  -2  -5  10 101.078 6.60219   6
  -2  -5  10 78.0716 6.17872   6
   2  -5 -10 87.4648 6.17043   5
  -2  -5  10 94.4927 6.16231   1
  -2  -5  10 86.8473 5.05439   3
  -2  -5  10 94.3920 6.29928   4
   2   5 -10 96.8893 6.13047   6
   2   5 -10 88.9077 6.39498   1
   2   5 -10 90.5491 5.81123   5
  -2   5  10 98.5863 4.68043   6
  -2   5  10 84.5918 5.43694   1
  -1  -5  10 82.2571 5.67296   4
  -1  -5  10 90.2760 5.91116   6
  -1  -5  10 81.5479 5.81536   6
  -1  -5  10 87.3801 5.77527   1
  -1  -5  10 88.3467 4.96508   3
  -1   5  10 84.8303 5.39927   5
   1   5 -10 88.6132 5.47570   5
   1   5 -10 81.3320 6.30446   1
   1   5 -10 90.4446 5.91022   6
  -1   5  10 88.4745 4.04282   1
  -1   5  10 86.7009 3.23231   6
   0  -5  10 62.6272 4.26303   3
   0  -5  10 62.0674 4.77931   6
   0  -5  10 60.7308 5.03185   4
   0  -5  10 60.7461 5.13040   6
   0   5 -10 58.1085 6.28431   1
   0   5  10 63.3084 4.34466   3
   0   5 -10 60.6587 4.46451   5
   0   5 -10 50.9997 5.02799   6
  -1  -5 -10 42.2222 5.90779   2
   1  -5  10 59.7653 4.48709   3
   1  -5  10 48.1993 4.09384   2
   1  -5  10 52.8959 3.52684   5
   1  -5  10 47.3304 5.08922   4
   1  -5  10 43.0326 4.66756   6
   1  -5  10 55.3447 5.66538   6
   1   5  10 51.0711 3.25531   1
   1   5  10 46.0722 4.64240   4
   1   5  10 49.8931 2.37138   6
  -1   5 -10 54.8303 6.78822   1
   1   5  10 55.2787 3.96809   3
   2  -5  10 66.7648 5.30795   3
  -2  -5 -10 66.1469 6.93803   2
   2  -5  10 71.2815 4.52160   2
   2  -5  10 78.9700 7.49094   6
   2   5  10 74.2095 5.23608   1
   2   5  10 58.7911 4.42362   3
   2   5  10 69.5066 3.95084   6
  -2   5 -10 83.3652 8.85627   1
   2   5  10 68.6857 3.94089   4
   3  -5  10 12.4342 3.93442   6
  -3  -5 -10 13.4612 3.51923   2
   3  -5  10 12.8228 2.98126   3
   3   5  10 11.9065 2.53514   6
  -3   5 -10 8.08249 4.22429   1
   3   5  10 13.1610 2.82530   3
  -3  -6  10 86.9909 5.92457   4
  -3  -6  10 75.0420 6.27307   6
  -3  -6  10 88.1204 6.39721   1
   3  -6 -10 81.4885 5.79763   5
   3   6 -10 90.5329 6.28059   5
  -3   6  10 79.7576 6.55786   1
   3   6 -10 81.6784 6.49441   1
  -2  -6  10 7.14664 1.81090   3
  -2  -6  10 3.14772 2.34976   6
  -2  -6  10 7.87200 2.66776   4
  -2  -6  10 4.41826 2.24779   1
  -2   6  10 3.77248 1.49936   6
   2   6 -10 3.83086 2.01322   5
   2   6 -10 5.21068 2.64835   1
  -2   6  10 3.79463 2.11640   1
   2   6 -10 4.27317 2.08857   6
  -1  -6  10 20.9591 3.72011   4
  -1  -6  10 27.6351 4.11558   6
  -1  -6  10 19.7931 3.38512   1
  -1  -6  10 21.9239 2.75775   3
  -1  -6  10 22.3241 3.75449   6
  -1   6  10 23.2435 1.91642   6
   1   6 -10 25.4743 4.57411   1
  -1   6  10 25.1355 2.75231   1
   1   6 -10 25.6457 3.64847   5
   1   6 -10 17.6675 3.23479   6
   0  -6 -10 3.02847 3.28026   2
   0  -6  10 4.19414 1.62343   3
   0  -6  10 2.20309 1.65793   6
   0  -6  10 3.36335 2.19646   6
   0  -6  10 2.85948 2.13497   4
   0   6  10 3.97466 1.12549   1
   0   6 -10 3.91849 1.73343   5
   0   6  10 1.83374 1.42202   3
   0   6 -10 1.85933 2.60229   1
  -1  -6 -10 140.717 9.90358   2
   1  -6  10 171.378 7.80436   3
   1  -6  10 151.237 7.84321   2
   1  -6  10 154.507 8.51828   4
   1  -6  10 166.130 9.18311   6
   1   6  10 159.951 5.24188   6
  -1   6 -10 160.050 10.1204   1
   1   6  10 156.212 6.80740   3
   1   6  10 163.950 8.05412   4
   2  -6  10 8.91848 2.63322   3
  -2  -6 -10 6.41061 3.37722   2
   2  -6  10 4.90660 2.73573   6
   2  -6  10 5.82888 2.07178   2
  -2   6 -10 2.53002 3.37923   1
   2   6  10 7.71286 1.98925   3
   2   6  10 5.40497 1.48129   6
   3  -6  10 0.90209 1.87313   3
   3   6  10 2.19017 1.52739   6
  -3  -7  10 16.7204 3.44854   4
  -3  -7  10 10.2418 2.87938   1
   3   7 -10 14.0371 3.17369   5
   3   7 -10 5.42129 2.53322   1
  -2  -7  10 3.46723 2.23325   4
  -2  -7  10 1.32419 1.85184   1
   2   7 -10 2.77168 1.92192   5
   2   7 -10 0.82892 2.29035   1
  -2   7  10 1.27194 1.46136   6
  -1  -7  10 4.19105 2.48800   6
  -1  -7  10 2.93797 1.98152   4
  -1  -7  10 3.55744 1.33634   3
  -1   7  10 5.04821 1.92500   3
   1   7 -10 3.82126 1.91584   5
   1   7 -10 7.82592 2.61049   6
   1   7 -10 2.73827 2.68548   1
   0  -7  10 -0.7336 1.78350   6
   0  -7 -10 -0.2630 3.32996   2
   0  -7  10 0.55269 1.96841   4
   0  -7  10 0.10203 0.96907   3
   0  -7  10 -0.1032 1.80103   2
   0   7 -10 0.25461 1.42926   5
   0   7  10 1.31546 1.27746   3
   0   7 -10 -0.0660 2.58357   1
  -1  -7 -10 -0.3695 3.21383   2
   1  -7  10 0.17715 1.35207   3
   1  -7  10 -1.5344 1.32078   2
   1  -7  10 1.87035 2.01653   6
  -1   7 -10 3.57183 3.00889   1
   1   7  10 -1.1776 0.84236   6
   2  -7  10 2.40427 1.79253   3
  -2  -7 -10 3.81378 3.44683   2
  -2   7 -10 -3.1496 3.06942   1
   2   7  10 3.20803 1.30422   6
  -1  -8  10 47.1149 5.77918   4
  -1  -8  10 35.0008 5.31439   2
   1   8 -10 30.4821 5.44104   1
   0  -8  10 42.0491 5.42527   2
   0  -8 -10 39.1737 6.70909   2
   0   8 -10 50.6698 7.12485   1
  -5   0  11 20.6506 4.31158   4
   5   0 -11 16.3347 3.68862   5
  -5   0  11 11.8831 3.76943   1
  -4   0  11 -1.3546 2.02424   4
   4   0 -11 4.69778 2.41104   5
   4   0 -11 2.62432 2.33349   1
  -4   0  11 5.24607 2.74085   1
  -3   0  11 75.0354 5.91446   1
  -3   0  11 63.4805 6.52719   4
   3   0 -11 51.9416 4.02793   6
   3   0 -11 55.7698 3.93360   1
   3   0 -11 49.5740 4.98185   1
   3   0 -11 58.9185 5.88725   5
  -3   0  11 62.1235 5.17655   6
   2   0 -11 11.1905 1.89941   1
  -2   0  11 10.9945 2.90302   4
  -2   0  11 9.38493 2.46272   1
   2   0 -11 9.87831 2.65347   5
  -2   0  11 7.34386 2.08530   6
   2   0 -11 12.3322 2.25651   1
   2   0 -11 8.72990 1.72580   6
   1   0 -11 317.643 12.6368   5
  -1   0  11 333.313 10.8304   1
   1   0 -11 302.903 12.6608   4
  -1   0  11 333.930 12.0815   5
   1   0 -11 331.045 9.96873   6
  -1   0  11 339.236 10.6604   6
  -1   0  11 324.167 10.4114   6
  -1   0  11 321.188 12.5038   4
   0   0  11 225.136 8.37712   1
   0   0  11 231.306 9.44029   4
   0   0  11 245.418 7.95006   6
   0   0  11 239.680 7.97203   1
   0   0  11 227.636 9.42135   3
   0   0  11 234.379 9.75599   5
   0   0  11 230.717 8.05819   6
   0   0 -11 239.811 10.1425   4
   0   0 -11 234.587 10.4820   5
   1   0  11 52.4397 4.18002   1
  -1   0 -11 50.4050 2.30239   1
   1   0  11 49.7910 4.82924   3
   1   0  11 41.3168 3.51943   6
  -1   0 -11 49.4156 2.63271   1
   1   0  11 45.7711 3.87103   2
   1   0  11 50.2976 3.77246   4
  -1   0 -11 46.4364 4.48963   4
  -2   0 -11 353.700 10.3363   1
   2   0  11 341.601 12.8285   6
  -2   0 -11 319.093 11.6661   4
   2   0  11 352.245 9.48376   2
   2   0  11 338.059 13.0378   3
  -2   0 -11 343.802 11.5138   1
   2   0  11 361.514 11.1425   4
  -3   0 -11 27.6162 3.88980   1
   3   0  11 23.7241 3.95150   6
   3   0  11 30.6532 4.63981   3
   4   0  11 23.6411 4.38400   6
   4   0  11 35.8859 5.00202   3
  -4   0 -11 34.2360 4.65957   1
   5  -1 -11 2.58283 2.47368   5
  -5  -1  11 6.86085 2.77022   4
  -5  -1  11 11.2784 3.50450   1
  -5   1  11 1.97859 2.69682   4
   5   1 -11 6.39100 3.06371   5
  -5   1  11 3.00699 2.99755   1
   4  -1 -11 24.1614 4.12156   5
  -4  -1  11 21.5799 4.33437   1
  -4  -1  11 11.8298 3.06225   4
  -4   1  11 20.1211 4.29452   1
   4   1 -11 17.7883 3.54661   5
  -4   1  11 20.6989 4.37684   4
  -3  -1  11 5.51688 2.41552   6
   3  -1 -11 7.39009 2.75754   5
   3  -1 -11 7.28517 1.81305   6
  -3  -1  11 12.6926 3.28188   4
  -3  -1  11 6.13164 2.79546   1
   3  -1 -11 5.45216 1.81019   1
   3  -1 -11 6.81836 1.62333   1
  -3   1  11 7.37596 2.72841   1
   3   1 -11 9.04232 2.86190   1
   3   1 -11 8.05362 2.24498   1
   3   1 -11 9.40404 2.63104   5
   3   1 -11 3.33806 1.35800   6
  -3   1  11 5.69028 2.24013   6
  -3   1  11 11.0166 3.26223   4
  -2  -1  11 510.190 17.9401   4
   2  -1 -11 520.468 17.6599   5
  -2  -1  11 563.842 17.3404   1
  -2  -1  11 523.505 16.8666   6
   2  -1 -11 527.383 14.6958   6
  -2   1  11 517.857 16.6740   1
   2   1 -11 527.940 17.0238   1
   2   1 -11 528.168 15.7070   6
   2   1 -11 517.350 17.5160   5
  -2   1  11 500.998 16.1512   6
  -2   1  11 539.370 18.5307   4
   2   1 -11 521.542 15.7110   1
  -1  -1  11 124.345 6.94460   4
   1  -1 -11 130.062 7.26046   5
  -1  -1  11 122.584 5.83449   1
  -1  -1  11 119.543 6.39281   5
  -1  -1  11 112.684 5.52246   6
  -1  -1  11 111.111 5.50740   6
  -1   1  11 117.856 4.99189   6
  -1   1  11 106.747 5.13782   1
   1   1 -11 110.072 6.71656   5
   1   1 -11 130.934 5.47822   6
  -1   1  11 121.825 6.54942   5
  -1   1  11 115.620 7.01576   4
  -1   1  11 112.514 4.75283   6
   1   1 -11 123.930 5.63649   1
   1   1 -11 118.063 5.69112   1
   0  -1  11 120.314 6.44346   4
   0  -1  11 114.075 6.23795   3
   0  -1  11 113.391 5.27793   6
   0  -1  11 110.780 5.46516   6
   0  -1  11 108.480 6.26528   5
   0  -1 -11 116.001 6.53588   4
   0  -1 -11 112.811 7.05202   5
   0  -1  11 120.909 5.85803   1
   0  -1  11 106.531 5.27365   1
   0   1  11 121.147 6.72768   5
   0   1  11 125.881 6.57652   4
   0   1 -11 111.106 6.85958   5
   0   1  11 120.765 4.66110   6
   0   1 -11 119.211 6.83633   4
   0   1  11 115.623 4.43404   6
   0   1  11 119.973 6.39344   3
   0   1 -11 115.416 5.52484   1
   0   1 -11 125.293 5.29773   1
   0   1  11 120.313 5.03316   1
   0   1  11 116.330 7.07629   2
   0   1  11 115.248 4.51196   1
   1  -1  11 255.412 9.75181   4
   1  -1  11 275.221 10.5735   1
   1  -1  11 265.336 10.9486   5
   1  -1  11 259.081 9.98537   6
   1  -1  11 263.109 9.51505   6
   1  -1  11 272.417 10.5887   3
  -1  -1 -11 262.366 10.0864   4
   1   1  11 267.439 9.63447   4
   1   1  11 261.645 10.3955   3
   1   1  11 247.827 9.48914   1
  -1   1 -11 272.302 10.5950   4
  -1   1 -11 269.434 9.97155   1
  -1   1 -11 250.732 8.62979   1
   1   1  11 254.335 9.08962   6
   1   1  11 262.642 9.92264   2
   2  -1  11 158.869 8.01677   3
  -2  -1 -11 145.025 6.47171   4
   2  -1  11 150.093 7.91503   6
   2  -1  11 146.749 6.44237   4
  -2   1 -11 145.249 7.06054   4
  -2   1 -11 150.931 6.22149   1
   2   1  11 134.524 5.67654   4
   2   1  11 153.208 7.80758   3
   2   1  11 155.868 7.89363   1
   2   1  11 149.672 5.44787   2
   2   1  11 144.246 7.27453   6
  -2   1 -11 140.087 7.76309   1
  -3  -1 -11 20.0405 2.53621   1
   3  -1  11 19.7790 4.03166   6
   3  -1  11 20.7217 3.83505   3
  -3   1 -11 17.4499 2.60252   1
  -3   1 -11 21.5409 4.56951   4
   3   1  11 18.9971 3.59468   3
  -3   1 -11 12.9091 3.49421   1
   3   1  11 13.9790 3.14288   6
   4  -1  11 3.46926 2.36358   3
   4  -1  11 6.21785 2.88921   6
   4   1  11 7.18464 2.62641   3
  -4   1 -11 5.12626 3.10891   1
   4   1  11 3.06726 2.67253   6
  -5  -2  11 46.7044 5.44075   4
   5  -2 -11 50.6561 5.94320   5
  -5  -2  11 45.7128 6.16517   1
  -5   2  11 38.3204 5.74410   4
  -5   2  11 40.6407 6.25122   1
   5   2 -11 57.0442 6.51031   5
   4  -2 -11 17.2248 3.74598   5
  -4  -2  11 22.9683 4.01157   4
  -4  -2  11 14.3292 3.62475   1
  -4   2  11 20.8366 4.29835   1
   4   2 -11 27.7619 4.42489   5
  -4   2  11 28.0080 4.89569   4
  -3  -2  11 145.503 8.23415   1
   3  -2 -11 150.319 4.76610   1
   3  -2 -11 137.259 7.86652   5
  -3  -2  11 149.217 8.22540   4
   3  -2 -11 138.970 4.87287   1
  -3  -2  11 158.837 8.59221   6
   3  -2 -11 150.220 6.32577   6
  -3   2  11 152.885 7.78215   6
   3   2 -11 148.393 8.12406   5
   3   2 -11 143.271 7.30818   1
  -3   2  11 147.990 9.01093   4
   3   2 -11 148.617 7.18412   6
   3   2 -11 124.363 9.56116   1
  -3   2  11 141.583 8.15938   1
  -2  -2  11 77.8478 5.33839   1
  -2  -2  11 66.9840 5.38114   4
  -2  -2  11 59.9773 4.66549   6
   2  -2 -11 65.8303 3.07477   6
  -2  -2  11 66.6847 5.06617   6
   2  -2 -11 65.8780 5.41564   5
  -2   2  11 66.9340 4.70571   1
  -2   2  11 68.5543 6.74923   4
  -2   2  11 67.2937 4.34880   6
   2   2 -11 61.9484 5.15903   5
   2   2 -11 66.2816 5.36793   1
   2   2 -11 63.4674 4.65340   1
  -1  -2  11 65.6177 4.65542   5
  -1  -2  11 77.6160 4.72257   6
  -1  -2  11 59.6814 4.44813   1
   1  -2 -11 69.6416 5.59888   5
  -1  -2  11 67.4846 5.17545   4
  -1  -2  11 63.2853 4.46402   6
  -1  -2  11 75.2366 4.90294   3
   1   2 -11 74.0154 4.38891   6
   1   2 -11 65.9808 4.78768   1
  -1   2  11 66.3376 3.39169   6
  -1   2  11 62.5791 5.39667   4
   1   2 -11 70.6656 4.85078   1
  -1   2  11 69.2860 6.10106   2
   1   2 -11 63.1146 5.05396   5
  -1   2  11 67.9610 3.64511   1
  -1   2  11 58.8216 4.96992   5
   0  -2  11 252.511 9.89809   5
   0  -2  11 268.123 10.0645   1
   0  -2  11 265.389 9.57902   1
   0  -2  11 243.227 10.0646   4
   0  -2  11 259.644 10.1364   3
   0  -2  11 253.594 9.38324   6
   0  -2  11 259.874 9.75137   6
   0   2  11 253.748 7.46372   6
   0   2 -11 267.468 10.9832   4
   0   2  11 252.089 10.1222   3
   0   2  11 258.303 11.2089   2
   0   2 -11 265.786 10.2994   1
   0   2  11 256.453 10.4384   4
   0   2  11 261.414 7.30104   6
   0   2  11 260.293 7.80211   1
   0   2 -11 248.243 9.37311   1
   0   2 -11 252.146 10.7742   5
   0   2  11 269.659 7.42769   1
   1  -2  11 182.865 8.00080   4
   1  -2  11 188.808 8.03339   6
   1  -2  11 187.718 8.54107   3
   1  -2  11 181.852 8.45957   6
   1  -2  11 189.148 8.48297   5
   1   2  11 198.624 8.28856   2
   1   2  11 186.898 7.37256   1
   1   2  11 179.858 6.83898   6
  -1   2 -11 183.752 8.58721   4
   1   2  11 187.029 7.77286   4
   1   2  11 179.961 8.25317   3
  -1   2 -11 202.538 9.20129   1
  -1   2 -11 195.243 7.63003   1
   2  -2  11 211.993 6.08364   2
   2  -2  11 207.333 9.64603   3
   2  -2  11 211.382 9.98978   6
   2  -2  11 211.400 8.55774   4
   2   2  11 212.272 7.64325   2
   2   2  11 194.882 9.17445   3
   2   2  11 207.740 8.67276   6
  -2   2 -11 215.023 9.24786   4
   2   2  11 209.214 7.19900   4
  -2   2 -11 210.682 10.3444   1
  -2   2 -11 213.385 8.33002   1
   2   2  11 203.294 9.19547   1
   3  -2  11 8.01997 3.13721   6
   3  -2  11 6.88033 2.65445   3
   3   2  11 6.90583 2.53032   3
  -3   2 -11 8.04765 3.51993   1
  -3   2 -11 10.8239 2.47543   4
   3   2  11 11.5124 2.87556   6
   4  -2  11 110.475 7.88598   3
   4  -2  11 102.743 8.25323   6
   4   2  11 104.241 7.46904   6
  -4   2 -11 121.221 9.12465   1
   4   2  11 91.2040 7.11746   3
   4  -3 -11 24.2298 4.06555   5
  -4  -3  11 17.1668 3.71980   1
  -4  -3  11 26.5930 4.39226   4
   4   3 -11 19.2230 3.51964   1
  -4   3  11 27.9767 4.77363   1
  -4   3  11 25.0005 4.63369   4
   4   3 -11 33.4434 4.91972   5
  -3  -3  11 28.9740 4.37726   6
  -3  -3  11 38.0042 4.99465   4
   3  -3 -11 39.7195 5.01998   5
   3  -3 -11 42.6331 3.15630   6
  -3  -3  11 45.0896 5.42215   1
  -3   3  11 52.7491 4.44365   6
   3   3 -11 45.0682 4.69627   6
   3   3 -11 46.9408 4.82230   1
   3   3 -11 46.5050 5.20611   5
  -3   3  11 44.7159 5.19534   1
  -3   3  11 47.0312 6.08072   4
  -2  -3  11 233.148 10.0897   6
  -2  -3  11 268.034 11.0610   4
   2  -3 -11 248.548 10.9428   5
  -2  -3  11 254.635 10.7320   6
  -2  -3  11 235.643 10.2993   1
  -2   3  11 247.351 9.63709   1
  -2   3  11 253.120 9.02484   6
   2   3 -11 246.867 10.1866   1
  -2   3  11 234.679 11.6700   4
   2   3 -11 245.713 9.75228   6
   2   3 -11 252.480 10.6222   5
   2   3 -11 257.215 11.3208   1
  -1  -3  11 86.1718 5.33112   3
   1  -3 -11 89.0031 6.53450   5
  -1  -3  11 83.8315 5.40946   1
  -1  -3  11 88.5726 5.41550   6
  -1  -3  11 86.2929 5.90571   4
  -1  -3  11 81.2812 5.31821   6
   1   3 -11 81.6957 5.12124   6
   1   3 -11 86.3491 5.73027   5
  -1   3  11 86.1990 3.41371   6
  -1   3  11 78.4719 6.19258   4
   1   3 -11 82.4379 5.68856   1
   1   3 -11 83.5112 5.69841   1
  -1   3  11 84.2244 3.77617   1
   0  -3  11 47.3029 5.02642   4
   0  -3  11 38.1600 3.95981   6
   0  -3  11 41.2444 4.39750   3
   0  -3  11 32.7443 3.79940   6
   0  -3  11 47.6463 3.92855   1
   0  -3  11 44.8781 4.50942   5
   0   3  11 39.6850 4.66722   4
   0   3  11 34.8944 3.96774   3
   0   3  11 48.2907 5.48411   2
   0   3 -11 46.1097 4.98802   5
   0   3 -11 48.6609 4.72113   1
   0   3 -11 52.6357 5.24459   1
   1  -3  11 12.4777 2.64397   6
   1  -3  11 10.9999 2.41290   4
   1  -3  11 8.74089 2.26708   5
   1  -3  11 7.15193 2.20680   3
   1  -3  11 10.1521 2.59703   6
   1   3  11 9.69390 1.55630   6
   1   3  11 9.01773 2.19281   4
   1   3  11 12.4756 2.08924   1
  -1   3 -11 15.4632 3.59040   1
   1   3  11 9.11039 2.32387   3
  -1   3 -11 15.0961 2.68573   1
   1   3  11 8.64858 2.44061   2
   2  -3  11 19.0496 3.33287   3
   2  -3  11 20.5628 3.31189   4
   2  -3  11 17.3427 1.91146   2
   2  -3  11 17.7406 3.13923   6
   2  -3  11 25.9601 4.31121   6
  -2   3 -11 20.6235 4.31402   1
   2   3  11 20.1885 2.80562   2
   2   3  11 17.3497 2.14226   4
   2   3  11 22.3502 3.41685   1
   2   3  11 23.4475 2.99601   6
   2   3  11 16.3152 2.91650   3
   3  -3  11 12.2512 3.69561   6
   3  -3  11 17.4859 3.72715   3
  -3   3 -11 13.2634 4.25684   1
   3   3  11 11.7210 2.63534   6
   3   3  11 17.9375 3.43159   3
  -4  -4  11 19.4965 3.61518   4
  -4  -4  11 18.4510 3.81579   1
   4  -4 -11 19.1712 3.70050   5
  -4   4  11 17.1622 4.14025   4
   4   4 -11 14.0182 3.19620   1
  -4   4  11 17.0850 4.03416   1
   4   4 -11 12.4009 3.12272   5
  -3  -4  11 53.2130 5.47556   1
  -3  -4  11 71.7069 5.78201   6
   3  -4 -11 60.3867 5.46727   5
  -3  -4  11 69.3079 6.56120   4
   3  -4 -11 62.3101 3.47435   6
  -3   4  11 55.2065 4.51972   6
   3   4 -11 58.4649 5.78824   1
  -3   4  11 58.1189 6.00840   1
   3   4 -11 66.1805 5.09616   6
   3   4 -11 59.5729 5.32411   5
  -2  -4  11 60.6242 5.11836   4
  -2  -4  11 53.5026 5.19298   6
  -2  -4  11 63.4678 6.20045   6
   2  -4 -11 54.6684 5.57910   5
  -2  -4  11 66.3265 5.23637   1
  -2   4  11 62.9613 4.54413   1
   2   4 -11 59.6030 4.99965   5
  -2   4  11 59.4380 3.76552   6
  -2   4  11 75.9885 7.59175   4
   2   4 -11 60.0601 5.19178   1
   2   4 -11 67.5086 4.91335   6
  -1  -4  11 45.2613 4.80053   6
  -1  -4  11 39.0771 4.52924   6
  -1  -4  11 54.1583 5.23148   1
  -1  -4  11 49.1607 4.70431   3
  -1  -4  11 43.0611 4.76721   4
   1   4 -11 44.0482 4.75024   5
   1   4 -11 41.1648 4.82768   1
   1   4 -11 44.2706 4.54113   6
  -1   4  11 37.4221 2.43297   1
  -1   4  11 42.1295 5.50224   4
   0  -4  11 99.5745 5.87267   1
   0  -4  11 94.9356 5.97523   4
   0  -4  11 98.9495 5.86679   6
   0  -4  11 95.6055 5.32532   5
   0  -4  11 99.5529 5.66106   3
   0  -4  11 95.4953 6.13220   6
   0   4  11 106.821 6.62123   4
   0   4 -11 97.3242 6.97486   1
   0   4  11 88.5682 5.48962   3
   0   4 -11 94.9025 5.99461   5
   1  -4  11 195.648 7.97004   5
   1  -4  11 197.779 9.50066   6
   1  -4  11 187.012 8.70241   4
   1  -4  11 195.683 8.80061   3
   1  -4  11 203.067 8.79043   6
   1   4  11 180.007 8.10233   3
   1   4  11 187.540 6.92641   1
  -1   4 -11 192.927 10.3515   1
   1   4  11 181.410 5.73991   6
   1   4  11 187.500 8.22398   4
   2  -4  11 97.0596 6.55954   5
   2  -4  11 116.675 7.09511   3
   2  -4  11 133.598 5.48655   2
   2  -4  11 120.534 7.89439   6
   2  -4  11 125.720 6.94448   4
   2   4  11 125.905 6.79366   1
   2   4  11 117.646 5.54470   6
   2   4  11 118.587 6.61814   3
  -2   4 -11 110.145 8.50001   1
   2   4  11 114.660 5.04210   4
   3  -4  11 43.8324 6.31688   6
   3  -4  11 43.9505 5.51946   3
   3   4  11 39.6588 4.63768   3
   3   4  11 33.0245 3.94061   6
  -3   4 -11 31.0839 5.91490   1
  -4  -5  11 66.8313 5.47239   4
   4  -5 -11 76.1277 5.98300   5
   4   5 -11 58.6884 6.21093   1
   4   5 -11 63.1524 5.70737   5
  -4   5  11 66.1444 8.04989   4
  -4   5  11 50.8611 6.36066   1
  -3  -5  11 2.85035 2.15207   1
  -3  -5  11 4.02809 2.40865   6
  -3  -5  11 7.03109 2.58440   4
   3  -5 -11 2.71427 2.29796   5
   3   5 -11 6.38456 2.52763   5
  -3   5  11 9.32663 2.81870   1
   3   5 -11 3.11607 2.24109   1
  -3   5  11 7.67876 3.46684   4
  -3   5  11 3.90133 1.99805   6
  -2  -5  11 137.906 7.81296   6
  -2  -5  11 140.393 7.84224   4
   2  -5 -11 134.148 7.76559   5
  -2  -5  11 136.189 7.60180   1
  -2  -5  11 136.333 8.25980   6
  -2  -5  11 137.209 6.66338   3
  -2   5  11 133.993 5.56375   6
   2   5 -11 123.590 7.21893   5
   2   5 -11 129.440 7.23045   6
   2   5 -11 139.903 8.08514   1
  -2   5  11 124.680 6.61857   1
  -1  -5  11 96.3960 6.43835   6
  -1  -5  11 109.406 6.42929   1
  -1  -5  11 100.524 5.55645   3
  -1  -5  11 111.012 6.64672   6
  -1  -5  11 103.414 6.48174   4
   1   5 -11 99.7628 6.06523   5
   1   5 -11 100.035 6.36562   6
  -1   5  11 96.5296 7.21112   4
   1   5 -11 96.0991 7.02585   1
  -1   5  11 101.069 4.28090   1
   0  -5  11 46.6210 3.90018   3
   0  -5  11 57.3730 5.91689   6
   0  -5  11 39.8080 4.45555   6
   0  -5  11 52.6157 5.48840   4
   0   5  11 45.6336 3.99652   3
   0   5 -11 48.1826 4.28281   5
   0   5  11 42.6186 5.31459   4
   0   5 -11 55.8689 6.20685   1
   1  -5  11 28.5259 3.99683   4
   1  -5  11 37.3547 4.69607   6
   1  -5  11 30.5583 3.29269   5
   1  -5  11 36.5788 5.05639   6
   1  -5  11 37.6115 4.32612   3
   1   5  11 26.2431 3.29035   3
   1   5  11 29.0314 3.77680   4
  -1   5 -11 30.9553 5.39596   1
   1   5  11 35.1437 4.07080   1
   1   5  11 29.3421 1.59997   6
   2  -5  11 6.03172 2.78599   6
   2  -5  11 10.0907 2.14732   2
   2  -5  11 7.88421 2.53007   3
  -2  -5 -11 7.69218 3.39945   2
   2   5  11 7.73297 2.10042   3
   2   5  11 9.44330 1.68270   6
  -2   5 -11 5.26228 3.66444   1
   3  -5  11 9.46298 3.92862   6
   3  -5  11 7.58871 2.63521   3
   3   5  11 9.37460 2.58980   3
  -3   5 -11 0.17735 3.52513   1
   3   5  11 11.1277 2.39731   6
  -3  -6  11 15.7153 3.23881   4
  -3  -6  11 16.6015 3.59144   6
   3  -6 -11 9.52468 2.88641   5
  -3  -6  11 12.1537 3.15121   1
   3   6 -11 11.1572 2.91606   5
   3   6 -11 9.83106 2.98120   1
  -2  -6  11 6.52634 2.46523   1
  -2  -6  11 4.33961 2.19160   4
  -2  -6  11 6.23104 1.86607   3
  -2  -6  11 6.48181 2.64416   6
   2   6 -11 7.41951 2.79262   1
   2   6 -11 7.70899 2.58388   5
   2   6 -11 5.97034 3.28364   6
  -2   6  11 2.53326 1.32992   6
  -1  -6  11 218.589 10.1520   4
  -1  -6  11 210.231 10.1545   6
  -1  -6  11 203.356 8.39354   3
  -1  -6  11 214.580 9.82589   1
   1   6 -11 210.848 9.22379   5
   1   6 -11 215.584 10.9178   1
   1   6 -11 231.530 10.2785   6
   0  -6  11 17.6607 3.50491   4
   0  -6  11 21.3371 3.84898   6
   0  -6  11 19.9179 2.96678   3
   0   6 -11 11.0198 3.67051   1
   0   6 -11 18.4520 2.99987   5
   0   6  11 15.2076 2.54116   3
   1  -6  11 15.9570 2.93189   3
   1  -6  11 12.6051 3.46272   6
   1  -6  11 11.9739 2.97759   4
   1  -6  11 16.7968 3.00817   2
  -1  -6 -11 15.2787 4.51317   2
  -1   6 -11 17.0042 4.73727   1
   1   6  11 13.5898 2.44595   3
   1   6  11 12.5929 1.27488   6
   1   6  11 19.0185 3.26582   4
   2  -6  11 23.4484 4.76149   6
   2  -6  11 29.7026 4.19817   3
  -2  -6 -11 22.8130 5.02208   2
   2   6  11 19.8288 2.89421   3
  -2   6 -11 18.9817 4.90797   1
   2   6  11 19.1978 2.19234   6
  -2  -7  11 63.7385 6.24298   4
   2   7 -11 59.0469 5.00438   5
   2   7 -11 41.6134 5.44718   1
  -2   7  11 60.8225 3.66934   6
  -1  -7  11 33.4473 4.67430   4
  -1  -7  11 44.3552 5.74993   6
   1   7 -11 22.4554 4.41103   1
  -1   7  11 38.3782 4.06932   3
   1   7 -11 44.4456 4.47794   5
   0  -7  11 15.7829 2.54284   3
   0  -7  11 10.3306 3.22141   6
   0  -7  11 12.5851 3.21362   4
   0  -7  11 9.54572 2.86526   2
   0   7 -11 15.9023 4.36409   1
   0   7  11 9.21715 2.14624   3
   1  -7  11 41.1324 9.10251   6
   1  -7  11 25.3791 3.98756   2
  -1  -7 -11 18.2909 4.89018   2
   1  -7  11 26.5606 3.64631   3
  -1   7 -11 28.1967 5.61813   1
   1   7  11 27.7349 4.03680   4
  -4   0  12 12.9551 3.59279   1
   4   0 -12 13.5535 2.62891   1
  -4   0  12 15.3478 3.73505   4
   4   0 -12 20.1820 4.02418   5
  -3   0  12 24.3725 3.75632   6
  -3   0  12 24.3185 4.00360   1
  -3   0  12 24.7894 4.29831   4
   3   0 -12 24.6808 3.49596   1
   3   0 -12 27.8954 3.04321   1
   3   0 -12 33.5040 4.80689   5
   3   0 -12 27.6169 3.13218   6
   2   0 -12 241.754 8.28729   6
  -2   0  12 234.016 9.44168   6
   2   0 -12 232.455 10.5845   5
   2   0 -12 229.172 8.23255   1
  -2   0  12 235.711 10.9401   4
  -2   0  12 232.582 9.68273   1
   2   0 -12 240.595 7.85834   1
  -1   0  12 67.4758 4.08728   6
  -1   0  12 71.9511 5.66329   4
  -1   0  12 77.7173 4.41763   1
   1   0 -12 77.0249 5.96468   5
  -1   0  12 76.1613 4.21282   6
   0   0  12 3.71571 1.79600   4
   0   0  12 1.69353 1.09474   6
   0   0  12 1.84312 1.28273   1
   0   0  12 0.95122 1.29953   1
   0   0  12 2.17968 1.87151   3
   0   0  12 2.62957 1.34182   6
   0   0 -12 1.89613 2.15645   5
   0   0 -12 0.00037 1.69709   4
   1   0  12 4.03970 1.90519   1
   1   0  12 1.43447 1.36777   6
   1   0  12 2.08432 1.79921   3
  -1   0 -12 1.36235 1.84594   4
   1   0  12 -0.1239 1.17022   6
   1   0  12 0.05849 1.62074   2
   1   0  12 1.46193 1.51031   4
   2   0  12 20.7730 1.78574   2
   2   0  12 21.1075 3.83819   3
  -2   0 -12 22.8287 3.22859   4
  -2   0 -12 17.7423 2.43840   1
  -2   0 -12 23.2951 2.11106   1
   2   0  12 24.1336 2.79319   4
   2   0  12 18.8872 3.34521   6
  -3   0 -12 161.889 7.54806   1
   3   0  12 154.178 8.76129   3
   3   0  12 157.543 8.90506   6
   4   0  12 5.60437 2.68903   3
   4   0  12 1.93391 2.25924   6
   4  -1 -12 7.62946 1.99843   1
  -4  -1  12 7.73512 2.90742   1
   4  -1 -12 5.02125 2.59980   5
  -4  -1  12 4.60422 2.70027   4
   4   1 -12 12.0383 3.33380   5
  -4   1  12 9.38646 3.07876   1
  -4   1  12 1.13596 2.39218   4
   4   1 -12 9.03817 2.40333   1
   3  -1 -12 192.013 7.20401   1
   3  -1 -12 194.512 7.55030   6
  -3  -1  12 180.961 9.36321   6
  -3  -1  12 183.413 9.42816   1
  -3  -1  12 191.082 9.90501   4
   3  -1 -12 198.543 6.68005   1
   3  -1 -12 198.695 9.70460   5
   3   1 -12 192.982 9.47522   5
  -3   1  12 183.235 9.00351   6
   3   1 -12 180.759 9.20544   1
   3   1 -12 188.164 7.99219   1
  -3   1  12 181.068 10.0506   4
   3   1 -12 177.367 7.90848   6
  -3   1  12 185.681 9.37636   1
  -2  -1  12 115.566 6.51733   1
   2  -1 -12 125.781 7.46063   5
  -2  -1  12 117.508 7.31876   4
  -2  -1  12 114.397 6.39632   6
   2  -1 -12 114.621 4.74677   6
   2   1 -12 119.140 5.63621   6
  -2   1  12 112.145 6.25742   1
  -2   1  12 121.306 6.10917   6
   2   1 -12 108.170 6.93265   5
   2   1 -12 116.400 6.43791   1
   2   1 -12 115.981 5.72333   1
  -2   1  12 100.015 7.24427   4
  -1  -1  12 212.740 8.25168   6
  -1  -1  12 214.455 9.21282   3
  -1  -1  12 217.379 8.48153   1
   1  -1 -12 199.586 9.81698   5
  -1  -1  12 214.054 8.27245   6
  -1  -1  12 226.339 9.83010   4
   1   1 -12 221.044 8.20603   1
  -1   1  12 207.347 7.69454   1
   1   1 -12 211.759 9.93767   5
  -1   1  12 201.097 7.43327   6
  -1   1  12 210.888 7.28561   6
   1   1 -12 200.273 7.84438   1
   1   1 -12 218.375 7.90974   6
  -1   1  12 214.636 9.93874   4
   0  -1  12 5.38929 1.71757   1
   0  -1  12 4.74659 1.64447   6
   0  -1  12 3.35939 1.43840   6
   0  -1  12 7.75577 2.02475   1
   0  -1  12 4.47997 2.14132   4
   0  -1 -12 4.91655 2.17941   4
   0  -1  12 5.08149 2.06892   3
   0   1  12 4.62174 1.57341   1
   0   1  12 3.98176 1.26981   6
   0   1  12 5.50141 1.34519   1
   0   1 -12 4.82007 2.53792   5
   0   1  12 7.00210 2.69951   2
   0   1  12 5.60958 2.16151   3
   0   1 -12 2.83786 1.36296   1
   0   1  12 6.16471 2.11267   4
   0   1 -12 5.58517 1.86612   1
   0   1 -12 5.09730 2.43771   4
   0   1  12 5.44741 1.26037   6
   1  -1  12 85.5483 5.36422   6
   1  -1  12 105.069 6.17441   3
   1  -1  12 78.2848 4.81301   6
  -1  -1 -12 83.3344 5.48015   4
   1  -1  12 89.2349 5.34731   4
   1  -1  12 88.2755 5.79088   1
   1   1  12 90.6620 5.20336   1
  -1   1 -12 91.4377 5.31457   1
  -1   1 -12 80.3848 4.18364   1
   1   1  12 86.9851 5.79952   3
   1   1  12 82.4613 4.65601   6
   1   1  12 81.7145 5.05202   4
   1   1  12 88.9973 5.46399   2
  -1   1 -12 82.6026 5.61504   4
  -2  -1 -12 43.8333 3.71649   4
   2  -1  12 49.3657 5.31765   6
   2  -1  12 41.5957 3.90250   4
   2  -1  12 44.3284 2.16473   2
   2  -1  12 48.9534 5.34507   3
  -2   1 -12 35.0002 4.24190   1
   2   1  12 37.4807 5.76495   1
  -2   1 -12 45.9849 4.66516   4
  -2   1 -12 43.9572 3.29280   1
   2   1  12 47.0794 2.90307   2
   2   1  12 40.4398 3.05069   4
   2   1  12 46.5813 5.05659   3
   2   1  12 43.2916 4.46570   6
   3  -1  12 18.1921 3.85332   6
   3  -1  12 17.7226 3.57875   3
   3   1  12 21.4904 3.88237   3
  -3   1 -12 21.3967 3.99596   1
   3   1  12 21.2417 3.72869   6
   4  -1  12 21.7734 4.17211   3
   4  -1  12 25.0548 4.73520   6
   4   1  12 32.6680 4.96434   3
   4   1  12 21.4708 4.35221   6
  -4   1 -12 29.7849 4.69594   1
   4  -2 -12 135.214 8.17383   5
  -4  -2  12 114.947 7.65332   4
  -4  -2  12 128.215 8.41793   1
  -4   2  12 131.878 8.91539   4
   4   2 -12 143.209 8.51203   5
  -4   2  12 137.271 8.93946   1
   4   2 -12 128.481 7.25372   1
  -3  -2  12 89.1326 6.42472   1
   3  -2 -12 87.6525 6.48077   5
   3  -2 -12 94.3522 4.67250   6
  -3  -2  12 94.2793 6.67136   4
  -3  -2  12 106.977 7.08924   6
   3   2 -12 90.5016 5.61807   6
   3   2 -12 71.4470 8.27049   1
   3   2 -12 96.9894 6.60714   5
   3   2 -12 95.2551 5.82504   1
  -3   2  12 93.5152 7.27949   4
  -3   2  12 82.6331 6.26907   1
  -3   2  12 97.0121 6.09175   6
  -2  -2  12 53.2163 4.45994   6
  -2  -2  12 60.0523 5.95079   4
   2  -2 -12 56.1358 2.70476   6
  -2  -2  12 53.1009 5.16965   1
  -2  -2  12 60.9276 4.91059   6
   2  -2 -12 48.1227 5.77325   5
   2   2 -12 51.5195 4.38137   1
  -2   2  12 56.3197 4.40631   1
   2   2 -12 52.7809 5.46363   5
   2   2 -12 55.4380 3.97738   6
  -2   2  12 57.6678 4.08129   6
   2   2 -12 57.9417 4.97906   1
  -2   2  12 40.0021 5.34682   4
  -1  -2  12 10.4535 3.01205   4
  -1  -2  12 7.74645 2.17835   3
  -1  -2  12 6.81579 2.14184   1
  -1  -2  12 8.76038 2.15672   6
  -1  -2  12 9.55150 2.20796   6
   1  -2 -12 11.5484 3.06718   5
  -1   2  12 6.13191 1.28970   6
   1   2 -12 5.71109 1.84782   6
   1   2 -12 9.06753 2.32608   1
   1   2 -12 6.12722 2.38144   1
  -1   2  12 4.51547 2.49478   4
  -1   2  12 11.1447 1.94051   1
  -1   2  12 11.2045 1.70413   6
   1   2 -12 8.49749 2.79774   5
   0  -2  12 92.3071 5.03082   6
   0  -2  12 74.4695 5.28029   4
   0  -2  12 83.3110 4.96290   1
   0  -2  12 86.5904 5.51026   3
   0  -2  12 84.1370 5.14723   6
   0   2 -12 80.3910 5.52113   1
   0   2  12 88.0672 5.77673   4
   0   2  12 81.7881 3.20575   6
   0   2 -12 81.1939 4.82294   1
   0   2  12 75.1725 5.43203   3
   0   2  12 81.5830 6.25483   2
   0   2  12 77.1364 3.34976   6
   0   2  12 85.0818 3.38864   1
   0   2  12 77.2032 3.74512   1
   0   2 -12 74.8395 5.90609   5
   1  -2  12 13.8192 2.92106   6
   1  -2  12 11.4509 2.64346   3
   1  -2  12 17.5083 2.97036   4
   1  -2  12 14.5699 2.60320   6
  -1   2 -12 18.8449 2.76819   1
   1   2  12 19.3510 3.16868   2
   1   2  12 17.7645 2.56557   1
  -1   2 -12 6.97845 2.65438   1
   1   2  12 15.3893 2.19251   6
   1   2  12 14.7076 2.94444   3
   1   2  12 20.7033 2.93963   4
   2  -2  12 93.3180 5.39667   4
   2  -2  12 91.6325 6.46266   6
   2  -2  12 104.434 6.73341   3
   2  -2  12 94.2761 3.88725   2
   2   2  12 95.5882 4.72493   2
   2   2  12 84.6703 5.32804   6
  -2   2 -12 95.4162 7.00865   1
   2   2  12 85.0016 4.29851   4
   2   2  12 88.0528 5.94597   1
  -2   2 -12 92.1360 5.16377   1
   2   2  12 90.8277 6.14760   3
   3  -2  12 155.649 9.53216   6
   3  -2  12 161.942 9.12632   3
   3   2  12 169.016 8.96604   3
   3   2  12 153.492 8.38541   6
  -3   2 -12 169.368 9.84253   1
   4  -3 -12 19.4993 3.86168   5
  -4  -3  12 17.5854 3.76542   1
  -4  -3  12 22.3822 4.35471   4
   4   3 -12 28.0260 4.41965   5
   4   3 -12 18.7380 3.50258   1
  -4   3  12 22.4890 4.50310   1
  -4   3  12 24.8041 4.96837   4
  -3  -3  12 94.3725 6.73732   4
   3  -3 -12 102.362 4.51995   6
  -3  -3  12 104.767 6.95814   1
   3  -3 -12 85.0221 6.46104   5
  -3   3  12 100.448 6.07079   6
   3   3 -12 98.9060 6.27664   1
  -3   3  12 89.8465 6.61599   1
  -3   3  12 111.581 8.33107   4
   3   3 -12 85.3466 6.36257   5
  -2  -3  12 193.047 9.51624   4
  -2  -3  12 199.534 9.47826   6
  -2  -3  12 207.778 9.21691   6
   2  -3 -12 180.069 9.61509   5
  -2  -3  12 193.590 9.11828   1
  -2   3  12 209.659 8.54406   1
   2   3 -12 204.109 10.1267   1
   2   3 -12 198.996 9.02634   1
   2   3 -12 207.238 8.68021   6
  -2   3  12 198.064 7.69564   6
  -2   3  12 185.943 10.3304   4
   2   3 -12 194.417 9.45035   5
   1  -3 -12 285.306 12.4229   5
  -1  -3  12 285.414 11.7422   4
  -1  -3  12 265.058 10.7757   3
  -1  -3  12 286.856 11.0521   6
  -1  -3  12 276.831 10.9612   6
  -1  -3  12 289.358 11.0419   1
  -1   3  12 280.942 8.83142   1
   1   3 -12 298.679 11.6696   1
  -1   3  12 287.687 7.89966   6
   1   3 -12 289.452 11.5586   1
   1   3 -12 284.290 11.7303   5
  -1   3  12 297.972 12.6646   4
   1   3 -12 280.919 10.6775   6
  -1   3  12 302.972 8.38790   6
   0  -3  12 322.824 12.2417   4
   0  -3  12 316.635 11.9123   3
   0  -3  12 315.982 11.9605   6
   0  -3  12 322.237 11.6620   1
   0  -3  12 329.975 11.6928   6
   0   3  12 321.110 11.9844   3
   0   3 -12 345.931 13.0569   5
   0   3 -12 321.202 11.7858   1
   0   3 -12 296.245 12.5088   1
   0   3  12 317.894 12.5049   4
   1  -3  12 211.376 9.66031   6
   1  -3  12 217.873 9.52504   3
   1  -3  12 205.425 8.90108   6
   1  -3  12 211.462 9.09127   4
  -1   3 -12 206.158 10.2443   1
   1   3  12 193.853 8.90391   3
   1   3  12 224.710 9.49310   2
   1   3  12 197.056 7.59220   1
   1   3  12 208.462 6.94931   6
   1   3  12 199.232 8.56987   4
  -1   3 -12 213.957 8.73032   1
   2  -3  12 37.8539 5.26074   6
   2  -3  12 29.0997 3.83116   4
   2  -3  12 31.4069 2.25739   2
   2  -3  12 38.0899 4.98950   3
   2   3  12 26.8838 3.22355   2
   2   3  12 28.9322 3.99468   3
   2   3  12 31.6203 2.69289   4
   2   3  12 26.6656 3.75406   1
  -2   3 -12 33.9281 5.33397   1
   2   3  12 38.3928 3.76286   6
   3  -3  12 62.6579 7.32912   6
   3  -3  12 51.4009 5.92615   3
  -3   3 -12 53.2600 6.83317   1
   3   3  12 49.1330 5.42198   3
   3   3  12 57.0622 4.85301   6
  -4  -4  12 59.0218 5.93214   4
   4  -4 -12 65.2378 6.50321   5
  -4  -4  12 53.8249 5.91431   1
   4   4 -12 46.9555 5.22416   1
  -4   4  12 56.0399 7.20564   4
  -4   4  12 37.5541 5.57626   1
   4   4 -12 58.2069 6.36566   5
  -3  -4  12 55.1623 5.93181   4
  -3  -4  12 53.3066 5.49202   1
  -3  -4  12 48.0612 5.18732   6
   3  -4 -12 60.7459 6.16692   5
   3   4 -12 51.4993 5.45974   1
  -3   4  12 51.7006 4.37551   6
  -3   4  12 56.3469 5.99674   1
   3   4 -12 57.0698 6.03949   5
  -3   4  12 50.4247 6.41502   4
  -2  -4  12 26.8242 3.97587   6
  -2  -4  12 26.4629 3.77401   1
  -2  -4  12 36.6566 4.82126   4
   2  -4 -12 18.1452 3.78949   5
  -2  -4  12 29.6211 4.34105   6
   2   4 -12 30.1516 4.43094   1
  -2   4  12 25.8319 3.40966   1
   2   4 -12 29.5207 3.88344   6
   2   4 -12 29.2085 4.35553   5
  -2   4  12 28.3111 2.81214   6
  -2   4  12 31.9811 5.10989   4
  -1  -4  12 60.9818 4.60117   3
  -1  -4  12 64.3897 5.35474   4
  -1  -4  12 60.0679 4.89285   6
  -1  -4  12 57.7182 5.51938   6
  -1  -4  12 62.4377 4.98603   1
   1   4 -12 66.4686 6.20238   1
  -1   4  12 75.2832 6.26045   4
   1   4 -12 62.4499 5.23770   5
   1   4 -12 60.8051 4.73658   6
   0  -4  12 475.755 16.0830   3
   0  -4  12 488.042 16.7474   6
   0  -4  12 511.309 16.4664   6
   0  -4  12 467.543 16.5736   4
   0  -4  12 485.590 16.2513   1
   0   4 -12 470.206 16.7067   5
   0   4 -12 501.543 17.8371   1
   0   4  12 521.567 17.5474   4
   0   4  12 499.060 16.2286   3
   1  -4  12 117.121 6.97710   4
   1  -4  12 122.007 6.82623   6
   1  -4  12 132.168 7.77361   6
   1  -4  12 131.536 7.24169   3
  -1   4 -12 111.638 8.19489   1
   1   4  12 127.295 6.73385   3
   1   4  12 120.158 6.57066   4
   1   4  12 137.781 5.60913   1
   1   4  12 127.763 4.12224   6
   2  -4  12 7.36050 2.45743   3
   2  -4  12 10.2459 2.96625   6
   2  -4  12 10.0579 1.98190   2
   2  -4  12 13.0742 2.92717   4
   2   4  12 15.2730 2.35745   6
   2   4  12 10.4715 2.55717   3
  -2   4 -12 12.6192 4.02138   1
   2   4  12 10.3939 1.77140   4
   3  -4  12 34.3741 5.03265   3
   3  -4  12 22.5602 4.90228   6
  -3   4 -12 31.0215 5.81520   1
   3   4  12 25.2721 4.03570   3
   3   4  12 32.7573 3.93343   6
  -3  -5  12 31.7833 4.53456   1
   3  -5 -12 45.1895 5.39124   5
  -3  -5  12 32.9591 4.69095   4
  -3  -5  12 36.3942 5.01965   6
  -3   5  12 42.4803 6.22473   4
  -3   5  12 38.4169 4.99584   1
   3   5 -12 39.5420 5.01776   5
   3   5 -12 36.0065 4.69304   1
  -2  -5  12 1.09255 2.06343   4
   2  -5 -12 0.45601 2.10644   5
  -2  -5  12 1.07530 1.92349   6
  -2  -5  12 0.39132 1.37877   3
  -2  -5  12 0.55532 1.77459   1
   2   5 -12 0.57570 1.85988   5
   2   5 -12 -2.4533 1.72823   1
  -2   5  12 -0.0005 1.54692   1
  -2   5  12 -1.0521 2.05833   4
  -2   5  12 -0.0344 0.96906   6
  -1  -5  12 62.6606 5.37061   6
  -1  -5  12 59.4098 4.96111   1
  -1  -5  12 61.7044 6.03298   4
  -1  -5  12 60.9047 4.51894   3
   1   5 -12 62.6303 5.14809   6
  -1   5  12 58.8732 6.81146   4
   1   5 -12 65.6537 6.44729   1
  -1   5  12 60.0732 3.37806   1
   1   5 -12 63.3939 5.15161   5
   0  -5  12 36.9398 4.82833   6
   0  -5  12 30.8446 4.35236   4
   0  -5  12 34.2726 3.85695   3
   0   5 -12 36.9071 5.50094   1
   0   5 -12 28.0019 3.85996   5
   0   5  12 35.1669 4.79340   4
   0   5  12 33.0634 3.95639   3
   1  -5  12 45.6254 5.65876   6
   1  -5  12 45.9220 3.67218   5
   1  -5  12 54.6309 5.66364   4
   1  -5  12 44.5010 4.70500   3
  -1   5 -12 51.7931 6.85961   1
   1   5  12 42.4173 4.30633   3
   2  -5  12 23.2695 4.25583   6
   2  -5  12 14.9314 3.11564   3
   2   5  12 16.3367 2.97927   3
  -2   5 -12 26.1915 5.43045   1
   2   5  12 18.3575 2.21349   6
  -3  -6  12 5.45328 2.35677   1
  -3  -6  12 10.5226 3.09247   4
  -3  -6  12 9.22893 4.08022   6
  -3  -6  12 5.05786 1.85477   3
   3  -6 -12 12.1557 3.15392   5
   3   6 -12 6.42658 2.51986   5
   3   6 -12 8.39330 2.85545   1
  -3   6  12 3.04717 3.13511   4
  -2  -6  12 122.629 6.35361   3
  -2  -6  12 125.616 7.79408   6
  -2  -6  12 115.053 7.25107   1
  -2  -6  12 131.732 7.66662   4
   2   6 -12 123.411 7.23426   5
  -2   6  12 123.005 4.94993   6
   2   6 -12 121.284 8.06929   1
  -1  -6  12 47.9005 5.61464   4
  -1  -6  12 45.7480 3.77836   3
  -1  -6  12 39.0100 4.73578   1
  -1  -6  12 39.1452 5.08420   6
  -1   6  12 41.0028 4.44281   3
  -1   6  12 31.5155 4.97238   4
   1   6 -12 43.9882 6.02304   1
   1   6 -12 38.3624 4.51117   5
   0  -6  12 79.2522 7.31910   6
   0  -6  12 68.4550 5.75628   4
   0  -6  12 77.0883 5.08111   3
   0   6  12 69.6269 5.87551   4
   0   6 -12 78.8856 5.41070   5
   0   6 -12 72.4337 7.49321   1
   0   6  12 80.4011 5.11619   3
   1  -6  12 46.9067 5.00392   2
   1  -6  12 51.4050 5.20980   3
   1  -6  12 35.9160 5.27612   6
   1  -6  12 39.5699 5.10209   4
   1   6  12 37.2208 3.93682   3
  -1   6 -12 39.9415 6.27875   1
   1   6  12 31.8381 4.25830   4
   2  -6  12 27.1141 4.93068   6
   2  -6  12 25.7108 4.01351   3
  -2   6 -12 26.9672 5.78990   1
   2   6  12 25.6411 2.16841   6
   2   6  12 26.3780 3.46045   3
  -2  -7  12 1.11608 1.88921   4
  -2  -7  12 6.41638 2.44996   1
   2   7 -12 2.49077 2.72548   1
   2   7 -12 5.57259 2.50378   5
  -2   7  12 2.64791 1.29924   6
  -1  -7  12 126.941 7.78124   4
  -1  -7  12 121.737 8.51449   6
  -1   7  12 115.064 6.41522   3
   1   7 -12 119.249 8.67799   1
   1   7 -12 124.104 6.94837   5
   0  -7  12 19.4338 4.16931   6
   0  -7  12 18.3538 3.83745   2
   0  -7  12 23.7046 3.26408   3
   0  -7  12 13.5567 3.34746   4
   0   7 -12 19.4954 4.95466   1
   0   7  12 25.3272 4.34186   4
   0   7  12 25.9788 3.89568   3
   1  -7  12 23.5684 3.85625   2
   1  -7  12 33.0096 4.10860   3
  -1   7 -12 29.8746 5.84408   1
   4   0 -13 100.259 5.59169   1
  -4   0  13 99.6852 7.65767   1
   4   0 -13 111.047 7.53486   5
  -3   0  13 89.3551 6.57882   1
   3   0 -13 87.8508 6.21595   1
  -3   0  13 92.7662 7.30527   4
   3   0 -13 92.6433 4.80812   1
  -3   0  13 96.3027 6.50500   6
   3   0 -13 96.8350 6.83931   5
   2   0 -13 76.0855 3.59156   1
  -2   0  13 82.6358 5.40181   1
   2   0 -13 72.2195 4.08692   6
  -2   0  13 72.0794 7.01125   4
   2   0 -13 73.8356 3.68661   1
   2   0 -13 82.4023 6.29400   5
  -2   0  13 79.8533 5.21607   6
   1   0 -13 334.753 13.7476   5
  -1   0  13 323.201 12.5976   3
  -1   0  13 326.521 13.2146   4
  -1   0  13 324.531 11.1317   1
  -1   0  13 354.778 11.2525   6
  -1   0  13 332.041 10.9340   6
   0   0  13 37.6855 3.74815   1
   0   0  13 40.4149 3.05232   6
   0   0  13 36.6339 4.29146   4
   0   0  13 36.0979 4.27957   3
   0   0 -13 24.6758 4.28923   5
   0   0  13 44.2034 3.29669   6
   0   0  13 35.8158 3.32159   1
  -1   0 -13 250.982 10.9140   4
   1   0  13 261.897 11.0340   3
   1   0  13 273.378 10.6124   1
   1   0  13 269.134 9.50544   6
   1   0  13 280.894 10.3753   4
   1   0  13 273.020 10.6814   2
   1   0  13 263.212 10.0420   6
   2   0  13 16.9720 3.30124   3
   2   0  13 19.4551 2.69840   4
  -2   0 -13 19.4300 1.98567   1
   2   0  13 20.8046 3.36629   6
  -2   0 -13 18.9049 3.10160   4
   3   0  13 0.63025 1.84473   6
   3   0  13 0.89759 1.98945   3
   4  -1 -13 29.3836 4.65260   5
  -4  -1  13 21.2796 4.38385   4
  -4  -1  13 27.2147 4.78217   1
   4  -1 -13 30.0700 3.68277   1
   4   1 -13 29.6267 3.72079   1
  -4   1  13 23.3068 4.28705   1
  -4   1  13 32.3165 5.21920   4
   4   1 -13 24.1060 4.32169   5
   3  -1 -13 26.8146 2.14575   1
   3  -1 -13 24.6905 4.36580   5
  -3  -1  13 27.1269 4.42641   4
  -3  -1  13 20.2802 3.71220   1
   3   1 -13 23.1899 3.16694   1
  -3   1  13 24.6728 4.65698   4
   3   1 -13 24.6473 4.34148   5
  -3   1  13 27.7517 3.94791   6
  -3   1  13 28.3142 4.11547   1
   3   1 -13 24.9860 3.95245   1
   2  -1 -13 188.974 6.45768   6
  -2  -1  13 190.928 9.63833   4
   2  -1 -13 178.270 9.51500   5
  -2  -1  13 183.995 8.52879   1
  -2  -1  13 169.969 7.94462   6
  -2  -1  13 198.910 8.70491   6
  -2   1  13 179.032 7.89655   6
   2   1 -13 192.037 7.53567   6
   2   1 -13 165.169 9.02315   5
  -2   1  13 187.105 9.84234   4
   2   1 -13 181.175 7.46397   1
   2   1 -13 181.679 8.07432   1
  -2   1  13 180.822 8.23406   1
  -1  -1  13 12.6778 2.46997   6
  -1  -1  13 18.6567 2.78673   6
  -1  -1  13 14.8168 3.24203   4
   1  -1 -13 12.8885 3.41032   5
  -1  -1  13 14.8773 2.92473   3
  -1  -1  13 19.2578 2.94297   1
   1   1 -13 18.9410 2.52173   1
  -1   1  13 14.1249 1.99631   6
  -1   1  13 17.7560 2.36421   6
   1   1 -13 17.1204 3.69404   5
   1   1 -13 17.1705 2.49592   1
  -1   1  13 16.3324 2.39513   1
  -1   1  13 15.9077 3.53139   4
   0  -1  13 363.418 12.1455   6
   0  -1  13 348.928 12.3024   1
   0  -1  13 371.687 11.8459   6
   0  -1  13 358.256 13.2522   3
   0  -1  13 349.461 13.1848   4
   0  -1  13 357.037 11.8390   1
   0   1 -13 363.878 11.0114   1
   0   1  13 352.038 10.8827   6
   0   1 -13 342.111 11.2082   1
   0   1 -13 356.503 14.3452   5
   0   1  13 366.681 13.3681   3
   0   1  13 354.214 10.7823   1
   0   1  13 364.079 14.4403   2
   0   1  13 348.768 13.3078   4
   0   1  13 360.607 11.3817   1
   0   1  13 358.332 10.6715   6
  -1  -1 -13 7.19500 2.36655   4
   1  -1  13 6.81653 2.16225   6
   1  -1  13 9.52272 2.51194   4
   1  -1  13 7.97743 2.08415   6
   1   1  13 7.38823 1.91518   6
   1   1  13 9.17256 2.53635   2
   1   1  13 6.37841 2.01695   1
   1   1  13 10.3257 2.37810   4
   1   1  13 6.53200 2.50007   3
  -1   1 -13 10.2492 1.73592   1
   1   1  13 6.40081 1.72472   6
  -1   1 -13 9.32467 2.16974   1
   2  -1  13 32.3931 4.51717   6
   2  -1  13 38.4912 3.86625   4
   2  -1  13 37.3459 4.94098   3
   2   1  13 28.7378 3.92419   6
  -2   1 -13 25.2720 3.65978   4
  -2   1 -13 26.6945 3.73007   1
   2   1  13 28.8812 2.97774   4
   2   1  13 33.5749 4.44215   3
   3  -1  13 61.5598 6.33623   6
   3  -1  13 69.1779 5.93925   3
   3   1  13 67.8914 5.81210   6
  -3   1 -13 67.7490 5.73701   1
   3   1  13 71.0966 7.11096   3
   4  -2 -13 41.9346 5.26038   5
  -4  -2  13 35.7030 4.91306   4
  -4  -2  13 39.0079 5.30848   1
   4   2 -13 45.3395 5.54415   5
  -4   2  13 45.2639 5.77822   1
   4   2 -13 56.7577 4.87691   1
  -4   2  13 40.7249 5.91416   4
  -3  -2  13 79.5175 6.13683   1
   3  -2 -13 69.9424 5.18042   6
  -3  -2  13 65.1417 6.54786   4
   3  -2 -13 76.4645 6.25403   5
  -3   2  13 73.4794 5.41471   6
   3   2 -13 55.2660 7.10721   1
  -3   2  13 82.7795 6.20300   1
  -3   2  13 81.4672 6.91298   4
   3   2 -13 80.0582 6.21852   5
   3   2 -13 89.4041 5.52768   1
  -2  -2  13 65.9601 5.18854   6
  -2  -2  13 63.6842 5.15201   1
  -2  -2  13 64.5383 4.94378   6
  -2  -2  13 66.0764 5.66754   4
   2  -2 -13 71.4816 2.98050   6
   2  -2 -13 69.1825 6.14839   5
   2   2 -13 76.3719 6.04012   5
  -2   2  13 68.4329 4.49391   6
  -2   2  13 70.5072 4.84110   1
   2   2 -13 73.1992 5.59376   1
   2   2 -13 77.9941 5.25365   1
   2   2 -13 69.6870 4.58021   6
  -2   2  13 64.0618 6.73790   4
  -1  -2  13 213.602 8.85101   6
  -1  -2  13 214.988 8.87670   6
  -1  -2  13 215.750 10.0918   4
   1  -2 -13 201.093 10.3979   5
  -1  -2  13 207.754 9.33746   3
  -1  -2  13 218.859 8.95670   1
  -1   2  13 206.850 7.44632   1
   1   2 -13 212.596 8.95426   1
  -1   2  13 202.613 6.80483   6
  -1   2  13 219.980 7.31675   6
   1   2 -13 218.474 9.06034   1
   1   2 -13 229.435 10.4985   5
  -1   2  13 198.172 10.0443   4
   1   2 -13 204.366 8.38505   6
   0  -2  13 17.7092 3.33954   3
   0  -2  13 17.7849 3.28470   4
   0  -2  13 19.4607 2.93198   1
   0  -2  13 15.6986 2.67704   6
   0  -2  13 16.7740 2.85433   6
   0   2  13 15.7536 3.02144   3
   0   2  13 16.9010 2.12920   1
   0   2  13 19.9211 3.40479   4
   0   2 -13 16.3288 2.58049   1
   0   2  13 13.8723 1.63506   6
   0   2 -13 21.6229 3.40131   1
   0   2 -13 14.2211 3.37461   5
   0   2  13 19.2766 1.77551   6
   0   2  13 19.5901 3.83172   2
   0   2  13 18.5383 1.87794   1
   1  -2  13 146.989 7.71249   6
   1  -2  13 136.986 7.17110   4
   1  -2  13 132.499 7.49364   3
   1  -2  13 140.769 6.94221   6
   1   2  13 137.283 6.42096   1
   1   2  13 147.851 7.71190   3
   1   2  13 143.880 7.38743   2
   1   2  13 155.722 7.16038   4
   1   2  13 133.368 5.93771   6
  -1   2 -13 144.363 7.75768   1
  -1   2 -13 148.786 6.54431   1
   1   2  13 153.649 5.59124   6
   2  -2  13 40.2436 4.88100   3
   2  -2  13 47.8960 5.44812   6
   2  -2  13 53.4145 4.22004   4
  -2   2 -13 54.9386 5.73984   1
  -2   2 -13 42.8519 4.09703   1
   2   2  13 46.9471 3.31625   4
   2   2  13 52.8112 4.22834   6
   2   2  13 49.0197 5.30657   3
   3  -2  13 2.25884 2.43368   6
   3  -2  13 -0.1061 1.91990   3
   3   2  13 4.57838 2.41024   3
  -3   2 -13 11.3664 3.42959   1
   3   2  13 1.76973 1.87803   6
   4  -3 -13 61.0975 6.32459   5
  -4  -3  13 56.9827 6.35184   4
  -4  -3  13 45.9080 5.48323   1
   4   3 -13 53.7684 5.44743   1
   4   3 -13 69.0115 7.00944   5
  -4   3  13 51.0539 6.06491   1
  -4   3  13 45.2102 6.38547   4
   3  -3 -13 8.95452 3.07919   5
  -3  -3  13 10.7769 2.91293   6
  -3  -3  13 7.17935 2.47082   1
  -3  -3  13 9.65202 3.22226   4
  -3   3  13 5.93525 3.09097   4
   3   3 -13 6.23612 2.66935   5
  -3   3  13 8.96305 2.38202   6
   3   3 -13 6.09879 2.42080   1
  -3   3  13 6.34466 2.48857   1
  -2  -3  13 81.7633 6.34153   4
   2  -3 -13 77.1650 6.41021   5
  -2  -3  13 79.2149 5.77266   1
  -2  -3  13 77.7985 5.96542   6
  -2  -3  13 83.9097 5.84131   6
  -2   3  13 89.3882 4.74744   6
   2   3 -13 72.6047 10.0372   1
   2   3 -13 88.0696 5.41606   6
  -2   3  13 79.7699 5.08749   1
   2   3 -13 78.1128 6.12722   5
  -2   3  13 80.2264 6.77983   4
   2   3 -13 76.8281 5.67470   1
   1  -3 -13 83.2510 6.76107   5
  -1  -3  13 80.8342 5.42565   1
  -1  -3  13 73.6324 5.88468   4
  -1  -3  13 84.1237 5.70042   3
  -1  -3  13 94.4572 5.80462   6
  -1  -3  13 83.0582 5.49523   6
  -1   3  13 88.3324 3.97299   1
   1   3 -13 73.1932 5.91281   5
  -1   3  13 78.0778 6.27527   4
  -1   3  13 89.5752 3.48765   6
  -1   3  13 78.8971 3.04780   6
   1   3 -13 77.4650 5.63675   1
   1   3 -13 79.6095 5.95738   1
   0  -3  13 45.5347 4.56053   6
   0  -3  13 37.7227 4.30247   6
   0  -3  13 42.3010 4.75609   4
   0  -3  13 41.3330 4.22778   1
   0  -3  13 36.8385 4.33619   3
   0   3  13 32.3635 4.17571   3
   0   3 -13 46.2290 4.78920   1
   0   3 -13 29.7627 4.39039   5
   0   3  13 35.3482 2.29247   1
   0   3  13 32.4685 4.44751   4
   0   3  13 36.8013 1.93012   1
   0   3 -13 35.3847 4.83597   1
   1  -3  13 55.5105 5.51129   3
   1  -3  13 59.5190 4.65717   4
   1  -3  13 64.1859 5.39431   6
   1  -3  13 52.5108 4.44232   6
   1   3  13 59.3234 3.87373   1
  -1   3 -13 60.9553 4.52163   1
   1   3  13 60.4530 4.53525   4
   1   3  13 60.2716 4.91304   3
   1   3  13 57.5575 4.88898   2
   1   3  13 53.5899 3.13465   6
  -1   3 -13 56.4467 5.91275   1
   2  -3  13 38.1246 4.97711   6
   2  -3  13 48.4400 5.74239   3
   2  -3  13 53.3324 5.16529   4
   2   3  13 49.9078 5.30658   3
   2   3  13 38.1119 3.09872   4
  -2   3 -13 48.2312 6.15465   1
   2   3  13 45.0553 3.74105   6
   3  -3  13 5.18398 2.99894   6
   3  -3  13 7.63134 2.82492   3
   3   3  13 6.43614 2.61306   3
   3   3  13 4.12769 1.86140   6
  -3   3 -13 -0.2699 2.87975   1
  -4  -4  13 65.2808 6.61670   6
  -4  -4  13 76.5915 6.15825   4
  -4  -4  13 73.1151 6.24150   1
   4  -4 -13 80.4088 6.56329   5
   4   4 -13 75.8869 7.41161   5
  -4   4  13 64.4714 7.10027   1
   4   4 -13 75.8758 6.14687   1
  -3  -4  13 96.9529 7.00963   4
  -3  -4  13 113.902 7.38072   1
   3  -4 -13 111.740 7.49927   5
  -3  -4  13 99.0164 7.00057   6
   3   4 -13 100.810 6.97056   5
  -3   4  13 104.778 6.44123   6
  -3   4  13 100.161 6.90693   1
   3   4 -13 110.611 7.02513   1
  -2  -4  13 10.4320 2.87624   6
  -2  -4  13 10.3132 3.16374   4
  -2  -4  13 10.1885 2.52829   3
  -2  -4  13 11.2986 2.77672   1
   2  -4 -13 14.4046 3.30566   5
  -2   4  13 11.2626 2.43457   1
   2   4 -13 10.1412 2.99977   1
  -2   4  13 11.3211 1.84568   6
  -2   4  13 10.5563 3.56733   4
   2   4 -13 9.99972 2.93909   5
  -1  -4  13 81.5108 6.15133   6
  -1  -4  13 71.9415 5.53025   6
  -1  -4  13 69.8009 5.28975   1
  -1  -4  13 79.5574 5.81904   4
  -1  -4  13 63.8526 4.95671   3
   1   4 -13 72.4119 5.84767   5
  -1   4  13 73.5008 5.41075   3
  -1   4  13 79.1454 6.55850   4
  -1   4  13 77.9484 3.53206   1
   1   4 -13 78.5287 5.38440   6
   1   4 -13 75.9626 6.21131   1
   0  -4  13 61.1077 6.14892   6
   0  -4  13 61.6794 5.89254   4
   0  -4  13 60.6634 4.80973   3
   0  -4  13 57.1750 5.55313   6
   0   4  13 55.7337 4.79799   3
   0   4 -13 58.5258 6.25377   1
   0   4  13 56.0605 5.67165   4
   0   4 -13 46.9681 5.24413   5
   1  -4  13 26.2940 4.08521   4
   1  -4  13 22.9096 3.87074   6
   1  -4  13 23.6824 3.71238   3
  -1   4 -13 18.8503 4.17554   1
   1   4  13 25.1062 3.58606   3
   1   4  13 21.5160 3.34086   4
   2  -4  13 21.8962 3.63533   4
   2  -4  13 20.8353 4.29855   6
   2  -4  13 25.4560 4.17096   3
   2   4  13 19.4611 2.54942   6
   2   4  13 23.2713 3.58228   3
  -2   4 -13 18.5174 4.54364   1
   3  -4  13 28.7695 5.61962   6
   3  -4  13 31.1691 4.98006   3
   3   4  13 32.1622 4.46014   3
   3   4  13 21.9480 3.18892   6
  -3   4 -13 45.1175 6.71748   1
  -3  -5  13 12.1914 3.20757   6
  -3  -5  13 16.8117 3.56684   4
   3  -5 -13 13.9615 3.69649   5
  -3  -5  13 10.6813 2.98305   1
  -3   5  13 11.7388 3.75547   4
   3   5 -13 18.2591 3.98199   5
   3   5 -13 11.2078 3.18793   1
   2  -5 -13 52.1892 5.96629   5
  -2  -5  13 71.0948 5.70993   4
  -2  -5  13 66.8554 4.95988   3
  -2  -5  13 56.9602 5.68694   6
  -2  -5  13 61.5830 5.30190   1
  -2   5  13 54.2609 6.60470   4
   2   5 -13 60.5954 5.43961   5
  -2   5  13 60.3387 3.26794   6
   2   5 -13 71.8744 6.04212   1
  -1  -5  13 11.3238 3.13751   4
  -1  -5  13 11.4906 2.89137   6
  -1  -5  13 11.3617 2.60548   1
  -1  -5  13 13.1626 2.75424   3
  -1   5  13 9.17762 2.60384   3
   1   5 -13 16.3530 3.81602   1
   1   5 -13 10.6619 2.90270   5
  -1   5  13 13.0706 3.64851   4
   0  -5  13 228.095 10.3001   4
   0  -5  13 207.671 9.22827   3
   0  -5  13 234.807 10.5484   6
   0   5  13 201.063 10.2655   4
   0   5  13 213.164 9.34091   3
   0   5 -13 214.377 9.92121   5
   0   5 -13 213.851 11.1712   1
   1  -5  13 33.5644 4.81895   6
   1  -5  13 42.3436 4.78639   3
   1  -5  13 39.8323 5.02200   4
   1   5  13 32.2592 3.93542   3
  -1   5 -13 37.1747 5.89380   1
   1   5  13 35.0833 4.18649   4
   2  -5  13 194.898 10.7686   6
   2  -5  13 176.564 9.35518   3
   2   5  13 179.601 6.52373   6
   2   5  13 191.828 8.88547   3
  -2   5 -13 182.697 11.4785   1
  -2  -6  13 61.3901 5.35844   1
  -2  -6  13 60.7494 4.61929   3
  -2  -6  13 60.0857 5.99862   6
  -2  -6  13 54.7334 5.85679   4
   2   6 -13 66.4974 5.59668   5
  -2   6  13 51.0189 6.48306   4
   2   6 -13 53.5572 6.38311   1
  -2   6  13 57.7043 3.00001   6
  -1  -6  13 60.7919 6.11868   6
  -1  -6  13 74.0657 4.92712   3
  -1  -6  13 67.1224 5.65171   4
  -1  -6  13 61.4045 5.29920   1
  -1   6  13 64.3258 5.04963   3
   1   6 -13 65.3465 7.14124   1
  -1   6  13 62.6028 6.86691   4
   1   6 -13 73.5763 5.60804   5
   0  -6  13 38.1426 5.26699   6
   0  -6  13 41.6046 5.30098   4
   0  -6  13 44.0501 4.50685   3
   0   6  13 39.7804 4.25686   3
   0   6 -13 47.9538 5.13210   5
   0   6  13 45.6459 5.59251   4
   0   6 -13 49.6875 6.64368   1
   1  -6  13 2.04882 2.37415   6
   1  -6  13 4.62619 2.33974   4
   1  -6  13 2.49956 1.74649   2
   1  -6  13 3.12068 1.78006   3
   1   6  13 3.09901 1.73310   3
  -1   6 -13 5.29740 3.34878   1
   1   6  13 1.16830 1.70581   4
  -1  -7  13 5.67013 2.51680   4
  -1   7  13 7.32446 2.45657   3
   1   7 -13 8.35763 2.65205   5
  -1   7  13 7.03390 3.00687   4
   1   7 -13 3.05716 3.20369   1
   0  -7  13 89.3716 6.68548   4
   0  -7  13 90.8218 6.42549   3
   0  -7  13 123.834 12.6340   6
   0   7 -13 77.0848 8.40098   1
   0   7  13 76.6017 6.53506   4
   4   0 -14 0.68002 1.56295   1
  -4   0  14 1.06992 2.42076   4
   4   0 -14 -1.2055 2.26719   5
  -4   0  14 3.44378 2.44701   1
   3   0 -14 3.94646 1.69820   1
   3   0 -14 -0.9170 1.98715   5
  -3   0  14 6.22940 2.78663   4
  -3   0  14 6.11330 2.47928   1
  -2   0  14 27.5862 4.52837   4
  -2   0  14 36.3882 4.16452   1
   2   0 -14 35.2529 2.98505   6
  -2   0  14 38.2568 3.88456   6
  -2   0  14 32.3500 3.76580   6
   2   0 -14 30.8378 4.98702   5
  -1   0  14 121.939 5.67356   6
  -1   0  14 116.510 5.74100   6
  -1   0  14 104.328 6.77976   3
  -1   0  14 119.672 7.56560   4
  -1   0  14 117.537 5.80769   1
   1   0 -14 129.988 8.12566   5
   0   0  14 422.012 15.2423   4
   0   0  14 441.134 13.8786   1
   0   0  14 434.451 13.1684   6
   0   0 -14 436.673 16.9017   5
   0   0  14 422.384 15.3475   3
   0   0  14 429.959 13.4976   6
   0   0  14 418.800 13.2113   1
   1   0  14 1.24352 1.89387   3
   1   0  14 -0.1192 1.38246   6
   1   0  14 1.73777 1.78922   2
   1   0  14 0.40169 1.37512   6
   1   0  14 2.19515 1.75506   4
   2   0  14 6.25348 1.79421   4
   2   0  14 4.20846 2.12568   6
  -2   0 -14 3.52380 1.92610   4
   2   0  14 4.65358 2.51501   3
   3   0  14 4.49324 2.20270   3
   3   0  14 2.73603 2.25188   6
  -4  -1  14 63.8118 6.92192   4
   4  -1 -14 74.4990 6.49936   5
  -4  -1  14 68.2152 7.01701   1
  -4   1  14 72.0156 7.82656   4
   4   1 -14 79.8650 7.99087   5
  -4   1  14 87.0580 7.07091   1
   4   1 -14 70.0353 4.95853   1
   3  -1 -14 36.4331 5.17548   5
  -3  -1  14 36.6885 5.21416   4
  -3  -1  14 37.1754 4.69268   1
   3   1 -14 27.2785 3.36051   1
  -3   1  14 26.7829 4.11270   1
   3   1 -14 28.4738 4.46059   5
  -3   1  14 28.8202 5.07968   4
   2  -1 -14 154.056 9.15519   5
  -2  -1  14 171.498 8.10950   1
  -2  -1  14 151.358 8.89912   4
   2  -1 -14 160.825 5.92896   6
  -2  -1  14 163.023 7.65398   6
  -2  -1  14 156.072 7.93692   6
   2   1 -14 164.765 7.01117   6
  -2   1  14 170.031 7.60565   6
  -2   1  14 157.623 7.63518   1
   2   1 -14 169.646 6.98467   1
  -2   1  14 174.921 9.58383   4
   2   1 -14 163.668 9.06271   5
   2   1 -14 155.680 7.24487   1
  -1  -1  14 58.6383 4.30964   6
  -1  -1  14 58.5204 4.28078   6
  -1  -1  14 57.0194 4.32130   1
  -1  -1  14 71.2930 5.35544   3
   1  -1 -14 66.3018 6.95847   5
  -1  -1  14 65.4885 6.48516   4
   1   1 -14 59.4483 6.22430   5
  -1   1  14 64.8045 5.29181   3
  -1   1  14 54.2455 5.95153   4
  -1   1  14 66.1934 3.99350   1
  -1   1  14 55.9957 3.70146   6
   1   1 -14 56.3464 3.63405   1
  -1   1  14 61.4958 3.63963   6
   1   1 -14 58.7645 3.69802   1
   0  -1  14 3.84457 1.71526   1
   0  -1  14 5.38032 1.71544   6
   0  -1  14 4.95230 1.88170   6
   0  -1  14 3.83044 2.15081   3
   0  -1  14 2.29491 2.03704   4
   0   1  14 4.27997 1.33103   6
   0   1  14 1.34091 1.98658   3
   0   1 -14 3.86000 1.26214   1
   0   1  14 5.09792 1.52013   1
   0   1  14 3.54826 1.65151   1
   0   1 -14 4.64779 1.54299   1
   0   1  14 2.89164 1.92918   4
   0   1 -14 5.66258 2.61603   5
   0   1  14 1.87391 1.25797   6
   0   1  14 5.56440 2.67908   2
   1  -1  14 21.7592 3.32811   6
   1  -1  14 20.1620 2.88724   6
   1  -1  14 16.2113 3.00250   4
   1  -1  14 25.4575 3.97764   3
  -1   1 -14 21.8681 2.69198   1
   1   1  14 18.3599 3.39932   3
   1   1  14 26.0903 3.65660   4
   1   1  14 18.4318 2.45707   6
   1   1  14 20.1955 2.81331   6
  -1   1 -14 19.9187 2.19667   1
   1   1  14 21.3191 3.46568   2
   1   1  14 17.8634 3.05635   1
   2  -1  14 9.92021 2.34395   4
   2  -1  14 7.52268 2.65807   3
   2  -1  14 12.3952 2.94857   6
  -2   1 -14 7.80356 2.31180   1
   2   1  14 8.18824 2.49704   6
   2   1  14 9.41540 2.78367   3
   2   1  14 9.65414 2.03281   4
   3  -1  14 31.2993 4.72158   3
   3  -1  14 25.5917 4.39036   6
   3   1  14 27.2696 4.44335   3
   3   1  14 33.5431 4.66085   6
  -4  -2  14 52.1315 6.07424   1
  -4  -2  14 63.5351 6.76671   4
   4  -2 -14 59.6855 6.36613   5
   4   2 -14 66.1746 6.98420   5
   4   2 -14 59.8090 5.03639   1
  -4   2  14 47.2905 6.54570   4
  -4   2  14 56.0061 6.36028   1
  -3  -2  14 13.0440 3.11894   1
   3  -2 -14 16.0984 3.82341   5
  -3  -2  14 14.7051 3.79657   4
  -3   2  14 14.0906 4.26986   6
  -3   2  14 19.0465 3.63053   1
   3   2 -14 11.8388 3.42027   5
  -3   2  14 15.1875 4.04976   4
   3   2 -14 9.51736 2.45681   1
  -2  -2  14 32.7585 4.19584   1
   2  -2 -14 32.5108 4.94353   5
  -2  -2  14 36.6140 5.06373   4
  -2  -2  14 35.7875 4.54435   6
  -2  -2  14 37.5332 4.34810   6
   2   2 -14 38.5369 4.57628   1
   2   2 -14 33.5448 4.70665   5
  -2   2  14 36.9055 3.77836   6
   2   2 -14 33.7900 3.98956   1
  -2   2  14 34.8349 5.45049   4
  -2   2  14 37.1649 3.98401   1
  -1  -2  14 424.817 15.0101   3
   1  -2 -14 399.535 16.3139   5
  -1  -2  14 436.473 14.3759   6
  -1  -2  14 405.513 14.0542   6
  -1  -2  14 427.142 15.7505   4
  -1  -2  14 405.544 14.0741   1
  -1   2  14 426.587 12.3700   6
  -1   2  14 426.931 12.6080   1
   1   2 -14 409.147 14.0915   1
  -1   2  14 416.215 11.8480   6
  -1   2  14 407.660 16.0083   4
  -1   2  14 421.377 15.1450   3
   1   2 -14 412.257 16.0174   5
   1   2 -14 407.555 14.0223   1
   0  -2  14 155.832 8.37433   3
   0  -2  14 186.110 7.88357   6
   0  -2  14 173.562 8.57689   4
   0  -2  14 176.052 7.78563   1
   0  -2  14 172.334 8.01394   6
   0   2  14 193.344 9.06042   3
   0   2  14 172.435 8.81294   4
   0   2  14 177.835 5.85773   6
   0   2 -14 169.804 9.44511   5
   0   2  14 169.669 5.99799   6
   0   2 -14 172.889 7.50921   1
   0   2  14 174.830 6.05892   1
   0   2  14 170.108 6.48964   1
   0   2 -14 186.230 8.29397   1
   1  -2  14 135.795 7.44797   6
   1  -2  14 132.722 7.10336   4
   1  -2  14 124.461 6.54929   6
   1  -2  14 137.047 7.62179   3
   1   2  14 124.508 5.69646   6
   1   2  14 136.660 7.24692   2
  -1   2 -14 122.688 7.15574   1
  -1   2 -14 120.341 5.93829   1
   1   2  14 123.829 6.17494   1
   1   2  14 122.138 6.55417   4
   1   2  14 127.673 7.42243   3
   1   2  14 128.387 5.15109   6
   2  -2  14 86.5395 6.42572   3
   2  -2  14 82.8561 5.36992   4
   2  -2  14 86.8807 6.56678   6
   2   2  14 80.7144 6.16986   3
   2   2  14 77.8325 4.43617   4
  -2   2 -14 74.6190 6.18328   1
   2   2  14 85.5984 5.33844   6
   3  -2  14 37.2059 5.22081   3
   3  -2  14 43.8519 5.74111   6
  -3   2 -14 35.1508 5.07646   1
   3   2  14 34.2220 4.50015   6
   3   2  14 35.7813 4.95597   3
  -4  -3  14 98.3344 7.70293   4
  -4  -3  14 85.4747 6.99119   1
   4  -3 -14 110.414 7.82246   5
   4   3 -14 113.773 7.77529   5
  -4   3  14 123.097 8.23679   1
   4   3 -14 107.268 6.79731   1
  -4   3  14 96.3102 8.19083   4
  -3  -3  14 -0.0940 1.91059   4
  -3  -3  14 2.54074 2.05056   1
   3  -3 -14 -1.1658 2.13670   5
  -3  -3  14 -1.1154 1.70229   6
   3   3 -14 2.07881 2.08769   1
  -3   3  14 2.19611 2.51810   4
  -3   3  14 -0.7589 1.56802   1
   3   3 -14 2.18963 2.33169   5
   2  -3 -14 33.9750 5.07116   5
  -2  -3  14 34.8709 4.85560   4
  -2  -3  14 48.4307 5.15817   6
  -2  -3  14 40.8835 4.87329   1
  -2   3  14 34.9202 5.27606   4
  -2   3  14 39.4171 3.97537   1
   2   3 -14 46.3422 5.05977   1
  -2   3  14 42.1625 3.38660   6
   2   3 -14 42.6216 5.21550   5
  -1  -3  14 143.720 7.57658   6
  -1  -3  14 148.573 7.74747   6
   1  -3 -14 147.473 9.09089   5
  -1  -3  14 128.653 7.45185   3
  -1  -3  14 159.484 7.74820   1
  -1  -3  14 159.714 8.43809   4
  -1   3  14 149.788 4.69903   6
  -1   3  14 154.046 5.76626   1
  -1   3  14 161.147 9.10584   4
  -1   3  14 152.828 8.12750   3
  -1   3  14 152.554 5.11518   6
   1   3 -14 150.554 8.60874   5
   1   3 -14 140.989 7.89169   1
   1   3 -14 143.207 7.79619   1
   0  -3  14 40.5069 4.50602   6
   0  -3  14 41.5046 4.76904   4
   0  -3  14 51.9345 4.98769   6
   0  -3  14 43.2991 4.45507   1
   0  -3  14 39.1611 4.73189   3
   0   3 -14 47.1689 4.62924   1
   0   3  14 33.7296 4.55055   4
   0   3  14 40.9371 2.23016   1
   0   3  14 42.0825 4.74964   3
   0   3 -14 44.7757 5.64638   5
   0   3  14 35.0704 2.57608   1
   0   3 -14 40.2770 5.04373   1
   1  -3  14 7.63871 2.46400   4
   1  -3  14 12.5723 2.90954   3
   1  -3  14 11.2711 2.92298   6
  -1   3 -14 13.8526 3.48700   1
   1   3  14 7.96377 2.20982   4
  -1   3 -14 8.90900 2.16508   1
   1   3  14 4.42516 2.20489   3
   1   3  14 12.3248 1.49948   6
   1   3  14 13.2900 1.87286   6
   2  -3  14 1.27167 1.90644   3
   2  -3  14 1.45986 2.12312   6
   2  -3  14 0.06019 1.49229   4
   2   3  14 2.66905 2.05837   3
   2   3  14 2.15102 1.51659   6
  -2   3 -14 1.62449 2.69025   1
   3  -3  14 91.5343 7.20632   3
   3   3  14 98.7920 6.98178   3
  -3  -4  14 109.131 7.32263   6
  -3  -4  14 104.910 7.10734   1
   3  -4 -14 112.150 7.77089   5
  -3  -4  14 113.590 7.45640   4
  -3   4  14 104.914 8.42111   4
   3   4 -14 107.272 7.43445   5
   3   4 -14 102.586 6.99174   1
  -2  -4  14 17.1279 3.82123   4
  -2  -4  14 15.9984 3.18853   1
  -2  -4  14 19.4322 3.43913   3
   2  -4 -14 12.4627 3.36335   5
  -2  -4  14 15.1129 3.39023   6
   2   4 -14 17.5508 3.60336   1
  -2   4  14 15.4578 4.04037   4
  -2   4  14 16.9515 2.09009   6
   2   4 -14 16.0784 3.50536   5
  -1  -4  14 128.166 7.58998   4
  -1  -4  14 127.804 7.14242   3
  -1  -4  14 117.692 6.97888   1
  -1  -4  14 120.864 7.20277   6
   1   4 -14 136.419 8.09170   5
  -1   4  14 132.102 7.40671   3
   1   4 -14 143.024 8.22139   1
  -1   4  14 132.375 8.45619   4
   0  -4  14 35.1276 4.67394   4
   0  -4  14 28.6253 4.13884   6
   0  -4  14 27.1051 3.99426   3
   0   4 -14 24.3786 4.58079   1
   0   4 -14 34.1102 4.79908   5
   0   4  14 22.9747 3.95004   4
   0   4  14 26.0964 3.97088   3
   1  -4  14 180.045 9.14376   3
   1  -4  14 186.079 9.02358   4
   1  -4  14 169.025 9.43412   6
   1   4  14 192.274 8.93737   3
  -1   4 -14 187.417 10.4448   1
   1   4  14 184.254 8.53657   4
   2  -4  14 158.424 8.96127   3
   2  -4  14 169.651 8.65147   4
   2  -4  14 166.474 9.76623   6
   2   4  14 157.735 8.43900   3
  -2   4 -14 177.000 10.6522   1
   2   4  14 166.665 6.65276   6
  -3  -5  14 29.0411 4.67708   6
  -3  -5  14 31.4961 4.54392   4
   3  -5 -14 38.2868 5.22222   5
  -3  -5  14 21.7820 3.86039   1
   3   5 -14 40.6623 5.20545   5
  -3   5  14 29.9293 5.59021   4
   3   5 -14 26.9672 4.42743   1
  -2  -5  14 76.2164 5.81127   1
  -2  -5  14 70.1758 5.94936   6
   2  -5 -14 74.4004 6.65869   5
  -2  -5  14 79.7968 6.16263   4
  -2  -5  14 67.1718 5.20160   3
   2   5 -14 68.0397 6.74103   1
  -2   5  14 74.6345 3.33390   6
   2   5 -14 79.5245 6.25876   5
  -2   5  14 74.3108 7.98003   4
  -1  -5  14 24.9562 4.00868   6
  -1  -5  14 34.1414 4.79507   4
  -1  -5  14 27.0721 3.75895   3
  -1  -5  14 28.3104 4.07226   1
   1   5 -14 32.6702 4.96024   1
   1   5 -14 24.3097 3.99317   5
  -1   5  14 27.4052 4.02667   3
  -1   5  14 26.8183 4.99472   4
   0  -5  14 12.1795 3.19300   6
   0  -5  14 20.0602 3.19819   3
   0  -5  14 11.6682 3.25271   4
   0   5 -14 25.5040 4.92408   1
   0   5 -14 14.7862 3.24531   5
   0   5  14 13.6097 2.82964   3
   0   5  14 10.7506 3.16593   4
   1  -5  14 5.86779 2.20773   3
   1  -5  14 6.13909 2.85279   6
   1  -5  14 5.54658 2.37737   4
  -1   5 -14 1.30916 2.82260   1
   1   5  14 3.35759 1.91090   3
   1   5  14 7.21946 2.41062   4
   2  -5  14 8.78469 3.32293   6
   2  -5  14 16.7796 3.44439   3
   2   5  14 13.2302 2.97622   3
  -2   5 -14 8.62534 3.79942   1
   2   5  14 13.0638 1.74607   6
  -2  -6  14 0.62196 1.71242   1
  -2  -6  14 3.83519 1.90793   3
  -2  -6  14 1.31138 2.28459   4
  -2  -6  14 3.45436 2.31843   6
   2   6 -14 0.45283 2.06362   5
  -2   6  14 1.75744 2.69146   4
   2   6 -14 0.42402 2.62022   1
  -1  -6  14 24.3677 4.06360   6
  -1  -6  14 29.7008 4.43418   4
  -1  -6  14 25.7415 3.90255   1
  -1  -6  14 26.7552 3.62686   3
  -1   6  14 21.5493 3.56280   3
   1   6 -14 26.2364 5.09762   1
   1   6 -14 22.9410 3.94731   5
  -1   6  14 19.2017 4.16645   4
   0  -6  14 88.1208 6.85497   6
   0  -6  14 75.3981 5.36746   3
   0  -6  14 79.8180 6.15656   4
   0   6  14 64.6946 6.84483   4
   0   6  14 74.4493 5.26458   3
   0   6 -14 82.4770 6.01580   5
   0   6 -14 82.8311 8.23690   1
   1  -6  14 62.0978 6.59529   4
   1  -6  14 67.7845 6.02490   2
   1  -6  14 54.9177 6.41644   6
   1  -6  14 59.3009 5.18832   3
  -1   6 -14 69.0071 8.42957   1
   1   6  14 56.1474 4.59342   3
  -4   0  15 91.0005 7.23655   1
  -4   0  15 92.2159 7.55885   4
   4   0 -15 89.4439 7.36309   5
   3   0 -15 10.7123 3.37416   5
  -3   0  15 13.2435 3.11880   1
  -3   0  15 6.66994 3.09374   4
  -2   0  15 37.3053 4.16197   6
   2   0 -15 49.7503 5.95510   5
   2   0 -15 33.0577 3.44656   6
  -2   0  15 45.4192 5.84098   4
  -2   0  15 47.9625 3.99651   6
  -2   0  15 40.6689 4.48339   1
  -1   0  15 15.2946 3.53749   4
  -1   0  15 28.1370 3.27943   1
  -1   0  15 23.2016 3.74658   3
  -1   0  15 28.7407 3.17522   6
   1   0 -15 23.4209 4.47267   5
  -1   0  15 22.9680 2.95269   6
   0   0  15 48.1187 3.78142   6
   0   0  15 58.3666 3.88399   1
   0   0  15 48.1924 3.60525   6
   0   0  15 49.5459 5.29493   3
   0   0  15 47.4000 4.06448   1
   0   0  15 56.5242 5.61036   4
   1   0  15 116.589 7.17083   3
   1   0  15 90.2622 5.09148   6
   1   0  15 102.828 6.07518   4
   1   0  15 99.4236 6.32807   2
   1   0  15 96.6233 5.77474   6
   2   0  15 302.876 10.6460   4
   2   0  15 273.377 12.3731   3
   2   0  15 281.936 11.9160   6
   3   0  15 9.33151 2.90603   6
   3   0  15 12.1464 3.23071   3
   4  -1 -15 12.2403 3.58663   5
  -4  -1  15 11.2431 3.22987   1
  -4  -1  15 8.41106 3.20402   4
   4   1 -15 9.27970 3.42052   1
  -4   1  15 14.1323 4.04057   4
  -4   1  15 10.5503 3.28067   1
   4   1 -15 7.56480 3.15811   5
  -3  -1  15 115.282 7.96835   4
   3  -1 -15 120.186 8.12347   5
  -3  -1  15 110.516 7.14311   1
   3   1 -15 116.928 7.99050   5
  -3   1  15 121.011 7.37050   1
   3   1 -15 104.518 5.82222   1
  -2  -1  15 79.3174 7.56739   4
  -2  -1  15 72.8507 5.10438   6
  -2  -1  15 76.2156 5.94938   6
  -2  -1  15 71.6455 5.33808   1
   2  -1 -15 78.7081 6.78010   5
  -2   1  15 65.9445 4.69947   6
   2   1 -15 68.7262 4.23626   1
  -2   1  15 69.9129 4.93954   1
  -2   1  15 66.4825 4.36996   6
  -2   1  15 64.2076 6.89562   4
   2   1 -15 72.2805 6.40565   5
  -1  -1  15 172.334 7.71728   1
  -1  -1  15 182.825 7.74355   6
  -1  -1  15 174.262 9.23784   4
  -1  -1  15 171.060 8.74020   3
  -1  -1  15 174.143 7.75062   6
   1  -1 -15 157.850 9.61996   5
   1   1 -15 180.354 9.84397   5
  -1   1  15 178.029 6.73051   6
  -1   1  15 162.172 8.67678   3
   1   1 -15 163.897 6.56979   1
   1   1 -15 170.395 6.10016   1
  -1   1  15 169.489 7.00684   1
  -1   1  15 182.658 9.55258   4
  -1   1  15 174.158 6.96801   6
   0  -1  15 120.341 6.20083   1
   0  -1  15 132.075 7.55754   3
   0  -1  15 125.326 6.47804   6
   0  -1  15 125.512 7.46480   4
   0  -1  15 132.831 6.28881   6
   0   1  15 124.563 7.46570   3
   0   1  15 135.143 5.46015   6
   0   1  15 143.054 7.66189   4
   0   1  15 129.371 5.98455   1
   0   1  15 136.562 5.67469   1
   0   1  15 132.303 5.71969   6
   0   1 -15 121.655 8.43575   5
   1  -1  15 90.1549 5.95727   4
   1  -1  15 97.4421 6.14042   6
   1  -1  15 108.152 6.98298   3
   1  -1  15 108.122 6.29391   6
   1   1  15 102.241 4.92828   6
  -1   1 -15 102.920 5.82841   1
   1   1  15 96.9158 6.21977   2
   1   1  15 96.4437 6.02912   4
   1   1  15 106.721 5.61237   6
   1   1  15 96.4425 5.96060   1
   1   1  15 109.544 7.01138   3
   2  -1  15 5.48283 1.92083   4
   2  -1  15 6.84447 2.58427   6
   2  -1  15 5.49329 2.43449   3
   2   1  15 0.57858 1.68972   6
   2   1  15 4.89849 2.43835   3
   2   1  15 3.68587 1.61955   4
   3  -1  15 1.12307 2.03797   3
   3   1  15 2.93774 2.13990   3
  -4  -2  15 6.49369 2.69695   1
  -4  -2  15 2.41710 2.87710   4
   4  -2 -15 10.7793 3.39175   5
   4   2 -15 12.0936 3.60009   5
  -4   2  15 5.10067 3.03624   4
  -4   2  15 11.5396 3.39532   1
   4   2 -15 10.0077 2.76146   1
   3  -2 -15 44.7142 5.65430   5
  -3  -2  15 42.8001 5.67020   4
  -3  -2  15 41.0650 4.76224   6
  -3  -2  15 40.5303 4.87973   1
   3   2 -15 40.0763 4.34203   1
  -3   2  15 48.4470 5.17111   1
  -3   2  15 47.7021 6.62828   4
   3   2 -15 43.6809 5.63533   5
  -2  -2  15 44.2212 4.84509   1
  -2  -2  15 46.3937 4.94574   6
  -2  -2  15 53.1446 6.15066   4
   2  -2 -15 48.4813 6.02209   5
  -2   2  15 47.7903 3.77829   6
   2   2 -15 50.3473 5.82298   5
  -2   2  15 44.8696 4.30450   1
  -2   2  15 38.5429 5.36474   4
   2   2 -15 36.1121 4.17059   1
  -1  -2  15 46.2322 4.63297   6
  -1  -2  15 50.1419 4.90700   1
  -1  -2  15 45.0674 4.50630   6
   1  -2 -15 51.5834 6.22005   5
  -1  -2  15 34.6558 4.30253   3
  -1  -2  15 57.6705 6.17588   4
   1   2 -15 49.4603 5.98399   5
  -1   2  15 43.6121 5.64020   4
  -1   2  15 48.7867 2.96784   6
   1   2 -15 47.6369 5.43677   1
  -1   2  15 50.0663 3.38362   1
  -1   2  15 47.3828 5.39954   3
  -1   2  15 49.3696 3.19548   6
   1   2 -15 49.6154 4.29404   1
   0  -2  15 51.5925 5.52641   4
   0  -2  15 50.5096 5.38701   3
   0  -2  15 63.3715 4.78717   6
   0  -2  15 58.6161 4.65332   6
   0  -2  15 51.0743 4.27878   1
   0   2  15 50.6483 3.47781   1
   0   2  15 55.4444 5.59205   3
   0   2  15 56.5353 3.12643   6
   0   2  15 53.4309 2.89291   6
   0   2  15 57.0467 5.85884   4
   0   2  15 46.7274 3.02396   1
   0   2 -15 58.2589 4.65407   1
   0   2 -15 70.3576 7.33651   5
   1  -2  15 32.8784 4.31213   6
   1  -2  15 37.9718 4.46383   4
   1  -2  15 35.8887 4.60526   3
   1   2  15 38.9867 4.66610   2
  -1   2 -15 43.5866 4.66859   1
   1   2  15 38.0683 2.74917   6
   1   2  15 41.6775 3.27870   6
   1   2  15 41.1028 4.94309   3
   1   2  15 30.2230 3.85043   4
   2  -2  15 6.42339 2.48406   3
   2  -2  15 1.56243 1.66573   4
   2  -2  15 4.52415 2.30067   6
  -2   2 -15 2.13942 2.27338   1
   2   2  15 2.31165 2.04701   3
   2   2  15 4.30374 1.84821   6
  -3  -3  15 115.683 7.29071   6
   3  -3 -15 94.4831 7.66300   5
  -3  -3  15 111.935 7.39071   1
  -3  -3  15 116.510 7.91162   4
   3   3 -15 122.147 7.17049   1
  -3   3  15 122.949 9.05422   4
  -3   3  15 124.308 7.61648   1
   3   3 -15 124.460 8.08163   5
  -2  -3  15 49.4745 5.65242   4
  -2  -3  15 49.5685 5.12794   6
  -2  -3  15 50.0336 5.59464   3
  -2  -3  15 48.5247 5.08475   1
   2  -3 -15 52.3285 6.19369   5
   2   3 -15 38.7751 4.75187   1
  -2   3  15 58.0183 4.60364   1
  -2   3  15 53.9714 6.44836   4
  -2   3  15 52.7031 3.69491   6
   2   3 -15 62.3973 6.59979   5
  -1  -3  15 2.36501 1.95935   3
  -1  -3  15 5.09993 2.53857   4
   1  -3 -15 5.43804 3.11946   5
  -1  -3  15 5.45047 2.19181   1
  -1  -3  15 2.82241 1.91347   6
   1   3 -15 4.28508 2.33859   1
   1   3 -15 9.14063 2.92046   5
  -1   3  15 4.88101 0.94703   6
  -1   3  15 8.18317 2.81430   4
   1   3 -15 4.93746 2.10483   1
  -1   3  15 2.26251 2.15906   3
   0  -3  15 50.6893 4.43163   1
   0  -3  15 55.0899 5.56273   4
   0  -3  15 49.9701 5.09011   6
   0  -3  15 51.8142 5.67552   3
   0   3 -15 51.9179 6.08247   5
   0   3  15 44.9020 5.35994   4
   0   3 -15 46.6047 5.41371   1
   0   3  15 46.4592 5.16138   3
   1  -3  15 77.7714 6.00391   6
   1  -3  15 78.6591 5.66863   4
   1  -3  15 70.6345 5.79466   3
   1   3  15 67.9214 5.49965   3
  -1   3 -15 77.8686 6.39340   1
   1   3  15 77.6497 3.23322   6
   1   3  15 74.9119 3.70096   6
   1   3  15 58.6151 4.80702   4
   2  -3  15 16.3207 3.15522   4
   2  -3  15 15.9091 3.93342   6
   2  -3  15 22.8982 4.18472   3
  -2   3 -15 12.4106 3.50267   1
   2   3  15 12.5564 3.23111   3
   2   3  15 11.9913 2.29548   6
  -3  -4  15 97.4884 7.04401   6
   3  -4 -15 93.9501 7.40860   5
  -3  -4  15 89.3526 6.98893   4
  -3  -4  15 92.8506 6.77785   1
   3   4 -15 99.1231 7.27888   5
   3   4 -15 87.7940 6.60826   1
  -3   4  15 101.714 8.30098   4
  -2  -4  15 6.43471 2.38656   3
  -2  -4  15 13.4179 3.27778   6
   2  -4 -15 11.5342 3.60138   5
  -2  -4  15 8.66600 2.70622   1
  -2  -4  15 9.84604 3.05405   4
  -2   4  15 11.3281 3.62338   4
  -2   4  15 10.4407 1.69870   6
   2   4 -15 12.8456 3.32279   5
   2   4 -15 9.17568 3.07369   1
  -1  -4  15 1.82352 1.70285   1
  -1  -4  15 1.92059 2.02361   4
  -1  -4  15 0.41383 1.68932   6
  -1  -4  15 0.82369 1.59580   3
  -1   4  15 -0.0301 1.93136   4
   1   4 -15 0.90543 2.36193   1
  -1   4  15 -0.0017 1.88062   3
   1   4 -15 0.38959 2.01087   5
   0  -4  15 4.01420 2.23058   3
   0  -4  15 2.81913 2.19026   6
   0  -4  15 7.36642 2.65772   4
   0   4  15 6.84707 2.60214   4
   0   4  15 6.06763 2.40851   3
   0   4 -15 2.74485 2.69222   1
   0   4 -15 6.49099 2.64439   5
   1  -4  15 64.5869 6.32517   4
   1  -4  15 51.0867 5.44131   3
   1  -4  15 80.3493 7.51520   6
  -1   4 -15 78.5706 7.61338   1
   1   4  15 61.5918 5.19163   3
   1   4  15 60.3540 4.94818   4
   2  -4  15 35.9494 4.62262   4
   2  -4  15 27.9317 4.90571   6
   2  -4  15 37.1098 5.08672   3
   2   4  15 32.8919 4.54674   3
  -2   4 -15 27.5808 5.15964   1
   2   4  15 31.1615 2.99206   6
  -2  -5  15 144.371 8.35095   4
  -2  -5  15 121.571 7.82233   6
  -2  -5  15 113.653 6.95396   3
  -2  -5  15 128.463 7.78849   1
   2   5 -15 130.779 8.38896   1
  -2   5  15 118.999 8.92405   4
   2   5 -15 136.400 8.22027   5
  -1  -5  15 145.324 7.65238   3
  -1  -5  15 148.713 8.05869   1
  -1  -5  15 152.321 8.46673   6
  -1  -5  15 133.506 8.10517   4
   1   5 -15 134.080 8.29592   5
  -1   5  15 140.917 7.87065   3
  -1   5  15 124.243 8.65218   4
   1   5 -15 135.681 8.79826   1
   0  -5  15 44.9178 5.08642   3
   0  -5  15 35.4642 4.97650   4
   0  -5  15 41.8001 5.44846   6
   0   5 -15 46.7843 6.23185   1
   0   5  15 41.8474 5.35158   4
   0   5 -15 43.3084 5.44362   5
   0   5  15 38.9936 4.62916   3
   1  -5  15 18.0445 3.72133   4
   1  -5  15 17.1122 3.36091   3
   1  -5  15 18.9511 4.30052   6
  -1   5 -15 18.9951 4.73539   1
   1   5  15 24.1806 3.73284   3
   1   5  15 13.5255 3.18979   4
  -1  -6  15 9.43150 2.32609   3
  -1  -6  15 8.39995 2.57206   1
  -1  -6  15 4.50293 2.35032   6
  -1  -6  15 4.69739 2.36576   4
  -1   6  15 7.07825 2.59316   3
  -1   6  15 9.48410 3.16480   4
   1   6 -15 3.98448 3.27509   1
   1   6 -15 12.5987 3.10203   5
   0  -6  15 98.6032 6.39593   3
   0   6  15 109.472 6.47896   3
  -3   0  16 84.5917 7.05864   4
   3   0 -16 65.9801 6.96511   5
  -3   0  16 81.4471 6.03459   1
  -2   0  16 0.19050 1.56522   6
  -2   0  16 1.16430 2.22564   4
  -2   0  16 0.25683 1.42698   1
   2   0 -16 -1.6104 2.35550   5
  -1   0  16 9.88104 2.25970   1
  -1   0  16 3.21583 2.54787   4
  -1   0  16 7.17906 1.91293   6
  -1   0  16 8.27573 2.06314   6
   1   0 -16 7.26804 3.01276   5
  -1   0  16 8.07284 2.62444   3
   0   0  16 196.048 7.96891   1
   0   0  16 202.424 8.25795   6
   0   0  16 209.500 7.93128   6
   0   0  16 203.252 9.88595   3
   0   0  16 199.841 9.83901   4
   1   0  16 8.99068 2.38006   6
   1   0  16 7.33279 2.74227   3
   1   0  16 10.4844 2.60343   4
   2   0  16 5.59529 2.44636   3
   2   0  16 5.03813 1.73056   4
   2   0  16 1.49445 2.01245   6
  -3  -1  16 11.1567 3.02424   1
   3  -1 -16 16.7991 4.19024   5
  -3  -1  16 11.4422 3.35962   4
  -3  -1  16 6.18187 2.38879   6
  -3   1  16 6.92822 3.23031   4
   3   1 -16 15.8130 3.84380   5
  -3   1  16 15.0453 3.18367   1
  -2  -1  16 49.1392 4.95307   1
  -2  -1  16 44.9483 4.57410   6
  -2  -1  16 41.2995 5.54939   4
   2  -1 -16 44.5782 6.29468   5
  -2   1  16 43.1809 4.43325   1
   2   1 -16 44.0852 5.85030   5
  -2   1  16 40.6949 4.19919   6
  -2   1  16 39.3648 5.58888   4
  -2   1  16 41.4333 3.47732   6
  -1  -1  16 3.77252 1.81993   1
  -1  -1  16 2.37369 2.05805   3
   1  -1 -16 4.75113 3.04251   5
  -1  -1  16 4.98455 2.09366   6
  -1  -1  16 2.02160 1.68323   6
  -1  -1  16 7.13647 2.66627   4
  -1   1  16 3.93996 1.60178   6
  -1   1  16 4.27639 2.39789   4
  -1   1  16 3.29179 1.63595   1
  -1   1  16 2.95621 1.42393   6
   1   1 -16 3.86290 2.79404   5
  -1   1  16 7.80325 2.83632   3
   0  -1  16 53.1982 5.49811   4
   0  -1  16 56.8005 5.84896   3
   0  -1  16 59.1713 4.30371   1
   0  -1  16 60.4460 4.51901   6
   0  -1  16 60.4869 6.30277   6
   0   1  16 58.0042 3.51979   6
   0   1  16 54.2776 3.73830   6
   0   1  16 52.9666 5.66773   3
   0   1  16 53.6445 5.55227   4
   0   1  16 51.5294 3.56861   1
   0   1  16 55.5319 4.07133   1
   1  -1  16 62.3991 6.22415   3
   1  -1  16 67.3701 5.24094   6
   1  -1  16 71.9036 5.31160   4
   1   1  16 68.8875 5.79825   3
   1   1  16 68.3465 4.62515   6
   1   1  16 60.2391 3.89289   6
   1   1  16 69.6908 5.13209   4
   2  -1  16 13.7815 2.62686   4
   2  -1  16 11.7779 3.10669   3
   2  -1  16 13.2614 3.27492   6
   2   1  16 18.1471 3.76615   3
   2   1  16 15.9711 3.07847   6
   2   1  16 18.3063 3.06388   4
  -3  -2  16 9.19407 2.83922   6
   3  -2 -16 10.7372 3.53336   5
  -3  -2  16 9.45088 2.86441   1
  -3  -2  16 9.11336 3.34211   4
   3   2 -16 9.06819 3.16221   5
  -3   2  16 6.65189 2.70997   1
  -3   2  16 9.41953 3.40404   4
   3   2 -16 4.10121 2.25491   1
   2  -2 -16 118.220 8.44956   5
  -2  -2  16 101.578 7.68589   4
  -2  -2  16 105.917 7.10568   3
  -2  -2  16 99.3892 6.36993   6
  -2  -2  16 109.161 6.72151   1
  -2   2  16 119.611 6.22361   1
   2   2 -16 109.929 6.18640   1
  -2   2  16 111.977 5.21488   6
   2   2 -16 103.818 7.73476   5
  -2   2  16 109.017 8.16348   4
  -2   2  16 112.140 5.84852   6
  -1  -2  16 101.141 6.97670   4
  -1  -2  16 98.2583 6.72941   3
  -1  -2  16 97.7604 6.07174   6
   1  -2 -16 99.6436 7.82952   5
  -1  -2  16 93.9730 5.89993   1
  -1   2  16 103.170 4.90252   1
  -1   2  16 112.469 7.58296   4
  -1   2  16 103.303 4.44231   6
  -1   2  16 98.3549 6.92390   3
   1   2 -16 89.4040 5.49051   1
  -1   2  16 100.614 4.75646   6
   1   2 -16 97.5510 7.42994   5
   0  -2  16 109.236 6.06053   1
   0  -2  16 94.7593 6.65402   4
   0  -2  16 98.6363 6.61518   3
   0  -2  16 107.297 6.32702   6
   0   2  16 94.8704 5.65267   1
   0   2 -16 89.1954 7.25062   5
   0   2  16 96.3855 6.77524   3
   0   2  16 91.2234 4.31652   6
   0   2  16 93.6279 4.08986   6
   0   2  16 99.3095 6.78441   4
   0   2 -16 92.7265 5.48278   1
   1  -2  16 33.2772 4.29048   4
   1  -2  16 31.9922 4.46432   6
   1  -2  16 36.8322 5.06897   3
  -1   2 -16 25.7120 5.07258   1
   1   2  16 28.8345 2.62531   6
   1   2  16 22.8980 3.40294   4
   1   2  16 28.7827 3.15563   6
   1   2  16 30.2541 4.36129   3
   2  -2  16 42.9139 5.60587   6
   2  -2  16 34.2547 4.16744   4
   2  -2  16 32.7089 4.80088   3
   2   2  16 31.0612 3.82341   6
   2   2  16 37.4092 4.98454   3
  -3  -3  16 0.76588 1.95115   6
  -3  -3  16 2.68488 2.22721   1
  -3  -3  16 3.91441 2.59809   4
   3  -3 -16 1.60902 2.60728   5
  -3   3  16 3.38203 2.69469   4
   3   3 -16 -2.7223 1.83870   5
   3   3 -16 2.01730 2.21421   1
   2  -3 -16 176.040 10.3529   5
  -2  -3  16 171.813 9.54837   4
  -2  -3  16 181.373 9.01734   1
  -2  -3  16 189.073 9.43857   3
  -2  -3  16 183.384 9.01568   6
   2   3 -16 175.083 8.87209   1
  -2   3  16 177.298 7.17040   6
  -2   3  16 177.897 6.47913   6
   2   3 -16 193.723 10.3915   5
  -2   3  16 176.170 10.5086   4
  -1  -3  16 3.36546 2.15438   3
  -1  -3  16 1.93187 1.93357   6
  -1  -3  16 5.29552 2.64471   4
  -1  -3  16 7.69459 2.39185   1
  -1   3  16 5.90386 2.75834   4
   1   3 -16 4.44446 2.55705   1
   1   3 -16 5.12839 2.78213   5
  -1   3  16 8.59713 2.85807   3
   0  -3  16 67.1695 5.43480   6
   0  -3  16 71.6614 6.73454   4
   0  -3  16 57.3755 5.97134   3
   0   3  16 60.4454 6.02677   3
   0   3 -16 51.4100 6.09649   5
   0   3  16 52.0093 5.89059   4
   0   3 -16 56.6411 5.62660   1
   1  -3  16 104.424 7.08551   6
   1  -3  16 103.423 7.07529   3
   1  -3  16 94.3475 6.40780   4
   1   3  16 98.6650 3.81732   6
  -1   3 -16 96.6896 6.90445   1
   1   3  16 105.387 4.42511   6
   1   3  16 100.299 6.13820   4
   1   3  16 84.5647 6.38013   3
   2  -3  16 13.7201 3.00175   4
   2  -3  16 15.1878 3.60725   3
   2  -3  16 15.6607 3.94768   6
   2   3  16 10.7081 3.03677   3
   2   3  16 13.5731 2.36667   6
  -2  -4  16 100.493 7.39372   4
   2  -4 -16 113.746 8.27048   5
  -2  -4  16 100.777 6.68237   1
  -2  -4  16 113.664 7.10924   6
  -2  -4  16 100.248 6.70143   3
   2   4 -16 90.6331 7.27494   5
  -2   4  16 98.8300 3.93324   6
  -2   4  16 98.3952 4.25573   6
  -2   4  16 95.9632 7.90156   4
   2   4 -16 93.5046 7.08468   1
  -1  -4  16 13.4085 3.21736   6
  -1  -4  16 17.1712 3.38682   3
  -1  -4  16 16.1943 3.19324   1
  -1  -4  16 21.8694 4.01266   4
  -1   4  16 12.6418 3.51660   4
   1   4 -16 15.8272 3.63838   5
   1   4 -16 16.8821 3.81116   1
  -1   4  16 22.4981 3.81423   3
   0  -4  16 95.0970 6.82010   6
   0  -4  16 106.598 6.70154   3
   0  -4  16 93.4137 6.60692   4
   0   4  16 94.4255 6.58656   3
   0   4 -16 90.8603 7.03688   5
   0   4 -16 95.9485 7.34536   1
   0   4  16 91.3653 6.75007   4
   1  -4  16 49.7614 5.48094   3
   1  -4  16 49.8711 5.81014   6
   1  -4  16 57.2889 5.94309   4
   1   4  16 50.8716 5.41050   3
   1   4  16 46.3334 4.91588   4
  -1   4 -16 50.7363 6.09223   1
  -1  -5  16 9.78988 2.94095   4
  -1  -5  16 3.66191 2.22112   6
  -1  -5  16 2.55068 1.85859   1
  -1  -5  16 4.66797 2.03110   3
   1   5 -16 5.42490 3.06072   1
  -1   5  16 4.13231 2.43969   4
   1   5 -16 2.64734 2.33812   5
  -1   5  16 1.73398 2.15018   3
   0  -5  16 61.3723 6.50694   6
   0  -5  16 70.6009 6.96997   4
   0  -5  16 50.8805 5.39138   3
   0   5  16 56.6365 5.63524   3
   0   5  16 47.7706 5.63934   4
   0   5 -16 53.1529 6.41129   1
  -3   0  17 2.74977 1.90097   1
  -3   0  17 3.80853 1.89304   6
  -3   0  17 7.51783 3.08535   4
   3   0 -17 5.26336 3.04910   5
  -2   0  17 93.1438 5.59209   6
   2   0 -17 87.0690 7.72313   5
  -2   0  17 100.331 7.60895   4
  -2   0  17 103.324 6.14447   1
  -1   0  17 93.4783 5.23949   6
  -1   0  17 80.3095 6.45956   4
  -1   0  17 85.8606 6.53178   3
   1   0 -17 90.4179 7.57749   5
  -1   0  17 84.4602 5.18986   1
   0   0  17 0.89723 1.51779   6
   0   0  17 1.48282 1.46837   1
   0   0  17 1.65630 2.20886   3
   0   0  17 -2.5062 1.83333   4
   1   0  17 93.5772 6.04996   4
   1   0  17 90.5809 6.73078   3
   1   0  17 83.0428 5.64098   6
   2   0  17 0.92351 1.87754   3
   2   0  17 -0.5098 1.63743   6
  -3  -1  17 67.1680 7.41922   4
  -3  -1  17 81.9494 5.87483   6
  -3  -1  17 97.1547 6.72475   1
   3  -1 -17 87.3787 7.55065   5
  -3   1  17 72.8829 8.03432   4
   3   1 -17 92.3744 7.49685   5
  -3   1  17 82.2345 6.08311   1
  -2  -1  17 7.62003 2.85571   3
   2  -1 -17 10.2028 3.63520   5
  -2  -1  17 6.96251 2.41057   1
  -2  -1  17 11.0277 3.29659   4
  -2  -1  17 5.50872 2.22358   6
  -2   1  17 5.47122 2.84125   4
  -2   1  17 4.33544 2.13601   1
   2   1 -17 8.90896 3.20956   5
  -2   1  17 8.06662 2.00468   6
  -1  -1  17 22.4466 4.14476   4
  -1  -1  17 18.3750 3.04418   6
  -1  -1  17 21.2249 3.88259   3
   1  -1 -17 20.2298 4.45319   5
  -1  -1  17 19.9625 3.09411   1
  -1   1  17 20.0468 2.74813   1
  -1   1  17 14.3258 3.37557   3
  -1   1  17 16.6638 2.34338   6
   1   1 -17 19.7526 4.49931   5
  -1   1  17 16.2463 3.90548   4
  -1   1  17 20.3933 2.79478   6
   0  -1  17 24.3073 3.17406   1
   0  -1  17 25.3774 4.18449   4
   0  -1  17 25.5381 4.46428   3
   0  -1  17 19.8057 3.24912   6
   0   1  17 26.0414 4.18711   3
   0   1  17 24.6467 4.19718   4
   0   1  17 28.4606 2.89576   6
   0   1  17 24.3634 2.84305   6
   0   1  17 28.0187 2.97459   1
   1  -1  17 59.4844 6.31400   3
   1  -1  17 58.1081 5.56722   6
   1  -1  17 49.6177 5.14876   4
   1   1  17 53.6016 4.29317   6
   1   1  17 48.4248 5.03814   4
   1   1  17 64.4500 6.33384   3
   2  -1  17 24.8441 4.35068   3
   2   1  17 22.1634 4.18344   3
   3  -2 -17 9.91201 3.69194   5
  -3  -2  17 19.4868 3.65753   1
  -3  -2  17 8.95338 3.30806   4
  -3  -2  17 13.2548 2.98770   6
   3   2 -17 11.8953 3.53438   5
  -3   2  17 9.21479 3.36397   4
  -2  -2  17 57.2738 5.53446   6
   2  -2 -17 50.7037 6.48705   5
  -2  -2  17 56.5695 6.23381   3
  -2  -2  17 63.2859 5.25748   1
  -2  -2  17 52.2714 6.31234   4
  -2   2  17 60.8008 3.84308   6
  -2   2  17 48.6394 6.37490   4
  -2   2  17 61.8689 4.41228   6
   2   2 -17 45.4779 6.15335   5
  -1  -2  17 138.334 8.19121   3
  -1  -2  17 143.085 8.51998   4
  -1  -2  17 130.002 7.18986   6
  -1  -2  17 132.330 7.16291   1
   1  -2 -17 130.222 9.24587   5
  -1   2  17 120.838 8.34035   4
   1   2 -17 134.835 8.92012   5
  -1   2  17 141.057 8.30524   3
  -1   2  17 133.113 5.35103   6
  -1   2  17 135.320 5.73328   6
   0  -2  17 160.717 7.95921   6
   0  -2  17 144.681 8.25876   4
   0  -2  17 140.224 8.21381   3
   0   2  17 127.927 8.09711   3
   0   2  17 133.966 5.56400   6
   0   2  17 134.265 8.09666   4
   0   2  17 144.700 5.41514   6
   1  -2  17 34.8275 4.92262   3
   1  -2  17 44.6233 5.27522   6
   1  -2  17 32.9059 4.37165   4
   1   2  17 42.1413 2.95150   6
   1   2  17 36.7554 4.32626   4
   1   2  17 40.4789 3.40174   6
   1   2  17 36.3506 5.01666   3
  -2  -3  17 49.3703 5.81409   3
  -2  -3  17 45.4671 5.05573   6
  -2  -3  17 41.5924 4.90372   1
  -2  -3  17 41.5485 5.40073   4
   2  -3 -17 30.5752 5.30766   5
  -2   3  17 50.1176 3.10723   6
  -2   3  17 49.6033 3.53471   6
   2   3 -17 42.0181 5.85628   5
   2   3 -17 55.9833 5.51535   1
  -2   3  17 49.1808 6.56886   4
  -1  -3  17 52.6247 5.28161   1
  -1  -3  17 40.3094 4.80086   6
  -1  -3  17 49.7994 5.93351   4
  -1  -3  17 42.2051 5.31769   3
  -1   3  17 45.3839 6.05443   4
  -1   3  17 51.7121 5.64592   3
   1   3 -17 43.3748 5.84331   5
   1   3 -17 59.1857 5.65119   1
   0  -3  17 19.3685 3.44779   6
   0  -3  17 19.2454 3.51275   3
   0  -3  17 26.8510 4.30559   4
   0   3  17 21.0719 3.96416   3
   0   3 -17 24.9501 4.05679   1
   0   3  17 22.8529 4.04578   4
   1  -3  17 7.37662 2.72961   3
   1  -3  17 7.73980 2.52431   4
   1  -3  17 8.05912 2.85595   6
   1   3  17 5.05185 1.28588   6
   1   3  17 6.04320 2.70464   3
   1   3  17 6.84225 1.14725   6
   1   3  17 1.61437 1.64674   4
  -2  -4  17 39.5135 5.15540   3
   2  -4 -17 25.4061 5.01296   5
  -2  -4  17 33.5221 4.46545   1
   2   4 -17 33.4841 5.19058   5
  -1  -4  17 86.4275 6.66151   4
  -1  -4  17 82.1031 6.09843   3
  -1  -4  17 76.3277 5.76834   1
  -1  -4  17 83.0563 6.19693   6
   1   4 -17 75.6796 6.43369   1
   1   4 -17 87.5052 7.04057   5
  -1   4  17 70.2378 5.99681   3
  -1   4  17 75.0884 7.59801   4
   0  -4  17 46.7291 5.50420   4
   0  -4  17 44.7753 5.35912   6
   0  -4  17 48.0791 5.59668   3
   0   4 -17 42.4348 5.32331   1
   0   4  17 47.6303 5.42714   3
   0   4  17 35.7340 4.95711   4
   2   0 -18 7.67797 3.47595   5
  -2   0  18 -0.2546 2.06130   3
  -2   0  18 0.54600 1.98645   4
  -2   0  18 -0.4765 1.69957   1
  -2   0  18 -2.6424 1.19265   6
  -1   0  18 206.069 10.6031   3
  -1   0  18 204.469 10.7961   4
  -1   0  18 220.007 8.77169   6
  -1   0  18 218.923 8.84583   1
   1   0 -18 209.726 11.8449   5
   0   0  18 4.12582 2.47567   4
   0   0  18 2.52889 1.78421   6
   0   0  18 5.45583 2.71331   3
   1   0  18 21.7432 3.62612   4
   1   0  18 22.3314 3.54578   6
   1   0  18 23.1354 4.10239   3
  -2  -1  18 145.168 7.41483   6
  -2  -1  18 154.678 9.41036   4
  -2  -1  18 139.519 7.57208   1
  -2  -1  18 130.616 8.37666   3
   2  -1 -18 135.472 9.41208   5
  -2   1  18 141.041 8.66300   3
   2   1 -18 133.273 9.32036   5
  -2   1  18 133.691 9.03837   4
  -2   1  18 143.444 6.56047   6
   1  -1 -18 30.3096 5.56242   5
  -1  -1  18 27.4193 4.55445   4
  -1  -1  18 34.4061 3.96962   6
  -1  -1  18 32.5668 4.79647   3
  -1  -1  18 25.8194 3.57127   1
  -1   1  18 29.7657 4.64201   3
   1   1 -18 28.7104 5.10699   5
  -1   1  18 29.0796 3.12743   6
  -1   1  18 20.6237 4.38301   4
   0  -1  18 5.68926 2.20060   6
   0  -1  18 7.95990 2.78609   4
   0  -1  18 9.53622 2.99302   3
   0   1  18 8.18412 1.94074   6
   0   1  18 8.93941 2.94815   3
   0   1  18 7.26085 2.94187   4
   1  -1  18 35.9333 4.53869   6
   1  -1  18 29.3042 4.12806   4
   1  -1  18 39.1627 5.41646   3
   1   1  18 33.0811 4.65741   3
   1   1  18 25.1745 3.30901   6
   1   1  18 26.6177 3.91909   4
  -2  -2  18 0.48028 1.74872   6
  -2  -2  18 -0.9743 2.38350   4
   2  -2 -18 3.27258 3.16974   5
  -2  -2  18 1.84115 2.09574   1
  -2  -2  18 1.30448 1.87688   3
   2   2 -18 3.09627 2.82108   5
  -2   2  18 2.03332 1.45384   6
  -2   2  18 -0.0211 2.07004   3
  -2   2  18 2.33464 2.64819   4
  -1  -2  18 95.8758 6.17424   1
  -1  -2  18 89.2490 6.07085   6
  -1  -2  18 95.1082 6.95961   3
  -1  -2  18 91.5860 7.03430   4
   1   2 -18 99.6016 7.97560   5
  -1   2  18 98.7602 7.08231   3
  -1   2  18 85.0261 4.24258   6
  -1   2  18 96.8298 4.73703   6
  -1   2  18 84.6028 7.12325   4
   0  -2  18 145.283 8.40626   4
   0  -2  18 145.486 8.57969   3
   0  -2  18 138.102 7.80587   6
   0   2  18 147.152 5.86621   6
   0   2  18 140.070 8.37209   4
   0   2  18 157.194 8.89572   3
   0   2  18 139.122 5.52460   6
   1  -2  18 44.1344 5.33678   3
   1   2  18 49.3045 5.70721   3
  -1  -3  18 34.5116 5.08565   4
  -1  -3  18 28.7535 4.02895   1
  -1  -3  18 29.6969 4.29337   6
  -1  -3  18 26.5131 4.25392   3
  -1   3  18 28.5849 4.64378   3
  -1   3  18 22.9644 4.45657   4
   1   3 -18 37.4951 5.76410   5
   0  -3  18 17.6445 3.68776   3
   0  -3  18 20.8747 3.83606   6
   0  -3  18 12.8400 3.05307   4
   0   3  18 14.9505 3.39173   3
   0   3  18 18.6534 3.67315   4
  -1   0  19 6.70460 3.01435   4
  -1   0  19 5.32056 2.65285   3
   1   0 -19 5.91414 2.98860   5
  -1   0  19 5.13506 1.96289   6
   0   0  19 -0.2995 1.93409   4
   0   0  19 0.18349 1.71862   3
   0   0  19 2.23101 1.57304   6
   1  -1 -19 23.2860 4.81777   5
  -1  -1  19 17.2517 3.79110   3
  -1  -1  19 19.1474 4.13523   4
  -1  -1  19 21.2140 3.36464   6
  -1  -1  19 16.5320 2.99834   1
   1   1 -19 15.1751 4.18913   5
  -1   1  19 17.8450 2.58219   6
  -1   1  19 24.6591 4.66052   4
  -1   1  19 21.4664 4.23909   3
   0  -1  19 22.7240 3.50291   6
   0  -1  19 18.3120 3.70977   3
   0  -1  19 18.8057 3.81883   4
   0   1  19 22.7042 2.97293   6
   0   1  19 23.7408 4.21577   3
   0   1  19 20.9891 3.95202   4
   0   0   0    0.00    0.00   0

 _exptl_absorpt_process_details 'SADABS 2014/5'
 _exptl_absorpt_correction_type   multi-scan
 _exptl_absorpt_correction_T_max  0.0916
 _exptl_absorpt_correction_T_min  0.0691
 _exptl_special_details
)
 The following wavelength and cell were deduced by SADABS from the
 direction cosines etc. They are given here for emergency use only:
 CELL 0.71091    4.835    8.015   16.013   90.006   97.457   89.973
)
;
_shelx_hkl_checksum              77815
_shelx_shelxl_version_number     2014/7
_olex2_submission_special_instructions 'No special instructions were received'
loop_
_space_group_symop_operation_xyz
'x, y, z'
'-x, y+1/2, -z'
loop_
_atom_site_label
_atom_site_type_symbol
_atom_site_fract_x
_atom_site_fract_y
_atom_site_fract_z
_atom_site_U_iso_or_equiv
_atom_site_adp_type
_atom_site_occupancy
_atom_site_site_symmetry_order
_atom_site_calc_flag
_atom_site_refinement_flags_posn
S1 S 0.45029(14) 0.60891(8) 0.64442(4) 0.02019(17) Uani 1 1 d .
O1 O 0.1231(3) 0.5979(3) 0.78125(10) 0.0194(4) Uani 1 1 d .
O2 O 0.5142(4) 0.2756(2) 0.89691(11) 0.0220(4) Uani 1 1 d D
H2 H 0.686(6) 0.231(5) 0.895(2) 0.060(12) Uiso 1 1 d D
O3 O 0.1277(4) 0.4593(2) 0.95311(11) 0.0209(4) Uani 1 1 d D
H3 H 0.096(8) 0.516(4) 1.0020(19) 0.053(11) Uiso 1 1 d D
O4 O 0.2588(4) 0.9470(3) 0.79117(11) 0.0239(4) Uani 1 1 d D
H4 H 0.362(8) 1.026(4) 0.767(2) 0.058(12) Uiso 1 1 d D
N1 N 0.6579(5) 0.5274(3) 0.58131(13) 0.0204(5) Uani 1 1 d .
N2 N 0.6005(5) 0.1458(3) 0.70180(13) 0.0193(5) Uani 1 1 d .
N3 N 0.9028(4) 0.0962(3) 0.59517(12) 0.0201(5) Uani 1 1 d .
N4 N 1.0170(5) 0.2964(3) 0.50271(14) 0.0210(5) Uani 1 1 d D
H4A H 1.002(7) 0.400(3) 0.477(2) 0.038(10) Uiso 1 1 d D
H4B H 1.123(6) 0.215(4) 0.480(2) 0.033(9) Uiso 1 1 d D
C1 C 0.2733(6) 0.4422(4) 0.78105(15) 0.0181(6) Uani 1 1 d .
H1 H 0.1393 0.3467 0.7803 0.022 Uiso 1 1 calc R
C2 C 0.4802(6) 0.4375(4) 0.86334(16) 0.0193(6) Uani 1 1 d .
H2A H 0.6653 0.4842 0.8532 0.023 Uiso 1 1 calc R
C3 C 0.3404(6) 0.5534(3) 0.92061(16) 0.0180(6) Uani 1 1 d .
H3A H 0.4777 0.6012 0.9666 0.022 Uiso 1 1 calc R
C4 C 0.2162(6) 0.6871(4) 0.85946(15) 0.0183(6) Uani 1 1 d .
H4C H 0.0494 0.7367 0.8814 0.022 Uiso 1 1 calc R
C5 C 0.4145(6) 0.8261(4) 0.84359(17) 0.0204(6) Uani 1 1 d .
H5A H 0.4947 0.8777 0.8976 0.025 Uiso 1 1 calc R
H5B H 0.5697 0.7816 0.8152 0.025 Uiso 1 1 calc R
C6 C 0.4201(5) 0.4357(3) 0.70406(15) 0.0178(6) Uani 1 1 d .
C7 C 0.5727(6) 0.3087(3) 0.67288(15) 0.0180(6) Uani 1 1 d .
C8 C 0.7032(6) 0.3682(3) 0.60417(16) 0.0178(6) Uani 1 1 d .
C9 C 0.8784(6) 0.2532(3) 0.56570(16) 0.0186(6) Uani 1 1 d .
C10 C 0.7620(6) 0.0538(3) 0.66059(16) 0.0209(6) Uani 1 1 d .
H10 H 0.7842 -0.0588 0.6790 0.025 Uiso 1 1 calc R
O1S O 1.0031(4) 0.1173(3) 0.90692(11) 0.0227(4) Uani 1 1 d D
H1SA H 1.073(10) 0.067(5) 0.864(2) 0.078(15) Uiso 1 1 d D
H1SB H 1.121(7) 0.197(4) 0.923(2) 0.045(11) Uiso 1 1 d D
loop_
_atom_site_aniso_label
_atom_site_aniso_U_11
_atom_site_aniso_U_22
_atom_site_aniso_U_33
_atom_site_aniso_U_23
_atom_site_aniso_U_13
_atom_site_aniso_U_12
S1 0.0255(4) 0.0178(3) 0.0180(3) 0.0019(3) 0.0059(2) 0.0021(3)
O1 0.0206(9) 0.0196(9) 0.0177(8) -0.0019(9) 0.0012(7) 0.0035(9)
O2 0.0238(11) 0.0182(10) 0.0248(10) 0.0048(8) 0.0057(8) 0.0056(8)
O3 0.0252(11) 0.0206(10) 0.0183(9) -0.0008(8) 0.0087(8) -0.0016(9)
O4 0.0266(11) 0.0199(10) 0.0262(10) 0.0067(8) 0.0068(8) 0.0019(9)
N1 0.0240(13) 0.0188(12) 0.0192(11) 0.0008(9) 0.0056(9) -0.0002(10)
N2 0.0234(13) 0.0180(14) 0.0173(10) 0.0016(8) 0.0055(9) -0.0002(9)
N3 0.0244(12) 0.0193(12) 0.0171(9) 0.0003(10) 0.0041(8) 0.0017(11)
N4 0.0276(14) 0.0172(13) 0.0196(11) -0.0010(10) 0.0084(10) 0.0003(11)
C1 0.0187(14) 0.0164(13) 0.0199(13) 0.0007(11) 0.0047(10) 0.0019(11)
C2 0.0212(14) 0.0196(14) 0.0175(12) 0.0014(11) 0.0034(11) 0.0006(12)
C3 0.0192(14) 0.0166(14) 0.0188(12) -0.0015(10) 0.0052(11) -0.0028(10)
C4 0.0189(14) 0.0207(13) 0.0160(12) -0.0027(10) 0.0044(11) 0.0006(11)
C5 0.0203(15) 0.0207(14) 0.0210(13) 0.0016(11) 0.0054(11) 0.0001(12)
C6 0.0187(14) 0.0181(14) 0.0165(12) 0.0005(10) 0.0013(10) -0.0015(11)
C7 0.0202(15) 0.0180(14) 0.0154(12) 0.0008(10) 0.0003(11) -0.0019(11)
C8 0.0184(15) 0.0186(15) 0.0158(12) -0.0004(10) 0.0004(10) -0.0026(11)
C9 0.0185(14) 0.0209(15) 0.0158(12) -0.0031(11) 0.0005(11) -0.0022(11)
C10 0.0265(15) 0.0167(14) 0.0195(12) 0.0015(10) 0.0029(11) 0.0002(11)
O1S 0.0243(10) 0.0192(10) 0.0256(9) 0.0023(10) 0.0076(7) -0.0005(10)
loop_
_atom_type_symbol
_atom_type_description
_atom_type_scat_dispersion_real
_atom_type_scat_dispersion_imag
_atom_type_scat_source
C C 0.0033 0.0016 'International Tables Vol C Tables 4.2.6.8 and 6.1.1.4'
H H 0.0000 0.0000 'International Tables Vol C Tables 4.2.6.8 and 6.1.1.4'
N N 0.0061 0.0033 'International Tables Vol C Tables 4.2.6.8 and 6.1.1.4'
O O 0.0106 0.0060 'International Tables Vol C Tables 4.2.6.8 and 6.1.1.4'
S S 0.1246 0.1234 'International Tables Vol C Tables 4.2.6.8 and 6.1.1.4'
loop_
_geom_angle_atom_site_label_1
_geom_angle_atom_site_label_2
_geom_angle_atom_site_label_3
_geom_angle
N1 S1 C6 97.12(12)
C1 O1 C4 109.01(19)
C2 O2 H2 114(3)
C3 O3 H3 105(2)
C5 O4 H4 116(3)
C8 N1 S1 107.54(19)
C10 N2 C7 113.6(2)
C9 N3 C10 118.2(2)
H4A N4 H4B 118(3)
C9 N4 H4A 123(2)
C9 N4 H4B 118(2)
O1 C1 H1 109.7
O1 C1 C2 106.7(2)
O1 C1 C6 108.8(2)
C2 C1 H1 109.7
C6 C1 H1 109.7
C6 C1 C2 112.2(2)
O2 C2 C1 112.2(2)
O2 C2 H2A 110.1
O2 C2 C3 111.8(2)
C1 C2 H2A 110.1
C3 C2 C1 102.1(2)
C3 C2 H2A 110.1
O3 C3 C2 107.1(2)
O3 C3 H3A 111.9
O3 C3 C4 111.4(2)
C2 C3 H3A 111.9
C4 C3 C2 102.1(2)
C4 C3 H3A 111.9
O1 C4 C3 105.0(2)
O1 C4 H4C 108.8
O1 C4 C5 110.3(2)
C3 C4 H4C 108.8
C5 C4 C3 114.9(2)
C5 C4 H4C 108.8
O4 C5 C4 107.6(2)
O4 C5 H5A 110.2
O4 C5 H5B 110.2
C4 C5 H5A 110.2
C4 C5 H5B 110.2
H5A C5 H5B 108.5
C1 C6 S1 121.1(2)
C7 C6 S1 107.97(19)
C7 C6 C1 130.6(2)
N2 C7 C6 127.2(2)
N2 C7 C8 122.8(2)
C6 C7 C8 110.0(2)
N1 C8 C7 117.3(2)
N1 C8 C9 125.3(3)
C7 C8 C9 117.4(2)
N3 C9 C8 118.6(2)
N4 C9 N3 118.8(3)
N4 C9 C8 122.7(3)
N2 C10 N3 129.4(2)
N2 C10 H10 115.3
N3 C10 H10 115.3
H1SA O1S H1SB 105(4)
loop_
_geom_bond_atom_site_label_1
_geom_bond_atom_site_label_2
_geom_bond_distance
S1 N1 1.646(2)
S1 C6 1.699(3)
O1 C1 1.442(3)
O1 C4 1.460(3)
O2 H2 0.91(2)
O2 C2 1.404(3)
O3 H3 0.94(2)
O3 C3 1.424(3)
O4 H4 0.92(2)
O4 C5 1.429(3)
N1 C8 1.335(3)
N2 C7 1.384(3)
N2 C10 1.310(3)
N3 C9 1.342(4)
N3 C10 1.362(3)
N4 H4A 0.92(2)
N4 H4B 0.93(2)
N4 C9 1.325(3)
C1 H1 1.0000
C1 C2 1.546(4)
C1 C6 1.499(3)
C2 H2A 1.0000
C2 C3 1.521(4)
C3 H3A 1.0000
C3 C4 1.519(4)
C4 H4C 1.0000
C4 C5 1.509(4)
C5 H5A 0.9900
C5 H5B 0.9900
C6 C7 1.385(4)
C7 C8 1.418(4)
C8 C9 1.440(4)
C10 H10 0.9500
O1S H1SA 0.90(3)
O1S H1SB 0.87(2)
loop_
_geom_hbond_atom_site_label_D
_geom_hbond_atom_site_label_H
_geom_hbond_atom_site_label_A
_geom_hbond_distance_DH
_geom_hbond_distance_HA
_geom_hbond_distance_DA
_geom_hbond_angle_DHA
_geom_hbond_site_symmetry_A
O2 H2 O1S 0.91(2) 1.77(3) 2.663(3) 168(4) .
O3 H3 O1S 0.94(2) 1.78(3) 2.716(3) 174(4) 2_657
O4 H4 N2 0.92(2) 1.91(3) 2.811(3) 166(4) 1_565
N4 H4A N3 0.92(2) 2.04(3) 2.918(3) 159(3) 2_756
O1S H1SA O4 0.90(3) 1.83(3) 2.720(3) 170(4) 1_645
O1S H1SB O2 0.87(2) 2.09(3) 2.794(3) 138(3) 1_655
O1S H1SB O3 0.87(2) 2.16(3) 2.878(3) 140(3) 1_655
